# generated using pymatgen
data_TaPO5
_symmetry_space_group_name_H-M   'P 1'
_cell_length_a   4.08810527
_cell_length_b   6.49256798
_cell_length_c   6.49256798
_cell_angle_alpha   90.00000000
_cell_angle_beta   90.00000000
_cell_angle_gamma   90.00000000
_symmetry_Int_Tables_number   1
_chemical_formula_structural   TaPO5
_chemical_formula_sum   'Ta2 P2 O10'
_cell_volume   172.32769602
_cell_formula_units_Z   2
loop_
 _symmetry_equiv_pos_site_id
 _symmetry_equiv_pos_as_xyz
  1  'x, y, z'
loop_
 _atom_site_type_symbol
 _atom_site_label
 _atom_site_symmetry_multiplicity
 _atom_site_fract_x
 _atom_site_fract_y
 _atom_site_fract_z
 _atom_site_occupancy
  Ta  Ta0  1  0.76464649  0.00000000  0.50000000  1
  Ta  Ta1  1  0.23535351  0.50000000  0.00000000  1
  P  P2  1  0.50000000  0.50000000  0.50000000  1
  P  P3  1  0.50000000  0.00000000  -0.00000000  1
  O  O4  1  0.20777068  -0.00000000  0.50000000  1
  O  O5  1  0.79222932  0.50000000  0.00000000  1
  O  O6  1  0.71229601  0.69457116  0.48103761  1
  O  O7  1  0.71229601  0.30542884  0.51896239  1
  O  O8  1  0.28770399  0.19457116  0.98103761  1
  O  O9  1  0.28770399  0.80542884  0.01896239  1
  O  O10  1  0.28770399  0.48103761  0.30542884  1
  O  O11  1  0.28770399  0.51896239  0.69457116  1
  O  O12  1  0.71229601  0.98103761  0.80542884  1
  O  O13  1  0.71229601  0.01896239  0.19457116  1
