# generated using pymatgen
data_Cr5NiSn12
_symmetry_space_group_name_H-M   'P 1'
_cell_length_a   5.51515499
_cell_length_b   5.51515584
_cell_length_c   13.65167777
_cell_angle_alpha   90.00000000
_cell_angle_beta   90.00000000
_cell_angle_gamma   60.23979813
_symmetry_Int_Tables_number   1
_chemical_formula_structural   Cr5NiSn12
_chemical_formula_sum   'Cr5 Ni1 Sn12'
_cell_volume   360.47613769
_cell_formula_units_Z   1
loop_
 _symmetry_equiv_pos_site_id
 _symmetry_equiv_pos_as_xyz
  1  'x, y, z'
loop_
 _atom_site_type_symbol
 _atom_site_label
 _atom_site_symmetry_multiplicity
 _atom_site_fract_x
 _atom_site_fract_y
 _atom_site_fract_z
 _atom_site_occupancy
  Cr  Cr0  1  -0.00000000  0.00000000  0.16435861  1
  Cr  Cr1  1  -0.00000000  0.00000000  0.50230839  1
  Cr  Cr2  1  0.50000000  0.00000000  0.16636778  1
  Cr  Cr3  1  -0.00000000  0.50000000  0.50029922  1
  Cr  Cr4  1  0.50000000  0.50000000  0.83333300  1
  Ni  Ni5  1  -0.00000000  0.00000000  0.83333300  1
  Sn  Sn6  1  0.16817988  0.66946298  0.66863601  1
  Sn  Sn7  1  0.66946298  0.16817988  0.99803099  1
  Sn  Sn8  1  0.16569356  0.16569356  0.33333300  1
  Sn  Sn9  1  0.83182012  0.33053702  0.66863601  1
  Sn  Sn10  1  0.33053702  0.83182012  0.99803099  1
  Sn  Sn11  1  0.83430644  0.83430644  0.33333300  1
  Sn  Sn12  1  0.50000000  0.00000000  0.77909647  1
  Sn  Sn13  1  -0.00000000  0.50000000  0.11041807  1
  Sn  Sn14  1  0.50000000  0.50000000  0.44391713  1
  Sn  Sn15  1  0.50000000  0.00000000  0.55624893  1
  Sn  Sn16  1  0.50000000  0.50000000  0.22274887  1
  Sn  Sn17  1  -0.00000000  0.50000000  0.88757053  1
