# generated using pymatgen
data_Cs2RbBiI6
_symmetry_space_group_name_H-M   'P 1'
_cell_length_a   9.30351813
_cell_length_b   9.30351874
_cell_length_c   9.30351871
_cell_angle_alpha   59.99999828
_cell_angle_beta   59.99999750
_cell_angle_gamma   59.99999764
_symmetry_Int_Tables_number   1
_chemical_formula_structural   Cs2RbBiI6
_chemical_formula_sum   'Cs2 Rb1 Bi1 I6'
_cell_volume   569.41205999
_cell_formula_units_Z   1
loop_
 _symmetry_equiv_pos_site_id
 _symmetry_equiv_pos_as_xyz
  1  'x, y, z'
loop_
 _atom_site_type_symbol
 _atom_site_label
 _atom_site_symmetry_multiplicity
 _atom_site_fract_x
 _atom_site_fract_y
 _atom_site_fract_z
 _atom_site_occupancy
  Cs  Cs0  1  0.25000000  0.25000000  0.25000000  1
  Cs  Cs1  1  0.75000000  0.75000000  0.75000000  1
  Rb  Rb2  1  0.50000000  0.50000000  0.50000000  1
  Bi  Bi3  1  0.00000000  -0.00000000  -0.00000000  1
  I  I4  1  0.23433549  0.76566451  0.23433549  1
  I  I5  1  0.76566451  0.76566451  0.23433549  1
  I  I6  1  0.76566451  0.23433549  0.76566451  1
  I  I7  1  0.76566451  0.23433549  0.23433549  1
  I  I8  1  0.23433549  0.76566451  0.76566451  1
  I  I9  1  0.23433549  0.23433549  0.76566451  1
