# generated using pymatgen
data_CaMg6Sn
_symmetry_space_group_name_H-M   'P 1'
_cell_length_a   6.63544700
_cell_length_b   6.63544641
_cell_length_c   5.16889748
_cell_angle_alpha   90.00000000
_cell_angle_beta   90.00000000
_cell_angle_gamma   119.18220293
_symmetry_Int_Tables_number   1
_chemical_formula_structural   CaMg6Sn
_chemical_formula_sum   'Ca1 Mg6 Sn1'
_cell_volume   198.69598495
_cell_formula_units_Z   1
loop_
 _symmetry_equiv_pos_site_id
 _symmetry_equiv_pos_as_xyz
  1  'x, y, z'
loop_
 _atom_site_type_symbol
 _atom_site_label
 _atom_site_symmetry_multiplicity
 _atom_site_fract_x
 _atom_site_fract_y
 _atom_site_fract_z
 _atom_site_occupancy
  Ca  Ca0  1  0.17004190  0.32995810  0.25000000  1
  Mg  Mg1  1  0.16911745  0.83032014  0.25000000  1
  Mg  Mg2  1  0.66967986  0.33088255  0.25000000  1
  Mg  Mg3  1  0.66359718  0.83640282  0.25000000  1
  Mg  Mg4  1  0.34037903  0.68088391  0.75000000  1
  Mg  Mg5  1  0.81911609  0.15962097  0.75000000  1
  Mg  Mg6  1  0.83294624  0.66705376  0.75000000  1
  Sn  Sn7  1  0.33512224  0.16487776  0.75000000  1
