# generated using pymatgen
data_Cr12As5C
_symmetry_space_group_name_H-M   'P 1'
_cell_length_a   3.21866592
_cell_length_b   6.45439690
_cell_length_c   11.18142352
_cell_angle_alpha   89.99999706
_cell_angle_beta   90.00000000
_cell_angle_gamma   90.00000000
_symmetry_Int_Tables_number   1
_chemical_formula_structural   Cr12As5C
_chemical_formula_sum   'Cr12 As5 C1'
_cell_volume   232.28901230
_cell_formula_units_Z   1
loop_
 _symmetry_equiv_pos_site_id
 _symmetry_equiv_pos_as_xyz
  1  'x, y, z'
loop_
 _atom_site_type_symbol
 _atom_site_label
 _atom_site_symmetry_multiplicity
 _atom_site_fract_x
 _atom_site_fract_y
 _atom_site_fract_z
 _atom_site_occupancy
  Cr  Cr0  1  0.00000000  0.72756121  0.50000000  1
  Cr  Cr1  1  0.00000000  0.26465457  1.00000000  1
  Cr  Cr2  1  -0.00000000  0.38635959  0.38945007  1
  Cr  Cr3  1  0.00000000  0.86922578  0.86344921  1
  Cr  Cr4  1  -0.00000000  0.86922578  0.13655079  1
  Cr  Cr5  1  0.00000000  0.38635959  0.61054993  1
  Cr  Cr6  1  0.50000000  0.12979321  0.50000000  1
  Cr  Cr7  1  0.50000000  0.59950402  1.00000000  1
  Cr  Cr8  1  0.50000000  0.20412182  0.20570352  1
  Cr  Cr9  1  0.50000000  0.67881995  0.67840639  1
  Cr  Cr10  1  0.50000000  0.67881995  0.32159361  1
  Cr  Cr11  1  0.50000000  0.20412182  0.79429648  1
  As  As12  1  -0.00000000  0.99847531  0.33995641  1
  As  As13  1  -0.00000000  0.50184140  0.82676541  1
  As  As14  1  0.00000000  0.50184140  0.17323459  1
  As  As15  1  -0.00000000  0.99847531  0.66004359  1
  As  As16  1  0.50000000  0.99733724  0.00000000  1
  C  C17  1  0.50000000  0.50326206  0.50000000  1
