# generated using pymatgen
data_UB2C
_symmetry_space_group_name_H-M   'P 1'
_cell_length_a   5.19551865
_cell_length_b   5.19551865
_cell_length_c   5.19551864
_cell_angle_alpha   78.11205948
_cell_angle_beta   78.11205954
_cell_angle_gamma   78.11205951
_symmetry_Int_Tables_number   1
_chemical_formula_structural   UB2C
_chemical_formula_sum   'U3 B6 C3'
_cell_volume   132.31984962
_cell_formula_units_Z   3
loop_
 _symmetry_equiv_pos_site_id
 _symmetry_equiv_pos_as_xyz
  1  'x, y, z'
loop_
 _atom_site_type_symbol
 _atom_site_label
 _atom_site_symmetry_multiplicity
 _atom_site_fract_x
 _atom_site_fract_y
 _atom_site_fract_z
 _atom_site_occupancy
  B  B0  1  0.22894662  0.77105338  0.50000000  1
  B  B1  1  0.50000000  0.22894662  0.77105338  1
  B  B2  1  0.77105338  0.50000000  0.22894662  1
  B  B3  1  0.77105338  0.22894662  0.50000000  1
  B  B4  1  0.50000000  0.77105338  0.22894662  1
  B  B5  1  0.22894662  0.50000000  0.77105338  1
  C  C6  1  0.00000000  0.50000000  0.00000000  1
  C  C7  1  0.50000000  0.00000000  0.00000000  1
  C  C8  1  0.00000000  0.00000000  0.50000000  1
  U  U9  1  0.68975435  0.68975435  0.68975435  1
  U  U10  1  0.31024565  0.31024565  0.31024565  1
  U  U11  1  0.00000000  0.00000000  0.00000000  1
