# generated using pymatgen
data_LiTi2BiO6
_symmetry_space_group_name_H-M   'P 1'
_cell_length_a   11.14831348
_cell_length_b   11.14831314
_cell_length_c   11.14831410
_cell_angle_alpha   58.15425714
_cell_angle_beta   58.15426130
_cell_angle_gamma   58.15425745
_symmetry_Int_Tables_number   1
_chemical_formula_structural   LiTi2BiO6
_chemical_formula_sum   'Li8 Ti16 Bi8 O48'
_cell_volume   938.29693430
_cell_formula_units_Z   8
loop_
 _symmetry_equiv_pos_site_id
 _symmetry_equiv_pos_as_xyz
  1  'x, y, z'
loop_
 _atom_site_type_symbol
 _atom_site_label
 _atom_site_symmetry_multiplicity
 _atom_site_fract_x
 _atom_site_fract_y
 _atom_site_fract_z
 _atom_site_occupancy
  Li  Li0  1  0.14873080  0.14873080  0.14873080  1
  Li  Li1  1  0.14873080  0.14873080  0.64873080  1
  Li  Li2  1  0.14873080  0.64873080  0.14873080  1
  Li  Li3  1  0.14873080  0.64873080  0.64873080  1
  Li  Li4  1  0.64873080  0.14873080  0.14873080  1
  Li  Li5  1  0.64873080  0.14873080  0.64873080  1
  Li  Li6  1  0.64873080  0.64873080  0.14873080  1
  Li  Li7  1  0.64873080  0.64873080  0.64873080  1
  Ti  Ti8  1  0.00681876  0.00681876  0.00681876  1
  Ti  Ti9  1  0.00681876  0.00681876  0.50681876  1
  Ti  Ti10  1  0.00681876  0.50681876  0.00681876  1
  Ti  Ti11  1  0.00681876  0.50681876  0.50681876  1
  Ti  Ti12  1  0.50681876  0.00681876  0.00681876  1
  Ti  Ti13  1  0.50681876  0.00681876  0.50681876  1
  Ti  Ti14  1  0.50681876  0.50681876  0.00681876  1
  Ti  Ti15  1  0.50681876  0.50681876  0.50681876  1
  Ti  Ti16  1  0.25701789  0.25701789  0.25701789  1
  Ti  Ti17  1  0.25701789  0.25701789  0.75701789  1
  Ti  Ti18  1  0.25701789  0.75701789  0.25701789  1
  Ti  Ti19  1  0.25701789  0.75701789  0.75701789  1
  Ti  Ti20  1  0.75701789  0.25701789  0.25701789  1
  Ti  Ti21  1  0.75701789  0.25701789  0.75701789  1
  Ti  Ti22  1  0.75701789  0.75701789  0.25701789  1
  Ti  Ti23  1  0.75701789  0.75701789  0.75701789  1
  Bi  Bi24  1  0.39195794  0.39195794  0.39195794  1
  Bi  Bi25  1  0.39195794  0.39195794  0.89195794  1
  Bi  Bi26  1  0.39195794  0.89195794  0.39195794  1
  Bi  Bi27  1  0.39195794  0.89195794  0.89195794  1
  Bi  Bi28  1  0.89195794  0.39195794  0.39195794  1
  Bi  Bi29  1  0.89195794  0.39195794  0.89195794  1
  Bi  Bi30  1  0.89195794  0.89195794  0.39195794  1
  Bi  Bi31  1  0.89195794  0.89195794  0.89195794  1
  O  O32  1  0.08875984  0.15834590  0.36832900  1
  O  O33  1  0.08875984  0.15834590  0.86832900  1
  O  O34  1  0.08875984  0.65834590  0.36832900  1
  O  O35  1  0.08875984  0.65834590  0.86832900  1
  O  O36  1  0.58875984  0.15834590  0.36832900  1
  O  O37  1  0.58875984  0.15834590  0.86832900  1
  O  O38  1  0.58875984  0.65834590  0.36832900  1
  O  O39  1  0.58875984  0.65834590  0.86832900  1
  O  O40  1  0.15834590  0.36832900  0.08875984  1
  O  O41  1  0.15834590  0.36832900  0.58875984  1
  O  O42  1  0.15834590  0.86832900  0.08875984  1
  O  O43  1  0.15834590  0.86832900  0.58875984  1
  O  O44  1  0.65834590  0.36832900  0.08875984  1
  O  O45  1  0.65834590  0.36832900  0.58875984  1
  O  O46  1  0.65834590  0.86832900  0.08875984  1
  O  O47  1  0.65834590  0.86832900  0.58875984  1
  O  O48  1  0.36832900  0.08875984  0.15834590  1
  O  O49  1  0.36832900  0.08875984  0.65834590  1
  O  O50  1  0.36832900  0.58875984  0.15834590  1
  O  O51  1  0.36832900  0.58875984  0.65834590  1
  O  O52  1  0.86832900  0.08875984  0.15834590  1
  O  O53  1  0.86832900  0.08875984  0.65834590  1
  O  O54  1  0.86832900  0.58875984  0.15834590  1
  O  O55  1  0.86832900  0.58875984  0.65834590  1
  O  O56  1  0.11684926  0.41863323  0.32745739  1
  O  O57  1  0.11684926  0.41863323  0.82745739  1
  O  O58  1  0.11684926  0.91863323  0.32745739  1
  O  O59  1  0.11684926  0.91863323  0.82745739  1
  O  O60  1  0.61684926  0.41863323  0.32745739  1
  O  O61  1  0.61684926  0.41863323  0.82745739  1
  O  O62  1  0.61684926  0.91863323  0.32745739  1
  O  O63  1  0.61684926  0.91863323  0.82745739  1
  O  O64  1  0.32745739  0.11684926  0.41863323  1
  O  O65  1  0.32745739  0.11684926  0.91863323  1
  O  O66  1  0.32745739  0.61684926  0.41863323  1
  O  O67  1  0.32745739  0.61684926  0.91863323  1
  O  O68  1  0.82745739  0.11684926  0.41863323  1
  O  O69  1  0.82745739  0.11684926  0.91863323  1
  O  O70  1  0.82745739  0.61684926  0.41863323  1
  O  O71  1  0.82745739  0.61684926  0.91863323  1
  O  O72  1  0.41863323  0.32745739  0.11684926  1
  O  O73  1  0.41863323  0.32745739  0.61684926  1
  O  O74  1  0.41863323  0.82745739  0.11684926  1
  O  O75  1  0.41863323  0.82745739  0.61684926  1
  O  O76  1  0.91863323  0.32745739  0.11684926  1
  O  O77  1  0.91863323  0.32745739  0.61684926  1
  O  O78  1  0.91863323  0.82745739  0.11684926  1
  O  O79  1  0.91863323  0.82745739  0.61684926  1
