# generated using pymatgen
data_Li3Mn2CoO6
_symmetry_space_group_name_H-M   'P 1'
_cell_length_a   2.87164438
_cell_length_b   7.83242352
_cell_length_c   5.36161968
_cell_angle_alpha   105.63612184
_cell_angle_beta   90.00000000
_cell_angle_gamma   100.56306884
_symmetry_Int_Tables_number   1
_chemical_formula_structural   Li3Mn2CoO6
_chemical_formula_sum   'Li3 Mn2 Co1 O6'
_cell_volume   114.00681275
_cell_formula_units_Z   1
loop_
 _symmetry_equiv_pos_site_id
 _symmetry_equiv_pos_as_xyz
  1  'x, y, z'
loop_
 _atom_site_type_symbol
 _atom_site_label
 _atom_site_symmetry_multiplicity
 _atom_site_fract_x
 _atom_site_fract_y
 _atom_site_fract_z
 _atom_site_occupancy
  Li  Li0  1  0.50000000  -0.00000000  0.50000000  1
  Li  Li1  1  0.16543139  0.33086177  0.83463556  1
  Li  Li2  1  0.83456861  0.66913823  0.16536444  1
  Mn  Mn3  1  0.66549946  0.33099793  0.31771607  1
  Mn  Mn4  1  0.33450054  0.66900207  0.68228393  1
  Co  Co5  1  -0.00000000  -0.00000000  -0.00000000  1
  O  O6  1  0.42366280  0.84732559  0.09622529  1
  O  O7  1  0.08746411  0.17492721  0.38326874  1
  O  O8  1  0.75655841  0.51311783  0.74738067  1
  O  O9  1  0.57633720  0.15267441  0.90377471  1
  O  O10  1  0.24344159  0.48688217  0.25261933  1
  O  O11  1  0.91253589  0.82507279  0.61673126  1
