# generated using pymatgen
data_Li2MnCoO4
_symmetry_space_group_name_H-M   'P 1'
_cell_length_a   3.05399601
_cell_length_b   6.04455229
_cell_length_c   8.11596408
_cell_angle_alpha   89.57394758
_cell_angle_beta   88.80919712
_cell_angle_gamma   96.18465195
_symmetry_Int_Tables_number   1
_chemical_formula_structural   Li2MnCoO4
_chemical_formula_sum   'Li4 Mn2 Co2 O8'
_cell_volume   148.90980772
_cell_formula_units_Z   2
loop_
 _symmetry_equiv_pos_site_id
 _symmetry_equiv_pos_as_xyz
  1  'x, y, z'
loop_
 _atom_site_type_symbol
 _atom_site_label
 _atom_site_symmetry_multiplicity
 _atom_site_fract_x
 _atom_site_fract_y
 _atom_site_fract_z
 _atom_site_occupancy
  Li  Li0  1  0.00003628  0.50160350  0.00195653  1
  Li  Li1  1  0.49996372  0.24839650  0.24804347  1
  Li  Li2  1  0.50004237  0.75121348  0.75185677  1
  Li  Li3  1  -0.00004237  0.99878652  0.49814323  1
  Mn  Mn4  1  0.99963413  0.50361499  0.49764005  1
  Mn  Mn5  1  0.50036587  0.24638501  0.75235995  1
  Co  Co6  1  0.00135463  0.99723569  0.00169794  1
  Co  Co7  1  0.49864537  0.75276431  0.24830206  1
  O  O8  1  0.47559725  0.23498058  0.99332912  1
  O  O9  1  0.97705636  0.98562001  0.23676865  1
  O  O10  1  0.97489112  0.49304241  0.74103287  1
  O  O11  1  0.47918184  0.74534109  0.48597193  1
  O  O12  1  0.52294364  0.76437999  0.01323135  1
  O  O13  1  0.02440275  0.51501942  0.25667088  1
  O  O14  1  0.02081816  0.00465891  0.76402807  1
  O  O15  1  0.52510888  0.25695759  0.50896713  1
