# generated using pymatgen
data_CrRu
_symmetry_space_group_name_H-M   'P 1'
_cell_length_a   2.66374804
_cell_length_b   2.66388430
_cell_length_c   4.21801396
_cell_angle_alpha   90.00000000
_cell_angle_beta   90.00000000
_cell_angle_gamma   59.99829326
_symmetry_Int_Tables_number   1
_chemical_formula_structural   CrRu
_chemical_formula_sum   'Cr1 Ru1'
_cell_volume   25.92027926
_cell_formula_units_Z   1
loop_
 _symmetry_equiv_pos_site_id
 _symmetry_equiv_pos_as_xyz
  1  'x, y, z'
loop_
 _atom_site_type_symbol
 _atom_site_label
 _atom_site_symmetry_multiplicity
 _atom_site_fract_x
 _atom_site_fract_y
 _atom_site_fract_z
 _atom_site_occupancy
  Cr  Cr0  1  0.33338314  0.33330843  0.75000000  1
  Ru  Ru1  1  0.66661686  0.66669157  0.25000000  1
