# generated using pymatgen
data_Nb2SiTe4
_symmetry_space_group_name_H-M   'P 1'
_cell_length_a   6.89508545
_cell_length_b   3.56597724
_cell_length_c   8.83989749
_cell_angle_alpha   110.63691914
_cell_angle_beta   75.05519229
_cell_angle_gamma   89.96239542
_symmetry_Int_Tables_number   1
_chemical_formula_structural   Nb2SiTe4
_chemical_formula_sum   'Nb2 Si1 Te4'
_cell_volume   195.51573495
_cell_formula_units_Z   1
loop_
 _symmetry_equiv_pos_site_id
 _symmetry_equiv_pos_as_xyz
  1  'x, y, z'
loop_
 _atom_site_type_symbol
 _atom_site_label
 _atom_site_symmetry_multiplicity
 _atom_site_fract_x
 _atom_site_fract_y
 _atom_site_fract_z
 _atom_site_occupancy
  Nb  Nb0  1  0.21061379  0.49220739  0.99987586  1
  Nb  Nb1  1  0.78879658  0.49272640  0.99968863  1
  Si  Si2  1  0.50003616  0.99176750  0.99942908  1
  Te  Te3  1  0.07393901  0.79989712  0.77776553  1
  Te  Te4  1  0.41038064  0.73090259  0.27172604  1
  Te  Te5  1  0.59010611  0.25390558  0.72765499  1
  Te  Te6  1  0.92612771  0.18539342  0.22185987  1
