# generated using pymatgen
data_Na2(BiO2)21
_symmetry_space_group_name_H-M   'P 1'
_cell_length_a   7.80431095
_cell_length_b   23.75419449
_cell_length_c   13.71562679
_cell_angle_alpha   29.99177121
_cell_angle_beta   54.18076268
_cell_angle_gamma   59.54469770
_symmetry_Int_Tables_number   1
_chemical_formula_structural   Na2(BiO2)21
_chemical_formula_sum   'Na2 Bi21 O42'
_cell_volume   1030.62888478
_cell_formula_units_Z   1
loop_
 _symmetry_equiv_pos_site_id
 _symmetry_equiv_pos_as_xyz
  1  'x, y, z'
loop_
 _atom_site_type_symbol
 _atom_site_label
 _atom_site_symmetry_multiplicity
 _atom_site_fract_x
 _atom_site_fract_y
 _atom_site_fract_z
 _atom_site_occupancy
  Na  Na0  1  0.00000000  0.33281881  0.50077129  1
  Na  Na1  1  1.00000000  0.66718119  0.49922871  1
  Bi  Bi2  1  -0.00000000  -0.00000000  0.00000000  1
  Bi  Bi3  1  0.99820870  0.16581228  0.00106208  1
  Bi  Bi4  1  0.50000000  -0.00000000  0.00000000  1
  Bi  Bi5  1  1.00000000  0.33341677  0.99987434  1
  Bi  Bi6  1  0.00179130  0.16581228  0.50150208  1
  Bi  Bi7  1  -0.00000000  0.50000000  0.00000000  1
  Bi  Bi8  1  0.50000000  0.33394043  0.99908885  1
  Bi  Bi9  1  0.00000000  0.66658323  0.00012566  1
  Bi  Bi10  1  0.50000000  -0.00000000  0.50000000  1
  Bi  Bi11  1  0.51107342  0.16641305  0.49520985  1
  Bi  Bi12  1  -0.00000000  0.50000000  0.50000000  1
  Bi  Bi13  1  0.00179130  0.83418772  0.99893792  1
  Bi  Bi14  1  0.50000000  0.66605957  0.00091115  1
  Bi  Bi15  1  0.50000000  0.33378882  0.49931627  1
  Bi  Bi16  1  0.48892658  0.16641305  0.00555200  1
  Bi  Bi17  1  0.99820870  0.83418772  0.49849792  1
  Bi  Bi18  1  0.50000000  0.50000000  0.50000000  1
  Bi  Bi19  1  0.50000000  0.66621118  0.50068373  1
  Bi  Bi20  1  0.50000000  0.50000000  0.00000000  1
  Bi  Bi21  1  0.48892658  0.83358695  0.50479015  1
  Bi  Bi22  1  0.51107342  0.83358695  0.99444800  1
  O  O23  1  0.09048586  0.20434788  0.06031241  1
  O  O24  1  0.42939040  0.00000000  0.35532404  1
  O  O25  1  0.08743078  0.00000000  0.67444896  1
  O  O26  1  0.07856149  0.53038270  0.07943464  1
  O  O27  1  0.07843932  0.13530999  0.67265554  1
  O  O28  1  0.33604553  0.19073856  0.34026742  1
  O  O29  1  0.66395447  0.19073856  0.08751789  1
  O  O30  1  0.66456434  0.33274001  0.08926453  1
  O  O31  1  0.33638504  0.00000000  0.91403069  1
  O  O32  1  0.07904322  0.33299915  0.67174772  1
  O  O33  1  0.57060960  1.00000000  0.64467596  1
  O  O34  1  0.39939366  0.33557117  0.36460803  1
  O  O35  1  0.07856149  0.46961730  0.67058274  1
  O  O36  1  0.07843932  0.86469001  0.07858450  1
  O  O37  1  0.33529417  0.14044809  0.91435734  1
  O  O38  1  0.33535525  0.52262530  0.34259495  1
  O  O39  1  0.66470583  0.14044809  0.66429938  1
  O  O40  1  0.66464475  0.52262530  0.08952914  1
  O  O41  1  0.90951414  0.20434788  0.32664494  1
  O  O42  1  0.66456434  0.66725999  0.08748557  1
  O  O43  1  0.92095678  0.33299915  0.32925383  1
  O  O44  1  0.60060634  0.33557117  0.62867745  1
  O  O45  1  0.33543566  0.33274001  0.91251443  1
  O  O46  1  0.39939366  0.66442883  0.37132255  1
  O  O47  1  0.07904322  0.66700085  0.67074617  1
  O  O48  1  0.33535525  0.47737470  0.91047086  1
  O  O49  1  0.33529417  0.85955191  0.33570062  1
  O  O50  1  0.09048586  0.79565212  0.67335506  1
  O  O51  1  0.66464475  0.47737470  0.65740505  1
  O  O52  1  0.92156068  0.13530999  0.92141550  1
  O  O53  1  0.66470583  0.85955191  0.08564266  1
  O  O54  1  0.92143851  0.53038270  0.32941726  1
  O  O55  1  0.66361496  1.00000000  0.08596931  1
  O  O56  1  0.92095678  0.66700085  0.32825228  1
  O  O57  1  0.60060634  0.66442883  0.63539197  1
  O  O58  1  0.33543566  0.66725999  0.91073547  1
  O  O59  1  0.33604553  0.80926144  0.91248211  1
  O  O60  1  0.66395447  0.80926144  0.65973258  1
  O  O61  1  0.92143851  0.46961730  0.92056536  1
  O  O62  1  0.92156068  0.86469001  0.32734446  1
  O  O63  1  0.91256922  1.00000000  0.32555104  1
  O  O64  1  0.90951414  0.79565212  0.93968759  1
