# generated using pymatgen
data_Nd8Re11O38
_symmetry_space_group_name_H-M   'P 1'
_cell_length_a   31.16008821
_cell_length_b   9.02655946
_cell_length_c   8.97831762
_cell_angle_alpha   90.02588055
_cell_angle_beta   54.88549384
_cell_angle_gamma   54.57176285
_symmetry_Int_Tables_number   1
_chemical_formula_structural   Nd8Re11O38
_chemical_formula_sum   'Nd16 Re22 O76'
_cell_volume   1456.81923736
_cell_formula_units_Z   2
loop_
 _symmetry_equiv_pos_site_id
 _symmetry_equiv_pos_as_xyz
  1  'x, y, z'
loop_
 _atom_site_type_symbol
 _atom_site_label
 _atom_site_symmetry_multiplicity
 _atom_site_fract_x
 _atom_site_fract_y
 _atom_site_fract_z
 _atom_site_occupancy
  Nd  Nd0  1  0.17276820  0.98870696  0.99318170  1
  Nd  Nd1  1  0.07910745  0.99773071  0.68346332  1
  Nd  Nd2  1  0.09279950  0.66810634  0.97249119  1
  Nd  Nd3  1  0.17457056  0.30270997  0.31076379  1
  Nd  Nd4  1  0.42179891  0.00046591  -0.00037151  1
  Nd  Nd5  1  0.32692924  0.01137248  0.68523081  1
  Nd  Nd6  1  0.32557876  0.69647566  0.00905638  1
  Nd  Nd7  1  0.40662265  0.33468619  0.34638410  1
  Nd  Nd8  1  0.67781022  0.98435949  0.95931410  1
  Nd  Nd9  1  0.58140896  0.99854314  0.68569160  1
  Nd  Nd10  1  0.57533914  0.69249129  0.00120867  1
  Nd  Nd11  1  0.67271702  0.31090452  0.30865692  1
  Nd  Nd12  1  0.92500123  0.99279795  0.00108025  1
  Nd  Nd13  1  0.82741579  0.00121441  0.69027236  1
  Nd  Nd14  1  0.82234924  0.69473203  0.04058832  1
  Nd  Nd15  1  0.91845183  0.32442213  0.31692687  1
  Re  Re16  1  0.00025701  0.13213756  0.49891379  1
  Re  Re17  1  0.99943540  0.50036845  0.63408443  1
  Re  Re18  1  0.99978992  0.86559471  0.49863975  1
  Re  Re19  1  0.06664311  0.36813546  0.86552140  1
  Re  Re20  1  0.18168739  0.63330431  0.12457119  1
  Re  Re21  1  0.24888230  0.14047166  0.51427788  1
  Re  Re22  1  0.25016064  0.50035025  0.37367223  1
  Re  Re23  1  0.25123539  0.86207494  0.51014952  1
  Re  Re24  1  0.31825877  0.36714830  0.85144807  1
  Re  Re25  1  0.43317810  0.63158882  0.13302763  1
  Re  Re26  1  0.50072420  0.13408162  0.49785265  1
  Re  Re27  1  0.50005032  0.50012904  0.36587933  1
  Re  Re28  1  0.50006042  0.50131070  0.63299791  1
  Re  Re29  1  0.49908599  0.86995392  0.50223934  1
  Re  Re30  1  0.56810763  0.35182185  0.86686419  1
  Re  Re31  1  0.68274518  0.63540436  0.13670703  1
  Re  Re32  1  0.74978302  0.12661610  0.50029807  1
  Re  Re33  1  0.75145303  0.50835069  0.36029889  1
  Re  Re34  1  0.74864644  0.51405623  0.63967796  1
  Re  Re35  1  0.81722100  0.36627874  0.86369844  1
  Re  Re36  1  0.93172055  0.62510657  0.13317101  1
  Re  Re37  1  0.00046943  0.49914018  0.36472094  1
  O  O38  1  0.00251458  0.99417861  0.99121983  1
  O  O39  1  0.00022658  0.67658777  0.99957309  1
  O  O40  1  0.01488382  0.25187046  0.30968844  1
  O  O41  1  0.08096702  0.36196104  0.05347849  1
  O  O42  1  0.09026013  0.31748962  0.32006729  1
  O  O43  1  0.99958903  0.00021271  0.32000605  1
  O  O44  1  0.01499837  0.68577588  0.63052846  1
  O  O45  1  0.08151661  0.30618715  0.61975207  1
  O  O46  1  0.10906455  0.61461188  0.24176666  1
  O  O47  1  0.25007875  0.99990183  0.00847439  1
  O  O48  1  0.14349927  0.05267281  0.74326684  1
  O  O49  1  0.24802864  0.32515995  0.99722500  1
  O  O50  1  0.10811383  0.94699526  0.32922632  1
  O  O51  1  0.14065698  0.38373611  0.68115422  1
  O  O52  1  0.17730504  0.62232746  0.35023216  1
  O  O53  1  0.24994910  0.00072998  0.69243256  1
  O  O54  1  0.25181422  0.67539535  0.98947172  1
  O  O55  1  0.26361311  0.25786484  0.31724382  1
  O  O56  1  0.16468845  0.66762598  0.65674487  1
  O  O57  1  0.32290563  0.37821921  0.05908807  1
  O  O58  1  0.22607646  0.31823542  0.71539873  1
  O  O59  1  0.23653435  0.74309241  0.37179986  1
  O  O60  1  0.33575008  0.33283180  0.31464047  1
  O  O61  1  0.15908560  0.73862367  0.97555607  1
  O  O62  1  0.24982937  0.00124802  0.32614501  1
  O  O63  1  0.27387996  0.68347012  0.62003453  1
  O  O64  1  0.34059206  0.26207915  0.61265243  1
  O  O65  1  0.35817658  0.62065663  0.24518365  1
  O  O66  1  0.49798612  0.99693720  0.00422158  1
  O  O67  1  0.39164539  0.05352371  0.76223596  1
  O  O68  1  0.49517027  0.32448129  0.00400821  1
  O  O69  1  0.35737444  0.94809050  0.31643054  1
  O  O70  1  0.39079100  0.38593438  0.67859414  1
  O  O71  1  0.41864426  0.63729222  0.37853466  1
  O  O72  1  0.50048493  0.00156540  0.67985394  1
  O  O73  1  0.49951804  0.67793145  0.00173678  1
  O  O74  1  0.51257428  0.26051351  0.31298729  1
  O  O75  1  0.40979828  0.68109348  0.68023472  1
  O  O76  1  0.58158608  0.37328927  0.05527528  1
  O  O77  1  0.48570518  0.31298374  0.68840823  1
  O  O78  1  0.48461250  0.74913615  0.36948934  1
  O  O79  1  0.59008614  0.31895420  0.31918367  1
  O  O80  1  0.41886811  0.69114664  0.94527751  1
  O  O81  1  0.49964754  0.00168860  0.32039712  1
  O  O82  1  0.51528429  0.68702042  0.63216701  1
  O  O83  1  0.58081912  0.30809501  0.62333728  1
  O  O84  1  0.60805795  0.62407049  0.25320336  1
  O  O85  1  0.75004730  0.00396188  0.99954816  1
  O  O86  1  0.63344166  0.06363953  0.77961899  1
  O  O87  1  0.74998631  0.31959044  0.99984310  1
  O  O88  1  0.60846123  0.94401096  0.31115602  1
  O  O89  1  0.64183119  0.37031264  0.69020821  1
  O  O90  1  0.66778106  0.61961883  0.38143435  1
  O  O91  1  0.74795623  0.01826902  0.67567741  1
  O  O92  1  0.75003861  0.67987147  -0.00002386  1
  O  O93  1  0.76177635  0.27134149  0.33117854  1
  O  O94  1  0.66002675  0.68608768  0.68382028  1
  O  O95  1  0.83355671  0.37152064  0.05083765  1
  O  O96  1  0.73824875  0.31834405  0.66873086  1
  O  O97  1  0.72150534  0.76213857  0.37598004  1
  O  O98  1  0.84007948  0.32599774  0.31639593  1
  O  O99  1  0.66660576  0.70543121  0.94889796  1
  O  O100  1  0.75189438  0.01034421  0.32466664  1
  O  O101  1  0.77848277  0.64832388  0.62428096  1
  O  O102  1  0.83214147  0.29069320  0.61885690  1
  O  O103  1  0.86705162  0.59600480  0.21823615  1
  O  O104  1  0.89155356  0.05592184  0.74678678  1
  O  O105  1  0.00483358  0.30572613  0.99887677  1
  O  O106  1  0.85796090  0.93782930  0.31036072  1
  O  O107  1  0.89197625  0.37570767  0.68712290  1
  O  O108  1  0.91948712  0.63018173  0.37555099  1
  O  O109  1  0.00017472  0.99733103  0.67973826  1
  O  O110  1  0.91003745  0.67906547  0.67969011  1
  O  O111  1  0.98564323  0.31245190  0.69131155  1
  O  O112  1  0.98607522  0.74314246  0.36562566  1
  O  O113  1  0.91782900  0.70080772  0.94501368  1
