# generated using pymatgen
data_Li3Mn2O5
_symmetry_space_group_name_H-M   'P 1'
_cell_length_a   2.88376060
_cell_length_b   12.27320704
_cell_length_c   5.20184696
_cell_angle_alpha   91.52555190
_cell_angle_beta   90.00000011
_cell_angle_gamma   83.25319647
_symmetry_Int_Tables_number   1
_chemical_formula_structural   Li3Mn2O5
_chemical_formula_sum   'Li6 Mn4 O10'
_cell_volume   182.76825790
_cell_formula_units_Z   2
loop_
 _symmetry_equiv_pos_site_id
 _symmetry_equiv_pos_as_xyz
  1  'x, y, z'
loop_
 _atom_site_type_symbol
 _atom_site_label
 _atom_site_symmetry_multiplicity
 _atom_site_fract_x
 _atom_site_fract_y
 _atom_site_fract_z
 _atom_site_occupancy
  Li  Li0  1  0.50375113  0.99249773  0.50449603  1
  Li  Li1  1  0.90037159  0.19925682  0.69812622  1
  Li  Li2  1  0.29962841  0.40074318  0.90187378  1
  Li  Li3  1  0.69624887  0.60750227  0.09550397  1
  Li  Li4  1  0.10000000  0.80000000  0.30000000  1
  Li  Li5  1  0.60000000  0.80000000  0.80000000  1
  Mn  Mn6  1  0.00471225  0.99057551  0.97812919  1
  Mn  Mn7  1  0.19528775  0.60942449  0.62187081  1
  Mn  Mn8  1  0.40127352  0.19745296  0.19049119  1
  Mn  Mn9  1  0.79872648  0.40254704  0.40950881  1
  O  O10  1  0.54489580  0.91020839  0.13858123  1
  O  O11  1  0.94849538  0.10300923  0.31335277  1
  O  O12  1  0.34523118  0.30953763  0.54524282  1
  O  O13  1  0.74328144  0.51343713  0.74610983  1
  O  O14  1  0.15462780  0.69074440  0.91785390  1
  O  O15  1  0.45671856  0.08656287  0.85389017  1
  O  O16  1  0.85476882  0.29046237  0.05475718  1
  O  O17  1  0.25150462  0.49699077  0.28664723  1
  O  O18  1  0.65510420  0.68979161  0.46141877  1
  O  O19  1  0.04537220  0.90925560  0.68214610  1
