# generated using pymatgen
data_NaSbS2
_symmetry_space_group_name_H-M   'P 1'
_cell_length_a   7.89348459
_cell_length_b   10.54368298
_cell_length_c   6.99014812
_cell_angle_alpha   29.03557541
_cell_angle_beta   55.62444242
_cell_angle_gamma   41.52679410
_symmetry_Int_Tables_number   1
_chemical_formula_structural   NaSbS2
_chemical_formula_sum   'Na2 Sb2 S4'
_cell_volume   179.73570587
_cell_formula_units_Z   2
loop_
 _symmetry_equiv_pos_site_id
 _symmetry_equiv_pos_as_xyz
  1  'x, y, z'
loop_
 _atom_site_type_symbol
 _atom_site_label
 _atom_site_symmetry_multiplicity
 _atom_site_fract_x
 _atom_site_fract_y
 _atom_site_fract_z
 _atom_site_occupancy
  Na  Na0  1  0.50000000  -0.00000000  -0.00000000  1
  Na  Na1  1  0.25000000  0.50000000  -0.00000000  1
  Sb  Sb2  1  0.00000000  0.00000000  -0.00000000  1
  Sb  Sb3  1  0.75000000  0.50000000  -0.00000000  1
  S  S4  1  0.23898462  0.00000000  0.52203076  1
  S  S5  1  0.76101538  1.00000000  0.47796924  1
  S  S6  1  0.51101538  0.50000000  0.47796924  1
  S  S7  1  0.98898462  0.50000000  0.52203076  1
