# generated using pymatgen
data_Li2MnCoO4
_symmetry_space_group_name_H-M   'P 1'
_cell_length_a   5.04140707
_cell_length_b   5.81031312
_cell_length_c   6.06064899
_cell_angle_alpha   61.88342551
_cell_angle_beta   78.72325047
_cell_angle_gamma   72.96972241
_symmetry_Int_Tables_number   1
_chemical_formula_structural   Li2MnCoO4
_chemical_formula_sum   'Li4 Mn2 Co2 O8'
_cell_volume   149.36461469
_cell_formula_units_Z   2
loop_
 _symmetry_equiv_pos_site_id
 _symmetry_equiv_pos_as_xyz
  1  'x, y, z'
loop_
 _atom_site_type_symbol
 _atom_site_label
 _atom_site_symmetry_multiplicity
 _atom_site_fract_x
 _atom_site_fract_y
 _atom_site_fract_z
 _atom_site_occupancy
  Li  Li0  1  0.50531473  0.24825776  0.24936415  1
  Li  Li1  1  0.00514926  0.49829180  0.99964525  1
  Li  Li2  1  0.99468527  0.00174224  0.50063585  1
  Li  Li3  1  0.49485074  0.75170820  0.75035475  1
  Mn  Mn4  1  0.00080265  0.49708951  0.50431704  1
  Mn  Mn5  1  0.49919735  0.75291049  0.24568296  1
  Co  Co6  1  -0.00072126  0.00161377  0.99732815  1
  Co  Co7  1  0.50072126  0.24838623  0.75267185  1
  O  O8  1  0.74688840  0.34846908  0.87874139  1
  O  O9  1  0.25216413  0.59919307  0.63143243  1
  O  O10  1  0.24482361  0.10683899  0.12119612  1
  O  O11  1  0.74977855  0.85579408  0.37636601  1
  O  O12  1  0.25517639  0.14316101  0.62880388  1
  O  O13  1  0.75022145  0.39420592  0.37363399  1
  O  O14  1  0.75311160  0.90153092  0.87125861  1
  O  O15  1  0.24783587  0.65080693  0.11856757  1
