# generated using pymatgen
data_Li3Mn2CoO6
_symmetry_space_group_name_H-M   'P 1'
_cell_length_a   5.09100928
_cell_length_b   5.10306750
_cell_length_c   5.10666727
_cell_angle_alpha   100.99279370
_cell_angle_beta   106.58095023
_cell_angle_gamma   63.97566720
_symmetry_Int_Tables_number   1
_chemical_formula_structural   Li3Mn2CoO6
_chemical_formula_sum   'Li3 Mn2 Co1 O6'
_cell_volume   113.93020097
_cell_formula_units_Z   1
loop_
 _symmetry_equiv_pos_site_id
 _symmetry_equiv_pos_as_xyz
  1  'x, y, z'
loop_
 _atom_site_type_symbol
 _atom_site_label
 _atom_site_symmetry_multiplicity
 _atom_site_fract_x
 _atom_site_fract_y
 _atom_site_fract_z
 _atom_site_occupancy
  Li  Li0  1  0.14246135  0.68775724  0.49260957  1
  Li  Li1  1  0.85753865  0.31224276  0.50739043  1
  Li  Li2  1  0.50000000  -0.00000000  0.50000000  1
  Mn  Mn3  1  0.66775576  0.66705468  0.99927694  1
  Mn  Mn4  1  0.33224424  0.33294532  0.00072306  1
  Co  Co5  1  0.00000000  -0.00000000  0.00000000  1
  O  O6  1  0.76053566  0.98111589  0.23366565  1
  O  O7  1  0.40028886  0.67134877  0.21592732  1
  O  O8  1  0.09987986  0.32041791  0.23722291  1
  O  O9  1  0.59971114  0.32865123  0.78407268  1
  O  O10  1  0.23946434  0.01888411  0.76633435  1
  O  O11  1  0.90012014  0.67958209  0.76277709  1
