# generated using pymatgen
data_Li4Mn3CoO8
_symmetry_space_group_name_H-M   'P 1'
_cell_length_a   3.07548480
_cell_length_b   8.08900141
_cell_length_c   6.07136600
_cell_angle_alpha   89.44213953
_cell_angle_beta   90.00000000
_cell_angle_gamma   90.00000000
_symmetry_Int_Tables_number   1
_chemical_formula_structural   Li4Mn3CoO8
_chemical_formula_sum   'Li4 Mn3 Co1 O8'
_cell_volume   151.03386095
_cell_formula_units_Z   1
loop_
 _symmetry_equiv_pos_site_id
 _symmetry_equiv_pos_as_xyz
  1  'x, y, z'
loop_
 _atom_site_type_symbol
 _atom_site_label
 _atom_site_symmetry_multiplicity
 _atom_site_fract_x
 _atom_site_fract_y
 _atom_site_fract_z
 _atom_site_occupancy
  Li  Li0  1  -0.00000000  0.50000000  -0.00000000  1
  Li  Li1  1  0.50000000  0.75100116  0.75126146  1
  Li  Li2  1  -0.00000000  -0.00000000  0.50000000  1
  Li  Li3  1  0.50000000  0.24899884  0.24873854  1
  Mn  Mn4  1  0.50000000  0.24923016  0.75269953  1
  Mn  Mn5  1  -0.00000000  0.50000000  0.50000000  1
  Mn  Mn6  1  0.50000000  0.75076984  0.24730047  1
  Co  Co7  1  0.00000000  -0.00000000  -0.00000000  1
  O  O8  1  0.00000000  0.73831226  0.49150116  1
  O  O9  1  0.50000000  0.98846414  0.23706510  1
  O  O10  1  0.00000000  0.23710553  0.99563110  1
  O  O11  1  0.50000000  0.48668808  0.74295883  1
  O  O12  1  -0.00000000  0.26168774  0.50849884  1
  O  O13  1  0.50000000  0.51331192  0.25704117  1
  O  O14  1  0.00000000  0.76289447  0.00436890  1
  O  O15  1  0.50000000  0.01153586  0.76293490  1
