# generated using pymatgen
data_Li4Mn3CoO8
_symmetry_space_group_name_H-M   'P 1'
_cell_length_a   3.07454828
_cell_length_b   10.01416571
_cell_length_c   5.04651275
_cell_angle_alpha   102.39681734
_cell_angle_beta   90.00000000
_cell_angle_gamma   90.00000000
_symmetry_Int_Tables_number   1
_chemical_formula_structural   Li4Mn3CoO8
_chemical_formula_sum   'Li4 Mn3 Co1 O8'
_cell_volume   151.75451808
_cell_formula_units_Z   1
loop_
 _symmetry_equiv_pos_site_id
 _symmetry_equiv_pos_as_xyz
  1  'x, y, z'
loop_
 _atom_site_type_symbol
 _atom_site_label
 _atom_site_symmetry_multiplicity
 _atom_site_fract_x
 _atom_site_fract_y
 _atom_site_fract_z
 _atom_site_occupancy
  Li  Li0  1  0.00000000  0.74966403  0.25169520  1
  Li  Li1  1  0.50000000  0.24740734  0.25089777  1
  Li  Li2  1  0.00000000  0.25033597  0.74830480  1
  Li  Li3  1  0.50000000  0.75259266  0.74910223  1
  Mn  Mn4  1  0.50000000  0.50000000  0.00000000  1
  Mn  Mn5  1  0.00000000  0.50000000  0.50000000  1
  Mn  Mn6  1  0.50000000  -0.00000000  0.50000000  1
  Co  Co7  1  0.00000000  -0.00000000  0.00000000  1
  O  O8  1  0.00000000  0.11735298  0.36165346  1
  O  O9  1  0.50000000  0.61679830  0.35830789  1
  O  O10  1  0.00000000  0.61461058  0.85881414  1
  O  O11  1  0.50000000  0.11065659  0.86341940  1
  O  O12  1  0.00000000  0.38538942  0.14118586  1
  O  O13  1  0.50000000  0.88934341  0.13658060  1
  O  O14  1  -0.00000000  0.88264702  0.63834654  1
  O  O15  1  0.50000000  0.38320170  0.64169211  1
