# generated using pymatgen
data_Li4Mn3CoO8
_symmetry_space_group_name_H-M   'P 1'
_cell_length_a   3.07725187
_cell_length_b   5.03631787
_cell_length_c   9.89621781
_cell_angle_alpha   87.99181796
_cell_angle_beta   81.05557665
_cell_angle_gamma   89.99999136
_symmetry_Int_Tables_number   1
_chemical_formula_structural   Li4Mn3CoO8
_chemical_formula_sum   'Li4 Mn3 Co1 O8'
_cell_volume   151.41135214
_cell_formula_units_Z   1
loop_
 _symmetry_equiv_pos_site_id
 _symmetry_equiv_pos_as_xyz
  1  'x, y, z'
loop_
 _atom_site_type_symbol
 _atom_site_label
 _atom_site_symmetry_multiplicity
 _atom_site_fract_x
 _atom_site_fract_y
 _atom_site_fract_z
 _atom_site_occupancy
  Li  Li0  1  0.62385478  0.87328880  0.75229044  1
  Li  Li1  1  0.37614522  0.12671120  0.24770956  1
  Li  Li2  1  0.12512588  0.37445292  0.74974824  1
  Li  Li3  1  0.87487412  0.62554708  0.25025176  1
  Mn  Mn4  1  0.75019563  0.24965623  0.49960875  1
  Mn  Mn5  1  0.50000000  0.50000000  -0.00000000  1
  Mn  Mn6  1  0.24980437  0.75034377  0.50039125  1
  Co  Co7  1  -0.00000000  -0.00000000  -0.00000000  1
  O  O8  1  0.44384686  0.80799188  0.11230628  1
  O  O9  1  0.19214201  0.05311686  0.61571598  1
  O  O10  1  0.94249003  0.30183562  0.11501994  1
  O  O11  1  0.69206758  0.55201616  0.61586483  1
  O  O12  1  0.80785799  0.94688314  0.38428402  1
  O  O13  1  0.55615314  0.19200812  0.88769372  1
  O  O14  1  0.30793242  0.44798384  0.38413517  1
  O  O15  1  0.05750997  0.69816438  0.88498006  1
