# generated using pymatgen
data_Li3MnCoO5
_symmetry_space_group_name_H-M   'P 1'
_cell_length_a   5.09274145
_cell_length_b   7.69298925
_cell_length_c   5.13884474
_cell_angle_alpha   109.20665681
_cell_angle_beta   80.13026997
_cell_angle_gamma   76.55696101
_symmetry_Int_Tables_number   1
_chemical_formula_structural   Li3MnCoO5
_chemical_formula_sum   'Li6 Mn2 Co2 O10'
_cell_volume   178.05384730
_cell_formula_units_Z   2
loop_
 _symmetry_equiv_pos_site_id
 _symmetry_equiv_pos_as_xyz
  1  'x, y, z'
loop_
 _atom_site_type_symbol
 _atom_site_label
 _atom_site_symmetry_multiplicity
 _atom_site_fract_x
 _atom_site_fract_y
 _atom_site_fract_z
 _atom_site_occupancy
  Li  Li0  1  0.30811408  0.89907396  0.40440641  1
  Li  Li1  1  0.69337687  0.09712637  0.60181731  1
  Li  Li2  1  0.10000000  0.30000000  0.80000000  1
  Li  Li3  1  0.50662313  0.50287363  0.99818269  1
  Li  Li4  1  0.89188592  0.70092604  0.19559359  1
  Li  Li5  1  0.60000000  0.80000000  0.80000000  1
  Mn  Mn6  1  0.00224285  0.99866538  0.99249986  1
  Mn  Mn7  1  0.19775715  0.60133462  0.60750014  1
  Co  Co8  1  0.40491884  0.19031841  0.19037894  1
  Co  Co9  1  0.79508116  0.40968159  0.40962106  1
  O  O10  1  0.22930748  0.75472693  0.97804229  1
  O  O11  1  0.65680536  0.96741758  0.19488145  1
  O  O12  1  0.04229165  0.14781739  0.36526700  1
  O  O13  1  0.44342996  0.36331747  0.59543146  1
  O  O14  1  0.87637041  0.54605619  0.77833121  1
  O  O15  1  0.32362959  0.05394381  0.82166879  1
  O  O16  1  0.75657004  0.23668253  0.00456854  1
  O  O17  1  0.15770835  0.45218261  0.23473300  1
  O  O18  1  0.54319464  0.63258242  0.40511855  1
  O  O19  1  0.97069252  0.84527307  0.62195771  1
