# generated using pymatgen
data_Li4Mn3CoO8
_symmetry_space_group_name_H-M   'P 1'
_cell_length_a   3.07855278
_cell_length_b   5.09118432
_cell_length_c   9.94435360
_cell_angle_alpha   76.92840287
_cell_angle_beta   90.00000000
_cell_angle_gamma   90.00000000
_symmetry_Int_Tables_number   1
_chemical_formula_structural   Li4Mn3CoO8
_chemical_formula_sum   'Li4 Mn3 Co1 O8'
_cell_volume   151.82394330
_cell_formula_units_Z   1
loop_
 _symmetry_equiv_pos_site_id
 _symmetry_equiv_pos_as_xyz
  1  'x, y, z'
loop_
 _atom_site_type_symbol
 _atom_site_label
 _atom_site_symmetry_multiplicity
 _atom_site_fract_x
 _atom_site_fract_y
 _atom_site_fract_z
 _atom_site_occupancy
  Li  Li0  1  -0.00000000  0.25062599  0.24970206  1
  Li  Li1  1  0.50000000  -0.00000000  0.50000000  1
  Li  Li2  1  -0.00000000  0.74937401  0.75029794  1
  Li  Li3  1  0.50000000  0.50000000  -0.00000000  1
  Mn  Mn4  1  0.50000000  0.74989564  0.24812913  1
  Mn  Mn5  1  -0.00000000  0.50000000  0.50000000  1
  Mn  Mn6  1  0.50000000  0.25010436  0.75187087  1
  Co  Co7  1  -0.00000000  -0.00000000  -0.00000000  1
  O  O8  1  -0.00000000  0.85205789  0.37659665  1
  O  O9  1  0.50000000  0.60283314  0.62845368  1
  O  O10  1  -0.00000000  0.35279419  0.87840680  1
  O  O11  1  0.50000000  0.10076130  0.12462517  1
  O  O12  1  -0.00000000  0.64720581  0.12159320  1
  O  O13  1  0.50000000  0.39716686  0.37154632  1
  O  O14  1  -0.00000000  0.14794211  0.62340335  1
  O  O15  1  0.50000000  0.89923870  0.87537483  1
