# generated using pymatgen
data_Li5Co3O8
_symmetry_space_group_name_H-M   'P 1'
_cell_length_a   5.03055832
_cell_length_b   5.78959808
_cell_length_c   5.74988128
_cell_angle_alpha   60.48251733
_cell_angle_beta   106.24568205
_cell_angle_gamma   105.62024024
_symmetry_Int_Tables_number   1
_chemical_formula_structural   Li5Co3O8
_chemical_formula_sum   'Li5 Co3 O8'
_cell_volume   138.16793742
_cell_formula_units_Z   1
loop_
 _symmetry_equiv_pos_site_id
 _symmetry_equiv_pos_as_xyz
  1  'x, y, z'
loop_
 _atom_site_type_symbol
 _atom_site_label
 _atom_site_symmetry_multiplicity
 _atom_site_fract_x
 _atom_site_fract_y
 _atom_site_fract_z
 _atom_site_occupancy
  Li  Li0  1  0.50369701  0.24833495  0.75604738  1
  Li  Li1  1  0.50291169  0.74715276  0.75593255  1
  Li  Li2  1  0.49630299  0.75166505  0.24395262  1
  Li  Li3  1  0.49708831  0.25284724  0.24406745  1
  Li  Li4  1  -0.00000000  0.50000000  -0.00000000  1
  Co  Co5  1  -0.00000000  -0.00000000  -0.00000000  1
  Co  Co6  1  -0.00000000  0.50000000  0.50000000  1
  Co  Co7  1  -0.00000000  -0.00000000  0.50000000  1
  O  O8  1  0.22199200  0.88798862  0.86684670  1
  O  O9  1  0.21675374  0.35070984  0.86694685  1
  O  O10  1  0.22002006  0.37708951  0.39133500  1
  O  O11  1  0.23791958  0.88486791  0.35645426  1
  O  O12  1  0.77997994  0.62291049  0.60866500  1
  O  O13  1  0.76208042  0.11513209  0.64354574  1
  O  O14  1  0.77800800  0.11201138  0.13315330  1
  O  O15  1  0.78324626  0.64929016  0.13305315  1
