# generated using pymatgen
data_Li4Mn3CoO8
_symmetry_space_group_name_H-M   'P 1'
_cell_length_a   3.05599364
_cell_length_b   6.46365017
_cell_length_c   7.93927606
_cell_angle_alpha   93.19334186
_cell_angle_beta   78.90358591
_cell_angle_gamma   103.67406935
_symmetry_Int_Tables_number   1
_chemical_formula_structural   Li4Mn3CoO8
_chemical_formula_sum   'Li4 Mn3 Co1 O8'
_cell_volume   149.52121409
_cell_formula_units_Z   1
loop_
 _symmetry_equiv_pos_site_id
 _symmetry_equiv_pos_as_xyz
  1  'x, y, z'
loop_
 _atom_site_type_symbol
 _atom_site_label
 _atom_site_symmetry_multiplicity
 _atom_site_fract_x
 _atom_site_fract_y
 _atom_site_fract_z
 _atom_site_occupancy
  Li  Li0  1  0.12603243  0.87553406  0.62346920  1
  Li  Li1  1  0.37552517  0.62941842  0.87836807  1
  Li  Li2  1  0.62447483  0.37058158  0.12163193  1
  Li  Li3  1  0.87396757  0.12446594  0.37653080  1
  Mn  Mn4  1  0.25240347  0.75065399  0.24584705  1
  Mn  Mn5  1  0.50000000  0.50000000  0.50000000  1
  Mn  Mn6  1  0.74759653  0.24934601  0.75415295  1
  Co  Co7  1  0.00000000  0.00000000  -0.00000000  1
  O  O8  1  0.18033724  0.29593449  0.93526001  1
  O  O9  1  0.43265009  0.04502877  0.17972859  1
  O  O10  1  0.68066084  0.79628812  0.43496644  1
  O  O11  1  0.93000285  0.54457535  0.68456965  1
  O  O12  1  0.06999715  0.45542465  0.31543035  1
  O  O13  1  0.31933916  0.20371188  0.56503356  1
  O  O14  1  0.56734991  0.95497123  0.82027141  1
  O  O15  1  0.81966276  0.70406551  0.06473999  1
