# generated using pymatgen
data_Li4Mn3CoO8
_symmetry_space_group_name_H-M   'P 1'
_cell_length_a   3.06934707
_cell_length_b   10.07824000
_cell_length_c   5.20987543
_cell_angle_alpha   101.94469833
_cell_angle_beta   72.86824593
_cell_angle_gamma   89.99999986
_symmetry_Int_Tables_number   1
_chemical_formula_structural   Li4Mn3CoO8
_chemical_formula_sum   'Li4 Mn3 Co1 O8'
_cell_volume   150.35425513
_cell_formula_units_Z   1
loop_
 _symmetry_equiv_pos_site_id
 _symmetry_equiv_pos_as_xyz
  1  'x, y, z'
loop_
 _atom_site_type_symbol
 _atom_site_label
 _atom_site_symmetry_multiplicity
 _atom_site_fract_x
 _atom_site_fract_y
 _atom_site_fract_z
 _atom_site_occupancy
  Li  Li0  1  0.24861229  0.12103652  0.50277542  1
  Li  Li1  1  0.75074454  0.37544339  0.49851093  1
  Li  Li2  1  0.24925546  0.62455661  0.50148907  1
  Li  Li3  1  0.75138771  0.87896348  0.49722458  1
  Mn  Mn4  1  0.49939945  0.24960764  0.00120111  1
  Mn  Mn5  1  0.00000000  0.50000000  0.00000000  1
  Mn  Mn6  1  0.50060055  0.75039236  0.99879889  1
  Co  Co7  1  0.00000000  0.00000000  0.00000000  1
  O  O8  1  0.88467824  0.17893079  0.23064352  1
  O  O9  1  0.38368004  0.42972211  0.23263992  1
  O  O10  1  0.88478159  0.67997135  0.23043683  1
  O  O11  1  0.38533100  0.93067545  0.22933799  1
  O  O12  1  0.61466900  0.06932455  0.77066201  1
  O  O13  1  0.11521841  0.32002865  0.76956317  1
  O  O14  1  0.61631996  0.57027789  0.76736008  1
  O  O15  1  0.11532176  0.82106921  0.76935648  1
