# generated using pymatgen
data_Li4Mn3CoO8
_symmetry_space_group_name_H-M   'P 1'
_cell_length_a   5.04336473
_cell_length_b   6.15247003
_cell_length_c   5.95672041
_cell_angle_alpha   121.09315259
_cell_angle_beta   103.83800208
_cell_angle_gamma   90.00000368
_symmetry_Int_Tables_number   1
_chemical_formula_structural   Li4Mn3CoO8
_chemical_formula_sum   'Li4 Mn3 Co1 O8'
_cell_volume   151.97787252
_cell_formula_units_Z   1
loop_
 _symmetry_equiv_pos_site_id
 _symmetry_equiv_pos_as_xyz
  1  'x, y, z'
loop_
 _atom_site_type_symbol
 _atom_site_label
 _atom_site_symmetry_multiplicity
 _atom_site_fract_x
 _atom_site_fract_y
 _atom_site_fract_z
 _atom_site_occupancy
  Li  Li0  1  0.50496329  0.75219789  0.50439578  1
  Li  Li1  1  0.00000000  -0.00000000  0.50000000  1
  Li  Li2  1  0.49503671  0.24780211  0.49560422  1
  Li  Li3  1  0.00000000  0.50000000  0.50000000  1
  Mn  Mn4  1  0.50000000  0.24865857  0.00000000  1
  Mn  Mn5  1  0.00000000  0.50000000  0.00000000  1
  Mn  Mn6  1  0.50000000  0.75134143  1.00000000  1
  Co  Co7  1  0.00000000  -0.00000000  0.00000000  1
  O  O8  1  0.75763776  0.11533178  0.23066356  1
  O  O9  1  0.25380070  0.36148986  0.22815704  1
  O  O10  1  0.75465363  0.61465159  0.22930318  1
  O  O11  1  0.25380070  0.86666718  0.22815704  1
  O  O12  1  0.24534637  0.38534841  0.77069682  1
  O  O13  1  0.74619930  0.63851014  0.77184296  1
  O  O14  1  0.24236224  0.88466822  0.76933644  1
  O  O15  1  0.74619930  0.13333282  0.77184296  1
