# generated using pymatgen
data_Li7Mn5O12
_symmetry_space_group_name_H-M   'P 1'
_cell_length_a   2.97546743
_cell_length_b   14.63766759
_cell_length_c   5.08786530
_cell_angle_alpha   88.25903539
_cell_angle_beta   91.35314596
_cell_angle_gamma   81.90476035
_symmetry_Int_Tables_number   1
_chemical_formula_structural   Li7Mn5O12
_chemical_formula_sum   'Li7 Mn5 O12'
_cell_volume   219.19986625
_cell_formula_units_Z   1
loop_
 _symmetry_equiv_pos_site_id
 _symmetry_equiv_pos_as_xyz
  1  'x, y, z'
loop_
 _atom_site_type_symbol
 _atom_site_label
 _atom_site_symmetry_multiplicity
 _atom_site_fract_x
 _atom_site_fract_y
 _atom_site_fract_z
 _atom_site_occupancy
  Li  Li0  1  0.83333300  0.16666700  0.33333300  1
  Li  Li1  1  0.17460223  0.32817742  0.16057832  1
  Li  Li2  1  0.49785692  0.50025617  0.00470264  1
  Li  Li3  1  0.83333300  0.66666700  0.83333300  1
  Li  Li4  1  0.16881008  0.83307683  0.66196436  1
  Li  Li5  1  0.49206477  0.00515558  0.50608868  1
  Li  Li6  1  0.33333300  0.16666700  0.83333300  1
  Mn  Mn7  1  0.98993070  0.00650038  0.99079711  1
  Mn  Mn8  1  0.67673630  0.32683262  0.67586989  1
  Mn  Mn9  1  0.00876649  0.49774489  0.49746483  1
  Mn  Mn10  1  0.33333300  0.66666700  0.33333300  1
  Mn  Mn11  1  0.65790051  0.83558811  0.16920217  1
  O  O12  1  0.44627514  0.07276643  0.14385074  1
  O  O13  1  0.73567671  0.25778731  0.98013356  1
  O  O14  1  0.11336475  0.40892568  0.80540060  1
  O  O15  1  0.38477155  0.58330507  0.64918219  1
  O  O16  1  0.71545909  0.75163697  0.48705439  1
  O  O17  1  0.04587333  0.91716914  0.30979686  1
  O  O18  1  0.22039086  0.26056757  0.52281526  1
  O  O19  1  0.62079367  0.41616386  0.35687014  1
  O  O20  1  0.95120791  0.58169603  0.17961261  1
  O  O21  1  0.28189445  0.75002893  0.01748381  1
  O  O22  1  0.55330225  0.92440732  0.86126640  1
  O  O23  1  0.93099029  0.07554569  0.68653344  1
