# generated using pymatgen
data_Li5Mn3O8
_symmetry_space_group_name_H-M   'P 1'
_cell_length_a   5.86376910
_cell_length_b   5.85241884
_cell_length_c   5.85241947
_cell_angle_alpha   60.00000329
_cell_angle_beta   119.93598639
_cell_angle_gamma   119.93599563
_symmetry_Int_Tables_number   1
_chemical_formula_structural   Li5Mn3O8
_chemical_formula_sum   'Li5 Mn3 O8'
_cell_volume   142.15175340
_cell_formula_units_Z   1
loop_
 _symmetry_equiv_pos_site_id
 _symmetry_equiv_pos_as_xyz
  1  'x, y, z'
loop_
 _atom_site_type_symbol
 _atom_site_label
 _atom_site_symmetry_multiplicity
 _atom_site_fract_x
 _atom_site_fract_y
 _atom_site_fract_z
 _atom_site_occupancy
  Li  Li0  1  0.50000000  0.50000000  0.50000000  1
  Li  Li1  1  0.50000000  -0.00000000  0.00000000  1
  Li  Li2  1  0.50000000  -0.00000000  0.50000000  1
  Li  Li3  1  0.50000000  0.50000000  0.00000000  1
  Li  Li4  1  0.00000000  0.50000000  0.00000000  1
  Mn  Mn5  1  0.00000000  -0.00000000  0.00000000  1
  Mn  Mn6  1  0.00000000  0.50000000  0.50000000  1
  Mn  Mn7  1  0.00000000  -0.00000000  0.50000000  1
  O  O8  1  0.22147053  0.74975654  0.72195746  1
  O  O9  1  0.22147053  0.22195746  0.24975654  1
  O  O10  1  0.23670228  0.24556743  0.74556743  1
  O  O11  1  0.22147053  0.74975654  0.24975654  1
  O  O12  1  0.77852947  0.25024346  0.27804254  1
  O  O13  1  0.77852947  0.77804254  0.75024346  1
  O  O14  1  0.76329772  0.75443257  0.25443257  1
  O  O15  1  0.77852947  0.25024346  0.75024346  1
