# generated using pymatgen
data_Li7Mn4CoO12
_symmetry_space_group_name_H-M   'P 1'
_cell_length_a   5.03510627
_cell_length_b   9.88106551
_cell_length_c   5.03475881
_cell_angle_alpha   93.00510733
_cell_angle_beta   62.50410561
_cell_angle_gamma   101.29504209
_symmetry_Int_Tables_number   1
_chemical_formula_structural   Li7Mn4CoO12
_chemical_formula_sum   'Li7 Mn4 Co1 O12'
_cell_volume   217.68438535
_cell_formula_units_Z   1
loop_
 _symmetry_equiv_pos_site_id
 _symmetry_equiv_pos_as_xyz
  1  'x, y, z'
loop_
 _atom_site_type_symbol
 _atom_site_label
 _atom_site_symmetry_multiplicity
 _atom_site_fract_x
 _atom_site_fract_y
 _atom_site_fract_z
 _atom_site_occupancy
  Li  Li0  1  0.74845646  0.25421099  0.99451061  1
  Li  Li1  1  0.57605078  0.74576688  0.33020225  1
  Li  Li2  1  0.41630484  0.25367148  0.67059587  1
  Li  Li3  1  0.09044692  0.25816229  0.33531180  1
  Li  Li4  1  0.91624095  0.74186590  0.67122981  1
  Li  Li5  1  0.25260081  0.74629582  0.99836344  1
  Li  Li6  1  0.50102006  0.49999979  0.00105132  1
  Mn  Mn7  1  0.99959188  0.99977871  0.00059668  1
  Mn  Mn8  1  0.83201179  0.49997942  0.33209079  1
  Mn  Mn9  1  0.66674932  0.99931733  0.66639340  1
  Mn  Mn10  1  0.33394811  0.00088791  0.33326722  1
  Co  Co11  1  0.16909927  0.49999383  0.66924873  1
  O  O12  1  0.01451321  0.11704717  0.69221324  1
  O  O13  1  0.90496368  0.60922498  0.98753637  1
  O  O14  1  0.68278389  0.11822082  0.35634717  1
  O  O15  1  0.35029773  0.12093269  0.02348510  1
  O  O16  1  0.18041342  0.61107856  0.35986021  1
  O  O17  1  0.54142902  0.60760501  0.63158302  1
  O  O18  1  0.45096011  0.39068862  0.36878224  1
  O  O19  1  0.31841512  0.88254996  0.64311135  1
  O  O20  1  0.09607922  0.39247375  0.00544256  1
  O  O21  1  0.82293199  0.38891693  0.64347777  1
  O  O22  1  0.64931087  0.87887437  0.97666705  1
  O  O23  1  0.98538056  0.88245678  0.30863200  1
