# generated using pymatgen
data_Li7Mn4CoO12
_symmetry_space_group_name_H-M   'P 1'
_cell_length_a   5.03447043
_cell_length_b   5.03446960
_cell_length_c   9.75696196
_cell_angle_alpha   93.79311238
_cell_angle_beta   93.79311264
_cell_angle_gamma   117.48706005
_symmetry_Int_Tables_number   1
_chemical_formula_structural   Li7Mn4CoO12
_chemical_formula_sum   'Li7 Mn4 Co1 O12'
_cell_volume   217.59218917
_cell_formula_units_Z   1
loop_
 _symmetry_equiv_pos_site_id
 _symmetry_equiv_pos_as_xyz
  1  'x, y, z'
loop_
 _atom_site_type_symbol
 _atom_site_label
 _atom_site_symmetry_multiplicity
 _atom_site_fract_x
 _atom_site_fract_y
 _atom_site_fract_z
 _atom_site_occupancy
  Li  Li0  1  0.41844919  0.07832331  0.24192449  1
  Li  Li1  1  0.92167669  0.58155081  0.75807551  1
  Li  Li2  1  0.07906811  0.42082762  0.24581884  1
  Li  Li3  1  0.57917238  0.92093189  0.75418116  1
  Li  Li4  1  0.74699427  0.74521499  0.24633333  1
  Li  Li5  1  0.25478501  0.25300573  0.75366667  1
  Li  Li6  1  0.66774207  0.33225793  1.00000000  1
  Mn  Mn7  1  0.99850483  0.00149517  0.00000000  1
  Mn  Mn8  1  0.50008337  0.49991663  0.50000000  1
  Mn  Mn9  1  0.16666755  0.83333245  0.50000000  1
  Mn  Mn10  1  0.83344492  0.16655508  0.50000000  1
  Co  Co11  1  0.33600095  0.66399905  1.00000000  1
  O  O12  1  0.06342137  0.72662543  0.11117375  1
  O  O13  1  0.56456449  0.23116135  0.62042996  1
  O  O14  1  0.69071789  0.00117023  0.10922795  1
  O  O15  1  0.22977404  0.56254244  0.61778094  1
  O  O16  1  0.33444807  0.36381176  0.10754051  1
  O  O17  1  0.89608148  0.89628545  0.61811863  1
  O  O18  1  0.76883865  0.43543551  0.37957004  1
  O  O19  1  0.27337457  0.93657863  0.88882625  1
  O  O20  1  0.43745756  0.77022596  0.38221906  1
  O  O21  1  0.99882977  0.30928211  0.89077205  1
  O  O22  1  0.10371455  0.10391852  0.38188137  1
  O  O23  1  0.63618824  0.66555193  0.89245949  1
