# generated using pymatgen
data_LiSn(PO3)4
_symmetry_space_group_name_H-M   'P 1'
_cell_length_a   7.63060789
_cell_length_b   7.63060789
_cell_length_c   10.24707183
_cell_angle_alpha   80.49493676
_cell_angle_beta   71.59267144
_cell_angle_gamma   110.74423586
_symmetry_Int_Tables_number   1
_chemical_formula_structural   LiSn(PO3)4
_chemical_formula_sum   'Li2 Sn2 P8 O24'
_cell_volume   502.96565401
_cell_formula_units_Z   2
loop_
 _symmetry_equiv_pos_site_id
 _symmetry_equiv_pos_as_xyz
  1  'x, y, z'
loop_
 _atom_site_type_symbol
 _atom_site_label
 _atom_site_symmetry_multiplicity
 _atom_site_fract_x
 _atom_site_fract_y
 _atom_site_fract_z
 _atom_site_occupancy
  Li  Li0  1  0.24841604  0.99841604  0.75000000  1
  Li  Li1  1  0.75158396  0.00158396  0.25000000  1
  Sn  Sn2  1  0.00000000  0.50000000  -0.00000000  1
  Sn  Sn3  1  0.00000000  0.00000000  0.50000000  1
  P  P4  1  0.99548375  0.68050131  0.31078380  1
  P  P5  1  0.26560264  0.72587818  0.47673429  1
  P  P6  1  0.70261247  0.74233594  0.02326571  1
  P  P7  1  0.50871489  0.69373245  0.81078380  1
  P  P8  1  0.49128511  0.30626755  0.18921620  1
  P  P9  1  0.29738753  0.25766406  0.97673429  1
  P  P10  1  0.73439736  0.27412182  0.52326571  1
  P  P11  1  0.00451625  0.31949869  0.68921620  1
  O  O12  1  0.03941376  0.65760748  0.16315405  1
  O  O13  1  0.13341151  0.80365379  0.57355864  1
  O  O14  1  0.18047821  0.68048760  0.35250467  1
  O  O15  1  0.49019897  0.83458694  0.40784881  1
  O  O16  1  0.30972229  0.71056419  0.82759832  1
  O  O17  1  0.20630951  0.50370238  0.56828309  1
  O  O18  1  0.12278757  0.29302986  0.07355864  1
  O  O19  1  0.74243575  0.89804778  0.09215119  1
  O  O20  1  0.57198546  0.77459259  0.93171691  1
  O  O21  1  0.67923846  0.79743219  0.66315405  1
  O  O22  1  0.53299227  0.53298288  0.14749533  1
  O  O23  1  0.03816151  0.13732061  0.67240168  1
  O  O24  1  0.96183849  0.86267939  0.32759832  1
  O  O25  1  0.46700773  0.46701712  0.85250467  1
  O  O26  1  0.32076154  0.20256781  0.33684595  1
  O  O27  1  0.42801454  0.22540741  0.06828309  1
  O  O28  1  0.25756425  0.10195222  0.90784881  1
  O  O29  1  0.87721243  0.70697014  0.92644136  1
  O  O30  1  0.79369049  0.49629762  0.43171691  1
  O  O31  1  0.69027771  0.28943581  0.17240168  1
  O  O32  1  0.50980103  0.16541306  0.59215119  1
  O  O33  1  0.81952179  0.31951240  0.64749533  1
  O  O34  1  0.86658849  0.19634621  0.42644136  1
  O  O35  1  0.96058624  0.34239252  0.83684595  1
