# generated using pymatgen
data_Li5Mn3O8
_symmetry_space_group_name_H-M   'P 1'
_cell_length_a   2.94897610
_cell_length_b   7.87057012
_cell_length_c   6.46077218
_cell_angle_alpha   89.73865871
_cell_angle_beta   77.04375520
_cell_angle_gamma   81.97623466
_symmetry_Int_Tables_number   1
_chemical_formula_structural   Li5Mn3O8
_chemical_formula_sum   'Li5 Mn3 O8'
_cell_volume   144.65149770
_cell_formula_units_Z   1
loop_
 _symmetry_equiv_pos_site_id
 _symmetry_equiv_pos_as_xyz
  1  'x, y, z'
loop_
 _atom_site_type_symbol
 _atom_site_label
 _atom_site_symmetry_multiplicity
 _atom_site_fract_x
 _atom_site_fract_y
 _atom_site_fract_z
 _atom_site_occupancy
  Li  Li0  1  0.75409267  0.37759283  0.10650415  1
  Li  Li1  1  0.70530227  0.89622900  0.63342105  1
  Li  Li2  1  0.29469773  0.60377100  0.86657895  1
  Li  Li3  1  0.24590733  0.12240717  0.39349585  1
  Li  Li4  1  0.50000000  0.25000000  0.75000000  1
  Mn  Mn5  1  0.98163183  0.01031479  0.99361314  1
  Mn  Mn6  1  0.01836817  0.48968521  0.50638686  1
  Mn  Mn7  1  0.50000000  0.75000000  0.25000000  1
  O  O8  1  0.38918251  0.16546219  0.06048923  1
  O  O9  1  0.43264305  0.66250226  0.54558599  1
  O  O10  1  0.89183870  0.44428768  0.79075073  1
  O  O11  1  0.84382644  0.93198959  0.30144485  1
  O  O12  1  0.15617356  0.56801041  0.19855515  1
  O  O13  1  0.10816130  0.05571232  0.70924927  1
  O  O14  1  0.56735695  0.83749774  0.95441401  1
  O  O15  1  0.61081749  0.33453781  0.43951077  1
