# generated using pymatgen
data_Li7Mn5O12
_symmetry_space_group_name_H-M   'P 1'
_cell_length_a   2.98371531
_cell_length_b   6.03551613
_cell_length_c   12.66559215
_cell_angle_alpha   103.69637466
_cell_angle_beta   88.21585619
_cell_angle_gamma   93.85883697
_symmetry_Int_Tables_number   1
_chemical_formula_structural   Li7Mn5O12
_chemical_formula_sum   'Li7 Mn5 O12'
_cell_volume   221.06991813
_cell_formula_units_Z   1
loop_
 _symmetry_equiv_pos_site_id
 _symmetry_equiv_pos_as_xyz
  1  'x, y, z'
loop_
 _atom_site_type_symbol
 _atom_site_label
 _atom_site_symmetry_multiplicity
 _atom_site_fract_x
 _atom_site_fract_y
 _atom_site_fract_z
 _atom_site_occupancy
  Li  Li0  1  0.00198743  0.51500509  0.01389457  1
  Li  Li1  1  0.50000000  0.33333300  0.16666700  1
  Li  Li2  1  0.49677512  0.67060743  0.83438796  1
  Li  Li3  1  -0.00000000  0.83333300  0.66666700  1
  Li  Li4  1  0.50322488  0.99605957  0.49894504  1
  Li  Li5  1  0.99801257  0.15166191  0.31943843  1
  Li  Li6  1  0.50000000  0.83333300  0.16666700  1
  Mn  Mn7  1  0.00657341  0.99548025  0.00826512  1
  Mn  Mn8  1  0.99342659  0.67118675  0.32506788  1
  Mn  Mn9  1  0.49143062  0.50442802  0.49889191  1
  Mn  Mn10  1  -0.00000000  0.33333300  0.66666700  1
  Mn  Mn11  1  0.50856938  0.16223898  0.83444109  1
  O  O12  1  0.52859244  0.21740363  0.99611449  1
  O  O13  1  0.99634835  0.08027921  0.15550982  1
  O  O14  1  0.96836466  0.40482179  0.82894554  1
  O  O15  1  0.46404754  0.57371133  0.66027678  1
  O  O16  1  0.96029509  0.73686778  0.49069020  1
  O  O17  1  0.51813138  0.88417489  0.33264086  1
  O  O18  1  0.48186862  0.78249211  0.00069214  1
  O  O19  1  0.00365165  0.58638679  0.17782418  1
  O  O20  1  0.03970491  0.92979922  0.84264280  1
  O  O21  1  0.53595246  0.09295467  0.67305722  1
  O  O22  1  0.03163534  0.26184521  0.50438746  1
  O  O23  1  0.47140756  0.44926337  0.33721851  1
