# generated using pymatgen
data_Na6Fe3(PO4)4
_symmetry_space_group_name_H-M   'P 1'
_cell_length_a   6.47383190
_cell_length_b   11.09481628
_cell_length_c   10.79372611
_cell_angle_alpha   90.21650496
_cell_angle_beta   89.94070809
_cell_angle_gamma   73.11144067
_symmetry_Int_Tables_number   1
_chemical_formula_structural   Na6Fe3(PO4)4
_chemical_formula_sum   'Na12 Fe6 P8 O32'
_cell_volume   741.82662791
_cell_formula_units_Z   2
loop_
 _symmetry_equiv_pos_site_id
 _symmetry_equiv_pos_as_xyz
  1  'x, y, z'
loop_
 _atom_site_type_symbol
 _atom_site_label
 _atom_site_symmetry_multiplicity
 _atom_site_fract_x
 _atom_site_fract_y
 _atom_site_fract_z
 _atom_site_occupancy
  Na  Na0  1  0.87221761  0.84070344  0.52991692  1
  Na  Na1  1  -0.00003855  0.88932704  0.27305634  1
  Na  Na2  1  0.01342414  0.46951176  0.46713574  1
  Na  Na3  1  0.92606599  0.15983448  0.31732838  1
  Na  Na4  1  0.91459413  0.15872908  0.81777199  1
  Na  Na5  1  0.71801671  0.13083106  0.06617347  1
  Na  Na6  1  0.51153352  0.47763414  0.96651109  1
  Na  Na7  1  0.11375537  0.88747864  0.77289195  1
  Na  Na8  1  0.28719462  0.84191981  0.03098290  1
  Na  Na9  1  0.54826987  -0.00154668  0.77645156  1
  Na  Na10  1  0.45363979  -0.00091606  0.27663480  1
  Na  Na11  1  0.15352985  0.12821375  0.56759510  1
  Fe  Fe12  1  0.66387892  0.69424801  0.24055810  1
  Fe  Fe13  1  0.64294081  0.69326525  0.74015163  1
  Fe  Fe14  1  0.47655771  0.54681044  0.48129306  1
  Fe  Fe15  1  0.32249052  0.34141974  0.20386370  1
  Fe  Fe16  1  0.33703654  0.34024296  0.70472340  1
  Fe  Fe17  1  0.97609939  0.54654903  0.98121403  1
  P  P18  1  0.76216574  0.84202822  0.98776331  1
  P  P19  1  0.78863814  0.41855961  0.23025430  1
  P  P20  1  0.79329972  0.41740381  0.73032467  1
  P  P21  1  0.39433518  0.84216073  0.48806614  1
  P  P22  1  0.70209286  0.12628518  0.54189367  1
  P  P23  1  0.20918115  0.60729503  0.23061285  1
  P  P24  1  0.18359508  0.60603643  0.73006802  1
  P  P25  1  0.17263807  0.12689126  0.04208136  1
  O  O26  1  0.97891803  0.73452647  0.99141562  1
  O  O27  1  0.97912593  0.68604534  0.26285944  1
  O  O28  1  0.95602614  0.69772306  0.70555111  1
  O  O29  1  0.02495810  0.32562334  0.71185703  1
  O  O30  1  0.66126515  0.86657828  0.12163499  1
  O  O31  1  0.77298437  0.50471512  0.11426187  1
  O  O32  1  0.59666476  0.80398199  0.90241522  1
  O  O33  1  0.71001193  0.51371991  0.34026657  1
  O  O34  1  0.59848571  0.80419876  0.40337568  1
  O  O35  1  0.77695233  0.51313502  0.83987532  1
  O  O36  1  0.72252993  0.50311631  0.61413650  1
  O  O37  1  0.46843734  0.86743294  0.62207151  1
  O  O38  1  0.64884552  0.32658166  0.21173557  1
  O  O39  1  0.80112800  0.23247125  0.50969598  1
  O  O40  1  0.84280751  0.03886568  0.64528944  1
  O  O41  1  0.81060531  0.96139238  0.93453468  1
  O  O42  1  0.63823942  0.33904054  0.76583370  1
  O  O43  1  0.34651960  0.69844458  0.20591267  1
  O  O44  1  0.33651607  0.68389788  0.76263440  1
  O  O45  1  0.69751244  0.04776949  0.42211836  1
  O  O46  1  0.28547392  0.73433109  0.49191738  1
  O  O47  1  0.29068083  0.50891314  0.33682160  1
  O  O48  1  0.22569663  0.51767357  0.11423107  1
  O  O49  1  0.35594035  0.17964756  0.09997508  1
  O  O50  1  0.46560721  0.17954244  0.59907175  1
  O  O51  1  0.25639796  0.51618270  0.61395770  1
  O  O52  1  0.19956247  0.50802422  0.83669780  1
  O  O53  1  0.25603149  0.04799694  0.92260387  1
  O  O54  1  0.02192196  0.34020226  0.26511333  1
  O  O55  1  0.22701686  0.96087767  0.43410101  1
  O  O56  1  0.11750267  0.03971929  0.14531737  1
  O  O57  1  -0.03099181  0.23347199  0.00941288  1
