# generated using pymatgen
data_Li4V3P8O29
_symmetry_space_group_name_H-M   'P 1'
_cell_length_a   9.80337964
_cell_length_b   9.79807524
_cell_length_c   14.21678478
_cell_angle_alpha   89.98641896
_cell_angle_beta   90.57450576
_cell_angle_gamma   59.85037293
_symmetry_Int_Tables_number   1
_chemical_formula_structural   Li4V3P8O29
_chemical_formula_sum   'Li8 V6 P16 O58'
_cell_volume   1180.76078886
_cell_formula_units_Z   2
loop_
 _symmetry_equiv_pos_site_id
 _symmetry_equiv_pos_as_xyz
  1  'x, y, z'
loop_
 _atom_site_type_symbol
 _atom_site_label
 _atom_site_symmetry_multiplicity
 _atom_site_fract_x
 _atom_site_fract_y
 _atom_site_fract_z
 _atom_site_occupancy
  Li  Li0  1  0.76763477  0.90261338  0.55486405  1
  Li  Li1  1  0.77050153  0.31966495  0.06065724  1
  Li  Li2  1  0.31863110  0.90284526  0.06052003  1
  Li  Li3  1  0.67220115  0.23792256  0.43781368  1
  Li  Li4  1  0.33059738  0.76788917  0.55862259  1
  Li  Li5  1  0.69535401  0.07743653  0.94056728  1
  Li  Li6  1  0.09242556  0.22460455  0.94072365  1
  Li  Li7  1  0.04583344  0.01835564  0.49097648  1
  V  V8  1  0.56431093  0.43627016  0.24908853  1
  V  V9  1  0.42996285  0.56592375  0.75252824  1
  V  V10  1  0.56868998  0.99618253  0.75051590  1
  V  V11  1  0.43080350  0.00593117  0.25326487  1
  V  V12  1  0.00173573  0.56528903  0.25212209  1
  V  V13  1  0.99487433  0.44196837  0.74297663  1
  P  P14  1  0.91992529  0.76734636  0.84675552  1
  P  P15  1  0.77480917  0.91198823  0.33742350  1
  P  P16  1  0.91776391  0.30511480  0.33979993  1
  P  P17  1  0.66611546  0.66843515  0.13197586  1
  P  P18  1  0.66103533  0.66871610  0.63000525  1
  P  P19  1  0.77255835  0.31733534  0.83807690  1
  P  P20  1  0.68209146  0.22870226  0.65688613  1
  P  P21  1  0.32187180  0.91038516  0.84257118  1
  P  P22  1  0.67882253  0.08941339  0.15624186  1
  P  P23  1  0.31377567  0.77523830  0.34353308  1
  P  P24  1  0.22298956  0.68724616  0.16408046  1
  P  P25  1  0.33534418  0.33219786  0.37083372  1
  P  P26  1  0.33397438  0.33017115  0.86768330  1
  P  P27  1  0.08054982  0.69717132  0.66067911  1
  P  P28  1  0.22254636  0.08746428  0.66269940  1
  P  P29  1  0.08562352  0.23139699  0.15731689  1
  O  O30  1  0.99143364  0.79343821  0.57741088  1
  O  O31  1  0.91471617  0.74139227  0.33548200  1
  O  O32  1  0.74651273  0.00742929  0.06684223  1
  O  O33  1  0.74963783  0.91275881  0.83907632  1
  O  O34  1  0.91078667  0.61624821  0.81879344  1
  O  O35  1  0.81588608  0.65936246  0.18242119  1
  O  O36  1  0.92492133  0.45854054  0.33034237  1
  O  O37  1  0.00038242  0.24223899  0.06656292  1
  O  O38  1  0.91799968  0.33906430  0.83819629  1
  O  O39  1  0.67563366  0.81025992  0.66853846  1
  O  O40  1  0.61733370  0.91087973  0.32548903  1
  O  O41  1  0.80909877  0.51646914  0.67622888  1
  O  O42  1  0.66903404  0.67181705  0.02762615  1
  O  O43  1  0.66124645  0.66413402  0.52559454  1
  O  O44  1  0.66839392  0.51486783  0.16771260  1
  O  O45  1  0.48234365  0.89831648  0.82329888  1
  O  O46  1  0.51765923  0.81893943  0.17238006  1
  O  O47  1  0.74294731  0.34307124  0.33425137  1
  O  O48  1  0.79243636  0.20964518  0.74780736  1
  O  O49  1  0.75929446  0.22550132  0.56677537  1
  O  O50  1  0.76025258  0.24173854  0.92690721  1
  O  O51  1  0.61907358  0.47860254  0.81994884  1
  O  O52  1  0.50906389  0.67347182  0.67054409  1
  O  O53  1  0.66167406  0.25546605  0.16040264  1
  O  O54  1  0.46856753  0.62041550  0.33231729  1
  O  O55  1  0.34201872  0.91685270  0.32547925  1
  O  O56  1  0.79325746  0.99693637  0.24605995  1
  O  O57  1  0.77390546  0.99787305  0.42539761  1
  O  O58  1  0.20303612  0.99822697  0.58361714  1
  O  O59  1  0.65688493  0.08464334  0.66396287  1
  O  O60  1  0.52584428  0.38522195  0.67479664  1
  O  O61  1  0.34244193  0.74321470  0.83228292  1
  O  O62  1  0.48856573  0.32470412  0.33443303  1
  O  O63  1  0.37846281  0.52625943  0.18031736  1
  O  O64  1  0.22988871  0.77389470  0.08110699  1
  O  O65  1  0.23090030  0.80045002  0.43512295  1
  O  O66  1  0.19776233  0.78947548  0.25897925  1
  O  O67  1  0.25482669  0.66084097  0.66160194  1
  O  O68  1  0.48671821  0.18361691  0.82883470  1
  O  O69  1  0.51997378  0.09919011  0.18034009  1
  O  O70  1  0.33775458  0.47833354  0.82083058  1
  O  O71  1  0.33489290  0.33499699  0.97181431  1
  O  O72  1  0.33217083  0.32285763  0.47463609  1
  O  O73  1  0.18853211  0.47934962  0.32442132  1
  O  O74  1  0.38157339  0.08017145  0.66917548  1
  O  O75  1  0.33141211  0.18508883  0.32307968  1
  O  O76  1  0.08307402  0.65607368  0.16837746  1
  O  O77  1  0.00700918  0.79071558  0.75572316  1
  O  O78  1  0.00585757  0.75321978  0.93440460  1
  O  O79  1  0.08121031  0.53689949  0.67023821  1
  O  O80  1  0.18415770  0.33366227  0.82484699  1
  O  O81  1  0.09347330  0.38198563  0.17723590  1
  O  O82  1  0.25415250  0.08505353  0.15870429  1
  O  O83  1  0.25102347  0.99105146  0.93341383  1
  O  O84  1  0.20179578  0.01178389  0.75979235  1
  O  O85  1  0.08475120  0.26096894  0.66773168  1
  O  O86  1  0.99881804  0.20176905  0.42162681  1
  O  O87  1  0.99374875  0.20867201  0.24275281  1
