# generated using pymatgen
data_Li4V3P8O29
_symmetry_space_group_name_H-M   'P 1'
_cell_length_a   9.83405012
_cell_length_b   9.76501772
_cell_length_c   14.26687017
_cell_angle_alpha   89.74035234
_cell_angle_beta   90.40189821
_cell_angle_gamma   59.97836847
_symmetry_Int_Tables_number   1
_chemical_formula_structural   Li4V3P8O29
_chemical_formula_sum   'Li8 V6 P16 O58'
_cell_volume   1186.15289316
_cell_formula_units_Z   2
loop_
 _symmetry_equiv_pos_site_id
 _symmetry_equiv_pos_as_xyz
  1  'x, y, z'
loop_
 _atom_site_type_symbol
 _atom_site_label
 _atom_site_symmetry_multiplicity
 _atom_site_fract_x
 _atom_site_fract_y
 _atom_site_fract_z
 _atom_site_occupancy
  Li  Li0  1  0.91653250  0.77645896  0.05533329  1
  Li  Li1  1  0.77653745  0.30521416  0.05621480  1
  Li  Li2  1  0.31485168  0.90850308  0.05719148  1
  Li  Li3  1  0.68317205  0.23235997  0.44177619  1
  Li  Li4  1  0.32716713  0.76791887  0.56201338  1
  Li  Li5  1  0.33064058  0.33066612  0.60689922  1
  Li  Li6  1  0.09109156  0.22811716  0.93931476  1
  Li  Li7  1  0.00465039  0.98928419  0.50680864  1
  V  V8  1  0.56575704  0.43448075  0.24737171  1
  V  V9  1  0.43182428  0.56464657  0.75461648  1
  V  V10  1  0.57345170  0.99361388  0.75222140  1
  V  V11  1  0.43559726  0.00319548  0.25492498  1
  V  V12  1  0.00086929  0.56415575  0.25853649  1
  V  V13  1  0.99426285  0.43732368  0.74013019  1
  P  P14  1  0.91843519  0.76591788  0.84009027  1
  P  P15  1  0.77674146  0.91800452  0.34050337  1
  P  P16  1  0.91692113  0.30247967  0.34054639  1
  P  P17  1  0.67012322  0.66902099  0.13404714  1
  P  P18  1  0.65784930  0.67103717  0.62981263  1
  P  P19  1  0.77276147  0.32012667  0.83785712  1
  P  P20  1  0.68209625  0.22513020  0.65934563  1
  P  P21  1  0.31783038  0.91402865  0.84379125  1
  P  P22  1  0.68193908  0.08531839  0.15582971  1
  P  P23  1  0.31709789  0.77140588  0.34449633  1
  P  P24  1  0.22444928  0.68670681  0.16560647  1
  P  P25  1  0.33681639  0.33116170  0.37106314  1
  P  P26  1  0.32964405  0.32829572  0.86609345  1
  P  P27  1  0.08549308  0.69722686  0.65762262  1
  P  P28  1  0.22250656  0.08730547  0.66128331  1
  P  P29  1  0.08860243  0.23226938  0.15912947  1
  O  O30  1  0.99568290  0.79937300  0.57729652  1
  O  O31  1  0.91268647  0.74318282  0.33498374  1
  O  O32  1  0.76059297  0.99131380  0.07194817  1
  O  O33  1  0.74831389  0.91067200  0.83019264  1
  O  O34  1  0.90904928  0.61610185  0.81440049  1
  O  O35  1  0.82032684  0.66298195  0.18049480  1
  O  O36  1  0.91870429  0.46212421  0.32933757  1
  O  O37  1  0.00409043  0.24486019  0.06862052  1
  O  O38  1  0.92369990  0.33597307  0.82943562  1
  O  O39  1  0.65860676  0.81589889  0.67748427  1
  O  O40  1  0.61768097  0.91892651  0.33026356  1
  O  O41  1  0.81072430  0.52120506  0.67295171  1
  O  O42  1  0.67273452  0.67942601  0.03021723  1
  O  O43  1  0.66129345  0.67501472  0.52638030  1
  O  O44  1  0.67063312  0.51557284  0.16830915  1
  O  O45  1  0.47538186  0.90798735  0.82180446  1
  O  O46  1  0.52349191  0.81767404  0.17732057  1
  O  O47  1  0.74324006  0.34030261  0.33257863  1
  O  O48  1  0.78846552  0.20937711  0.74968102  1
  O  O49  1  0.76643908  0.21289508  0.57068619  1
  O  O50  1  0.77386119  0.24582271  0.92886744  1
  O  O51  1  0.62603764  0.48278663  0.82015377  1
  O  O52  1  0.51105867  0.66713257  0.66807072  1
  O  O53  1  0.66095998  0.25356950  0.15686753  1
  O  O54  1  0.47166072  0.61772469  0.32987209  1
  O  O55  1  0.34478246  0.91415037  0.32544113  1
  O  O56  1  0.79268193  0.99947262  0.24691817  1
  O  O57  1  0.78934676  0.00388512  0.42255339  1
  O  O58  1  0.20625129  0.99449232  0.58411328  1
  O  O59  1  0.65341047  0.08240589  0.66939103  1
  O  O60  1  0.51922136  0.37655969  0.66874847  1
  O  O61  1  0.34170386  0.74817268  0.83849817  1
  O  O62  1  0.48829771  0.32591856  0.33665272  1
  O  O63  1  0.37842239  0.52423030  0.18043893  1
  O  O64  1  0.23073755  0.77568357  0.08308043  1
  O  O65  1  0.23764630  0.79161646  0.43603500  1
  O  O66  1  0.19983047  0.78562594  0.26085699  1
  O  O67  1  0.25758690  0.66014096  0.65997241  1
  O  O68  1  0.47404712  0.18065267  0.81990632  1
  O  O69  1  0.52210738  0.09654887  0.17917110  1
  O  O70  1  0.33801288  0.47435196  0.82437257  1
  O  O71  1  0.32763297  0.31995212  0.96944882  1
  O  O72  1  0.33010675  0.32702332  0.47535413  1
  O  O73  1  0.18752267  0.48127027  0.32800375  1
  O  O74  1  0.37521450  0.09640705  0.66644787  1
  O  O75  1  0.33195347  0.18587128  0.32549753  1
  O  O76  1  0.08136185  0.65996505  0.16539585  1
  O  O77  1  0.01466453  0.78572192  0.75658313  1
  O  O78  1  0.99147930  0.75543519  0.93233465  1
  O  O79  1  0.09216101  0.53177982  0.66668823  1
  O  O80  1  0.17947781  0.33544912  0.82058687  1
  O  O81  1  0.09493166  0.38394689  0.18136680  1
  O  O82  1  0.25610943  0.08593558  0.16166344  1
  O  O83  1  0.24806114  0.00094516  0.93325220  1
  O  O84  1  0.20126932  0.01796488  0.75963231  1
  O  O85  1  0.08379392  0.26268962  0.66095776  1
  O  O86  1  0.99651081  0.20482227  0.42402150  1
  O  O87  1  0.99483241  0.20962069  0.24387195  1
