# generated using pymatgen
data_Li4V3P8O29
_symmetry_space_group_name_H-M   'P 1'
_cell_length_a   9.81991028
_cell_length_b   9.83397308
_cell_length_c   14.19782049
_cell_angle_alpha   89.84279869
_cell_angle_beta   89.74853702
_cell_angle_gamma   59.75727638
_symmetry_Int_Tables_number   1
_chemical_formula_structural   Li4V3P8O29
_chemical_formula_sum   'Li8 V6 P16 O58'
_cell_volume   1184.45116933
_cell_formula_units_Z   2
loop_
 _symmetry_equiv_pos_site_id
 _symmetry_equiv_pos_as_xyz
  1  'x, y, z'
loop_
 _atom_site_type_symbol
 _atom_site_label
 _atom_site_symmetry_multiplicity
 _atom_site_fract_x
 _atom_site_fract_y
 _atom_site_fract_z
 _atom_site_occupancy
  Li  Li0  1  0.76516449  0.90105542  0.55565542  1
  Li  Li1  1  0.77253174  0.31129683  0.06090140  1
  Li  Li2  1  0.31994484  0.90671979  0.06140054  1
  Li  Li3  1  0.32686851  0.76327172  0.55801371  1
  Li  Li4  1  0.22059606  0.68639427  0.94669656  1
  Li  Li5  1  0.23230106  0.10102201  0.43906858  1
  Li  Li6  1  0.08892978  0.23117127  0.94018017  1
  Li  Li7  1  0.94692311  0.04169571  0.49016612  1
  V  V8  1  0.56592723  0.42971179  0.25702229  1
  V  V9  1  0.43547559  0.56227276  0.74898591  1
  V  V10  1  0.56986015  0.00121778  0.75561165  1
  V  V11  1  0.43742581  0.00015876  0.24575379  1
  V  V12  1  0.00125688  0.56743238  0.25081329  1
  V  V13  1  0.99302214  0.44044469  0.74267719  1
  P  P14  1  0.91626262  0.76797487  0.84334126  1
  P  P15  1  0.77339468  0.91258751  0.34124654  1
  P  P16  1  0.91715964  0.30835077  0.33869964  1
  P  P17  1  0.66840800  0.65786597  0.13231816  1
  P  P18  1  0.66205008  0.67613409  0.62925172  1
  P  P19  1  0.77040543  0.31940193  0.84082026  1
  P  P20  1  0.69408377  0.21985568  0.65985275  1
  P  P21  1  0.31930896  0.91070813  0.84146764  1
  P  P22  1  0.68872936  0.08647277  0.15925442  1
  P  P23  1  0.31541070  0.77567042  0.34165242  1
  P  P24  1  0.23050512  0.68119019  0.16260849  1
  P  P25  1  0.32781282  0.33500187  0.36995734  1
  P  P26  1  0.32522359  0.33492608  0.86799064  1
  P  P27  1  0.08327145  0.69249807  0.65878322  1
  P  P28  1  0.23128507  0.08732551  0.66092238  1
  P  P29  1  0.08697701  0.23348353  0.15560581  1
  O  O30  1  0.99372899  0.78708327  0.57576142  1
  O  O31  1  0.91500418  0.74155065  0.32774609  1
  O  O32  1  0.76961299  0.00477357  0.07235684  1
  O  O33  1  0.74489678  0.90970485  0.83592821  1
  O  O34  1  0.90997444  0.61585935  0.82164443  1
  O  O35  1  0.81551061  0.65331358  0.18052440  1
  O  O36  1  0.92316891  0.46125223  0.33158471  1
  O  O37  1  0.99898522  0.24808097  0.06609910  1
  O  O38  1  0.91661956  0.34160942  0.83189451  1
  O  O39  1  0.67146454  0.81875401  0.67292652  1
  O  O40  1  0.61909665  0.91225985  0.32965980  1
  O  O41  1  0.81050278  0.52399137  0.67509469  1
  O  O42  1  0.67708892  0.64665003  0.02772346  1
  O  O43  1  0.67559454  0.67796450  0.52492277  1
  O  O44  1  0.66553929  0.51080122  0.17573099  1
  O  O45  1  0.47948696  0.90071403  0.82200692  1
  O  O46  1  0.51579841  0.81112616  0.16693328  1
  O  O47  1  0.74378017  0.34426269  0.33550126  1
  O  O48  1  0.79062383  0.20289080  0.75646666  1
  O  O49  1  0.79649484  0.19260605  0.57716336  1
  O  O50  1  0.76240992  0.25577412  0.93372847  1
  O  O51  1  0.61840199  0.47944514  0.81796372  1
  O  O52  1  0.51074589  0.67908490  0.66535371  1
  O  O53  1  0.65846619  0.25886706  0.16618536  1
  O  O54  1  0.47233579  0.61825929  0.32668087  1
  O  O55  1  0.34329637  0.91708212  0.33333163  1
  O  O56  1  0.78998024  0.00843615  0.25459172  1
  O  O57  1  0.79170875  0.97867967  0.43207912  1
  O  O58  1  0.22825846  0.00572094  0.57200992  1
  O  O59  1  0.66002447  0.07966670  0.66788104  1
  O  O60  1  0.53919347  0.37774682  0.66789390  1
  O  O61  1  0.33676468  0.74595833  0.84158658  1
  O  O62  1  0.47910106  0.33384929  0.32579198  1
  O  O63  1  0.38372331  0.52376231  0.18057760  1
  O  O64  1  0.24191053  0.75773451  0.07334592  1
  O  O65  1  0.23599250  0.78225411  0.43268660  1
  O  O66  1  0.20738624  0.79357741  0.25162913  1
  O  O67  1  0.25575349  0.65865967  0.66159878  1
  O  O68  1  0.47486308  0.18400702  0.82228602  1
  O  O69  1  0.52730590  0.09333073  0.17798438  1
  O  O70  1  0.32917655  0.48279654  0.82992066  1
  O  O71  1  0.32748409  0.32382117  0.97238182  1
  O  O72  1  0.32684565  0.34381212  0.47441024  1
  O  O73  1  0.18469019  0.48350549  0.32272844  1
  O  O74  1  0.38736793  0.08523446  0.67470739  1
  O  O75  1  0.32496978  0.18785678  0.33237542  1
  O  O76  1  0.08793565  0.65626686  0.16536784  1
  O  O77  1  0.00405491  0.79113707  0.75327698  1
  O  O78  1  0.00347109  0.75918758  0.92959045  1
  O  O79  1  0.08478535  0.53371573  0.67148846  1
  O  O80  1  0.17849624  0.33413039  0.82513282  1
  O  O81  1  0.09717693  0.38118575  0.17695602  1
  O  O82  1  0.25256671  0.08427223  0.15635245  1
  O  O83  1  0.24476214  0.00134603  0.93034181  1
  O  O84  1  0.20871591  0.00031370  0.75165551  1
  O  O85  1  0.08995364  0.25812808  0.66625137  1
  O  O86  1  0.00446207  0.20169222  0.41956498  1
  O  O87  1  0.99251455  0.21199839  0.24181317  1
