# generated using pymatgen
data_LiMnF4
_symmetry_space_group_name_H-M   'P 1'
_cell_length_a   4.25928546
_cell_length_b   6.56826848
_cell_length_c   6.59766888
_cell_angle_alpha   75.25361327
_cell_angle_beta   90.00000000
_cell_angle_gamma   71.08094845
_symmetry_Int_Tables_number   1
_chemical_formula_structural   LiMnF4
_chemical_formula_sum   'Li2 Mn2 F8'
_cell_volume   168.16623223
_cell_formula_units_Z   2
loop_
 _symmetry_equiv_pos_site_id
 _symmetry_equiv_pos_as_xyz
  1  'x, y, z'
loop_
 _atom_site_type_symbol
 _atom_site_label
 _atom_site_symmetry_multiplicity
 _atom_site_fract_x
 _atom_site_fract_y
 _atom_site_fract_z
 _atom_site_occupancy
  Li  Li0  1  0.09566685  0.80866629  0.22039629  1
  Li  Li1  1  0.90433315  0.19133371  0.77960371  1
  Mn  Mn2  1  0.20168810  0.59662280  0.80375045  1
  Mn  Mn3  1  0.79831190  0.40337720  0.19624955  1
  F  F4  1  0.06463985  0.87072131  0.86673532  1
  F  F5  1  0.13890356  0.72219288  0.51939872  1
  F  F6  1  0.73404654  0.53190691  0.88093020  1
  F  F7  1  0.65311047  0.69378006  0.22139169  1
  F  F8  1  0.34688953  0.30621994  0.77860831  1
  F  F9  1  0.26595346  0.46809309  0.11906980  1
  F  F10  1  0.86109644  0.27780712  0.48060128  1
  F  F11  1  0.93536015  0.12927869  0.13326468  1
