# generated using pymatgen
data_Li5Mn4(P2O7)4
_symmetry_space_group_name_H-M   'P 1'
_cell_length_a   9.84925007
_cell_length_b   9.75150128
_cell_length_c   11.27997865
_cell_angle_alpha   89.91940803
_cell_angle_beta   101.61398575
_cell_angle_gamma   90.03678026
_symmetry_Int_Tables_number   1
_chemical_formula_structural   Li5Mn4(P2O7)4
_chemical_formula_sum   'Li10 Mn8 P16 O56'
_cell_volume   1061.20306279
_cell_formula_units_Z   2
loop_
 _symmetry_equiv_pos_site_id
 _symmetry_equiv_pos_as_xyz
  1  'x, y, z'
loop_
 _atom_site_type_symbol
 _atom_site_label
 _atom_site_symmetry_multiplicity
 _atom_site_fract_x
 _atom_site_fract_y
 _atom_site_fract_z
 _atom_site_occupancy
  Li  Li0  1  0.11548754  0.47375273  0.49789824  1
  Li  Li1  1  0.08718933  0.10713069  0.01958789  1
  Li  Li2  1  0.41446333  0.58958425  0.97541159  1
  Li  Li3  1  0.35015130  0.92282223  0.46933865  1
  Li  Li4  1  0.40334466  0.21265829  0.55188253  1
  Li  Li5  1  0.84740911  0.57743983  0.95560065  1
  Li  Li6  1  0.63902566  0.11696021  0.04527306  1
  Li  Li7  1  0.91034481  0.88945908  0.97017425  1
  Li  Li8  1  0.82038250  0.59654567  0.44797737  1
  Li  Li9  1  0.88799643  0.28119072  0.55210824  1
  Mn  Mn10  1  0.20438606  0.92116769  0.67897518  1
  Mn  Mn11  1  0.26347908  0.22140056  0.83172226  1
  Mn  Mn12  1  0.22855934  0.71644235  0.16950913  1
  Mn  Mn13  1  0.31321402  0.42727835  0.33207761  1
  Mn  Mn14  1  0.70529304  0.58006456  0.67127454  1
  Mn  Mn15  1  0.74678977  0.28459321  0.82882564  1
  Mn  Mn16  1  0.71568843  0.77553546  0.16646577  1
  Mn  Mn17  1  0.81067802  0.07112218  0.33256863  1
  P  P18  1  0.02219329  0.45048520  0.75543795  1
  P  P19  1  0.12062407  0.70459128  0.89362413  1
  P  P20  1  0.06228995  0.93540928  0.24016628  1
  P  P21  1  0.13402676  0.15633607  0.42432731  1
  P  P22  1  0.38059719  0.64481013  0.57363172  1
  P  P23  1  0.43214279  0.42367620  0.75399869  1
  P  P24  1  0.52122403  0.04258072  0.75887953  1
  P  P25  1  0.37968351  0.21222214  0.12105643  1
  P  P26  1  0.61365408  0.78400006  0.88902752  1
  P  P27  1  0.46439479  0.93846033  0.24001271  1
  P  P28  1  0.56566477  0.57059447  0.24302288  1
  P  P29  1  0.63462949  0.34436728  0.41832393  1
  P  P30  1  0.88352810  0.85974499  0.57159895  1
  P  P31  1  0.93958330  0.07461906  0.75562727  1
  P  P32  1  0.88651709  0.28906333  0.12178689  1
  P  P33  1  0.97319054  0.55686392  0.24592478  1
  O  O34  1  0.02028122  0.42635600  0.62258972  1
  O  O35  1  0.04020664  0.85601505  0.56937508  1
  O  O36  1  0.08914211  0.08190280  0.72946945  1
  O  O37  1  0.09339186  0.34044507  0.84238812  1
  O  O38  1  0.10748893  0.58977655  0.78823767  1
  O  O39  1  0.17240745  0.82879382  0.83584149  1
  O  O40  1  0.22879942  0.64744081  0.00420591  1
  O  O41  1  0.02536006  0.24687007  0.10329395  1
  O  O42  1  0.12489732  0.07767870  0.29708921  1
  O  O43  1  0.06034540  0.93667071  0.10607755  1
  O  O44  1  0.11959543  0.55622880  0.21134126  1
  O  O45  1  0.19186788  0.30127097  0.40788578  1
  O  O46  1  0.16387308  0.82148156  0.29939514  1
  O  O47  1  0.23636353  0.07332433  0.51703936  1
  O  O48  1  0.29243878  0.55814031  0.47042300  1
  O  O49  1  0.34043125  0.30870554  0.68491796  1
  O  O50  1  0.31866912  0.78676731  0.58624562  1
  O  O51  1  0.36651802  0.02593339  0.77847120  1
  O  O52  1  0.36923978  0.56817631  0.69753436  1
  O  O53  1  0.41272653  0.42171062  0.88327896  1
  O  O54  1  0.47460772  0.75452101  0.91473544  1
  O  O55  1  0.27204605  0.16396587  0.00887100  1
  O  O56  1  0.31297761  0.32699523  0.18596449  1
  O  O57  1  0.39585921  0.08757140  0.21896336  1
  O  O58  1  0.41766616  0.58115127  0.27085011  1
  O  O59  1  0.37183517  0.84155216  0.14853056  1
  O  O60  1  0.52838570  0.07996143  0.63180358  1
  O  O61  1  0.48679118  0.32923049  0.43878471  1
  O  O62  1  0.53316158  0.65087561  0.56511289  1
  O  O63  1  0.47430359  0.90564684  0.37009047  1
  O  O64  1  0.59665700  0.13801186  0.86002306  1
  O  O65  1  0.58315419  0.41683524  0.73291789  1
  O  O66  1  0.59981968  0.89744855  0.78361137  1
  O  O67  1  0.69228614  0.66756580  0.84137832  1
  O  O68  1  0.71754751  0.84896470  0.00318398  1
  O  O69  1  0.51816537  0.24166306  0.09358896  1
  O  O70  1  0.57123580  0.59113606  0.11144256  1
  O  O71  1  0.62389377  0.42384240  0.28977072  1
  O  O72  1  0.61017222  0.94479027  0.19987504  1
  O  O73  1  0.70374962  0.20744530  0.40341265  1
  O  O74  1  0.67185548  0.67847935  0.31068332  1
  O  O75  1  0.73003534  0.43358113  0.51225960  1
  O  O76  1  0.79921807  0.93799195  0.46337253  1
  O  O77  1  0.84906577  0.19396598  0.69715682  1
  O  O78  1  0.82566062  0.71598344  0.58391879  1
  O  O79  1  0.87147777  0.47379857  0.78006558  1
  O  O80  1  0.93286019  0.06110341  0.88807564  1
  O  O81  1  0.86943672  0.93538177  0.69454182  1
  O  O82  1  0.98133913  0.71779070  0.92955935  1
  O  O83  1  0.79223789  0.35203658  0.00903650  1
  O  O84  1  0.80460673  0.17477700  0.17746995  1
  O  O85  1  0.90906773  0.40589926  0.22648215  1
  O  O86  1  0.87681509  0.65182879  0.15536809  1
  O  O87  1  0.91433694  0.92261439  0.26918196  1
  O  O88  1  0.98669381  0.16741364  0.44610826  1
  O  O89  1  0.97980844  0.58204526  0.37876449  1
