# generated using pymatgen
data_Li5FeO4F
_symmetry_space_group_name_H-M   'P 1'
_cell_length_a   5.22099073
_cell_length_b   5.28897636
_cell_length_c   8.89546124
_cell_angle_alpha   90.00000000
_cell_angle_beta   90.00000000
_cell_angle_gamma   66.12803977
_symmetry_Int_Tables_number   1
_chemical_formula_structural   Li5FeO4F
_chemical_formula_sum   'Li10 Fe2 O8 F2'
_cell_volume   224.62287888
_cell_formula_units_Z   2
loop_
 _symmetry_equiv_pos_site_id
 _symmetry_equiv_pos_as_xyz
  1  'x, y, z'
loop_
 _atom_site_type_symbol
 _atom_site_label
 _atom_site_symmetry_multiplicity
 _atom_site_fract_x
 _atom_site_fract_y
 _atom_site_fract_z
 _atom_site_occupancy
  Li  Li0  1  0.28856522  0.02473875  0.93548554  1
  Li  Li1  1  0.25116961  0.06459295  0.56117999  1
  Li  Li2  1  0.19656794  0.45747586  0.74796413  1
  Li  Li3  1  0.20745474  0.56870060  0.45631080  1
  Li  Li4  1  0.28316517  0.48887027  0.04595012  1
  Li  Li5  1  0.71683483  0.51112973  0.54595012  1
  Li  Li6  1  0.79254526  0.43129940  0.95631080  1
  Li  Li7  1  0.80343206  0.54252414  0.24796413  1
  Li  Li8  1  0.74883039  0.93540705  0.06117999  1
  Li  Li9  1  0.71143478  0.97526125  0.43548554  1
  Fe  Fe10  1  0.23356024  0.94302223  0.23398404  1
  Fe  Fe11  1  0.76643976  0.05697777  0.73398404  1
  O  O12  1  0.08628076  0.24348139  0.11141465  1
  O  O13  1  0.06169620  0.15360352  0.75735594  1
  O  O14  1  0.50609625  0.27243074  0.58924912  1
  O  O15  1  0.55463724  0.22089384  0.90132768  1
  O  O16  1  0.44536276  0.77910616  0.40132768  1
  O  O17  1  0.49390375  0.72756926  0.08924912  1
  O  O18  1  0.93830380  0.84639648  0.25735594  1
  O  O19  1  0.91371924  0.75651861  0.61141465  1
  F  F20  1  0.01883361  0.31339089  0.41581498  1
  F  F21  1  0.98116639  0.68660911  0.91581498  1
