# generated using pymatgen
data_LiMn(PO3)3
_symmetry_space_group_name_H-M   'P 1'
_cell_length_a   9.92207910
_cell_length_b   11.11264491
_cell_length_c   12.18711346
_cell_angle_alpha   66.18761924
_cell_angle_beta   69.59730658
_cell_angle_gamma   97.36583182
_symmetry_Int_Tables_number   1
_chemical_formula_structural   LiMn(PO3)3
_chemical_formula_sum   'Li6 Mn6 P18 O54'
_cell_volume   1094.09631879
_cell_formula_units_Z   6
loop_
 _symmetry_equiv_pos_site_id
 _symmetry_equiv_pos_as_xyz
  1  'x, y, z'
loop_
 _atom_site_type_symbol
 _atom_site_label
 _atom_site_symmetry_multiplicity
 _atom_site_fract_x
 _atom_site_fract_y
 _atom_site_fract_z
 _atom_site_occupancy
  Li  Li0  1  0.05624784  0.25823148  0.93593164  1
  Li  Li1  1  0.18885047  0.85596276  0.73812878  1
  Li  Li2  1  0.66242511  0.60254071  0.73867553  1
  Li  Li3  1  0.49213157  0.19405598  0.06417001  1
  Li  Li4  1  0.42712965  0.59414290  0.26184575  1
  Li  Li5  1  0.90104299  0.34120043  0.26143098  1
  Mn  Mn6  1  0.53928454  0.07586532  0.50908907  1
  Mn  Mn7  1  0.18401216  0.25377453  0.18579609  1
  Mn  Mn8  1  0.86970832  0.43952893  0.81429989  1
  Mn  Mn9  1  0.54843234  0.58501583  0.49093450  1
  Mn  Mn10  1  0.84886504  0.92679816  0.84015145  1
  Mn  Mn11  1  0.18902284  0.76693510  0.15982338  1
  P  P12  1  0.28569008  0.13674812  0.94878001  1
  P  P13  1  0.23673492  0.11824810  0.72192517  1
  P  P14  1  0.10608627  0.51867036  0.95187150  1
  P  P15  1  0.17335316  0.38950136  0.60677018  1
  P  P16  1  0.60221410  0.32953772  0.72158196  1
  P  P17  1  0.08036966  0.40290077  0.38489366  1
  P  P18  1  0.79731307  0.17356186  0.61216294  1
  P  P19  1  0.48222918  0.73708325  0.94332042  1
  P  P20  1  0.42503279  0.70769830  0.72692063  1
  P  P21  1  0.82384088  0.05123248  0.27830451  1
  P  P22  1  0.73439194  0.08549855  0.05125283  1
  P  P23  1  0.65196943  0.43464228  0.27315203  1
  P  P24  1  0.28014964  0.99607935  0.39330440  1
  P  P25  1  0.55790554  0.47047650  0.04821459  1
  P  P26  1  0.96532763  0.78772328  0.61509621  1
  P  P27  1  0.45872464  0.84010787  0.27807611  1
  P  P28  1  0.90957875  0.78582681  0.38771561  1
  P  P29  1  0.92559413  0.68046752  0.05663367  1
  O  O30  1  0.21943637  0.15978475  0.83971949  1
  O  O31  1  0.80925264  0.01586144  0.97780538  1
  O  O32  1  0.02555393  0.34897634  0.72515624  1
  O  O33  1  0.46045499  0.23619785  0.87116002  1
  O  O34  1  0.39067103  0.10754699  0.66350647  1
  O  O35  1  0.05121564  0.65240957  0.94343773  1
  O  O36  1  0.21711743  0.25078534  0.61855523  1
  O  O37  1  0.71753011  0.22590241  0.97812142  1
  O  O38  1  0.38152532  0.07575559  0.42347929  1
  O  O39  1  0.25050398  0.07391239  0.27505753  1
  O  O40  1  0.68176562  0.21681639  0.71086429  1
  O  O41  1  0.32312109  0.73721363  0.99878207  1
  O  O42  1  0.26293374  0.58941386  0.81886654  1
  O  O43  1  0.71111536  0.09161505  0.57332861  1
  O  O44  1  0.89549245  0.11641078  0.67462910  1
  O  O45  1  0.70284373  0.52165667  0.92507096  1
  O  O46  1  0.15199148  0.30861086  0.34125811  1
  O  O47  1  0.66347276  0.00493773  0.37824087  1
  O  O48  1  0.15637264  0.44011491  0.46954824  1
  O  O49  1  0.54194017  0.38316737  0.62152521  1
  O  O50  1  0.30491801  0.49952544  0.57634984  1
  O  O51  1  0.00392983  0.42796260  0.92890349  1
  O  O52  1  0.70085726  0.43330695  0.73513320  1
  O  O53  1  0.50561740  0.69368563  0.82570661  1
  O  O54  1  0.55913536  0.99952962  0.16048601  1
  O  O55  1  0.10631069  0.99100653  0.77634896  1
  O  O56  1  0.19576037  0.20406395  0.02189360  1
  O  O57  1  0.09030993  0.53788364  0.28007603  1
  O  O58  1  0.66408040  0.30010057  0.36110808  1
  O  O59  1  0.61045905  0.85764171  0.89735672  1
  O  O60  1  0.52510979  0.66119705  0.63887821  1
  O  O61  1  0.12609695  0.90949342  0.53068524  1
  O  O62  1  0.90082854  0.32549743  0.48155082  1
  O  O63  1  0.12791727  0.44678977  0.07501297  1
  O  O64  1  0.39464319  0.84345567  0.67248392  1
  O  O65  1  0.07022888  0.79121573  0.32516573  1
  O  O66  1  0.56704073  0.51584337  0.32769637  1
  O  O67  1  0.93605194  0.16849814  0.26479391  1
  O  O68  1  0.43279924  0.35669449  0.07130149  1
  O  O69  1  0.83175610  0.10742975  0.12868235  1
  O  O70  1  0.58180985  0.40838921  0.18118399  1
  O  O71  1  0.99323035  0.64976160  0.65870108  1
  O  O72  1  0.00789663  0.75520025  0.10247737  1
  O  O73  1  0.87038411  0.81783442  0.71992746  1
  O  O74  1  0.33554327  0.86906293  0.38152142  1
  O  O75  1  0.78456246  0.66502007  0.42657033  1
  O  O76  1  0.38294284  0.76742531  0.22343715  1
  O  O77  1  0.55427940  0.77099596  0.33645992  1
  O  O78  1  0.88264211  0.80719480  0.51827463  1
  O  O79  1  0.49458234  0.59580783  0.05654852  1
  O  O80  1  0.83135499  0.51949758  0.17437800  1
  O  O81  1  0.28725306  0.99372757  0.02229019  1
  O  O82  1  0.89255853  0.92772783  0.28910457  1
  O  O83  1  0.82194499  0.73593765  0.00111554  1
