# generated using pymatgen
data_Li5Fe3O8
_symmetry_space_group_name_H-M   'P 1'
_cell_length_a   5.81396260
_cell_length_b   5.82577878
_cell_length_c   9.90158231
_cell_angle_alpha   90.15035880
_cell_angle_beta   89.59177289
_cell_angle_gamma   119.35988293
_symmetry_Int_Tables_number   1
_chemical_formula_structural   Li5Fe3O8
_chemical_formula_sum   'Li10 Fe6 O16'
_cell_volume   292.29106408
_cell_formula_units_Z   2
loop_
 _symmetry_equiv_pos_site_id
 _symmetry_equiv_pos_as_xyz
  1  'x, y, z'
loop_
 _atom_site_type_symbol
 _atom_site_label
 _atom_site_symmetry_multiplicity
 _atom_site_fract_x
 _atom_site_fract_y
 _atom_site_fract_z
 _atom_site_occupancy
  Li  Li0  1  0.18101601  0.82100842  0.05238294  1
  Li  Li1  1  0.35908891  0.67169591  0.53353041  1
  Li  Li2  1  0.34691784  0.66088099  0.28135769  1
  Li  Li3  1  0.67819598  0.82140448  0.04717378  1
  Li  Li4  1  0.85509936  0.67289248  0.54902715  1
  Li  Li5  1  0.18173871  0.32522430  0.04738431  1
  Li  Li6  1  0.36160202  0.17782524  0.54985612  1
  Li  Li7  1  0.68669985  0.33975594  0.78165595  1
  Li  Li8  1  0.67500307  0.32767623  0.03313910  1
  Li  Li9  1  0.85665578  0.17431669  0.55221002  1
  Fe  Fe10  1  0.84665428  0.65980747  0.28771423  1
  Fe  Fe11  1  0.18687226  0.34110579  0.78695532  1
  Fe  Fe12  1  0.68485777  0.83882339  0.78705940  1
  Fe  Fe13  1  0.84647527  0.16216459  0.28687796  1
  Fe  Fe14  1  0.18655189  0.83851258  0.78778584  1
  Fe  Fe15  1  0.34842921  0.16144408  0.28791001  1
  O  O16  1  0.02318206  0.00053840  0.66713631  1
  O  O17  1  0.17751446  0.83920908  0.39407248  1
  O  O18  1  0.52156041  0.98733552  0.67533904  1
  O  O19  1  0.34726288  0.67685890  0.90870235  1
  O  O20  1  0.69725516  0.82687495  0.39645636  1
  O  O21  1  0.03981072  0.50547284  0.67446993  1
  O  O22  1  0.51578501  0.51846732  0.67736162  1
  O  O23  1  0.84694387  0.68851203  0.89562120  1
  O  O24  1  0.18688665  0.31418582  0.39627537  1
  O  O25  1  0.51987608  0.48293346  0.17734595  1
  O  O26  1  0.99473420  0.49401813  0.17330937  1
  O  O27  1  0.01150748  0.99459013  0.16900121  1
  O  O28  1  0.68544154  0.32840219  0.40774222  1
  O  O29  1  0.33412727  0.17551180  0.89544409  1
  O  O30  1  0.51115017  0.01305924  0.17502823  1
  O  O31  1  0.85366881  0.15947361  0.89370903  1
