# generated using pymatgen
data_LiFe2(BO3)2
_symmetry_space_group_name_H-M   'P 1'
_cell_length_a   5.25362194
_cell_length_b   5.27075844
_cell_length_c   20.15986877
_cell_angle_alpha   89.54272107
_cell_angle_beta   90.29283514
_cell_angle_gamma   60.43616712
_symmetry_Int_Tables_number   1
_chemical_formula_structural   LiFe2(BO3)2
_chemical_formula_sum   'Li4 Fe8 B8 O24'
_cell_volume   485.51758994
_cell_formula_units_Z   4
loop_
 _symmetry_equiv_pos_site_id
 _symmetry_equiv_pos_as_xyz
  1  'x, y, z'
loop_
 _atom_site_type_symbol
 _atom_site_label
 _atom_site_symmetry_multiplicity
 _atom_site_fract_x
 _atom_site_fract_y
 _atom_site_fract_z
 _atom_site_occupancy
  Li  Li0  1  0.32610708  0.64934842  0.67062598  1
  Li  Li1  1  0.35659936  0.67056932  0.91815671  1
  Li  Li2  1  0.33149797  0.64383000  0.16895792  1
  Li  Li3  1  0.65484004  0.35390198  0.54299865  1
  Fe  Fe4  1  0.98806996  0.67328605  0.81033813  1
  Fe  Fe5  1  0.00492937  0.67100321  0.30860684  1
  Fe  Fe6  1  0.68429226  0.01222661  0.93625407  1
  Fe  Fe7  1  0.67509950  0.99772250  0.43233264  1
  Fe  Fe8  1  0.32090008  0.00448292  0.55947451  1
  Fe  Fe9  1  0.32496268  0.01388406  0.05941057  1
  Fe  Fe10  1  0.99120707  0.31932161  0.68737848  1
  Fe  Fe11  1  0.98920329  0.31445657  0.18743893  1
  B  B12  1  0.00301347  0.34121644  0.93593664  1
  B  B13  1  0.00337808  0.33814974  0.43482632  1
  B  B14  1  0.33013380  0.00755082  0.81329871  1
  B  B15  1  0.33965163  0.00225820  0.31193324  1
  B  B16  1  0.65867904  0.99789814  0.68687345  1
  B  B17  1  0.65821494  0.99610911  0.18598762  1
  B  B18  1  0.99187814  0.66728077  0.56003411  1
  B  B19  1  0.99225623  0.66974986  0.06299932  1
  O  O20  1  0.10775640  0.27343685  0.79026935  1
  O  O21  1  0.11491758  0.27133204  0.29073403  1
  O  O22  1  0.25557871  0.08268431  0.95753717  1
  O  O23  1  0.03459032  0.57936739  0.91479774  1
  O  O24  1  0.27574141  0.10959064  0.45348871  1
  O  O25  1  0.98562077  0.59880224  0.41278801  1
  O  O26  1  0.59941465  0.97838187  0.83109276  1
  O  O27  1  0.25399568  0.66453012  0.56926481  1
  O  O28  1  0.60550486  0.98548472  0.33214594  1
  O  O29  1  0.22539303  0.71597048  0.07128423  1
  O  O30  1  0.28743690  0.77257622  0.82113064  1
  O  O31  1  0.30775618  0.76175156  0.31173377  1
  O  O32  1  0.64863501  0.26128627  0.68221890  1
  O  O33  1  0.64545296  0.25902067  0.18539337  1
  O  O34  1  0.73716348  0.35686552  0.93505643  1
  O  O35  1  0.41597951  0.97150590  0.66886602  1
  O  O36  1  0.75838451  0.30994145  0.44165314  1
  O  O37  1  0.41910898  0.96735764  0.16411430  1
  O  O38  1  0.97025473  0.42196981  0.57633824  1
  O  O39  1  0.02281036  0.40156617  0.08143767  1
  O  O40  1  0.74388572  0.91950240  0.53539855  1
  O  O41  1  0.72712276  0.88835608  0.03834090  1
  O  O42  1  0.92037851  0.74593176  0.70833061  1
  O  O43  1  0.91398500  0.74170254  0.20828386  1
