# generated using pymatgen
data_Li4V3P8O29
_symmetry_space_group_name_H-M   'P 1'
_cell_length_a   9.80247812
_cell_length_b   9.81007167
_cell_length_c   14.03729182
_cell_angle_alpha   90.06157682
_cell_angle_beta   90.06224239
_cell_angle_gamma   59.93916234
_symmetry_Int_Tables_number   1
_chemical_formula_structural   Li4V3P8O29
_chemical_formula_sum   'Li8 V6 P16 O58'
_cell_volume   1168.30199281
_cell_formula_units_Z   2
loop_
 _symmetry_equiv_pos_site_id
 _symmetry_equiv_pos_as_xyz
  1  'x, y, z'
loop_
 _atom_site_type_symbol
 _atom_site_label
 _atom_site_symmetry_multiplicity
 _atom_site_fract_x
 _atom_site_fract_y
 _atom_site_fract_z
 _atom_site_occupancy
  Li  Li0  1  0.90295949  0.77190552  0.05919381  1
  Li  Li1  1  0.77735749  0.31503604  0.05866195  1
  Li  Li2  1  0.31669986  0.91166194  0.05979662  1
  Li  Li3  1  0.68181237  0.22632583  0.44110718  1
  Li  Li4  1  0.31945497  0.77378307  0.55834161  1
  Li  Li5  1  0.22657833  0.68040787  0.94176928  1
  Li  Li6  1  0.08876594  0.68250173  0.43926427  1
  Li  Li7  1  0.22502334  0.09695174  0.44243917  1
  V  V8  1  0.57083610  0.43075617  0.24915821  1
  V  V9  1  0.43778766  0.56220967  0.75002608  1
  V  V10  1  0.56929413  0.99850782  0.75081888  1
  V  V11  1  0.43466655  0.00185036  0.24887313  1
  V  V12  1  0.99952133  0.56531372  0.25192583  1
  V  V13  1  0.00149710  0.43085321  0.74912176  1
  P  P14  1  0.91257071  0.76904717  0.83986294  1
  P  P15  1  0.76922795  0.91569846  0.34285357  1
  P  P16  1  0.91594632  0.31556005  0.34272422  1
  P  P17  1  0.66594949  0.66802068  0.12721487  1
  P  P18  1  0.66662416  0.66736533  0.62977054  1
  P  P19  1  0.77366837  0.31584581  0.84105885  1
  P  P20  1  0.68408541  0.22633396  0.65882207  1
  P  P21  1  0.31865244  0.91124714  0.84276875  1
  P  P22  1  0.68610340  0.08414180  0.15672345  1
  P  P23  1  0.32144134  0.76878318  0.34114999  1
  P  P24  1  0.23185994  0.67941098  0.15965989  1
  P  P25  1  0.33572951  0.33200364  0.37258634  1
  P  P26  1  0.33293277  0.33333010  0.87023179  1
  P  P27  1  0.08861487  0.68144790  0.65714266  1
  P  P28  1  0.23094613  0.08750481  0.66032814  1
  P  P29  1  0.08552298  0.23195324  0.15715889  1
  O  O30  1  0.01006058  0.75504562  0.56609693  1
  O  O31  1  0.91477719  0.74833518  0.34119914  1
  O  O32  1  0.76453004  0.99161334  0.07001021  1
  O  O33  1  0.74476953  0.91304478  0.83531707  1
  O  O34  1  0.90595398  0.61675025  0.82289730  1
  O  O35  1  0.81150871  0.67537163  0.16637183  1
  O  O36  1  0.90392184  0.47805484  0.32477454  1
  O  O37  1  0.99850212  0.23215248  0.07056680  1
  O  O38  1  0.91523696  0.34307016  0.83213122  1
  O  O39  1  0.66270594  0.81652532  0.67547254  1
  O  O40  1  0.61698336  0.90604921  0.32136632  1
  O  O41  1  0.81504639  0.52156116  0.67383634  1
  O  O42  1  0.65427995  0.67623887  0.02100413  1
  O  O43  1  0.65762106  0.67181183  0.52435333  1
  O  O44  1  0.67256409  0.51438265  0.16654856  1
  O  O45  1  0.47740139  0.90452381  0.82295862  1
  O  O46  1  0.51124401  0.81812192  0.17097513  1
  O  O47  1  0.74682490  0.33814647  0.33909594  1
  O  O48  1  0.79284172  0.20729594  0.74992859  1
  O  O49  1  0.75179473  0.23904671  0.56770372  1
  O  O50  1  0.76085823  0.24820233  0.93212781  1
  O  O51  1  0.61938889  0.47729960  0.82037297  1
  O  O52  1  0.51342451  0.66772736  0.67095640  1
  O  O53  1  0.66366428  0.25158525  0.15801749  1
  O  O54  1  0.48053759  0.62126736  0.32416420  1
  O  O55  1  0.33688204  0.91915324  0.33901181  1
  O  O56  1  0.79096880  0.00018219  0.24994719  1
  O  O57  1  0.75545154  0.00764712  0.42971865  1
  O  O58  1  0.24112151  0.00024387  0.57043064  1
  O  O59  1  0.65729304  0.08462505  0.66792409  1
  O  O60  1  0.52262412  0.38058765  0.67959328  1
  O  O61  1  0.34028128  0.74220452  0.83703751  1
  O  O62  1  0.48868233  0.32383219  0.33307927  1
  O  O63  1  0.38230664  0.51958813  0.17755973  1
  O  O64  1  0.24264140  0.75657599  0.06953967  1
  O  O65  1  0.24029020  0.76285290  0.43083205  1
  O  O66  1  0.21014413  0.79045817  0.25009706  1
  O  O67  1  0.25795721  0.65942406  0.66274246  1
  O  O68  1  0.47859125  0.18505216  0.82601893  1
  O  O69  1  0.52311565  0.09477686  0.17696457  1
  O  O70  1  0.33224385  0.48666381  0.82914035  1
  O  O71  1  0.32887687  0.34194098  0.97565561  1
  O  O72  1  0.33326661  0.32445708  0.47883236  1
  O  O73  1  0.18772186  0.48555160  0.33336807  1
  O  O74  1  0.38337885  0.09399601  0.67725509  1
  O  O75  1  0.33059466  0.18256410  0.32859071  1
  O  O76  1  0.08349155  0.66228161  0.16090884  1
  O  O77  1  0.00188925  0.79022652  0.74927451  1
  O  O78  1  0.99964924  0.75895192  0.92988757  1
  O  O79  1  0.09540309  0.52273868  0.67691757  1
  O  O80  1  0.18341627  0.33763335  0.82455498  1
  O  O81  1  0.09909466  0.37901796  0.17510325  1
  O  O82  1  0.25537588  0.08253354  0.16235623  1
  O  O83  1  0.24470912  0.99009581  0.93366129  1
  O  O84  1  0.20959954  0.99822623  0.75075067  1
  O  O85  1  0.08695680  0.25527278  0.66480708  1
  O  O86  1  0.00552414  0.23327594  0.42964071  1
  O  O87  1  0.00014819  0.20990896  0.24999433  1
