# generated using pymatgen
data_Li3FeO4
_symmetry_space_group_name_H-M   'P 1'
_cell_length_a   5.03086338
_cell_length_b   10.20938114
_cell_length_c   9.78412878
_cell_angle_alpha   16.45143452
_cell_angle_beta   29.31965061
_cell_angle_gamma   33.23452264
_symmetry_Int_Tables_number   1
_chemical_formula_structural   Li3FeO4
_chemical_formula_sum   'Li3 Fe1 O4'
_cell_volume   69.69062143
_cell_formula_units_Z   1
loop_
 _symmetry_equiv_pos_site_id
 _symmetry_equiv_pos_as_xyz
  1  'x, y, z'
loop_
 _atom_site_type_symbol
 _atom_site_label
 _atom_site_symmetry_multiplicity
 _atom_site_fract_x
 _atom_site_fract_y
 _atom_site_fract_z
 _atom_site_occupancy
  Li  Li0  1  0.00460622  0.99394978  0.00353379  1
  Li  Li1  1  0.98839479  0.49321515  0.00978015  1
  Li  Li2  1  0.50304867  0.99561461  0.50110493  1
  Fe  Fe3  1  0.50497819  0.49267817  0.50494894  1
  O  O4  1  0.27469833  0.99150347  0.23579079  1
  O  O5  1  0.19128993  0.49058426  0.27801362  1
  O  O6  1  0.73387499  0.99377276  0.77460127  1
  O  O7  1  0.82137688  0.49590680  0.72914151  1
