# generated using pymatgen
data_Li3V3P8O29
_symmetry_space_group_name_H-M   'P 1'
_cell_length_a   9.76860507
_cell_length_b   9.78819988
_cell_length_c   14.44057022
_cell_angle_alpha   90.66733290
_cell_angle_beta   90.15787181
_cell_angle_gamma   59.77559695
_symmetry_Int_Tables_number   1
_chemical_formula_structural   Li3V3P8O29
_chemical_formula_sum   'Li6 V6 P16 O58'
_cell_volume   1192.97570501
_cell_formula_units_Z   2
loop_
 _symmetry_equiv_pos_site_id
 _symmetry_equiv_pos_as_xyz
  1  'x, y, z'
loop_
 _atom_site_type_symbol
 _atom_site_label
 _atom_site_symmetry_multiplicity
 _atom_site_fract_x
 _atom_site_fract_y
 _atom_site_fract_z
 _atom_site_occupancy
  Li  Li0  1  0.76734051  0.91235031  0.55061746  1
  Li  Li1  1  0.77254491  0.30898020  0.06487220  1
  Li  Li2  1  0.31788760  0.77225881  0.54767250  1
  Li  Li3  1  0.21026796  0.71359396  0.95301795  1
  Li  Li4  1  0.08594720  0.22246768  0.94900572  1
  Li  Li5  1  0.97023597  0.05280396  0.48836437  1
  V  V6  1  0.56300989  0.43081744  0.25570616  1
  V  V7  1  0.43856269  0.56190593  0.74669236  1
  V  V8  1  0.56586718  0.99838648  0.75536539  1
  V  V9  1  0.43564728  0.00051975  0.24614162  1
  V  V10  1  0.00172008  0.56525222  0.25339080  1
  V  V11  1  0.99632772  0.43746507  0.74134980  1
  P  P12  1  0.91513524  0.76908654  0.84125809  1
  P  P13  1  0.77404836  0.91585869  0.34073046  1
  P  P14  1  0.91771506  0.30595920  0.33899629  1
  P  P15  1  0.67034593  0.65812669  0.13377906  1
  P  P16  1  0.66296278  0.67032807  0.63252037  1
  P  P17  1  0.77252652  0.32059347  0.84244241  1
  P  P18  1  0.69775243  0.21528044  0.66337537  1
  P  P19  1  0.31204176  0.91327741  0.84066757  1
  P  P20  1  0.69340835  0.08248703  0.15973891  1
  P  P21  1  0.31164811  0.78014790  0.33841567  1
  P  P22  1  0.22632174  0.68136487  0.16303330  1
  P  P23  1  0.33241881  0.33104377  0.36726392  1
  P  P24  1  0.32779248  0.33878655  0.86347540  1
  P  P25  1  0.08339991  0.69300552  0.65956998  1
  P  P26  1  0.22759035  0.08052979  0.66015646  1
  P  P27  1  0.09024320  0.22783280  0.15979131  1
  O  O28  1  0.99298277  0.78798363  0.57875390  1
  O  O29  1  0.91275105  0.74215664  0.33171378  1
  O  O30  1  0.77979807  0.00001248  0.07513293  1
  O  O31  1  0.74353190  0.91289630  0.83246443  1
  O  O32  1  0.90589827  0.61797044  0.81790647  1
  O  O33  1  0.81940273  0.64935758  0.18311930  1
  O  O34  1  0.92545338  0.45901698  0.33148938  1
  O  O35  1  0.00414440  0.23811531  0.07137398  1
  O  O36  1  0.91988985  0.34018944  0.83164387  1
  O  O37  1  0.67278377  0.81290700  0.67573841  1
  O  O38  1  0.61612852  0.91781792  0.32694092  1
  O  O39  1  0.81017047  0.51694161  0.67391863  1
  O  O40  1  0.67907437  0.65456102  0.03123141  1
  O  O41  1  0.65734211  0.67459361  0.53001043  1
  O  O42  1  0.66138476  0.51309629  0.17193726  1
  O  O43  1  0.47455534  0.90455219  0.82316286  1
  O  O44  1  0.52709541  0.81284830  0.17697077  1
  O  O45  1  0.74113384  0.34882156  0.33006862  1
  O  O46  1  0.78770657  0.20078455  0.76045815  1
  O  O47  1  0.79692209  0.19885817  0.58238115  1
  O  O48  1  0.76203123  0.26221975  0.93439613  1
  O  O49  1  0.61957163  0.48073324  0.81720897  1
  O  O50  1  0.50972590  0.67500203  0.67365756  1
  O  O51  1  0.66016266  0.25687512  0.16601432  1
  O  O52  1  0.46943390  0.61966406  0.32607431  1
  O  O53  1  0.34553727  0.91704409  0.32767651  1
  O  O54  1  0.79373943  0.00633660  0.25464663  1
  O  O55  1  0.78685957  0.98686378  0.43042630  1
  O  O56  1  0.21575916  0.99596665  0.57741507  1
  O  O57  1  0.65814618  0.07984363  0.66684725  1
  O  O58  1  0.53874919  0.37893158  0.67367311  1
  O  O59  1  0.33730937  0.74302378  0.83599340  1
  O  O60  1  0.48421236  0.33007462  0.32486740  1
  O  O61  1  0.37956525  0.52202396  0.18273808  1
  O  O62  1  0.23415077  0.75350737  0.07518179  1
  O  O63  1  0.22916164  0.79091489  0.42730023  1
  O  O64  1  0.20340004  0.79547891  0.25069626  1
  O  O65  1  0.25770878  0.65856098  0.66102491  1
  O  O66  1  0.47651089  0.18538419  0.82111229  1
  O  O67  1  0.53254000  0.08773880  0.17667379  1
  O  O68  1  0.33588595  0.48206894  0.81846993  1
  O  O69  1  0.32644953  0.34510285  0.96576768  1
  O  O70  1  0.33750977  0.32855197  0.46963306  1
  O  O71  1  0.18740815  0.48178817  0.32512773  1
  O  O72  1  0.38614117  0.07797632  0.67469785  1
  O  O73  1  0.33248322  0.18616141  0.31958584  1
  O  O74  1  0.08313368  0.65512689  0.17085922  1
  O  O75  1  0.00658984  0.79050800  0.75384233  1
  O  O76  1  0.00074930  0.76144904  0.92655062  1
  O  O77  1  0.08470540  0.53311712  0.67091098  1
  O  O78  1  0.18086145  0.33875233  0.82071335  1
  O  O79  1  0.09902064  0.37834745  0.17894111  1
  O  O80  1  0.25932817  0.08262062  0.16346976  1
  O  O81  1  0.22949017  0.00236925  0.92559962  1
  O  O82  1  0.20524947  0.99939559  0.75142760  1
  O  O83  1  0.08983228  0.25554043  0.66721140  1
  O  O84  1  0.99471286  0.20489688  0.42000537  1
  O  O85  1  0.99537299  0.20691915  0.24362671  1
