# generated using pymatgen
data_Li4V3P8O29
_symmetry_space_group_name_H-M   'P 1'
_cell_length_a   9.76599676
_cell_length_b   9.77071718
_cell_length_c   14.26062376
_cell_angle_alpha   90.06070677
_cell_angle_beta   90.24255536
_cell_angle_gamma   60.08405766
_symmetry_Int_Tables_number   1
_chemical_formula_structural   Li4V3P8O29
_chemical_formula_sum   'Li8 V6 P16 O58'
_cell_volume   1179.43821268
_cell_formula_units_Z   2
loop_
 _symmetry_equiv_pos_site_id
 _symmetry_equiv_pos_as_xyz
  1  'x, y, z'
loop_
 _atom_site_type_symbol
 _atom_site_label
 _atom_site_symmetry_multiplicity
 _atom_site_fract_x
 _atom_site_fract_y
 _atom_site_fract_z
 _atom_site_occupancy
  Li  Li0  1  0.90141155  0.77655342  0.05812196  1
  Li  Li1  1  0.91356529  0.31212621  0.55563383  1
  Li  Li2  1  0.32453499  0.91088070  0.06557699  1
  Li  Li3  1  0.67025886  0.23156160  0.44147255  1
  Li  Li4  1  0.33036916  0.76041576  0.55873715  1
  Li  Li5  1  0.22293934  0.68588619  0.94205513  1
  Li  Li6  1  0.06712020  0.21918601  0.94767369  1
  Li  Li7  1  0.01096359  0.93459358  0.48604338  1
  V  V8  1  0.56857629  0.43119426  0.24415062  1
  V  V9  1  0.43583276  0.56599884  0.75560071  1
  V  V10  1  0.56902335  0.99740045  0.74499581  1
  V  V11  1  0.43365030  0.00517705  0.25335094  1
  V  V12  1  0.00367877  0.56570346  0.25821311  1
  V  V13  1  0.99855693  0.43807703  0.74425556  1
  P  P14  1  0.90943511  0.77180679  0.84054972  1
  P  P15  1  0.77920870  0.92028944  0.33995192  1
  P  P16  1  0.91281463  0.31213383  0.34142291  1
  P  P17  1  0.66910204  0.66895721  0.13230778  1
  P  P18  1  0.66415306  0.66682060  0.62943557  1
  P  P19  1  0.77804534  0.31039956  0.83933103  1
  P  P20  1  0.68161703  0.23088476  0.65864398  1
  P  P21  1  0.31865397  0.91681612  0.84643405  1
  P  P22  1  0.68627232  0.08499411  0.15640145  1
  P  P23  1  0.31654063  0.77164242  0.34110343  1
  P  P24  1  0.22562040  0.68549951  0.16081363  1
  P  P25  1  0.33775516  0.33416647  0.36820318  1
  P  P26  1  0.33187476  0.32892268  0.86535030  1
  P  P27  1  0.08477465  0.69704642  0.66045251  1
  P  P28  1  0.22158376  0.08075563  0.66270936  1
  P  P29  1  0.08739220  0.23228456  0.16083279  1
  O  O30  1  0.00259191  0.79576407  0.57811603  1
  O  O31  1  0.91747914  0.74556592  0.33310031  1
  O  O32  1  0.76783359  0.99840780  0.07047823  1
  O  O33  1  0.74224516  0.91549963  0.83306987  1
  O  O34  1  0.90211491  0.61919145  0.81845280  1
  O  O35  1  0.81742738  0.66697317  0.17749675  1
  O  O36  1  0.91106611  0.47221729  0.32869605  1
  O  O37  1  0.00023315  0.24743408  0.07249454  1
  O  O38  1  0.92188509  0.34028139  0.83212357  1
  O  O39  1  0.67179287  0.81038262  0.67583646  1
  O  O40  1  0.62095082  0.92553460  0.33537248  1
  O  O41  1  0.81316505  0.51093518  0.67035728  1
  O  O42  1  0.67966748  0.65737642  0.02840837  1
  O  O43  1  0.67076961  0.66407117  0.52536663  1
  O  O44  1  0.66203696  0.52283176  0.17872611  1
  O  O45  1  0.47775709  0.90504697  0.82263139  1
  O  O46  1  0.51622188  0.81688171  0.16737887  1
  O  O47  1  0.74071518  0.34147040  0.33563617  1
  O  O48  1  0.79831987  0.21022962  0.74378849  1
  O  O49  1  0.76138800  0.23089944  0.56831479  1
  O  O50  1  0.78375765  0.22457216  0.92496575  1
  O  O51  1  0.62284952  0.47310585  0.82279999  1
  O  O52  1  0.51202425  0.67509298  0.66886351  1
  O  O53  1  0.65786601  0.25734024  0.16411519  1
  O  O54  1  0.46841934  0.61199546  0.32670339  1
  O  O55  1  0.35157495  0.90842573  0.33087692  1
  O  O56  1  0.79915885  -0.00022845  0.24583914  1
  O  O57  1  0.80534053  0.00316573  0.42077766  1
  O  O58  1  0.20760961  0.98536989  0.58577348  1
  O  O59  1  0.65893372  0.08396148  0.66562386  1
  O  O60  1  0.52367018  0.38010050  0.67566059  1
  O  O61  1  0.33364622  0.75130521  0.84330544  1
  O  O62  1  0.49016560  0.32646544  0.32344537  1
  O  O63  1  0.37818145  0.52390709  0.17654994  1
  O  O64  1  0.23695000  0.76256158  0.07219705  1
  O  O65  1  0.23116565  0.78399124  0.43037401  1
  O  O66  1  0.20425673  0.79282951  0.25099577  1
  O  O67  1  0.25961125  0.65708450  0.66752790  1
  O  O68  1  0.47494548  0.18573612  0.81625760  1
  O  O69  1  0.52640580  0.09345870  0.17625495  1
  O  O70  1  0.33086520  0.48510419  0.83837752  1
  O  O71  1  0.31496330  0.31364110  0.96756961  1
  O  O72  1  0.34617010  0.34161166  0.47196256  1
  O  O73  1  0.18824517  0.48991103  0.32608967  1
  O  O74  1  0.38220379  0.07658539  0.66959558  1
  O  O75  1  0.32188538  0.19753972  0.32550764  1
  O  O76  1  0.07960648  0.66319307  0.16074971  1
  O  O77  1  0.00899091  0.79076376  0.75758851  1
  O  O78  1  0.99352501  0.75533467  0.93178410  1
  O  O79  1  0.07688813  0.54190711  0.66932128  1
  O  O80  1  0.18219875  0.33824259  0.81256737  1
  O  O81  1  0.09622645  0.38340382  0.18434362  1
  O  O82  1  0.25376080  0.08430446  0.16304062  1
  O  O83  1  0.24867360  -0.00022783  0.93740620  1
  O  O84  1  0.19778187  0.01870858  0.76345201  1
  O  O85  1  0.08286402  0.25569249  0.65822370  1
  O  O86  1  0.98819486  0.23084551  0.43101763  1
  O  O87  1  0.99856198  0.20889036  0.25071289  1
