# generated using pymatgen
data_Li4V3P8O29
_symmetry_space_group_name_H-M   'P 1'
_cell_length_a   9.77549018
_cell_length_b   9.80743077
_cell_length_c   14.23553189
_cell_angle_alpha   89.87061726
_cell_angle_beta   90.23180982
_cell_angle_gamma   60.01691279
_symmetry_Int_Tables_number   1
_chemical_formula_structural   Li4V3P8O29
_chemical_formula_sum   'Li8 V6 P16 O58'
_cell_volume   1182.12460793
_cell_formula_units_Z   2
loop_
 _symmetry_equiv_pos_site_id
 _symmetry_equiv_pos_as_xyz
  1  'x, y, z'
loop_
 _atom_site_type_symbol
 _atom_site_label
 _atom_site_symmetry_multiplicity
 _atom_site_fract_x
 _atom_site_fract_y
 _atom_site_fract_z
 _atom_site_occupancy
  Li  Li0  1  0.22268817  0.08978829  0.44747297  1
  Li  Li1  1  0.31144621  0.77486837  0.56386589  1
  Li  Li2  1  0.68335551  0.09027926  0.93619085  1
  Li  Li3  1  0.30625160  0.91613836  0.05444609  1
  Li  Li4  1  0.69740714  0.22113298  0.44325645  1
  Li  Li5  1  0.77540502  0.31745944  0.04989070  1
  Li  Li6  1  0.77204922  0.90644135  0.56012806  1
  Li  Li7  1  0.91748557  0.77328295  0.05825642  1
  V  V8  1  0.00241053  0.56449362  0.25394382  1
  V  V9  1  0.42904531  0.00175774  0.24857241  1
  V  V10  1  0.42998175  0.56573791  0.75200195  1
  V  V11  1  0.56608714  0.43698922  0.24910670  1
  V  V12  1  0.56850255  0.99888925  0.75156569  1
  V  V13  1  0.99686789  0.43364857  0.74741241  1
  P  P14  1  0.08245314  0.23351399  0.15764763  1
  P  P15  1  0.22925597  0.09133448  0.66164733  1
  P  P16  1  0.08371278  0.68673792  0.66212472  1
  P  P17  1  0.33663176  0.33152296  0.36861612  1
  P  P18  1  0.33248135  0.33285064  0.86936827  1
  P  P19  1  0.22706886  0.68628282  0.16352247  1
  P  P20  1  0.31982428  0.76823105  0.34506984  1
  P  P21  1  0.67778292  0.09153303  0.15858310  1
  P  P22  1  0.32036250  0.90955222  0.83966715  1
  P  P23  1  0.67986272  0.23083512  0.65753071  1
  P  P24  1  0.77181820  0.31791424  0.83674837  1
  P  P25  1  0.66744644  0.66662705  0.13055239  1
  P  P26  1  0.66425761  0.66785253  0.62877425  1
  P  P27  1  0.91570786  0.31384967  0.34112439  1
  P  P28  1  0.76773183  0.91130409  0.33825824  1
  P  P29  1  0.91617267  0.76493272  0.84479225  1
  O  O30  1  0.00454568  0.23163444  0.42681383  1
  O  O31  1  0.08100186  0.25754697  0.66665776  1
  O  O32  1  0.20861616  0.00086547  0.75099400  1
  O  O33  1  0.24895521  0.98530549  0.93005495  1
  O  O34  1  0.09291283  0.38389361  0.17846349  1
  O  O35  1  0.25119662  0.08663721  0.16030841  1
  O  O36  1  0.18504122  0.33705883  0.82277250  1
  O  O37  1  0.09134328  0.52589145  0.67532373  1
  O  O38  1  0.99431013  0.75485359  0.93612344  1
  O  O39  1  0.08201925  0.66164391  0.16310674  1
  O  O40  1  0.32822155  0.18631917  0.33026119  1
  O  O41  1  0.18708890  0.48138482  0.32308950  1
  O  O42  1  0.37708938  0.10385884  0.67742017  1
  O  O43  1  0.33925438  0.33554134  0.47247900  1
  O  O44  1  0.33153892  0.34322975  0.97314518  1
  O  O45  1  0.51723517  0.10505096  0.17562760  1
  O  O46  1  0.33618952  0.48087329  0.82240652  1
  O  O47  1  0.48821969  0.18384114  0.83419949  1
  O  O48  1  0.25488931  0.66079974  0.66149242  1
  O  O49  1  0.20506165  0.78307400  0.25940330  1
  O  O50  1  0.23537444  0.77187334  0.08030970  1
  O  O51  1  0.25855029  0.75274182  0.43684001  1
  O  O52  1  0.38121195  0.52310318  0.17954044  1
  O  O53  1  0.48777455  0.33100660  0.32615138  1
  O  O54  1  0.66040761  0.08300533  0.66363836  1
  O  O55  1  0.34304770  0.74150289  0.82948390  1
  O  O56  1  0.52109021  0.38204687  0.67765202  1
  O  O57  1  0.23465921  0.00439068  0.57346752  1
  O  O58  1  0.76095890  0.99537358  0.42727299  1
  O  O59  1  0.48153023  0.61832340  0.31938221  1
  O  O60  1  0.66342084  0.25751730  0.16152113  1
  O  O61  1  0.78815345  0.00241824  0.24935193  1
  O  O62  1  0.33444647  0.91802102  0.33747316  1
  O  O63  1  0.51336504  0.66826012  0.66973303  1
  O  O64  1  0.61858953  0.47872894  0.82048889  1
  O  O65  1  0.76003716  0.24120812  0.92553147  1
  O  O66  1  0.75306686  0.23578664  0.56750492  1
  O  O67  1  0.79097306  0.20968008  0.74760553  1
  O  O68  1  0.74575401  0.33743345  0.33780050  1
  O  O69  1  0.51433255  0.81204675  0.16786233  1
  O  O70  1  0.48179824  0.89960688  0.82128318  1
  O  O71  1  0.67116410  0.51273428  0.17423672  1
  O  O72  1  0.66563100  0.66200765  0.52443052  1
  O  O73  1  0.67432224  0.65340673  0.02654538  1
  O  O74  1  0.61644196  0.90214520  0.32103293  1
  O  O75  1  0.81330753  0.51977136  0.67573080  1
  O  O76  1  0.67053882  0.81484911  0.66603605  1
  O  O77  1  0.91575871  0.34105492  0.83425030  1
  O  O78  1  0.99856008  0.21058680  0.24936703  1
  O  O79  1  0.99137792  0.24259174  0.07233653  1
  O  O80  1  0.90578618  0.47641761  0.32330056  1
  O  O81  1  0.81650193  0.66815591  0.17295389  1
  O  O82  1  0.75025699  0.91552155  0.83889136  1
  O  O83  1  0.90392821  0.61693769  0.82134112  1
  O  O84  1  0.75897579  0.00514277  0.07055858  1
  O  O85  1  0.91397199  0.74392541  0.33181782  1
  O  O86  1  0.99140140  0.77819100  0.57906052  1
  O  O87  1  0.01210367  0.78322717  0.75844541  1
