# generated using pymatgen
data_Li4V3P8O29
_symmetry_space_group_name_H-M   'P 1'
_cell_length_a   9.79907485
_cell_length_b   9.81877790
_cell_length_c   14.01761910
_cell_angle_alpha   89.99738088
_cell_angle_beta   90.21517865
_cell_angle_gamma   59.93529252
_symmetry_Int_Tables_number   1
_chemical_formula_structural   Li4V3P8O29
_chemical_formula_sum   'Li8 V6 P16 O58'
_cell_volume   1167.23879507
_cell_formula_units_Z   2
loop_
 _symmetry_equiv_pos_site_id
 _symmetry_equiv_pos_as_xyz
  1  'x, y, z'
loop_
 _atom_site_type_symbol
 _atom_site_label
 _atom_site_symmetry_multiplicity
 _atom_site_fract_x
 _atom_site_fract_y
 _atom_site_fract_z
 _atom_site_occupancy
  Li  Li0  1  0.91048325  0.77202106  0.05932250  1
  Li  Li1  1  0.77299563  0.32420312  0.05962197  1
  Li  Li2  1  0.31644879  0.90780430  0.05923785  1
  Li  Li3  1  0.68348055  0.22425044  0.44074477  1
  Li  Li4  1  0.32266037  0.77108815  0.56025226  1
  Li  Li5  1  0.67719034  0.09379830  0.93975672  1
  Li  Li6  1  0.08947074  0.68255325  0.44070032  1
  Li  Li7  1  0.22699688  0.09722623  0.44037602  1
  V  V8  1  0.56708509  0.43280295  0.24941450  1
  V  V9  1  0.43003539  0.56358077  0.75608340  1
  V  V10  1  0.56998497  0.99360365  0.74389839  1
  V  V11  1  0.43289894  0.99987955  0.25054417  1
  V  V12  1  0.00000959  0.56424313  0.25002098  1
  V  V13  1  0.00000900  0.43337818  0.75002864  1
  P  P14  1  0.91272947  0.76982118  0.84188322  1
  P  P15  1  0.76973155  0.91320472  0.34160179  1
  P  P16  1  0.91540039  0.31478576  0.34295397  1
  P  P17  1  0.66707626  0.66628523  0.12701986  1
  P  P18  1  0.66484859  0.66302357  0.62825460  1
  P  P19  1  0.77247248  0.31708632  0.84005377  1
  P  P20  1  0.68075302  0.23149014  0.65790319  1
  P  P21  1  0.31925821  0.91222055  0.84207594  1
  P  P22  1  0.67998589  0.08715978  0.15740985  1
  P  P23  1  0.32002897  0.76714725  0.34259460  1
  P  P24  1  0.23025493  0.68296708  0.15840632  1
  P  P25  1  0.33293278  0.33332198  0.37299638  1
  P  P26  1  0.33521109  0.32783153  0.87174939  1
  P  P27  1  0.08727504  0.68253823  0.65814040  1
  P  P28  1  0.22750304  0.08960301  0.65995330  1
  P  P29  1  0.08456670  0.23021895  0.15703244  1
  O  O30  1  0.00824481  0.75514486  0.56690154  1
  O  O31  1  0.91753711  0.74380163  0.33813889  1
  O  O32  1  0.75638736  0.00124564  0.06675606  1
  O  O33  1  0.74337539  0.91670904  0.83618910  1
  O  O34  1  0.90516268  0.61774365  0.82205555  1
  O  O35  1  0.81782421  0.66985554  0.17075930  1
  O  O36  1  0.90574884  0.47670119  0.32211918  1
  O  O37  1  0.99311739  0.24317456  0.07009785  1
  O  O38  1  0.91495479  0.34220611  0.83504017  1
  O  O39  1  0.66402914  0.81512393  0.67358548  1
  O  O40  1  0.61974529  0.90194287  0.32465558  1
  O  O41  1  0.81515643  0.52032298  0.67425729  1
  O  O42  1  0.67482451  0.66733982  0.02082982  1
  O  O43  1  0.66358332  0.67137187  0.52288687  1
  O  O44  1  0.67603517  0.51202463  0.16641497  1
  O  O45  1  0.47759834  0.90656334  0.82098729  1
  O  O46  1  0.51505045  0.81263015  0.16726369  1
  O  O47  1  0.74707732  0.33826021  0.34037880  1
  O  O48  1  0.79215039  0.20840209  0.74938683  1
  O  O49  1  0.75270672  0.23723449  0.56704964  1
  O  O50  1  0.75921289  0.24234932  0.92987163  1
  O  O51  1  0.61854165  0.47789872  0.82333095  1
  O  O52  1  0.51375324  0.66713306  0.66859950  1
  O  O53  1  0.66412903  0.25259927  0.15957244  1
  O  O54  1  0.48053964  0.61894269  0.32437325  1
  O  O55  1  0.33586771  0.91676018  0.34038670  1
  O  O56  1  0.79281145  0.99404250  0.24598181  1
  O  O57  1  0.76678105  0.00336633  0.42676154  1
  O  O58  1  0.24073231  0.00163340  0.57013400  1
  O  O59  1  0.65421229  0.08850665  0.66802318  1
  O  O60  1  0.52242196  0.38418284  0.67897589  1
  O  O61  1  0.34578754  0.74270514  0.83195424  1
  O  O62  1  0.48491858  0.32767663  0.33273883  1
  O  O63  1  0.38031377  0.52170030  0.17536350  1
  O  O64  1  0.23331391  0.77007617  0.07322148  1
  O  O65  1  0.24353223  0.75774031  0.43323897  1
  O  O66  1  0.20719268  0.78685586  0.25400850  1
  O  O67  1  0.25662599  0.66009546  0.66381629  1
  O  O68  1  0.48628869  0.18086391  0.83138460  1
  O  O69  1  0.51944331  0.09943756  0.17564708  1
  O  O70  1  0.33600242  0.47911688  0.82640236  1
  O  O71  1  0.33653725  0.33486885  0.97711712  1
  O  O72  1  0.32509896  0.34218181  0.47918289  1
  O  O73  1  0.18217311  0.48766315  0.32923234  1
  O  O74  1  0.38145269  0.09646124  0.67666742  1
  O  O75  1  0.32394017  0.18807391  0.33358151  1
  O  O76  1  0.08249915  0.66131513  0.16184823  1
  O  O77  1  0.00000463  0.79048518  0.75000836  1
  O  O78  1  0.99175258  0.76339833  0.93312439  1
  O  O79  1  0.09487800  0.52288365  0.67798581  1
  O  O80  1  0.18487059  0.33544251  0.82578865  1
  O  O81  1  0.09421346  0.38247642  0.17788964  1
  O  O82  1  0.25285656  0.08535593  0.15958780  1
  O  O83  1  0.24732760  0.98991796  0.93292830  1
  O  O84  1  0.20783212  0.00056139  0.75061180  1
  O  O85  1  0.08502679  0.25719338  0.66499290  1
  O  O86  1  0.00683750  0.23628023  0.42988968  1
  O  O87  1  0.99996891  0.20929683  0.24999309  1
