# generated using pymatgen
data_Li3V3P8O29
_symmetry_space_group_name_H-M   'P 1'
_cell_length_a   9.77936782
_cell_length_b   9.77929436
_cell_length_c   14.26956512
_cell_angle_alpha   89.45058007
_cell_angle_beta   89.45532737
_cell_angle_gamma   59.95880353
_symmetry_Int_Tables_number   1
_chemical_formula_structural   Li3V3P8O29
_chemical_formula_sum   'Li6 V6 P16 O58'
_cell_volume   1181.27999489
_cell_formula_units_Z   2
loop_
 _symmetry_equiv_pos_site_id
 _symmetry_equiv_pos_as_xyz
  1  'x, y, z'
loop_
 _atom_site_type_symbol
 _atom_site_label
 _atom_site_symmetry_multiplicity
 _atom_site_fract_x
 _atom_site_fract_y
 _atom_site_fract_z
 _atom_site_occupancy
  Li  Li0  1  0.08152641  0.22559492  0.94025277  1
  Li  Li1  1  0.22570508  0.08185195  0.44042805  1
  Li  Li2  1  0.22638292  0.68770551  0.94100298  1
  Li  Li3  1  0.68718642  0.22650864  0.44078694  1
  Li  Li4  1  0.77577345  0.90777128  0.55892775  1
  Li  Li5  1  0.90754215  0.77587885  0.05875523  1
  V  V6  1  0.00580378  0.56377291  0.25777532  1
  V  V7  1  0.43331547  0.99691848  0.24489707  1
  V  V8  1  0.43714154  0.56582374  0.74645024  1
  V  V9  1  0.56587066  0.43726505  0.24648232  1
  V  V10  1  0.56374972  0.00588568  0.75784945  1
  V  V11  1  0.99686991  0.43343859  0.74483149  1
  P  P12  1  0.08682504  0.23488041  0.15704923  1
  P  P13  1  0.23492508  0.08684562  0.65711449  1
  P  P14  1  0.08831622  0.68614535  0.66118062  1
  P  P15  1  0.33864532  0.32612487  0.37014069  1
  P  P16  1  0.32609759  0.33886476  0.87012209  1
  P  P17  1  0.22836911  0.68389999  0.15866653  1
  P  P18  1  0.31232251  0.77127054  0.34046829  1
  P  P19  1  0.68615227  0.08824800  0.16128405  1
  P  P20  1  0.31300377  0.91243653  0.83774094  1
  P  P21  1  0.68393187  0.22834873  0.65852681  1
  P  P22  1  0.77138352  0.31218430  0.84033821  1
  P  P23  1  0.67279261  0.66656136  0.13114470  1
  P  P24  1  0.66631388  0.67292189  0.63110296  1
  P  P25  1  0.91251955  0.31290853  0.33769565  1
  P  P26  1  0.76600770  0.91300593  0.34177572  1
  P  P27  1  0.91313267  0.76602148  0.84168443  1
  O  O28  1  0.00698029  0.22498423  0.42028554  1
  O  O29  1  0.08839723  0.25512859  0.66956966  1
  O  O30  1  0.21681744  0.98697231  0.74166771  1
  O  O31  1  0.22521429  0.00688429  0.92035626  1
  O  O32  1  0.09625221  0.38495325  0.18112137  1
  O  O33  1  0.25504610  0.08828208  0.16955379  1
  O  O34  1  0.18092065  0.33305920  0.82814276  1
  O  O35  1  0.09478138  0.52419185  0.67746932  1
  O  O36  1  0.99564435  0.75682065  0.93147729  1
  O  O37  1  0.08097492  0.66265791  0.16662366  1
  O  O38  1  0.33307353  0.18099153  0.32778326  1
  O  O39  1  0.18683692  0.47868031  0.32646022  1
  O  O40  1  0.38492864  0.09635708  0.68121641  1
  O  O41  1  0.33433405  0.32527361  0.47414068  1
  O  O42  1  0.32580923  0.33551711  0.97413143  1
  O  O43  1  0.52429201  0.09452818  0.17740414  1
  O  O44  1  0.32875814  0.48748665  0.82912724  1
  O  O45  1  0.47863282  0.18683499  0.82660829  1
  O  O46  1  0.25855040  0.65710670  0.66676918  1
  O  O47  1  0.21204301  0.79478217  0.24452166  1
  O  O48  1  0.23676910  0.74975175  0.06624429  1
  O  O49  1  0.23103696  0.76552834  0.42615288  1
  O  O50  1  0.38056344  0.52096712  0.17929006  1
  O  O51  1  0.48746895  0.32894723  0.32973748  1
  O  O52  1  0.66255560  0.08105441  0.66672468  1
  O  O53  1  0.33894839  0.74240767  0.83805952  1
  O  O54  1  0.52112012  0.38066687  0.67903453  1
  O  O55  1  0.24310955  0.01433801  0.56557782  1
  O  O56  1  0.75676444  0.99549104  0.43157165  1
  O  O57  1  0.47455229  0.61763689  0.31950887  1
  O  O58  1  0.65684364  0.25858150  0.16697601  1
  O  O59  1  0.78715215  0.00841722  0.25617528  1
  O  O60  1  0.33977214  0.91594530  0.33507639  1
  O  O61  1  0.51907631  0.66790337  0.67536350  1
  O  O62  1  0.61756064  0.47427422  0.81958223  1
  O  O63  1  0.76625293  0.23048403  0.92599730  1
  O  O64  1  0.74984470  0.23629607  0.56603903  1
  O  O65  1  0.79489752  0.21209741  0.74432213  1
  O  O66  1  0.74243166  0.33900765  0.33801409  1
  O  O67  1  0.52099787  0.81502806  0.17590041  1
  O  O68  1  0.47669387  0.90338916  0.82332051  1
  O  O69  1  0.66777526  0.51909533  0.17512572  1
  O  O70  1  0.67101499  0.66830543  0.52737391  1
  O  O71  1  0.66862291  0.67157136  0.02740507  1
  O  O72  1  0.61534568  0.90464827  0.32254831  1
  O  O73  1  0.81509501  0.52114891  0.67582138  1
  O  O74  1  0.66751994  0.82028333  0.67184108  1
  O  O75  1  0.91591490  0.33988935  0.83490893  1
  O  O76  1  0.98687109  0.21684170  0.24157748  1
  O  O77  1  0.01440342  0.24300469  0.06547720  1
  O  O78  1  0.90353810  0.47658072  0.32333016  1
  O  O79  1  0.82012989  0.66763478  0.17208945  1
  O  O80  1  0.74450156  0.91161049  0.83451228  1
  O  O81  1  0.90475489  0.61535906  0.82250629  1
  O  O82  1  0.77261956  0.99514103  0.07819451  1
  O  O83  1  0.91171035  0.74442203  0.33454378  1
  O  O84  1  0.99504346  0.77239616  0.57808589  1
  O  O85  1  0.00839989  0.78723142  0.75604201  1
