# generated using pymatgen
data_Li5Fe2(PO4)3
_symmetry_space_group_name_H-M   'P 1'
_cell_length_a   8.71788379
_cell_length_b   8.82014720
_cell_length_c   12.57496351
_cell_angle_alpha   90.02529471
_cell_angle_beta   88.93004560
_cell_angle_gamma   89.94217728
_symmetry_Int_Tables_number   1
_chemical_formula_structural   Li5Fe2(PO4)3
_chemical_formula_sum   'Li20 Fe8 P12 O48'
_cell_volume   966.75771360
_cell_formula_units_Z   4
loop_
 _symmetry_equiv_pos_site_id
 _symmetry_equiv_pos_as_xyz
  1  'x, y, z'
loop_
 _atom_site_type_symbol
 _atom_site_label
 _atom_site_symmetry_multiplicity
 _atom_site_fract_x
 _atom_site_fract_y
 _atom_site_fract_z
 _atom_site_occupancy
  Li  Li0  1  0.92294790  0.52308215  0.35630531  1
  Li  Li1  1  0.92521199  0.09668181  0.68983597  1
  Li  Li2  1  0.86016463  0.73361145  0.74656723  1
  Li  Li3  1  0.90658488  0.66010052  0.96828209  1
  Li  Li4  1  0.80118018  0.76806725  0.18200128  1
  Li  Li5  1  0.69933670  0.26782908  0.31818646  1
  Li  Li6  1  0.59264181  0.16040497  0.53096543  1
  Li  Li7  1  0.63826648  0.23279196  0.75339653  1
  Li  Li8  1  0.57551236  0.59622131  0.80996451  1
  Li  Li9  1  0.57761461  0.02300079  0.14305329  1
  Li  Li10  1  0.43962780  0.98032908  0.84851100  1
  Li  Li11  1  0.42056466  0.40328874  0.19009892  1
  Li  Li12  1  0.37878832  0.77236211  0.25551695  1
  Li  Li13  1  0.36635760  0.69061015  0.49735344  1
  Li  Li14  1  0.30345337  0.73419098  0.69584172  1
  Li  Li15  1  0.19556244  0.23457199  0.80467186  1
  Li  Li16  1  0.13444213  0.19024364  0.00308661  1
  Li  Li17  1  0.12207806  0.27299401  0.24375554  1
  Li  Li18  1  0.07994891  0.90276875  0.30966791  1
  Li  Li19  1  0.06076368  0.48025474  0.65159867  1
  Fe  Fe20  1  0.74311999  0.53650674  0.59953229  1
  Fe  Fe21  1  0.75715880  0.03689400  0.90070234  1
  Fe  Fe22  1  0.75097270  0.44429652  0.10973671  1
  Fe  Fe23  1  0.74911540  0.94398898  0.39006748  1
  Fe  Fe24  1  0.25160286  0.04464590  0.60080973  1
  Fe  Fe25  1  0.24830294  0.54405538  0.90012010  1
  Fe  Fe26  1  0.25266722  0.94438298  0.10510380  1
  Fe  Fe27  1  0.24804691  0.44381413  0.39550371  1
  P  P28  1  0.94417584  0.24603746  0.49170263  1
  P  P29  1  0.89357173  0.39415215  0.84754648  1
  P  P30  1  0.89268334  0.09907036  0.15926292  1
  P  P31  1  0.60502716  0.89455369  0.65167196  1
  P  P32  1  0.60755663  0.59871962  0.34098461  1
  P  P33  1  0.55708793  0.74612619  0.00815167  1
  P  P34  1  0.44832840  0.24612466  0.99026408  1
  P  P35  1  0.39666396  0.40197829  0.65237540  1
  P  P36  1  0.39389402  0.10776806  0.34669986  1
  P  P37  1  0.10275146  0.90202211  0.84878743  1
  P  P38  1  0.10642885  0.60749615  0.15244279  1
  P  P39  1  0.05175747  0.74583695  0.50994412  1
  O  O40  1  0.96194594  0.86148573  0.44458572  1
  O  O41  1  0.92983969  0.85985552  0.87054119  1
  O  O42  1  0.95946082  0.68027129  0.60700259  1
  O  O43  1  0.93755914  0.58609909  0.19420173  1
  O  O44  1  0.90430432  0.37126518  0.57543416  1
  O  O45  1  0.84667922  0.22810095  0.81704221  1
  O  O46  1  0.88418129  0.41628333  0.96809652  1
  O  O47  1  0.88036740  0.97274471  0.24543411  1
  O  O48  1  0.84016302  0.25728208  0.19970134  1
  O  O49  1  0.79008705  0.17726044  0.45117958  1
  O  O50  1  0.79015456  0.04962655  0.06657954  1
  O  O51  1  0.78965291  0.51228103  0.79038218  1
  O  O52  1  0.70906084  0.01203301  0.70900969  1
  O  O53  1  0.71020114  0.54911592  0.43359248  1
  O  O54  1  0.71141518  0.67825702  0.04931441  1
  O  O55  1  0.65982695  0.75685719  0.30053286  1
  O  O56  1  0.61448649  0.91651497  0.53115280  1
  O  O57  1  0.62001672  0.47265352  0.25461885  1
  O  O58  1  0.65097601  0.72825965  0.68224570  1
  O  O59  1  0.59630513  0.87210746  0.92490373  1
  O  O60  1  0.54009666  0.18026156  0.89309267  1
  O  O61  1  0.56955272  0.36064652  0.62987890  1
  O  O62  1  0.56305277  0.08628251  0.30525095  1
  O  O63  1  0.53830332  0.36167680  0.05549367  1
  O  O64  1  0.46456623  0.62720734  0.94789765  1
  O  O65  1  0.43572534  0.91997526  0.69324436  1
  O  O66  1  0.43250685  0.61481739  0.36756351  1
  O  O67  1  0.46892300  0.81576770  0.10577084  1
  O  O68  1  0.40213323  0.11754253  0.06970494  1
  O  O69  1  0.33609854  0.26580957  0.30566450  1
  O  O70  1  0.38507159  0.51887460  0.74596700  1
  O  O71  1  0.38755514  0.11475703  0.46958274  1
  O  O72  1  0.31287715  0.25361137  0.68096522  1
  O  O73  1  0.29492549  0.31306514  0.94526116  1
  O  O74  1  0.32144443  0.48233180  0.55672323  1
  O  O75  1  0.29439771  0.97967807  0.29984809  1
  O  O76  1  0.20632912  0.47959175  0.19891612  1
  O  O77  1  0.17681215  0.98148856  0.94518068  1
  O  O78  1  0.20513543  0.81250813  0.55486175  1
  O  O79  1  0.18743863  0.75411798  0.81987919  1
  O  O80  1  0.11413373  0.01993952  0.75612120  1
  O  O81  1  0.11218317  0.61351571  0.02933977  1
  O  O82  1  0.16396122  0.76548143  0.19330276  1
  O  O83  1  0.09789034  0.61700098  0.43048062  1
  O  O84  1  0.06236018  0.41861049  0.80574524  1
  O  O85  1  0.03150127  0.31600322  0.39407063  1
  O  O86  1  0.06767046  0.11537300  0.13290464  1
  O  O87  1  0.03868615  0.12772463  0.55166572  1
