# generated using pymatgen
data_Li4V3P8O29
_symmetry_space_group_name_H-M   'P 1'
_cell_length_a   9.80491683
_cell_length_b   9.76679127
_cell_length_c   14.35444577
_cell_angle_alpha   89.82028038
_cell_angle_beta   90.80145184
_cell_angle_gamma   60.31081014
_symmetry_Int_Tables_number   1
_chemical_formula_structural   Li4V3P8O29
_chemical_formula_sum   'Li8 V6 P16 O58'
_cell_volume   1193.96862708
_cell_formula_units_Z   2
loop_
 _symmetry_equiv_pos_site_id
 _symmetry_equiv_pos_as_xyz
  1  'x, y, z'
loop_
 _atom_site_type_symbol
 _atom_site_label
 _atom_site_symmetry_multiplicity
 _atom_site_fract_x
 _atom_site_fract_y
 _atom_site_fract_z
 _atom_site_occupancy
  Li  Li0  1  0.91910217  0.77726302  0.05917363  1
  Li  Li1  1  0.77641224  0.31342045  0.04727393  1
  Li  Li2  1  0.30271617  0.92197709  0.06129903  1
  Li  Li3  1  0.69032954  0.22631695  0.44136721  1
  Li  Li4  1  0.32614497  0.76833935  0.56316003  1
  Li  Li5  1  0.68595106  0.08809608  0.93487909  1
  Li  Li6  1  0.31809714  0.35272378  0.60172075  1
  Li  Li7  1  0.98422847  0.99737710  0.50923367  1
  V  V8  1  0.56403203  0.43770358  0.24988063  1
  V  V9  1  0.43139552  0.56616942  0.75169482  1
  V  V10  1  0.56829846  0.98837893  0.74560812  1
  V  V11  1  0.43165458  0.00507632  0.25221419  1
  V  V12  1  0.00239872  0.56055191  0.26115747  1
  V  V13  1  0.99875737  0.43309236  0.74668229  1
  P  P14  1  0.91590483  0.76811204  0.84113077  1
  P  P15  1  0.78012887  0.91722636  0.33645167  1
  P  P16  1  0.91870620  0.29881991  0.34434336  1
  P  P17  1  0.66858536  0.66761323  0.13546243  1
  P  P18  1  0.66474948  0.66231587  0.62934930  1
  P  P19  1  0.77119618  0.32000650  0.83393011  1
  P  P20  1  0.67774619  0.22487643  0.65682824  1
  P  P21  1  0.31699400  0.91246492  0.84590299  1
  P  P22  1  0.67662969  0.09067347  0.15528048  1
  P  P23  1  0.31822036  0.77067213  0.34430430  1
  P  P24  1  0.22212496  0.68674632  0.16619343  1
  P  P25  1  0.33843318  0.33290851  0.36868355  1
  P  P26  1  0.33872219  0.32489425  0.86529610  1
  P  P27  1  0.08112325  0.70091558  0.65923151  1
  P  P28  1  0.21746423  0.08784017  0.66563911  1
  P  P29  1  0.08148533  0.23270859  0.16187258  1
  O  O30  1  0.99018434  0.80836961  0.58095812  1
  O  O31  1  0.91594379  0.74215137  0.33267199  1
  O  O32  1  0.74674277  0.00993787  0.06510579  1
  O  O33  1  0.74606745  0.91385916  0.83243578  1
  O  O34  1  0.91024730  0.61565280  0.81766528  1
  O  O35  1  0.81651622  0.66242441  0.18313510  1
  O  O36  1  0.92486800  0.45667472  0.33504633  1
  O  O37  1  0.98509837  0.24961262  0.07783341  1
  O  O38  1  0.92184754  0.33466191  0.82742524  1
  O  O39  1  0.66377014  0.81144791  0.67582375  1
  O  O40  1  0.62115283  0.92389616  0.33211649  1
  O  O41  1  0.81368366  0.51802690  0.67479772  1
  O  O42  1  0.68329186  0.64665898  0.03274285  1
  O  O43  1  0.66517168  0.67048472  0.52632061  1
  O  O44  1  0.66229225  0.51887652  0.17966356  1
  O  O45  1  0.47528702  0.90505242  0.81733945  1
  O  O46  1  0.51892108  0.81742957  0.16772970  1
  O  O47  1  0.74235371  0.34027470  0.33341560  1
  O  O48  1  0.78520338  0.21017725  0.74651245  1
  O  O49  1  0.76496632  0.20883629  0.56938124  1
  O  O50  1  0.76516711  0.23899313  0.92187003  1
  O  O51  1  0.62672703  0.48306739  0.82018089  1
  O  O52  1  0.51443116  0.66353386  0.66636032  1
  O  O53  1  0.65795323  0.25851145  0.15978915  1
  O  O54  1  0.47514105  0.61500251  0.32490866  1
  O  O55  1  0.34671749  0.91040071  0.32648116  1
  O  O56  1  0.79769697  0.99018629  0.23762915  1
  O  O57  1  0.80728032  0.00437533  0.41291023  1
  O  O58  1  0.20528072  0.99222745  0.58863142  1
  O  O59  1  0.64989981  0.08178869  0.66842901  1
  O  O60  1  0.51673209  0.37583157  0.66520008  1
  O  O61  1  0.33862578  0.74835927  0.83335595  1
  O  O62  1  0.49081718  0.32892695  0.32897145  1
  O  O63  1  0.37785981  0.52495620  0.18130022  1
  O  O64  1  0.22873855  0.77718006  0.08508760  1
  O  O65  1  0.25152054  0.77368905  0.43672425  1
  O  O66  1  0.20070726  0.78116054  0.26234747  1
  O  O67  1  0.25431977  0.66307231  0.66006644  1
  O  O68  1  0.48488676  0.17478897  0.82539053  1
  O  O69  1  0.51853016  0.10025566  0.17668275  1
  O  O70  1  0.34714485  0.46996694  0.82129357  1
  O  O71  1  0.34004424  0.32460989  0.96849130  1
  O  O72  1  0.34528530  0.33844142  0.47264582  1
  O  O73  1  0.19034273  0.48709827  0.32784251  1
  O  O74  1  0.37526412  0.09258907  0.67013456  1
  O  O75  1  0.32794775  0.19341387  0.32783167  1
  O  O76  1  0.07964345  0.65940631  0.16476152  1
  O  O77  1  0.01333325  0.78664116  0.75886686  1
  O  O78  1  0.98402341  0.76542207  0.93451788  1
  O  O79  1  0.08686424  0.53703264  0.66647844  1
  O  O80  1  0.18687467  0.33871681  0.81629044  1
  O  O81  1  0.09116202  0.38377229  0.18532686  1
  O  O82  1  0.24874227  0.08847582  0.16165762  1
  O  O83  1  0.26177864  0.98897388  0.93694447  1
  O  O84  1  0.19687817  0.02336403  0.76422650  1
  O  O85  1  0.08467921  0.26323284  0.66175150  1
  O  O86  1  0.98861589  0.20121300  0.42919868  1
  O  O87  1  0.00035555  0.20398778  0.25200977  1
