# generated using pymatgen
data_Ba3Ce2O6
_symmetry_space_group_name_H-M   'P 1'
_cell_length_a   7.57325040
_cell_length_b   7.57325040
_cell_length_c   7.57325087
_cell_angle_alpha   92.00605441
_cell_angle_beta   92.00605441
_cell_angle_gamma   92.00605380
_symmetry_Int_Tables_number   1
_chemical_formula_structural   Ba3Ce2O6
_chemical_formula_sum   'Ba6 Ce4 O12'
_cell_volume   433.53938709
_cell_formula_units_Z   2
loop_
 _symmetry_equiv_pos_site_id
 _symmetry_equiv_pos_as_xyz
  1  'x, y, z'
loop_
 _atom_site_type_symbol
 _atom_site_label
 _atom_site_symmetry_multiplicity
 _atom_site_fract_x
 _atom_site_fract_y
 _atom_site_fract_z
 _atom_site_occupancy
  Ba  Ba0  1  0.10102004  0.75000000  0.39897996  1
  Ba  Ba1  1  0.25000000  0.60102004  0.89897996  1
  Ba  Ba2  1  0.60102004  0.89897996  0.25000000  1
  Ba  Ba3  1  0.39897996  0.10102004  0.75000000  1
  Ba  Ba4  1  0.75000000  0.39897996  0.10102004  1
  Ba  Ba5  1  0.89897996  0.25000000  0.60102004  1
  Ce  Ce6  1  0.75000000  0.75000000  0.75000000  1
  Ce  Ce7  1  0.50000000  0.50000000  0.50000000  1
  Ce  Ce8  1  -0.00000000  0.00000000  0.00000000  1
  Ce  Ce9  1  0.25000000  0.25000000  0.25000000  1
  O  O10  1  0.03367175  0.89895126  0.70944662  1
  O  O11  1  0.29055338  0.96632825  0.10104874  1
  O  O12  1  0.46632825  0.79055338  0.60104874  1
  O  O13  1  0.20944662  0.39895126  0.53367175  1
  O  O14  1  0.10104874  0.29055338  0.96632825  1
  O  O15  1  0.39895126  0.53367175  0.20944662  1
  O  O16  1  0.60104874  0.46632825  0.79055338  1
  O  O17  1  0.79055338  0.60104874  0.46632825  1
  O  O18  1  0.89895126  0.70944662  0.03367175  1
  O  O19  1  0.53367175  0.20944662  0.39895126  1
  O  O20  1  0.70944662  0.03367175  0.89895126  1
  O  O21  1  0.96632825  0.10104874  0.29055338  1
