# generated using pymatgen
data_CsLiMnP3HO10
_symmetry_space_group_name_H-M   'P 1'
_cell_length_a   6.59668025
_cell_length_b   6.59668603
_cell_length_c   6.72700806
_cell_angle_alpha   107.50652906
_cell_angle_beta   107.50649704
_cell_angle_gamma   86.81150949
_symmetry_Int_Tables_number   1
_chemical_formula_structural   CsLiMnP3HO10
_chemical_formula_sum   'Cs1 Li1 Mn1 P3 H1 O10'
_cell_volume   266.04902650
_cell_formula_units_Z   1
loop_
 _symmetry_equiv_pos_site_id
 _symmetry_equiv_pos_as_xyz
  1  'x, y, z'
loop_
 _atom_site_type_symbol
 _atom_site_label
 _atom_site_symmetry_multiplicity
 _atom_site_fract_x
 _atom_site_fract_y
 _atom_site_fract_z
 _atom_site_occupancy
  Cs  Cs0  1  0.00825558  0.99174474  0.50000115  1
  Li  Li1  1  0.00328802  0.99671389  0.00000094  1
  Mn  Mn2  1  0.33988607  0.66012445  0.00000708  1
  P  P3  1  0.43410241  0.20395674  0.09713289  1
  P  P4  1  0.79604463  0.56589498  0.90286449  1
  P  P5  1  0.43622667  0.56377486  0.49999955  1
  H  H6  1  0.73363207  0.26636085  0.00000263  1
  O  O7  1  0.32456387  0.33123041  0.94459582  1
  O  O8  1  0.82150616  0.32539615  0.88882652  1
  O  O9  1  0.67460605  0.17849464  0.11116724  1
  O  O10  1  0.42196636  0.31973233  0.34548971  1
  O  O11  1  0.00315069  0.69345663  0.95887099  1
  O  O12  1  0.28520718  0.58428869  0.63325743  1
  O  O13  1  0.68026892  0.57803146  0.65450832  1
  O  O14  1  0.41571084  0.71479331  0.36674547  1
  O  O15  1  0.66876271  0.67543438  0.05540153  1
  O  O16  1  0.30654977  0.99684650  0.04113025  1
