# generated using pymatgen
data_Li3Fe3(PO4)4
_symmetry_space_group_name_H-M   'P 1'
_cell_length_a   8.97931405
_cell_length_b   8.58172458
_cell_length_c   9.44667038
_cell_angle_alpha   105.00266827
_cell_angle_beta   103.10211542
_cell_angle_gamma   114.10860044
_symmetry_Int_Tables_number   1
_chemical_formula_structural   Li3Fe3(PO4)4
_chemical_formula_sum   'Li6 Fe6 P8 O32'
_cell_volume   594.42918496
_cell_formula_units_Z   2
loop_
 _symmetry_equiv_pos_site_id
 _symmetry_equiv_pos_as_xyz
  1  'x, y, z'
loop_
 _atom_site_type_symbol
 _atom_site_label
 _atom_site_symmetry_multiplicity
 _atom_site_fract_x
 _atom_site_fract_y
 _atom_site_fract_z
 _atom_site_occupancy
  Li  Li0  1  0.97938538  0.78214808  0.53937589  1
  Li  Li1  1  0.06203173  0.81078895  0.15390884  1
  Li  Li2  1  0.09701908  0.57917310  0.30193279  1
  Li  Li3  1  0.90298092  0.42082690  0.69806721  1
  Li  Li4  1  0.93796827  0.18921105  0.84609116  1
  Li  Li5  1  0.02061462  0.21785192  0.46062411  1
  Fe  Fe6  1  0.48230201  0.00646055  0.76431566  1
  Fe  Fe7  1  0.35586519  0.34316837  0.82456206  1
  Fe  Fe8  1  0.22327505  0.29169916  0.26235089  1
  Fe  Fe9  1  0.77672495  0.70830084  0.73764911  1
  Fe  Fe10  1  0.64413481  0.65683163  0.17543794  1
  Fe  Fe11  1  0.51769799  0.99353945  0.23568434  1
  P  P12  1  0.33681610  0.56615717  0.62717613  1
  P  P13  1  0.19319566  0.02236850  0.91828316  1
  P  P14  1  0.23320998  0.56233073  0.04654235  1
  P  P15  1  0.29217699  0.04835974  0.46810137  1
  P  P16  1  0.70782301  0.95164026  0.53189863  1
  P  P17  1  0.76679002  0.43766927  0.95345765  1
  P  P18  1  0.80680434  0.97763150  0.08171684  1
  P  P19  1  0.66318390  0.43384283  0.37282387  1
  O  O20  1  0.04502180  0.82736893  0.79793485  1
  O  O21  1  0.07891781  0.45627111  0.89126697  1
  O  O22  1  0.15653892  0.84497579  0.42312513  1
  O  O23  1  0.23202698  0.40779806  0.67919742  1
  O  O24  1  0.33747925  0.74379556  0.71629261  1
  O  O25  1  0.16456290  0.16799069  0.85865997  1
  O  O26  1  0.22555416  0.48984231  0.44860360  1
  O  O27  1  0.28262184  0.76999001  0.12305421  1
  O  O28  1  0.19704075  0.14657001  0.40642815  1
  O  O29  1  0.20625439  0.46959889  0.16546006  1
  O  O30  1  0.52133197  0.58654114  0.66810174  1
  O  O31  1  0.37636638  0.05324730  0.92274370  1
  O  O32  1  0.37601181  0.14305184  0.65826108  1
  O  O33  1  0.55982331  0.92514135  0.59461315  1
  O  O34  1  0.18781209  0.06255832  0.08640812  1
  O  O35  1  0.59681204  0.43698439  0.98067262  1
  O  O36  1  0.40318796  0.56301561  0.01932738  1
  O  O37  1  0.81218791  0.93744168  0.91359188  1
  O  O38  1  0.44017669  0.07485865  0.40538685  1
  O  O39  1  0.62398819  0.85694816  0.34173892  1
  O  O40  1  0.62363362  0.94675270  0.07725630  1
  O  O41  1  0.47866803  0.41345886  0.33189826  1
  O  O42  1  0.79374561  0.53040111  0.83453994  1
  O  O43  1  0.80295925  0.85342999  0.59357185  1
  O  O44  1  0.71737816  0.23000999  0.87694579  1
  O  O45  1  0.77444584  0.51015769  0.55139640  1
  O  O46  1  0.83543710  0.83200931  0.14134003  1
  O  O47  1  0.66252075  0.25620444  0.28370739  1
  O  O48  1  0.76797302  0.59220194  0.32080258  1
  O  O49  1  0.84346108  0.15502421  0.57687487  1
  O  O50  1  0.92108219  0.54372889  0.10873303  1
  O  O51  1  0.95497820  0.17263107  0.20206515  1
