# generated using pymatgen
data_Fe3OF5
_symmetry_space_group_name_H-M   'P 1'
_cell_length_a   4.80227403
_cell_length_b   8.04882524
_cell_length_c   5.78049130
_cell_angle_alpha   92.10354274
_cell_angle_beta   88.37252389
_cell_angle_gamma   90.70689889
_symmetry_Int_Tables_number   1
_chemical_formula_structural   Fe3OF5
_chemical_formula_sum   'Fe6 O2 F10'
_cell_volume   223.17648875
_cell_formula_units_Z   2
loop_
 _symmetry_equiv_pos_site_id
 _symmetry_equiv_pos_as_xyz
  1  'x, y, z'
loop_
 _atom_site_type_symbol
 _atom_site_label
 _atom_site_symmetry_multiplicity
 _atom_site_fract_x
 _atom_site_fract_y
 _atom_site_fract_z
 _atom_site_occupancy
  Fe  Fe0  1  0.50384262  0.66489994  0.16655285  1
  Fe  Fe1  1  0.51661681  0.00702768  0.48990156  1
  Fe  Fe2  1  0.50910203  0.33916061  0.82361014  1
  Fe  Fe3  1  0.99449609  0.65466736  0.66704577  1
  Fe  Fe4  1  0.96242865  0.32538865  0.35188729  1
  Fe  Fe5  1  0.99695922  0.00704242  0.01028390  1
  O  O6  1  0.80452393  0.42650735  0.61571701  1
  O  O7  1  0.79253937  0.10674708  0.30601898  1
  F  F8  1  0.80951887  0.76953157  0.97208988  1
  F  F9  1  0.68376373  0.08505535  0.79291315  1
  F  F10  1  0.69425269  0.77892359  0.47333397  1
  F  F11  1  0.71501704  0.43534156  0.12765467  1
  F  F12  1  0.30828787  0.57481816  0.86460959  1
  F  F13  1  0.28983237  0.21818960  0.52817624  1
  F  F14  1  0.30604724  0.90581314  0.21592404  1
  F  F15  1  0.20192019  0.24571345  0.04559499  1
  F  F16  1  0.20079940  0.55106935  0.35223953  1
  F  F17  1  0.21005289  0.90410313  0.69644544  1
