# generated using pymatgen
data_Li4Co2Ni5O12
_symmetry_space_group_name_H-M   'P 1'
_cell_length_a   5.06086343
_cell_length_b   13.17034114
_cell_length_c   9.72251312
_cell_angle_alpha   99.78390422
_cell_angle_beta   95.29926080
_cell_angle_gamma   80.12692749
_symmetry_Int_Tables_number   1
_chemical_formula_structural   Li4Co2Ni5O12
_chemical_formula_sum   'Li12 Co6 Ni15 O36'
_cell_volume   627.81914369
_cell_formula_units_Z   3
loop_
 _symmetry_equiv_pos_site_id
 _symmetry_equiv_pos_as_xyz
  1  'x, y, z'
loop_
 _atom_site_type_symbol
 _atom_site_label
 _atom_site_symmetry_multiplicity
 _atom_site_fract_x
 _atom_site_fract_y
 _atom_site_fract_z
 _atom_site_occupancy
  Li  Li0  1  0.77705654  0.94405888  0.00252056  1
  Li  Li1  1  0.81185303  0.64139350  0.24515816  1
  Li  Li2  1  0.72992553  0.55495479  0.49550699  1
  Li  Li3  1  0.60337664  0.77862833  0.49905013  1
  Li  Li4  1  0.44173520  0.61345105  0.00161752  1
  Li  Li5  1  0.46635234  0.30876622  0.24096854  1
  Li  Li6  1  0.13899983  0.97334182  0.25370783  1
  Li  Li7  1  0.39551621  0.21800003  0.50194365  1
  Li  Li8  1  0.26402745  0.44249553  0.49873168  1
  Li  Li9  1  0.05927649  0.89176178  0.49643337  1
  Li  Li10  1  0.23142099  0.05398351  0.00098003  1
  Li  Li11  1  0.11167814  0.28572422  0.99889462  1
  Co  Co12  1  0.91017047  0.41791054  0.24814775  1
  Co  Co13  1  0.74902134  0.25081452  0.75079065  1
  Co  Co14  1  0.41437335  0.91723890  0.75168431  1
  Co  Co15  1  0.59324933  0.08633330  0.25222250  1
  Co  Co16  1  0.24702543  0.75287162  0.25217138  1
  Co  Co17  1  0.07716009  0.58336751  0.74801256  1
  Ni  Ni18  1  0.99639877  0.50409020  0.00306579  1
  Ni  Ni19  1  0.96617149  0.80553543  0.75371012  1
  Ni  Ni20  1  0.69547405  0.85875534  0.24796715  1
  Ni  Ni21  1  0.82301682  0.33056175  0.49682263  1
  Ni  Ni22  1  0.85867113  0.02854939  0.74881424  1
  Ni  Ni23  1  0.67071442  0.17210833  0.00364878  1
  Ni  Ni24  1  0.53136093  0.69358810  0.74962131  1
  Ni  Ni25  1  0.63480982  0.47180299  0.75013860  1
  Ni  Ni26  1  0.32809925  0.83145052  0.00244478  1
  Ni  Ni27  1  0.36974916  0.52642966  0.25103063  1
  Ni  Ni28  1  0.49483670  0.00101793  0.49718750  1
  Ni  Ni29  1  0.15300401  0.66723292  0.49636927  1
  Ni  Ni30  1  0.19471995  0.36206982  0.74948285  1
  Ni  Ni31  1  0.30021751  0.13969273  0.75008682  1
  Ni  Ni32  1  0.04456387  0.19141211  0.25367396  1
  O  O33  1  0.94566029  0.76598038  0.36558155  1
  O  O34  1  0.78972763  0.98156310  0.35917195  1
  O  O35  1  0.95628619  0.46379892  0.63135148  1
  O  O36  1  0.85896560  0.67544517  0.63017019  1
  O  O37  1  0.70516176  0.90522685  0.63328796  1
  O  O38  1  0.82528706  0.29599869  0.14074207  1
  O  O39  1  0.70709098  0.50598515  0.13747183  1
  O  O40  1  0.79126265  0.59396891  0.86196755  1
  O  O41  1  0.48666413  0.95956155  0.13741064  1
  O  O42  1  0.97802620  0.16003397  0.86480079  1
  O  O43  1  0.89610532  0.37224548  0.85865641  1
  O  O44  1  0.87903546  0.07456839  0.12954570  1
  O  O45  1  0.62097810  0.82921861  0.86543029  1
  O  O46  1  0.54097480  0.74586807  0.13895552  1
  O  O47  1  0.61235781  0.43278942  0.36246319  1
  O  O48  1  0.70843446  0.19684780  0.36263714  1
  O  O49  1  0.38075013  0.86604622  0.36624774  1
  O  O50  1  0.44880249  0.65678286  0.36894528  1
  O  O51  1  0.60308198  0.12945311  0.64155144  1
  O  O52  1  0.51833584  0.34112580  0.63529594  1
  O  O53  1  0.28870040  0.79820205  0.63442600  1
  O  O54  1  0.36561931  0.57151599  0.63010767  1
  O  O55  1  0.37600038  0.16976464  0.13226230  1
  O  O56  1  0.44739741  0.25431013  0.86350956  1
  O  O57  1  0.16686554  0.62080698  0.14232757  1
  O  O58  1  0.53757684  0.03557332  0.86696322  1
  O  O59  1  0.04102212  0.83650097  0.13928024  1
  O  O60  1  0.12193353  0.92825603  0.87111433  1
  O  O61  1  0.28982056  0.48970684  0.85823295  1
  O  O62  1  0.21322683  0.70021898  0.86084577  1
  O  O63  1  0.20475293  0.41192173  0.13881431  1
  O  O64  1  0.30874590  0.09544385  0.36175274  1
  O  O65  1  0.03854855  0.53205305  0.36658203  1
  O  O66  1  0.11879624  0.32658342  0.37170689  1
  O  O67  1  0.20385525  0.00982863  0.63916364  1
  O  O68  1  0.05020611  0.24800367  0.63867746  1
