# generated using pymatgen
data_CeNi2B3
_symmetry_space_group_name_H-M   'P 1'
_cell_length_a   7.21787428
_cell_length_b   7.21787428
_cell_length_c   7.21787428
_cell_angle_alpha   63.87524368
_cell_angle_beta   63.87524368
_cell_angle_gamma   96.85434283
_symmetry_Int_Tables_number   1
_chemical_formula_structural   CeNi2B3
_chemical_formula_sum   'Ce4 Ni8 B12'
_cell_volume   279.30577027
_cell_formula_units_Z   4
loop_
 _symmetry_equiv_pos_site_id
 _symmetry_equiv_pos_as_xyz
  1  'x, y, z'
loop_
 _atom_site_type_symbol
 _atom_site_label
 _atom_site_symmetry_multiplicity
 _atom_site_fract_x
 _atom_site_fract_y
 _atom_site_fract_z
 _atom_site_occupancy
  Ce  Ce0  1  0.24154037  0.74154037  0.50000000  1
  Ce  Ce1  1  0.74154037  0.24154037  0.50000000  1
  Ce  Ce2  1  0.18372617  0.18372617  -0.00000000  1
  Ce  Ce3  1  0.80225547  0.80225547  0.00000000  1
  Ni  Ni4  1  0.29263295  0.51921867  0.22658573  1
  Ni  Ni5  1  0.74580440  0.51921867  0.77341427  1
  Ni  Ni6  1  0.51921867  0.74580440  0.77341427  1
  Ni  Ni7  1  0.51921867  0.29263295  0.22658573  1
  Ni  Ni8  1  0.56327500  0.56327500  0.54547200  1
  Ni  Ni9  1  0.10874700  0.10874700  0.45452800  1
  Ni  Ni10  1  0.56327500  0.10874700  0.00000000  1
  Ni  Ni11  1  0.10874700  0.56327500  0.00000000  1
  B  B12  1  0.28132521  0.11770176  0.61752579  1
  B  B13  1  0.73522755  0.89885099  0.38247421  1
  B  B14  1  0.28132521  0.89885099  0.83637655  1
  B  B15  1  0.73522755  0.11770176  0.16362345  1
  B  B16  1  0.11770176  0.73522755  0.16362345  1
  B  B17  1  0.89885099  0.28132521  0.83637655  1
  B  B18  1  0.11770176  0.28132521  0.61752579  1
  B  B19  1  0.89885099  0.73522755  0.38247421  1
  B  B20  1  0.40763532  0.40763532  0.45663332  1
  B  B21  1  0.86426864  0.86426864  0.54336668  1
  B  B22  1  0.40763532  0.86426864  0.00000000  1
  B  B23  1  0.86426864  0.40763532  -0.00000000  1
