# generated using pymatgen
data_KCrPCO7
_symmetry_space_group_name_H-M   'P 1'
_cell_length_a   10.06238324
_cell_length_b   6.26682005
_cell_length_c   5.37626022
_cell_angle_alpha   90.00000000
_cell_angle_beta   88.89837105
_cell_angle_gamma   90.00000000
_symmetry_Int_Tables_number   1
_chemical_formula_structural   KCrPCO7
_chemical_formula_sum   'K2 Cr2 P2 C2 O14'
_cell_volume   338.95970991
_cell_formula_units_Z   2
loop_
 _symmetry_equiv_pos_site_id
 _symmetry_equiv_pos_as_xyz
  1  'x, y, z'
loop_
 _atom_site_type_symbol
 _atom_site_label
 _atom_site_symmetry_multiplicity
 _atom_site_fract_x
 _atom_site_fract_y
 _atom_site_fract_z
 _atom_site_occupancy
  K  K0  1  0.22543193  0.40755526  0.24128669  1
  K  K1  1  0.77456807  0.90755526  0.75871331  1
  Cr  Cr2  1  0.35138268  0.77247701  0.77528153  1
  Cr  Cr3  1  0.64861732  0.27247701  0.22471847  1
  P  P4  1  0.44189518  0.26712872  0.72504695  1
  P  P5  1  0.55810482  0.76712872  0.27495305  1
  C  C6  1  0.11612290  0.74615389  0.71746313  1
  C  C7  1  0.88387710  0.24615389  0.28253687  1
  O  O8  1  0.00274591  0.22183430  0.31903093  1
  O  O9  1  0.17472753  0.75811673  0.93698142  1
  O  O10  1  0.21117378  0.76006600  0.53682237  1
  O  O11  1  0.34678988  0.07373190  0.77267590  1
  O  O12  1  0.34885170  0.46099387  0.77329174  1
  O  O13  1  0.44186248  0.76166444  0.09450943  1
  O  O14  1  0.48891806  0.26812688  0.45113986  1
  O  O15  1  0.51108194  0.76812688  0.54886014  1
  O  O16  1  0.55813752  0.26166444  0.90549057  1
  O  O17  1  0.65114830  0.96099387  0.22670826  1
  O  O18  1  0.65321012  0.57373190  0.22732410  1
  O  O19  1  0.78882622  0.26006600  0.46317763  1
  O  O20  1  0.82527247  0.25811673  0.06301858  1
  O  O21  1  0.99725409  0.72183430  0.68096907  1
