# generated using pymatgen
data_Li2Mn2F7
_symmetry_space_group_name_H-M   'P 1'
_cell_length_a   7.26797993
_cell_length_b   7.35583057
_cell_length_c   12.70766257
_cell_angle_alpha   90.00000000
_cell_angle_beta   123.91041581
_cell_angle_gamma   90.00000000
_symmetry_Int_Tables_number   1
_chemical_formula_structural   Li2Mn2F7
_chemical_formula_sum   'Li8 Mn8 F28'
_cell_volume   563.82271475
_cell_formula_units_Z   4
loop_
 _symmetry_equiv_pos_site_id
 _symmetry_equiv_pos_as_xyz
  1  'x, y, z'
loop_
 _atom_site_type_symbol
 _atom_site_label
 _atom_site_symmetry_multiplicity
 _atom_site_fract_x
 _atom_site_fract_y
 _atom_site_fract_z
 _atom_site_occupancy
  Li  Li0  1  0.20550674  0.86785113  0.61710180  1
  Li  Li1  1  0.29449326  0.36785113  0.88289820  1
  Li  Li2  1  0.13456904  0.65304935  0.36314266  1
  Li  Li3  1  0.36543096  0.15304935  0.13685734  1
  Li  Li4  1  0.63456904  0.84695065  0.86314266  1
  Li  Li5  1  0.86543096  0.34695065  0.63685734  1
  Li  Li6  1  0.70550674  0.63214887  0.11710180  1
  Li  Li7  1  0.79449326  0.13214887  0.38289820  1
  Mn  Mn8  1  0.26621800  0.87435640  0.92196119  1
  Mn  Mn9  1  0.23378200  0.37435640  0.57803881  1
  Mn  Mn10  1  0.30825899  0.12751188  0.39295814  1
  Mn  Mn11  1  0.19174101  0.62751188  0.10704186  1
  Mn  Mn12  1  0.80825899  0.37248812  0.89295814  1
  Mn  Mn13  1  0.69174101  0.87248812  0.60704186  1
  Mn  Mn14  1  0.76621800  0.62564360  0.42196119  1
  Mn  Mn15  1  0.73378200  0.12564360  0.07803881  1
  F  F16  1  0.91463468  0.66174342  0.94188641  1
  F  F17  1  0.94417756  0.93139414  0.76793169  1
  F  F18  1  0.18835581  0.29635585  0.71525072  1
  F  F19  1  0.37173859  0.14871573  0.97554196  1
  F  F20  1  0.03276388  0.64584749  0.18254534  1
  F  F21  1  0.12826141  0.64871573  0.52445804  1
  F  F22  1  0.15538968  0.08541765  0.47920251  1
  F  F23  1  0.31164419  0.79635585  0.78474928  1
  F  F24  1  0.23828408  0.39845524  0.41341550  1
  F  F25  1  0.55582244  0.43139414  0.73206831  1
  F  F26  1  0.58536532  0.16174342  0.55811359  1
  F  F27  1  0.53276388  0.85415251  0.68254534  1
  F  F28  1  0.26171592  0.89845524  0.08658450  1
  F  F29  1  0.65538968  0.41458235  0.97920251  1
  F  F30  1  0.34461032  0.58541765  0.02079749  1
  F  F31  1  0.73828408  0.10154476  0.91341550  1
  F  F32  1  0.46723612  0.14584749  0.31745466  1
  F  F33  1  0.41463468  0.83825658  0.44188641  1
  F  F34  1  0.44417756  0.56860586  0.26793169  1
  F  F35  1  0.76171592  0.60154476  0.58658450  1
  F  F36  1  0.68835581  0.20364415  0.21525072  1
  F  F37  1  0.84461032  0.91458235  0.52079749  1
  F  F38  1  0.87173859  0.35128427  0.47554196  1
  F  F39  1  0.96723612  0.35415251  0.81745466  1
  F  F40  1  0.62826141  0.85128427  0.02445804  1
  F  F41  1  0.81164419  0.70364415  0.28474928  1
  F  F42  1  0.05582244  0.06860586  0.23206831  1
  F  F43  1  0.08536532  0.33825658  0.05811359  1
