# generated using pymatgen
data_Li2VCoO4
_symmetry_space_group_name_H-M   'P 1'
_cell_length_a   5.16447807
_cell_length_b   5.94329761
_cell_length_c   7.81510768
_cell_angle_alpha   79.05069141
_cell_angle_beta   70.81125772
_cell_angle_gamma   90.10881341
_symmetry_Int_Tables_number   1
_chemical_formula_structural   Li2VCoO4
_chemical_formula_sum   'Li6 V3 Co3 O12'
_cell_volume   221.88968855
_cell_formula_units_Z   3
loop_
 _symmetry_equiv_pos_site_id
 _symmetry_equiv_pos_as_xyz
  1  'x, y, z'
loop_
 _atom_site_type_symbol
 _atom_site_label
 _atom_site_symmetry_multiplicity
 _atom_site_fract_x
 _atom_site_fract_y
 _atom_site_fract_z
 _atom_site_occupancy
  Li  Li0  1  0.00129181  0.50373246  0.99946997  1
  Li  Li1  1  0.00151414  0.33826081  0.66366934  1
  Li  Li2  1  0.00028438  0.99748033  0.00129375  1
  Li  Li3  1  0.99767189  0.65865017  0.33276813  1
  Li  Li4  1  0.00007590  0.17009352  0.33273847  1
  Li  Li5  1  0.99680904  0.82627314  0.67039860  1
  V  V6  1  0.50586720  0.25921675  0.00216268  1
  V  V7  1  0.49940559  0.90643386  0.33475484  1
  V  V8  1  0.49200153  0.08980249  0.66733425  1
  Co  Co9  1  0.50661598  0.74809401  0.00075450  1
  Co  Co10  1  0.49940185  0.41539581  0.33247865  1
  Co  Co11  1  0.49731335  0.58454560  0.66550178  1
  O  O12  1  0.27897644  0.96978609  0.17447572  1
  O  O13  1  0.26547640  0.44129517  0.15056511  1
  O  O14  1  0.26855850  0.11324407  0.50252488  1
  O  O15  1  0.25937197  0.63809661  0.48786175  1
  O  O16  1  0.26984539  0.28025317  0.83570147  1
  O  O17  1  0.27805801  0.81587428  0.81970680  1
  O  O18  1  0.73969195  0.71465412  0.17699798  1
  O  O19  1  0.72955522  0.19646468  0.16544682  1
  O  O20  1  0.72697126  0.35109241  0.51564179  1
  O  O21  1  0.72447436  0.89318849  0.49048908  1
  O  O22  1  0.74021741  0.52826337  0.83873755  1
  O  O23  1  0.72055041  0.05980760  0.83852508  1
