# generated using pymatgen
data_Ce2Fe3Rh
_symmetry_space_group_name_H-M   'P 1'
_cell_length_a   4.98356834
_cell_length_b   4.98356834
_cell_length_c   5.27964061
_cell_angle_alpha   90.00000000
_cell_angle_beta   61.83833881
_cell_angle_gamma   120.00000000
_symmetry_Int_Tables_number   1
_chemical_formula_structural   Ce2Fe3Rh
_chemical_formula_sum   'Ce2 Fe3 Rh1'
_cell_volume   95.21265426
_cell_formula_units_Z   1
loop_
 _symmetry_equiv_pos_site_id
 _symmetry_equiv_pos_as_xyz
  1  'x, y, z'
loop_
 _atom_site_type_symbol
 _atom_site_label
 _atom_site_symmetry_multiplicity
 _atom_site_fract_x
 _atom_site_fract_y
 _atom_site_fract_z
 _atom_site_occupancy
  Ce  Ce0  1  0.50715151  0.75357575  0.73927274  1
  Ce  Ce1  1  0.99284849  0.99642425  0.01072726  1
  Fe  Fe2  1  0.25000000  0.37500000  0.37500000  1
  Fe  Fe3  1  0.25000000  0.87500000  0.37500000  1
  Fe  Fe4  1  0.75000000  0.37500000  0.37500000  1
  Rh  Rh5  1  0.75000000  0.37500000  0.87500000  1
