# generated using pymatgen
data_Eu2Mn5Al12
_symmetry_space_group_name_H-M   'P 1'
_cell_length_a   6.83310884
_cell_length_b   6.83310884
_cell_length_c   6.83310900
_cell_angle_alpha   83.49176304
_cell_angle_beta   83.49176304
_cell_angle_gamma   83.49176006
_symmetry_Int_Tables_number   1
_chemical_formula_structural   Eu2Mn5Al12
_chemical_formula_sum   'Eu2 Mn5 Al12'
_cell_volume   313.31195031
_cell_formula_units_Z   1
loop_
 _symmetry_equiv_pos_site_id
 _symmetry_equiv_pos_as_xyz
  1  'x, y, z'
loop_
 _atom_site_type_symbol
 _atom_site_label
 _atom_site_symmetry_multiplicity
 _atom_site_fract_x
 _atom_site_fract_y
 _atom_site_fract_z
 _atom_site_occupancy
  Eu  Eu0  1  0.65713448  0.65713448  0.65713448  1
  Eu  Eu1  1  0.34286552  0.34286552  0.34286552  1
  Mn  Mn2  1  0.00000000  0.00000000  0.50000000  1
  Mn  Mn3  1  0.00000000  0.50000000  0.00000000  1
  Mn  Mn4  1  0.50000000  0.00000000  0.00000000  1
  Mn  Mn5  1  0.90242121  0.90242121  0.90242121  1
  Mn  Mn6  1  0.09757879  0.09757879  0.09757879  1
  Al  Al7  1  0.28242403  0.71757597  0.00000000  1
  Al  Al8  1  0.71757597  0.00000000  0.28242403  1
  Al  Al9  1  1.00000000  0.28242403  0.71757597  1
  Al  Al10  1  0.28242403  1.00000000  0.71757597  1
  Al  Al11  1  0.00000000  0.71757597  0.28242403  1
  Al  Al12  1  0.71757597  0.28242403  0.00000000  1
  Al  Al13  1  0.33581501  0.33581501  0.87903653  1
  Al  Al14  1  0.33581501  0.87903653  0.33581501  1
  Al  Al15  1  0.87903653  0.33581501  0.33581501  1
  Al  Al16  1  0.66418499  0.66418499  0.12096347  1
  Al  Al17  1  0.66418499  0.12096347  0.66418499  1
  Al  Al18  1  0.12096347  0.66418499  0.66418499  1
