# generated using pymatgen
data_ZnS2(NO2)4
_symmetry_space_group_name_H-M   'P 1'
_cell_length_a   8.41099428
_cell_length_b   5.26050954
_cell_length_c   6.33898813
_cell_angle_alpha   93.66799703
_cell_angle_beta   96.65772468
_cell_angle_gamma   105.46931540
_symmetry_Int_Tables_number   1
_chemical_formula_structural   ZnS2(NO2)4
_chemical_formula_sum   'Zn1 S2 N4 O8'
_cell_volume   267.16949644
_cell_formula_units_Z   1
loop_
 _symmetry_equiv_pos_site_id
 _symmetry_equiv_pos_as_xyz
  1  'x, y, z'
loop_
 _atom_site_type_symbol
 _atom_site_label
 _atom_site_symmetry_multiplicity
 _atom_site_fract_x
 _atom_site_fract_y
 _atom_site_fract_z
 _atom_site_occupancy
  Zn  Zn0  1  -0.00000000  0.00000000  0.00000000  1
  S  S1  1  0.79850338  0.37466117  0.77519070  1
  S  S2  1  0.20149662  0.62533883  0.22480930  1
  N  N3  1  0.77155851  0.89385139  0.19665352  1
  N  N4  1  0.22844149  0.10614861  0.80334648  1
  N  N5  1  0.68729960  0.81296948  0.31347001  1
  N  N6  1  0.31270040  0.18703052  0.68652999  1
  O  O7  1  0.91837509  0.64247426  0.80699819  1
  O  O8  1  0.08162491  0.35752574  0.19300181  1
  O  O9  1  0.89245890  0.17125302  0.76977056  1
  O  O10  1  0.10754110  0.82874698  0.23022944  1
  O  O11  1  0.68531281  0.34388361  0.57187020  1
  O  O12  1  0.31468719  0.65611639  0.42812980  1
  O  O13  1  0.68338720  0.33388810  0.93794496  1
  O  O14  1  0.31661280  0.66611190  0.06205504  1
