# generated using pymatgen
data_Y5Al3
_symmetry_space_group_name_H-M   'P 1'
_cell_length_a   8.86408919
_cell_length_b   8.86408986
_cell_length_c   6.48062029
_cell_angle_alpha   90.00000000
_cell_angle_beta   90.00000000
_cell_angle_gamma   120.07279063
_symmetry_Int_Tables_number   1
_chemical_formula_structural   Y5Al3
_chemical_formula_sum   'Y10 Al6'
_cell_volume   440.65272311
_cell_formula_units_Z   2
loop_
 _symmetry_equiv_pos_site_id
 _symmetry_equiv_pos_as_xyz
  1  'x, y, z'
loop_
 _atom_site_type_symbol
 _atom_site_label
 _atom_site_symmetry_multiplicity
 _atom_site_fract_x
 _atom_site_fract_y
 _atom_site_fract_z
 _atom_site_occupancy
  Y  Y0  1  0.66678849  0.33324774  0.49999983  1
  Y  Y1  1  0.33324774  0.66678849  0.49999983  1
  Y  Y2  1  0.33321151  0.66675226  0.99999983  1
  Y  Y3  1  0.66675226  0.33321151  0.99999983  1
  Y  Y4  1  0.75376411  0.75376411  0.24999316  1
  Y  Y5  1  0.24624187  0.99982405  0.25000290  1
  Y  Y6  1  0.99982405  0.24624187  0.25000290  1
  Y  Y7  1  0.24623589  0.24623589  0.74999316  1
  Y  Y8  1  0.75375813  0.00017595  0.75000290  1
  Y  Y9  1  0.00017595  0.75375813  0.75000290  1
  Al  Al10  1  0.39661999  0.39661999  0.25000707  1
  Al  Al11  1  0.60346415  0.00000430  0.24999715  1
  Al  Al12  1  0.00000430  0.60346415  0.24999715  1
  Al  Al13  1  0.60338001  0.60338001  0.75000707  1
  Al  Al14  1  0.39653585  -0.00000430  0.74999715  1
  Al  Al15  1  -0.00000430  0.39653585  0.74999715  1
