# generated using pymatgen
data_Eu2Mg
_symmetry_space_group_name_H-M   'P 1'
_cell_length_a   3.87249820
_cell_length_b   9.52424082
_cell_length_c   5.99750817
_cell_angle_alpha   90.00000000
_cell_angle_beta   90.00000000
_cell_angle_gamma   78.27017101
_symmetry_Int_Tables_number   1
_chemical_formula_structural   Eu2Mg
_chemical_formula_sum   'Eu4 Mg2'
_cell_volume   216.58435287
_cell_formula_units_Z   2
loop_
 _symmetry_equiv_pos_site_id
 _symmetry_equiv_pos_as_xyz
  1  'x, y, z'
loop_
 _atom_site_type_symbol
 _atom_site_label
 _atom_site_symmetry_multiplicity
 _atom_site_fract_x
 _atom_site_fract_y
 _atom_site_fract_z
 _atom_site_occupancy
  Eu  Eu0  1  0.98058507  0.03882987  -0.00000000  1
  Eu  Eu1  1  0.67061898  0.65876204  -0.00000000  1
  Eu  Eu2  1  0.79719293  0.40561413  0.50000000  1
  Eu  Eu3  1  0.10715802  0.78568196  0.50000000  1
  Mg  Mg4  1  0.32735032  0.34529837  -0.00000000  1
  Mg  Mg5  1  0.45042568  0.09914763  0.50000000  1
