# generated using pymatgen
data_Cs2MoO4
_symmetry_space_group_name_H-M   'P 1'
_cell_length_a   13.27036340
_cell_length_b   6.41380404
_cell_length_c   8.74006260
_cell_angle_alpha   90.00000000
_cell_angle_beta   90.00000000
_cell_angle_gamma   90.00000000
_symmetry_Int_Tables_number   1
_chemical_formula_structural   Cs2MoO4
_chemical_formula_sum   'Cs8 Mo4 O16'
_cell_volume   743.89740889
_cell_formula_units_Z   4
loop_
 _symmetry_equiv_pos_site_id
 _symmetry_equiv_pos_as_xyz
  1  'x, y, z'
loop_
 _atom_site_type_symbol
 _atom_site_label
 _atom_site_symmetry_multiplicity
 _atom_site_fract_x
 _atom_site_fract_y
 _atom_site_fract_z
 _atom_site_occupancy
  Cs  Cs0  1  0.34543442  0.75001004  0.97887620  1
  Cs  Cs1  1  0.15456558  0.25000904  0.47887920  1
  Cs  Cs2  1  0.84543442  0.75001004  0.52112280  1
  Cs  Cs3  1  0.65456658  0.25000904  0.02112280  1
  Cs  Cs4  1  0.56756965  0.75001047  0.32988287  1
  Cs  Cs5  1  0.93243035  0.25000947  0.82988387  1
  Cs  Cs6  1  0.06756965  0.75001047  0.17011613  1
  Cs  Cs7  1  0.43243035  0.25000947  0.67011613  1
  Mo  Mo8  1  0.60660982  0.74990424  0.77521379  1
  Mo  Mo9  1  0.89338918  0.24990324  0.27521579  1
  Mo  Mo10  1  0.10661082  0.74990424  0.72478521  1
  Mo  Mo11  1  0.39338918  0.24990324  0.22478321  1
  O  O12  1  0.58856965  0.75001471  0.98058073  1
  O  O13  1  0.91143035  0.25001371  0.48057973  1
  O  O14  1  0.08856865  0.75001471  0.51942027  1
  O  O15  1  0.41143035  0.25001371  0.01941927  1
  O  O16  1  0.48404409  0.75000569  0.68519285  1
  O  O17  1  0.01595491  0.25000469  0.18519285  1
  O  O18  1  0.98404409  0.75000569  0.81480615  1
  O  O19  1  0.51595491  0.25000469  0.31480715  1
  O  O20  1  0.32573513  0.47749192  0.28596386  1
  O  O21  1  0.17425170  0.52257695  0.78594791  1
  O  O22  1  0.82574830  0.02257795  0.21405009  1
  O  O23  1  0.67426487  0.97749092  0.71403614  1
  O  O24  1  0.67425270  0.52257695  0.71405009  1
  O  O25  1  0.82573613  0.47749192  0.21403614  1
  O  O26  1  0.17426387  0.97749092  0.78596186  1
  O  O27  1  0.32574730  0.02257795  0.28594991  1
