# generated using pymatgen
data_ErMg5
_symmetry_space_group_name_H-M   'P 1'
_cell_length_a   3.25437046
_cell_length_b   6.44342023
_cell_length_c   7.53616130
_cell_angle_alpha   75.28323676
_cell_angle_beta   90.00000000
_cell_angle_gamma   104.62754465
_symmetry_Int_Tables_number   1
_chemical_formula_structural   ErMg5
_chemical_formula_sum   'Er1 Mg5'
_cell_volume   147.54161718
_cell_formula_units_Z   1
loop_
 _symmetry_equiv_pos_site_id
 _symmetry_equiv_pos_as_xyz
  1  'x, y, z'
loop_
 _atom_site_type_symbol
 _atom_site_label
 _atom_site_symmetry_multiplicity
 _atom_site_fract_x
 _atom_site_fract_y
 _atom_site_fract_z
 _atom_site_occupancy
  Er  Er0  1  0.38396185  0.76792270  0.73409349  1
  Mg  Mg1  1  0.00904261  0.01808522  0.99812770  1
  Mg  Mg2  1  0.71492627  0.42985254  0.06591865  1
  Mg  Mg3  1  0.33721055  0.67442010  0.32131489  1
  Mg  Mg4  1  0.05616094  0.11232188  0.38827914  1
  Mg  Mg5  1  0.66536479  0.33072957  0.65893313  1
