# generated using pymatgen
data_Mg17Al11Au
_symmetry_space_group_name_H-M   'P 1'
_cell_length_a   9.12293345
_cell_length_b   9.15495061
_cell_length_c   9.03908637
_cell_angle_alpha   109.60675573
_cell_angle_beta   109.46263627
_cell_angle_gamma   109.78870657
_symmetry_Int_Tables_number   1
_chemical_formula_structural   Mg17Al11Au
_chemical_formula_sum   'Mg17 Al11 Au1'
_cell_volume   577.94347397
_cell_formula_units_Z   1
loop_
 _symmetry_equiv_pos_site_id
 _symmetry_equiv_pos_as_xyz
  1  'x, y, z'
loop_
 _atom_site_type_symbol
 _atom_site_label
 _atom_site_symmetry_multiplicity
 _atom_site_fract_x
 _atom_site_fract_y
 _atom_site_fract_z
 _atom_site_occupancy
  Mg  Mg0  1  0.34509316  0.00228253  0.99999900  1
  Mg  Mg1  1  0.31315917  0.60541832  0.99999900  1
  Mg  Mg2  1  0.60584185  0.31809821  0.00000000  1
  Mg  Mg3  1  0.00230960  0.34264011  -0.00000000  1
  Mg  Mg4  1  0.00159350  0.99927178  0.00000100  1
  Mg  Mg5  1  0.68359692  0.68278158  0.28185557  1
  Mg  Mg6  1  0.99679099  0.60225706  0.31032833  1
  Mg  Mg7  1  0.60193869  0.00028237  0.31678732  1
  Mg  Mg8  1  0.00001644  0.99883759  0.34267994  1
  Mg  Mg9  1  0.39673558  0.71170277  0.39630492  1
  Mg  Mg10  1  0.71387243  0.39709356  0.39743343  1
  Mg  Mg11  1  0.31643900  -0.00033986  0.60256657  1
  Mg  Mg12  1  0.00043167  0.31539885  0.60369608  1
  Mg  Mg13  1  0.65733650  0.65615765  0.65731906  1
  Mg  Mg14  1  0.28515236  0.68349605  0.68321368  1
  Mg  Mg15  1  0.68646066  0.29192774  0.68967067  1
  Mg  Mg16  1  0.40174136  0.40092702  0.71814443  1
  Al  Al17  1  0.63257990  0.81439579  1.00000000  1
  Al  Al18  1  0.36689838  0.36651746  0.18178804  1
  Al  Al19  1  0.18252083  0.81751185  0.18476173  1
  Al  Al20  1  0.81898002  0.18460018  0.18601791  1
  Al  Al21  1  0.18243939  0.36576463  0.36547133  1
  Al  Al22  1  0.36661490  0.18021234  0.36520852  1
  Al  Al23  1  0.00140638  0.81500482  0.63479248  1
  Al  Al24  1  0.81696906  0.00029330  0.63453067  1
  Al  Al25  1  0.63296210  0.99858227  0.81398209  1
  Al  Al26  1  0.99775809  0.63275112  0.81523827  1
  Al  Al27  1  0.18511035  0.18472942  0.81821096  1
  Au  Au28  1  0.80725375  0.63140648  0.00000000  1
