# generated using pymatgen
data_Mg16Al12Pb
_symmetry_space_group_name_H-M   'P 1'
_cell_length_a   9.17364873
_cell_length_b   9.17364902
_cell_length_c   9.17364873
_cell_angle_alpha   109.47122213
_cell_angle_beta   109.47122881
_cell_angle_gamma   109.47122213
_symmetry_Int_Tables_number   1
_chemical_formula_structural   Mg16Al12Pb
_chemical_formula_sum   'Mg16 Al12 Pb1'
_cell_volume   594.29815534
_cell_formula_units_Z   1
loop_
 _symmetry_equiv_pos_site_id
 _symmetry_equiv_pos_as_xyz
  1  'x, y, z'
loop_
 _atom_site_type_symbol
 _atom_site_label
 _atom_site_symmetry_multiplicity
 _atom_site_fract_x
 _atom_site_fract_y
 _atom_site_fract_z
 _atom_site_occupancy
  Mg  Mg0  1  0.60008201  0.31521242  1.00000000  1
  Mg  Mg1  1  0.31521242  0.60008201  0.00000000  1
  Mg  Mg2  1  0.35031924  0.00000100  0.00000000  1
  Mg  Mg3  1  0.00000100  0.35031824  0.00000100  1
  Mg  Mg4  1  0.68478658  0.68478658  0.28486959  1
  Mg  Mg5  1  0.00000000  0.60008201  0.31521242  1
  Mg  Mg6  1  0.60008301  1.00000000  0.31521342  1
  Mg  Mg7  1  0.00000000  0.00000100  0.35031924  1
  Mg  Mg8  1  0.39991799  0.71513241  0.39991799  1
  Mg  Mg9  1  0.71513141  0.39991899  0.39991799  1
  Mg  Mg10  1  1.00000000  0.31521242  0.60008201  1
  Mg  Mg11  1  0.31521342  1.00000000  0.60008301  1
  Mg  Mg12  1  0.64968076  0.64968076  0.64968076  1
  Mg  Mg13  1  0.28486959  0.68478658  0.68478658  1
  Mg  Mg14  1  0.68478658  0.28486959  0.68478658  1
  Mg  Mg15  1  0.39991799  0.39991899  0.71513141  1
  Al  Al16  1  0.81191924  0.62743330  1.00000000  1
  Al  Al17  1  0.62743230  0.81191924  1.00000000  1
  Al  Al18  1  0.37256670  0.37256770  0.18448695  1
  Al  Al19  1  0.81551205  0.18807976  0.18807976  1
  Al  Al20  1  0.18807976  0.81551205  0.18807976  1
  Al  Al21  1  0.18448695  0.37256770  0.37256670  1
  Al  Al22  1  0.37256770  0.18448595  0.37256770  1
  Al  Al23  1  0.81192024  1.00000000  0.62743330  1
  Al  Al24  1  1.00000000  0.81191924  0.62743230  1
  Al  Al25  1  1.00000000  0.62743330  0.81191924  1
  Al  Al26  1  0.62743330  1.00000000  0.81192024  1
  Al  Al27  1  0.18807976  0.18807976  0.81551205  1
  Pb  Pb28  1  0.00000000  0.00000000  0.00000000  1
