# generated using pymatgen
data_MgPt2
_symmetry_space_group_name_H-M   'P 1'
_cell_length_a   2.85515272
_cell_length_b   5.31572543
_cell_length_c   6.83602473
_cell_angle_alpha   74.14609037
_cell_angle_beta   89.97614624
_cell_angle_gamma   105.53627061
_symmetry_Int_Tables_number   1
_chemical_formula_structural   MgPt2
_chemical_formula_sum   'Mg2 Pt4'
_cell_volume   95.85483579
_cell_formula_units_Z   2
loop_
 _symmetry_equiv_pos_site_id
 _symmetry_equiv_pos_as_xyz
  1  'x, y, z'
loop_
 _atom_site_type_symbol
 _atom_site_label
 _atom_site_symmetry_multiplicity
 _atom_site_fract_x
 _atom_site_fract_y
 _atom_site_fract_z
 _atom_site_occupancy
  Mg  Mg0  1  0.72451201  0.44903323  0.06561517  1
  Mg  Mg1  1  0.66437699  0.32874477  0.65660783  1
  Pt  Pt2  1  0.33319414  0.66609728  0.34219249  1
  Pt  Pt3  1  0.05569286  0.11167972  0.38002851  1
  Pt  Pt4  1  0.38313192  0.76602239  0.72937864  1
  Pt  Pt5  1  0.00575808  0.01175561  0.99284536  1
