# generated using pymatgen
data_Mg17Al11Pt
_symmetry_space_group_name_H-M   'P 1'
_cell_length_a   9.07866771
_cell_length_b   8.98578740
_cell_length_c   9.08117361
_cell_angle_alpha   109.45861014
_cell_angle_beta   109.87037275
_cell_angle_gamma   108.86466356
_symmetry_Int_Tables_number   1
_chemical_formula_structural   Mg17Al11Pt
_chemical_formula_sum   'Mg17 Al11 Pt1'
_cell_volume   571.80326837
_cell_formula_units_Z   1
loop_
 _symmetry_equiv_pos_site_id
 _symmetry_equiv_pos_as_xyz
  1  'x, y, z'
loop_
 _atom_site_type_symbol
 _atom_site_label
 _atom_site_symmetry_multiplicity
 _atom_site_fract_x
 _atom_site_fract_y
 _atom_site_fract_z
 _atom_site_occupancy
  Mg  Mg0  1  0.61046003  0.32580970  0.00000000  1
  Mg  Mg1  1  0.31440953  0.60714577  1.00000000  1
  Mg  Mg2  1  0.99938065  0.34733220  1.00000000  1
  Mg  Mg3  1  0.34651799  0.00326550  1.00000000  1
  Mg  Mg4  1  0.99847283  0.99426666  0.00000000  1
  Mg  Mg5  1  0.68350226  0.68199242  0.27776070  1
  Mg  Mg6  1  0.99426949  0.60418500  0.30901890  1
  Mg  Mg7  1  0.60136888  0.00002781  0.31675465  1
  Mg  Mg8  1  0.99736249  0.99264010  0.33791594  1
  Mg  Mg9  1  0.71384407  0.39794116  0.39711704  1
  Mg  Mg10  1  0.39885385  0.71364430  0.39796611  1
  Mg  Mg11  1  0.00088774  0.31567818  0.60203489  1
  Mg  Mg12  1  0.31672703  0.00082412  0.60288396  1
  Mg  Mg13  1  0.65944555  0.65472516  0.66208306  1
  Mg  Mg14  1  0.28461423  0.68327116  0.68324435  1
  Mg  Mg15  1  0.68525159  0.29516610  0.69098110  1
  Mg  Mg16  1  0.40574256  0.40423271  0.72224030  1
  Al  Al17  1  0.63737790  0.80640367  0.00000100  1
  Al  Al18  1  0.36620564  0.36695052  0.18040999  1
  Al  Al19  1  0.17479720  0.81340113  0.18196800  1
  Al  Al20  1  0.81780627  0.18212814  0.18456806  1
  Al  Al21  1  0.18105712  0.36525514  0.36554811  1
  Al  Al22  1  0.36674069  0.17867898  0.36571152  1
  Al  Al23  1  0.00103017  0.81296845  0.63428948  1
  Al  Al24  1  0.81550901  0.99970703  0.63445389  1
  Al  Al25  1  0.63323921  0.99756007  0.81543194  1
  Al  Al26  1  0.99282820  0.63143313  0.81803100  1
  Al  Al27  1  0.18579565  0.18653953  0.81959001  1
  Pt  Pt28  1  0.81649915  0.63682515  0.00000000  1
