# generated using pymatgen
data_Lu3Th
_symmetry_space_group_name_H-M   'P 1'
_cell_length_a   7.04267010
_cell_length_b   7.04266966
_cell_length_c   5.67991257
_cell_angle_alpha   90.00000000
_cell_angle_beta   90.00000000
_cell_angle_gamma   119.99999675
_symmetry_Int_Tables_number   1
_chemical_formula_structural   Lu3Th
_chemical_formula_sum   'Lu6 Th2'
_cell_volume   243.97591749
_cell_formula_units_Z   2
loop_
 _symmetry_equiv_pos_site_id
 _symmetry_equiv_pos_as_xyz
  1  'x, y, z'
loop_
 _atom_site_type_symbol
 _atom_site_label
 _atom_site_symmetry_multiplicity
 _atom_site_fract_x
 _atom_site_fract_y
 _atom_site_fract_z
 _atom_site_occupancy
  Lu  Lu0  1  0.16604241  0.33208581  0.24999900  1
  Lu  Lu1  1  0.66791519  0.83395659  0.24999900  1
  Lu  Lu2  1  0.16604241  0.83395659  0.24999900  1
  Lu  Lu3  1  0.83395859  0.66791619  0.75000000  1
  Lu  Lu4  1  0.33208581  0.16604241  0.75000000  1
  Lu  Lu5  1  0.83395859  0.16604241  0.75000000  1
  Th  Th6  1  0.33333300  0.66666600  0.75000000  1
  Th  Th7  1  0.66666700  0.33333400  0.24999900  1
