# generated using pymatgen
data_Mg6AlSi
_symmetry_space_group_name_H-M   'P 1'
_cell_length_a   6.07855637
_cell_length_b   6.20409184
_cell_length_c   5.06168551
_cell_angle_alpha   90.00000000
_cell_angle_beta   90.00000000
_cell_angle_gamma   120.68555803
_symmetry_Int_Tables_number   1
_chemical_formula_structural   Mg6AlSi
_chemical_formula_sum   'Mg6 Al1 Si1'
_cell_volume   164.15822463
_cell_formula_units_Z   1
loop_
 _symmetry_equiv_pos_site_id
 _symmetry_equiv_pos_as_xyz
  1  'x, y, z'
loop_
 _atom_site_type_symbol
 _atom_site_label
 _atom_site_symmetry_multiplicity
 _atom_site_fract_x
 _atom_site_fract_y
 _atom_site_fract_z
 _atom_site_occupancy
  Mg  Mg0  1  0.66718051  0.33323854  0.25000000  1
  Mg  Mg1  1  0.66718051  0.83394097  0.25000000  1
  Mg  Mg2  1  0.32757629  0.16252801  0.75000000  1
  Mg  Mg3  1  0.32757629  0.66504928  0.75000000  1
  Mg  Mg4  1  0.83837485  0.16918793  0.75000000  1
  Mg  Mg5  1  0.84112361  0.67056230  0.75000000  1
  Al  Al6  1  0.16488869  0.33244385  0.25000000  1
  Si  Si7  1  0.16609926  0.83304913  0.25000000  1
