# generated using pymatgen
data_TlSn
_symmetry_space_group_name_H-M   'P 1'
_cell_length_a   3.44732457
_cell_length_b   3.44732563
_cell_length_c   5.79437025
_cell_angle_alpha   83.48623055
_cell_angle_beta   96.51385757
_cell_angle_gamma   119.75391287
_symmetry_Int_Tables_number   1
_chemical_formula_structural   TlSn
_chemical_formula_sum   'Tl1 Sn1'
_cell_volume   59.26593697
_cell_formula_units_Z   1
loop_
 _symmetry_equiv_pos_site_id
 _symmetry_equiv_pos_as_xyz
  1  'x, y, z'
loop_
 _atom_site_type_symbol
 _atom_site_label
 _atom_site_symmetry_multiplicity
 _atom_site_fract_x
 _atom_site_fract_y
 _atom_site_fract_z
 _atom_site_occupancy
  Tl  Tl0  1  0.33238763  0.66761392  0.24851114  1
  Sn  Sn1  1  0.66761437  0.33238808  0.75148986  1
