# generated using pymatgen
data_MgAgSb
_symmetry_space_group_name_H-M   'P 1'
_cell_length_a   9.21145134
_cell_length_b   9.21145134
_cell_length_c   9.21145134
_cell_angle_alpha   90.58306472
_cell_angle_beta   119.66394032
_cell_angle_gamma   119.66394032
_symmetry_Int_Tables_number   1
_chemical_formula_structural   MgAgSb
_chemical_formula_sum   'Mg8 Ag8 Sb8'
_cell_volume   555.45038512
_cell_formula_units_Z   8
loop_
 _symmetry_equiv_pos_site_id
 _symmetry_equiv_pos_as_xyz
  1  'x, y, z'
loop_
 _atom_site_type_symbol
 _atom_site_label
 _atom_site_symmetry_multiplicity
 _atom_site_fract_x
 _atom_site_fract_y
 _atom_site_fract_z
 _atom_site_occupancy
  Mg  Mg0  1  0.74355372  0.32192656  0.63407608  1
  Mg  Mg1  1  0.25644628  0.89052237  0.57837285  1
  Mg  Mg2  1  0.68785048  0.82192656  0.07837285  1
  Mg  Mg3  1  0.31214952  0.39052237  0.13407608  1
  Mg  Mg4  1  0.31214952  0.42162715  0.67807344  1
  Mg  Mg5  1  0.68785048  0.36592392  0.10947763  1
  Mg  Mg6  1  0.25644628  0.86592392  0.17807344  1
  Mg  Mg7  1  0.74355372  0.92162715  0.60947763  1
  Ag  Ag8  1  0.00000000  0.75000000  0.75000000  1
  Ag  Ag9  1  0.00000000  0.25000000  0.25000000  1
  Ag  Ag10  1  0.00000000  0.50000000  0.50000000  1
  Ag  Ag11  1  0.00000000  0.00000000  0.00000000  1
  Ag  Ag12  1  0.56082296  0.53041148  0.53041148  1
  Ag  Ag13  1  0.43917704  0.96958852  0.96958852  1
  Ag  Ag14  1  0.00000000  0.03041148  0.46958852  1
  Ag  Ag15  1  0.00000000  0.46958852  0.03041148  1
  Sb  Sb16  1  0.29367644  0.14602030  0.38376534  1
  Sb  Sb17  1  0.70632356  0.09008889  0.85234386  1
  Sb  Sb18  1  0.76225496  0.64602030  0.35234386  1
  Sb  Sb19  1  0.23774504  0.59008889  0.88376534  1
  Sb  Sb20  1  0.23774504  0.14765614  0.85397970  1
  Sb  Sb21  1  0.76225496  0.61623466  0.90991111  1
  Sb  Sb22  1  0.70632356  0.11623466  0.35397970  1
  Sb  Sb23  1  0.29367644  0.64765614  0.40991111  1
