# generated using pymatgen
data_Tl3As
_symmetry_space_group_name_H-M   'P 1'
_cell_length_a   6.93162634
_cell_length_b   6.93175981
_cell_length_c   5.54883722
_cell_angle_alpha   89.99323546
_cell_angle_beta   90.00787646
_cell_angle_gamma   119.96481923
_symmetry_Int_Tables_number   1
_chemical_formula_structural   Tl3As
_chemical_formula_sum   'Tl6 As2'
_cell_volume   230.97507178
_cell_formula_units_Z   2
loop_
 _symmetry_equiv_pos_site_id
 _symmetry_equiv_pos_as_xyz
  1  'x, y, z'
loop_
 _atom_site_type_symbol
 _atom_site_label
 _atom_site_symmetry_multiplicity
 _atom_site_fract_x
 _atom_site_fract_y
 _atom_site_fract_z
 _atom_site_occupancy
  Tl  Tl0  1  0.17360723  0.34727079  0.24995768  1
  Tl  Tl1  1  0.65273118  0.82639456  0.24996124  1
  Tl  Tl2  1  0.17363038  0.82637168  0.25008906  1
  Tl  Tl3  1  0.82646381  0.65292500  0.75004485  1
  Tl  Tl4  1  0.34707205  0.17353022  0.75004134  1
  Tl  Tl5  1  0.82647222  0.17352388  0.74991279  1
  As  As6  1  0.33335841  0.66664988  0.75000193  1
  As  As7  1  0.66666472  0.33332899  0.24999911  1
