# generated using pymatgen
data_Cr30As11C4
_symmetry_space_group_name_H-M   'P 1'
_cell_length_a   3.00103802
_cell_length_b   6.49166674
_cell_length_c   28.25708659
_cell_angle_alpha   96.59600779
_cell_angle_beta   90.00000000
_cell_angle_gamma   90.00000000
_symmetry_Int_Tables_number   1
_chemical_formula_structural   Cr30As11C4
_chemical_formula_sum   'Cr30 As11 C4'
_cell_volume   546.85331134
_cell_formula_units_Z   1
loop_
 _symmetry_equiv_pos_site_id
 _symmetry_equiv_pos_as_xyz
  1  'x, y, z'
loop_
 _atom_site_type_symbol
 _atom_site_label
 _atom_site_symmetry_multiplicity
 _atom_site_fract_x
 _atom_site_fract_y
 _atom_site_fract_z
 _atom_site_occupancy
  Cr  Cr0  1  0.00000000  0.27236941  0.00000000  1
  Cr  Cr1  1  0.00000000  0.83310253  0.20404899  1
  Cr  Cr2  1  -0.00000000  0.43106201  0.40110800  1
  Cr  Cr3  1  -0.00000000  0.02995400  0.59889200  1
  Cr  Cr4  1  0.00000000  0.62905354  0.79595101  1
  Cr  Cr5  1  0.00000000  0.46242524  0.15884039  1
  Cr  Cr6  1  -0.00000000  0.06267785  0.35543987  1
  Cr  Cr7  1  0.00000000  0.66269672  0.55333040  1
  Cr  Cr8  1  0.00000000  0.25940660  0.75051384  1
  Cr  Cr9  1  0.00000000  0.84018142  0.94243005  1
  Cr  Cr10  1  0.00000000  0.89775137  0.05756995  1
  Cr  Cr11  1  0.00000000  0.50889276  0.24948616  1
  Cr  Cr12  1  0.00000000  0.10936632  0.44666960  1
  Cr  Cr13  1  -0.00000000  0.70723798  0.64456013  1
  Cr  Cr14  1  -0.00000000  0.30358485  0.84115961  1
  Cr  Cr15  1  0.50000000  0.60795567  0.00000000  1
  Cr  Cr16  1  0.50000000  0.22076849  0.20284395  1
  Cr  Cr17  1  0.50000000  0.81979069  0.40082210  1
  Cr  Cr18  1  0.50000000  0.41896859  0.59917790  1
  Cr  Cr19  1  0.50000000  0.01792454  0.79715605  1
  Cr  Cr20  1  0.50000000  0.24803194  0.08469004  1
  Cr  Cr21  1  0.50000000  0.83176377  0.27980341  1
  Cr  Cr22  1  0.50000000  0.43067321  0.47686245  1
  Cr  Cr23  1  0.50000000  0.02609827  0.67428240  1
  Cr  Cr24  1  0.50000000  0.60535099  0.86896999  1
  Cr  Cr25  1  0.50000000  0.73638100  0.13103001  1
  Cr  Cr26  1  0.50000000  0.35181587  0.32571760  1
  Cr  Cr27  1  0.50000000  0.95381076  0.52313755  1
  Cr  Cr28  1  0.50000000  0.55196037  0.72019659  1
  Cr  Cr29  1  0.50000000  0.16334190  0.91530996  1
  As  As30  1  0.00000000  0.06228447  0.13828999  1
  As  As31  1  0.00000000  0.66609130  0.33535798  1
  As  As32  1  0.00000000  0.26726475  0.53314073  1
  As  As33  1  0.00000000  0.86574525  0.73089188  1
  As  As34  1  0.00000000  0.46763445  0.93010224  1
  As  As35  1  0.00000000  0.53753221  0.06989776  1
  As  As36  1  0.00000000  0.13485337  0.26910812  1
  As  As37  1  0.00000000  0.73412402  0.46685927  1
  As  As38  1  0.00000000  0.33073332  0.66464202  1
  As  As39  1  0.00000000  0.92399447  0.86171001  1
  As  As40  1  0.50000000  0.99829329  0.00000000  1
  C  C41  1  0.50000000  0.60918766  0.20575408  1
  C  C42  1  0.50000000  0.20235308  0.40077696  1
  C  C43  1  0.50000000  0.80157612  0.59922304  1
  C  C44  1  0.50000000  0.40343359  0.79424592  1
