# generated using pymatgen
data_Zr5Sb3Ru
_symmetry_space_group_name_H-M   'P 1'
_cell_length_a   5.89961697
_cell_length_b   8.73833060
_cell_length_c   8.73189776
_cell_angle_alpha   120.02437733
_cell_angle_beta   89.99962454
_cell_angle_gamma   90.00075038
_symmetry_Int_Tables_number   1
_chemical_formula_structural   Zr5Sb3Ru
_chemical_formula_sum   'Zr10 Sb6 Ru2'
_cell_volume   389.74883682
_cell_formula_units_Z   2
loop_
 _symmetry_equiv_pos_site_id
 _symmetry_equiv_pos_as_xyz
  1  'x, y, z'
loop_
 _atom_site_type_symbol
 _atom_site_label
 _atom_site_symmetry_multiplicity
 _atom_site_fract_x
 _atom_site_fract_y
 _atom_site_fract_z
 _atom_site_occupancy
  Zr  Zr0  1  0.49996452  0.33334798  0.66666614  1
  Zr  Zr1  1  0.49996452  0.66668184  0.33333386  1
  Zr  Zr2  1  0.00004267  0.66668892  0.33335747  1
  Zr  Zr3  1  0.00004267  0.33333145  0.66664253  1
  Zr  Zr4  1  0.74998741  0.25590616  1.00000000  1
  Zr  Zr5  1  0.74998572  0.74406714  0.74422060  1
  Zr  Zr6  1  0.74998572  -0.00015347  0.25577940  1
  Zr  Zr7  1  0.24998980  0.74404253  0.00000000  1
  Zr  Zr8  1  0.25001605  0.25592703  0.25577545  1
  Zr  Zr9  1  0.25001605  0.00015157  0.74422455  1
  Sb  Sb10  1  0.74999929  0.60637253  1.00000000  1
  Sb  Sb11  1  0.74997221  0.39375652  0.39366869  1
  Sb  Sb12  1  0.74997221  0.00008783  0.60633131  1
  Sb  Sb13  1  0.24999631  0.39363287  0.00000000  1
  Sb  Sb14  1  0.25003343  0.60624237  0.60634269  1
  Sb  Sb15  1  0.25003343  -0.00010032  0.39365731  1
  Ru  Ru16  1  0.50000064  0.00000557  -0.00000000  1
  Ru  Ru17  1  0.99999736  0.00001149  -0.00000000  1
