# generated using pymatgen
data_CoSbS
_symmetry_space_group_name_H-M   'P 1'
_cell_length_a   5.86925741
_cell_length_b   5.94186783
_cell_length_c   11.71416488
_cell_angle_alpha   90.00000000
_cell_angle_beta   90.00000000
_cell_angle_gamma   90.00000000
_symmetry_Int_Tables_number   1
_chemical_formula_structural   CoSbS
_chemical_formula_sum   'Co8 Sb8 S8'
_cell_volume   408.52390696
_cell_formula_units_Z   8
loop_
 _symmetry_equiv_pos_site_id
 _symmetry_equiv_pos_as_xyz
  1  'x, y, z'
loop_
 _atom_site_type_symbol
 _atom_site_label
 _atom_site_symmetry_multiplicity
 _atom_site_fract_x
 _atom_site_fract_y
 _atom_site_fract_z
 _atom_site_occupancy
  Co  Co0  1  0.51758407  0.81972225  0.35867088  1
  Co  Co1  1  0.01758407  0.68027775  0.64132912  1
  Co  Co2  1  0.48241593  0.31972225  0.14132912  1
  Co  Co3  1  0.98241593  0.18027775  0.85867088  1
  Co  Co4  1  0.48241593  0.18027775  0.64132912  1
  Co  Co5  1  0.98241593  0.31972225  0.35867088  1
  Co  Co6  1  0.51758407  0.68027775  0.85867088  1
  Co  Co7  1  0.01758407  0.81972225  0.14132912  1
  Sb  Sb8  1  0.36919123  0.19245254  0.42999741  1
  Sb  Sb9  1  0.86919123  0.30754746  0.57000259  1
  Sb  Sb10  1  0.63080877  0.69245254  0.07000259  1
  Sb  Sb11  1  0.13080877  0.80754746  0.92999741  1
  Sb  Sb12  1  0.63080877  0.80754746  0.57000259  1
  Sb  Sb13  1  0.13080877  0.69245254  0.42999741  1
  Sb  Sb14  1  0.36919123  0.30754746  0.92999741  1
  Sb  Sb15  1  0.86919123  0.19245254  0.07000259  1
  S  S16  1  0.62861914  0.44922628  0.31349014  1
  S  S17  1  0.12861914  0.05077372  0.68650986  1
  S  S18  1  0.37138086  0.94922628  0.18650986  1
  S  S19  1  0.87138086  0.55077372  0.81349014  1
  S  S20  1  0.37138086  0.55077372  0.68650986  1
  S  S21  1  0.87138086  0.94922628  0.31349014  1
  S  S22  1  0.62861914  0.05077372  0.81349014  1
  S  S23  1  0.12861914  0.44922628  0.18650986  1
