# generated using pymatgen
data_Y2RuPt
_symmetry_space_group_name_H-M   'P 1'
_cell_length_a   4.89094280
_cell_length_b   4.89091332
_cell_length_c   4.89097267
_cell_angle_alpha   60.00036820
_cell_angle_beta   59.99928980
_cell_angle_gamma   59.99985112
_symmetry_Int_Tables_number   1
_chemical_formula_structural   Y2RuPt
_chemical_formula_sum   'Y2 Ru1 Pt1'
_cell_volume   82.72964802
_cell_formula_units_Z   1
loop_
 _symmetry_equiv_pos_site_id
 _symmetry_equiv_pos_as_xyz
  1  'x, y, z'
loop_
 _atom_site_type_symbol
 _atom_site_label
 _atom_site_symmetry_multiplicity
 _atom_site_fract_x
 _atom_site_fract_y
 _atom_site_fract_z
 _atom_site_occupancy
  Y  Y0  1  0.00000164  -0.00000030  -0.00000076  1
  Y  Y1  1  0.50000008  0.49999956  0.49999849  1
  Ru  Ru2  1  0.74999854  0.74999942  0.75000213  1
  Pt  Pt3  1  0.24999774  0.24999932  0.24999814  1
