# generated using pymatgen
data_Ca2Si3Ni
_symmetry_space_group_name_H-M   'P 1'
_cell_length_a   3.99486731
_cell_length_b   3.99402610
_cell_length_c   8.78410908
_cell_angle_alpha   90.00000000
_cell_angle_beta   90.00000000
_cell_angle_gamma   120.03100910
_symmetry_Int_Tables_number   1
_chemical_formula_structural   Ca2Si3Ni
_chemical_formula_sum   'Ca2 Si3 Ni1'
_cell_volume   121.34051149
_cell_formula_units_Z   1
loop_
 _symmetry_equiv_pos_site_id
 _symmetry_equiv_pos_as_xyz
  1  'x, y, z'
loop_
 _atom_site_type_symbol
 _atom_site_label
 _atom_site_symmetry_multiplicity
 _atom_site_fract_x
 _atom_site_fract_y
 _atom_site_fract_z
 _atom_site_occupancy
  Ca  Ca0  1  0.00003244  0.00003947  0.01468986  1
  Ca  Ca1  1  0.00003244  0.00003947  0.48531014  1
  Si  Si2  1  0.33335239  0.66656672  0.75000000  1
  Si  Si3  1  0.66662350  0.33334869  0.25000000  1
  Si  Si4  1  0.66668286  0.33351520  0.75000000  1
  Ni  Ni5  1  0.33307637  0.66649045  0.25000000  1
