# generated using pymatgen
data_Dy8Rh5C12
_symmetry_space_group_name_H-M   'P 1'
_cell_length_a   3.55696373
_cell_length_b   7.41835697
_cell_length_c   14.08287676
_cell_angle_alpha   93.91510621
_cell_angle_beta   97.25507300
_cell_angle_gamma   90.00000000
_symmetry_Int_Tables_number   1
_chemical_formula_structural   Dy8Rh5C12
_chemical_formula_sum   'Dy8 Rh5 C12'
_cell_volume   367.75307435
_cell_formula_units_Z   1
loop_
 _symmetry_equiv_pos_site_id
 _symmetry_equiv_pos_as_xyz
  1  'x, y, z'
loop_
 _atom_site_type_symbol
 _atom_site_label
 _atom_site_symmetry_multiplicity
 _atom_site_fract_x
 _atom_site_fract_y
 _atom_site_fract_z
 _atom_site_occupancy
  Dy  Dy0  1  0.70628687  0.11600240  0.41257374  1
  Dy  Dy1  1  0.29371313  0.88399760  0.58742626  1
  Dy  Dy2  1  0.69957383  0.60922212  0.39914765  1
  Dy  Dy3  1  0.30042617  0.39077788  0.60085235  1
  Dy  Dy4  1  0.58806350  0.82832231  0.17612700  1
  Dy  Dy5  1  0.41193650  0.17167769  0.82387300  1
  Dy  Dy6  1  0.54706228  0.29691860  0.09412455  1
  Dy  Dy7  1  0.45293772  0.70308140  0.90587545  1
  Rh  Rh8  1  0.00000000  0.00000000  0.00000000  1
  Rh  Rh9  1  0.89003750  0.50744696  0.78007500  1
  Rh  Rh10  1  0.10996250  0.49255304  0.21992500  1
  Rh  Rh11  1  0.88338532  0.87229728  0.76677064  1
  Rh  Rh12  1  0.11661468  0.12770272  0.23322936  1
  C  C13  1  0.97731755  0.24468130  0.95463511  1
  C  C14  1  0.02268245  0.75531870  0.04536489  1
  C  C15  1  0.95217271  0.38606789  0.90434541  1
  C  C16  1  0.04782729  0.61393211  0.09565459  1
  C  C17  1  0.83170072  0.65275617  0.66340143  1
  C  C18  1  0.16829928  0.34724383  0.33659857  1
  C  C19  1  0.78352684  0.63526096  0.56705368  1
  C  C20  1  0.21647316  0.36473904  0.43294632  1
  C  C21  1  0.84132126  0.12632807  0.68264252  1
  C  C22  1  0.15867874  0.87367193  0.31735748  1
  C  C23  1  0.79281479  0.13097898  0.58562958  1
  C  C24  1  0.20718521  0.86902102  0.41437042  1
