# generated using pymatgen
data_Ca3CoRhO6
_symmetry_space_group_name_H-M   'P 1'
_cell_length_a   6.44728014
_cell_length_b   6.44728014
_cell_length_c   6.44728010
_cell_angle_alpha   90.97966581
_cell_angle_beta   90.97966581
_cell_angle_gamma   90.97966659
_symmetry_Int_Tables_number   1
_chemical_formula_structural   Ca3CoRhO6
_chemical_formula_sum   'Ca6 Co2 Rh2 O12'
_cell_volume   267.87792813
_cell_formula_units_Z   2
loop_
 _symmetry_equiv_pos_site_id
 _symmetry_equiv_pos_as_xyz
  1  'x, y, z'
loop_
 _atom_site_type_symbol
 _atom_site_label
 _atom_site_symmetry_multiplicity
 _atom_site_fract_x
 _atom_site_fract_y
 _atom_site_fract_z
 _atom_site_occupancy
  Ca  Ca0  1  0.61739063  0.88260937  0.25000000  1
  Ca  Ca1  1  0.88260937  0.25000000  0.61739063  1
  Ca  Ca2  1  0.25000000  0.61739063  0.88260937  1
  Ca  Ca3  1  0.11739063  0.75000000  0.38260937  1
  Ca  Ca4  1  0.75000000  0.38260937  0.11739063  1
  Ca  Ca5  1  0.38260937  0.11739063  0.75000000  1
  Co  Co6  1  0.25000000  0.25000000  0.25000000  1
  Co  Co7  1  0.75000000  0.75000000  0.75000000  1
  Rh  Rh8  1  0.50000000  0.50000000  0.50000000  1
  Rh  Rh9  1  -0.00000000  -0.00000000  -0.00000000  1
  O  O10  1  0.53541020  0.20022781  0.40087093  1
  O  O11  1  0.20022781  0.40087093  0.53541020  1
  O  O12  1  0.40087093  0.53541020  0.20022781  1
  O  O13  1  0.03541020  0.90087093  0.70022781  1
  O  O14  1  0.90087093  0.70022781  0.03541020  1
  O  O15  1  0.70022781  0.03541020  0.90087093  1
  O  O16  1  0.46458980  0.79977219  0.59912907  1
  O  O17  1  0.79977219  0.59912907  0.46458980  1
  O  O18  1  0.59912907  0.46458980  0.79977219  1
  O  O19  1  0.96458980  0.09912907  0.29977219  1
  O  O20  1  0.09912907  0.29977219  0.96458980  1
  O  O21  1  0.29977219  0.96458980  0.09912907  1
