# generated using pymatgen
data_Y8Rh5C12
_symmetry_space_group_name_H-M   'P 1'
_cell_length_a   3.57105052
_cell_length_b   7.43882014
_cell_length_c   14.12280564
_cell_angle_alpha   93.77543856
_cell_angle_beta   97.26325786
_cell_angle_gamma   90.00000000
_symmetry_Int_Tables_number   1
_chemical_formula_structural   Y8Rh5C12
_chemical_formula_sum   'Y8 Rh5 C12'
_cell_volume   371.33268787
_cell_formula_units_Z   1
loop_
 _symmetry_equiv_pos_site_id
 _symmetry_equiv_pos_as_xyz
  1  'x, y, z'
loop_
 _atom_site_type_symbol
 _atom_site_label
 _atom_site_symmetry_multiplicity
 _atom_site_fract_x
 _atom_site_fract_y
 _atom_site_fract_z
 _atom_site_occupancy
  Y  Y0  1  0.70638472  0.11611405  0.41276944  1
  Y  Y1  1  0.29361528  0.88388595  0.58723056  1
  Y  Y2  1  0.69974885  0.60929461  0.39949770  1
  Y  Y3  1  0.30025115  0.39070539  0.60050230  1
  Y  Y4  1  0.58800338  0.82851907  0.17600676  1
  Y  Y5  1  0.41199662  0.17148093  0.82399324  1
  Y  Y6  1  0.54683079  0.29706203  0.09366158  1
  Y  Y7  1  0.45316921  0.70293797  0.90633842  1
  Rh  Rh8  1  0.00000000  0.00000000  0.00000000  1
  Rh  Rh9  1  0.89005209  0.50757930  0.78010417  1
  Rh  Rh10  1  0.10994791  0.49242070  0.21989583  1
  Rh  Rh11  1  0.88319861  0.87199511  0.76639722  1
  Rh  Rh12  1  0.11680139  0.12800489  0.23360278  1
  C  C13  1  0.97723960  0.24445608  0.95447921  1
  C  C14  1  0.02276040  0.75554392  0.04552079  1
  C  C15  1  0.95212081  0.38586093  0.90424162  1
  C  C16  1  0.04787919  0.61413907  0.09575838  1
  C  C17  1  0.83174252  0.65295500  0.66348504  1
  C  C18  1  0.16825748  0.34704500  0.33651496  1
  C  C19  1  0.78382521  0.63541666  0.56765042  1
  C  C20  1  0.21617479  0.36458334  0.43234958  1
  C  C21  1  0.84130007  0.12578470  0.68260015  1
  C  C22  1  0.15869993  0.87421530  0.31739985  1
  C  C23  1  0.79307496  0.13108097  0.58614993  1
  C  C24  1  0.20692504  0.86891903  0.41385007  1
