# generated using pymatgen
data_Dy3AlCoS7
_symmetry_space_group_name_H-M   'P 1'
_cell_length_a   6.15678712
_cell_length_b   9.55277553
_cell_length_c   9.55280114
_cell_angle_alpha   119.97640579
_cell_angle_beta   90.00000000
_cell_angle_gamma   90.00000000
_symmetry_Int_Tables_number   1
_chemical_formula_structural   Dy3AlCoS7
_chemical_formula_sum   'Dy6 Al2 Co2 S14'
_cell_volume   486.68536198
_cell_formula_units_Z   2
loop_
 _symmetry_equiv_pos_site_id
 _symmetry_equiv_pos_as_xyz
  1  'x, y, z'
loop_
 _atom_site_type_symbol
 _atom_site_label
 _atom_site_symmetry_multiplicity
 _atom_site_fract_x
 _atom_site_fract_y
 _atom_site_fract_z
 _atom_site_occupancy
  Dy  Dy0  1  0.27535572  0.22491415  0.37373412  1
  Dy  Dy1  1  0.27525672  0.62630881  0.85112766  1
  Dy  Dy2  1  0.27529200  0.14847184  0.77502534  1
  Dy  Dy3  1  0.77535572  0.77508585  0.62626588  1
  Dy  Dy4  1  0.77525672  0.37369119  0.14887234  1
  Dy  Dy5  1  0.77529200  0.85152816  0.22497466  1
  Al  Al6  1  0.84942642  0.33309575  0.66640829  1
  Al  Al7  1  0.34942642  0.66690425  0.33359171  1
  Co  Co8  1  0.42882240  0.99984333  0.00010592  1
  Co  Co9  1  0.92882240  0.00015667  0.99989408  1
  S  S10  1  0.67655169  0.12997942  0.22308754  1
  S  S11  1  0.67612157  0.77821152  0.90748805  1
  S  S12  1  0.67548822  0.09202530  0.87146663  1
  S  S13  1  0.17655169  0.87002058  0.77691246  1
  S  S14  1  0.17612157  0.22178848  0.09251195  1
  S  S15  1  0.17548822  0.90797470  0.12853337  1
  S  S16  1  0.00554730  0.08958953  0.51657071  1
  S  S17  1  0.00583210  0.48350781  0.57348826  1
  S  S18  1  0.00547332  0.42599192  0.90984286  1
  S  S19  1  0.50554730  0.91041047  0.48342929  1
  S  S20  1  0.50583210  0.51649219  0.42651174  1
  S  S21  1  0.50547332  0.57400808  0.09015714  1
  S  S22  1  0.48683254  0.33341370  0.66691818  1
  S  S23  1  0.98683254  0.66658630  0.33308182  1
