# generated using pymatgen
data_TmWBrO4
_symmetry_space_group_name_H-M   'P 1'
_cell_length_a   6.98351258
_cell_length_b   7.26263698
_cell_length_c   10.93652312
_cell_angle_alpha   102.91485042
_cell_angle_beta   108.21895660
_cell_angle_gamma   95.11518818
_symmetry_Int_Tables_number   1
_chemical_formula_structural   TmWBrO4
_chemical_formula_sum   'Tm4 W4 Br4 O16'
_cell_volume   505.91761459
_cell_formula_units_Z   4
loop_
 _symmetry_equiv_pos_site_id
 _symmetry_equiv_pos_as_xyz
  1  'x, y, z'
loop_
 _atom_site_type_symbol
 _atom_site_label
 _atom_site_symmetry_multiplicity
 _atom_site_fract_x
 _atom_site_fract_y
 _atom_site_fract_z
 _atom_site_occupancy
  Tm  Tm0  1  0.66563202  0.10247536  0.73038462  1
  Tm  Tm1  1  0.33436798  0.89752464  0.26961538  1
  Tm  Tm2  1  0.37781099  0.66339054  0.76671207  1
  Tm  Tm3  1  0.62218901  0.33660946  0.23328793  1
  W  W4  1  0.72601037  0.81650628  0.13368763  1
  W  W5  1  0.27398963  0.18349372  0.86631237  1
  W  W6  1  0.76705558  0.58572189  0.62546514  1
  W  W7  1  0.23294442  0.41427811  0.37453486  1
  Br  Br8  1  0.26562934  0.01024177  0.52005527  1
  Br  Br9  1  0.73437066  0.98975823  0.47994473  1
  Br  Br10  1  0.19083466  0.72325714  0.98339519  1
  Br  Br11  1  0.80916534  0.27674286  0.01660481  1
  O  O12  1  0.65022454  0.73166700  0.95472476  1
  O  O13  1  0.34977546  0.26833300  0.04527524  1
  O  O14  1  0.00004537  0.88643973  0.20334198  1
  O  O15  1  -0.00004537  0.11356027  0.79665802  1
  O  O16  1  0.64663205  0.62857628  0.20106997  1
  O  O17  1  0.35336795  0.37142372  0.79893003  1
  O  O18  1  0.40497706  0.98593804  0.81123869  1
  O  O19  1  0.59502294  0.01406196  0.18876131  1
  O  O20  1  0.03880709  0.65159421  0.66832073  1
  O  O21  1  0.96119291  0.34840579  0.33167927  1
  O  O22  1  0.72574151  0.39325704  0.69923289  1
  O  O23  1  0.27425849  0.60674296  0.30076711  1
  O  O24  1  0.66101806  0.49694100  0.44410692  1
  O  O25  1  0.33898194  0.50305900  0.55589308  1
  O  O26  1  0.65773942  0.78460541  0.70566979  1
  O  O27  1  0.34226058  0.21539459  0.29433021  1
