# generated using pymatgen
data_Tb3GaCoS7
_symmetry_space_group_name_H-M   'P 1'
_cell_length_a   6.12250218
_cell_length_b   9.58928676
_cell_length_c   9.58930691
_cell_angle_alpha   120.00210633
_cell_angle_beta   90.00000000
_cell_angle_gamma   90.00000000
_symmetry_Int_Tables_number   1
_chemical_formula_structural   Tb3GaCoS7
_chemical_formula_sum   'Tb6 Ga2 Co2 S14'
_cell_volume   487.55530561
_cell_formula_units_Z   2
loop_
 _symmetry_equiv_pos_site_id
 _symmetry_equiv_pos_as_xyz
  1  'x, y, z'
loop_
 _atom_site_type_symbol
 _atom_site_label
 _atom_site_symmetry_multiplicity
 _atom_site_fract_x
 _atom_site_fract_y
 _atom_site_fract_z
 _atom_site_occupancy
  Tb  Tb0  1  0.17918201  0.84628904  0.21948899  1
  Tb  Tb1  1  0.17919108  0.78051870  0.62683087  1
  Tb  Tb2  1  0.17919053  0.37317449  0.15369509  1
  Tb  Tb3  1  0.67918201  0.15371096  0.78051101  1
  Tb  Tb4  1  0.67919108  0.21948130  0.37316913  1
  Tb  Tb5  1  0.67919053  0.62682551  0.84630491  1
  Ga  Ga6  1  0.10643753  0.33334737  0.66666795  1
  Ga  Ga7  1  0.60643753  0.66665263  0.33333205  1
  Co  Co8  1  0.50700152  0.00000306  0.99998881  1
  Co  Co9  1  0.00700152  0.99999694  0.00001119  1
  S  S10  1  0.26444700  0.12857691  0.22326040  1
  S  S11  1  0.26444693  0.77670931  0.90531809  1
  S  S12  1  0.26443232  0.09470460  0.87136886  1
  S  S13  1  0.76444700  0.87142309  0.77673960  1
  S  S14  1  0.76444693  0.22329069  0.09468191  1
  S  S15  1  0.76443232  0.90529540  0.12863114  1
  S  S16  1  0.44977224  0.56766049  0.08625519  1
  S  S17  1  0.44978496  0.91371642  0.48141538  1
  S  S18  1  0.44978040  0.51858533  0.43231976  1
  S  S19  1  0.94977224  0.43233951  0.91374481  1
  S  S20  1  0.94978496  0.08628358  0.51858462  1
  S  S21  1  0.94978040  0.48141467  0.56768024  1
  S  S22  1  0.47373348  0.33333586  0.66665514  1
  S  S23  1  0.97373348  0.66666414  0.33334486  1
