# generated using pymatgen
data_Zr3(CrGa3)2
_symmetry_space_group_name_H-M   'P 1'
_cell_length_a   5.35877188
_cell_length_b   7.79450853
_cell_length_c   8.81154776
_cell_angle_alpha   90.00000000
_cell_angle_beta   90.00000000
_cell_angle_gamma   90.00000000
_symmetry_Int_Tables_number   1
_chemical_formula_structural   Zr3(CrGa3)2
_chemical_formula_sum   'Zr6 Cr4 Ga12'
_cell_volume   368.04947784
_cell_formula_units_Z   2
loop_
 _symmetry_equiv_pos_site_id
 _symmetry_equiv_pos_as_xyz
  1  'x, y, z'
loop_
 _atom_site_type_symbol
 _atom_site_label
 _atom_site_symmetry_multiplicity
 _atom_site_fract_x
 _atom_site_fract_y
 _atom_site_fract_z
 _atom_site_occupancy
  Zr  Zr0  1  0.75000000  0.84628866  0.02903942  1
  Zr  Zr1  1  0.75000000  0.84628866  0.47096058  1
  Zr  Zr2  1  0.25000000  0.15371134  0.97096058  1
  Zr  Zr3  1  0.25000000  0.15371134  0.52903942  1
  Zr  Zr4  1  0.75000000  0.28467352  0.75000000  1
  Zr  Zr5  1  0.25000000  0.71532648  0.25000000  1
  Cr  Cr6  1  0.50000000  0.50000000  0.50000000  1
  Cr  Cr7  1  0.50000000  0.50000000  -0.00000000  1
  Cr  Cr8  1  -0.00000000  0.50000000  0.50000000  1
  Cr  Cr9  1  -0.00000000  0.50000000  -0.00000000  1
  Ga  Ga10  1  0.75000000  0.23582086  0.43640572  1
  Ga  Ga11  1  0.75000000  0.23582086  0.06359428  1
  Ga  Ga12  1  0.25000000  0.76417914  0.56359428  1
  Ga  Ga13  1  0.25000000  0.76417914  0.93640572  1
  Ga  Ga14  1  0.75000000  0.63402078  0.75000000  1
  Ga  Ga15  1  0.25000000  0.36597922  0.25000000  1
  Ga  Ga16  1  0.25000000  0.43813687  0.75000000  1
  Ga  Ga17  1  0.75000000  0.56186313  0.25000000  1
  Ga  Ga18  1  0.51046160  0.95900182  0.75000000  1
  Ga  Ga19  1  0.98953840  0.95900182  0.75000000  1
  Ga  Ga20  1  0.48953840  0.04099818  0.25000000  1
  Ga  Ga21  1  0.01046160  0.04099818  0.25000000  1
