# generated using pymatgen
data_Pr3AlNi8
_symmetry_space_group_name_H-M   'P 1'
_cell_length_a   5.16211119
_cell_length_b   5.16211119
_cell_length_c   16.24841587
_cell_angle_alpha   90.00000000
_cell_angle_beta   90.00000000
_cell_angle_gamma   119.99339042
_symmetry_Int_Tables_number   1
_chemical_formula_structural   Pr3AlNi8
_chemical_formula_sum   'Pr6 Al2 Ni16'
_cell_volume   374.99483798
_cell_formula_units_Z   2
loop_
 _symmetry_equiv_pos_site_id
 _symmetry_equiv_pos_as_xyz
  1  'x, y, z'
loop_
 _atom_site_type_symbol
 _atom_site_label
 _atom_site_symmetry_multiplicity
 _atom_site_fract_x
 _atom_site_fract_y
 _atom_site_fract_z
 _atom_site_occupancy
  Pr  Pr0  1  0.66666644  0.33333356  0.04622668  1
  Pr  Pr1  1  0.33333356  0.66666644  0.95377332  1
  Pr  Pr2  1  0.33333356  0.66666644  0.54622668  1
  Pr  Pr3  1  0.66666644  0.33333356  0.45377332  1
  Pr  Pr4  1  0.66668127  0.33331873  0.25000000  1
  Pr  Pr5  1  0.33331873  0.66668127  0.75000000  1
  Al  Al6  1  0.00000000  0.00000000  0.50000000  1
  Al  Al7  1  0.00000000  0.00000000  0.00000000  1
  Ni  Ni8  1  0.83210237  0.66423551  0.62745164  1
  Ni  Ni9  1  0.83212835  0.16787165  0.62744894  1
  Ni  Ni10  1  0.33576449  0.16789763  0.62745164  1
  Ni  Ni11  1  0.16789763  0.33576449  0.37254836  1
  Ni  Ni12  1  0.16787165  0.83212835  0.37255106  1
  Ni  Ni13  1  0.66423551  0.83210237  0.37254836  1
  Ni  Ni14  1  0.16789763  0.33576449  0.12745164  1
  Ni  Ni15  1  0.16787165  0.83212835  0.12744894  1
  Ni  Ni16  1  0.66423551  0.83210237  0.12745164  1
  Ni  Ni17  1  0.83210237  0.66423551  0.87254836  1
  Ni  Ni18  1  0.83212835  0.16787165  0.87255106  1
  Ni  Ni19  1  0.33576449  0.16789763  0.87254836  1
  Ni  Ni20  1  0.66666658  0.33333342  0.75000000  1
  Ni  Ni21  1  0.33333342  0.66666658  0.25000000  1
  Ni  Ni22  1  0.99999238  0.00000762  0.75000000  1
  Ni  Ni23  1  0.00000762  0.99999238  0.25000000  1
