# generated using pymatgen
data_Sr2Ca3Cu4(BiO6)2
_symmetry_space_group_name_H-M   'P 1'
_cell_length_a   3.81495399
_cell_length_b   3.81495399
_cell_length_c   22.33676588
_cell_angle_alpha   94.89881364
_cell_angle_beta   94.89881364
_cell_angle_gamma   90.00000000
_symmetry_Int_Tables_number   1
_chemical_formula_structural   Sr2Ca3Cu4(BiO6)2
_chemical_formula_sum   'Sr2 Ca3 Cu4 Bi2 O12'
_cell_volume   322.70706533
_cell_formula_units_Z   1
loop_
 _symmetry_equiv_pos_site_id
 _symmetry_equiv_pos_as_xyz
  1  'x, y, z'
loop_
 _atom_site_type_symbol
 _atom_site_label
 _atom_site_symmetry_multiplicity
 _atom_site_fract_x
 _atom_site_fract_y
 _atom_site_fract_z
 _atom_site_occupancy
  Sr  Sr0  1  0.84879149  0.84879149  0.69758298  1
  Sr  Sr1  1  0.15120851  0.15120851  0.30241702  1
  Ca  Ca2  1  -0.00000000  -0.00000000  -0.00000000  1
  Ca  Ca3  1  0.92583076  0.92583076  0.85166153  1
  Ca  Ca4  1  0.07416924  0.07416924  0.14833847  1
  Cu  Cu5  1  0.46292375  0.46292375  0.92584750  1
  Cu  Cu6  1  0.53707625  0.53707625  0.07415250  1
  Cu  Cu7  1  0.39103719  0.39103719  0.78207438  1
  Cu  Cu8  1  0.60896281  0.60896281  0.21792562  1
  Bi  Bi9  1  0.28338303  0.28338303  0.56676606  1
  Bi  Bi10  1  0.71661697  0.71661697  0.43323394  1
  O  O11  1  0.96321988  0.46321988  0.92643975  1
  O  O12  1  0.46321988  0.96321988  0.92643975  1
  O  O13  1  0.03678012  0.53678012  0.07356025  1
  O  O14  1  0.53678012  0.03678012  0.07356025  1
  O  O15  1  0.88958381  0.38958381  0.77916763  1
  O  O16  1  0.38958381  0.88958381  0.77916763  1
  O  O17  1  0.11041619  0.61041619  0.22083237  1
  O  O18  1  0.61041619  0.11041619  0.22083237  1
  O  O19  1  0.32986104  0.32986104  0.65972209  1
  O  O20  1  0.67013896  0.67013896  0.34027791  1
  O  O21  1  0.21705276  0.21705276  0.43410551  1
  O  O22  1  0.78294724  0.78294724  0.56589449  1
