# generated using pymatgen
data_YbWBrO4
_symmetry_space_group_name_H-M   'P 1'
_cell_length_a   6.62902396
_cell_length_b   7.30581587
_cell_length_c   12.09602599
_cell_angle_alpha   102.34387576
_cell_angle_beta   108.34128586
_cell_angle_gamma   93.90268263
_symmetry_Int_Tables_number   1
_chemical_formula_structural   YbWBrO4
_chemical_formula_sum   'Yb4 W4 Br4 O16'
_cell_volume   537.38424929
_cell_formula_units_Z   4
loop_
 _symmetry_equiv_pos_site_id
 _symmetry_equiv_pos_as_xyz
  1  'x, y, z'
loop_
 _atom_site_type_symbol
 _atom_site_label
 _atom_site_symmetry_multiplicity
 _atom_site_fract_x
 _atom_site_fract_y
 _atom_site_fract_z
 _atom_site_occupancy
  Yb  Yb0  1  0.65651943  0.10441538  0.73116893  1
  Yb  Yb1  1  0.34348057  0.89558462  0.26883107  1
  Yb  Yb2  1  0.38611810  0.65011709  0.75157960  1
  Yb  Yb3  1  0.61388190  0.34988291  0.24842040  1
  W  W4  1  0.70661851  0.81484153  0.13106196  1
  W  W5  1  0.29338149  0.18515847  0.86893804  1
  W  W6  1  0.75012204  0.57538995  0.61939480  1
  W  W7  1  0.24987796  0.42461005  0.38060520  1
  Br  Br8  1  0.24232152  0.00021110  0.50325345  1
  Br  Br9  1  0.75767848  -0.00021110  0.49674655  1
  Br  Br10  1  0.21464731  0.71019009  0.98157055  1
  Br  Br11  1  0.78535269  0.28980991  0.01842945  1
  O  O12  1  0.57539449  0.73661737  0.96406166  1
  O  O13  1  0.42460551  0.26338263  0.03593834  1
  O  O14  1  0.99137250  0.86554446  0.16598377  1
  O  O15  1  0.00862750  0.13445554  0.83401623  1
  O  O16  1  0.64339400  0.64172253  0.20566323  1
  O  O17  1  0.35660600  0.35827747  0.79433677  1
  O  O18  1  0.39551376  0.98019248  0.80310878  1
  O  O19  1  0.60448624  0.01980752  0.19689122  1
  O  O20  1  0.03399011  0.63699727  0.65651136  1
  O  O21  1  0.96600989  0.36300273  0.34348864  1
  O  O22  1  0.72062018  0.39172221  0.69432689  1
  O  O23  1  0.27937982  0.60827779  0.30567311  1
  O  O24  1  0.64429915  0.49993335  0.45175110  1
  O  O25  1  0.35570085  0.50006665  0.54824890  1
  O  O26  1  0.66363587  0.78307948  0.69788720  1
  O  O27  1  0.33636413  0.21692052  0.30211280  1
