# generated using pymatgen
data_Pb3(IO6)2
_symmetry_space_group_name_H-M   'P 1'
_cell_length_a   9.50808954
_cell_length_b   8.81299099
_cell_length_c   12.58651954
_cell_angle_alpha   90.00000000
_cell_angle_beta   98.88887205
_cell_angle_gamma   90.00000000
_symmetry_Int_Tables_number   1
_chemical_formula_structural   Pb3(IO6)2
_chemical_formula_sum   'Pb12 I8 O48'
_cell_volume   1042.01686046
_cell_formula_units_Z   4
loop_
 _symmetry_equiv_pos_site_id
 _symmetry_equiv_pos_as_xyz
  1  'x, y, z'
loop_
 _atom_site_type_symbol
 _atom_site_label
 _atom_site_symmetry_multiplicity
 _atom_site_fract_x
 _atom_site_fract_y
 _atom_site_fract_z
 _atom_site_occupancy
  Pb  Pb0  1  0.14216071  0.36318749  0.64308633  1
  Pb  Pb1  1  0.85783929  0.86318749  0.85691367  1
  Pb  Pb2  1  0.85783929  0.63681251  0.35691367  1
  Pb  Pb3  1  0.14216071  0.13681251  0.14308633  1
  Pb  Pb4  1  0.26755555  0.95821338  0.51737626  1
  Pb  Pb5  1  0.73244445  0.45821338  0.98262374  1
  Pb  Pb6  1  0.73244445  0.04178662  0.48262374  1
  Pb  Pb7  1  0.26755555  0.54178662  0.01737626  1
  Pb  Pb8  1  0.35804949  0.15220850  0.86506577  1
  Pb  Pb9  1  0.64195051  0.65220850  0.63493423  1
  Pb  Pb10  1  0.64195051  0.84779150  0.13493423  1
  Pb  Pb11  1  0.35804949  0.34779150  0.36506577  1
  I  I12  1  0.01610187  0.24593493  0.85839568  1
  I  I13  1  0.98389813  0.74593493  0.64160432  1
  I  I14  1  0.98389813  0.75406507  0.14160432  1
  I  I15  1  0.01610187  0.25406507  0.35839568  1
  I  I16  1  0.49205631  0.26546972  0.65192446  1
  I  I17  1  0.50794369  0.76546972  0.84807554  1
  I  I18  1  0.50794369  0.73453028  0.34807554  1
  I  I19  1  0.49205631  0.23453028  0.15192446  1
  O  O20  1  0.07108187  0.20388480  0.51038885  1
  O  O21  1  0.92891813  0.70388480  0.98961115  1
  O  O22  1  0.92891813  0.79611520  0.48961115  1
  O  O23  1  0.07108187  0.29611520  0.01038885  1
  O  O24  1  0.01609977  0.72154134  0.79462800  1
  O  O25  1  0.98390023  0.22154134  0.70537200  1
  O  O26  1  0.98390023  0.27845866  0.20537200  1
  O  O27  1  0.01609977  0.77845866  0.29462800  1
  O  O28  1  0.14338433  0.07615362  0.88420325  1
  O  O29  1  0.85661567  0.57615362  0.61579675  1
  O  O30  1  0.85661567  0.92384638  0.11579675  1
  O  O31  1  0.14338433  0.42384638  0.38420325  1
  O  O32  1  0.10553800  0.90722883  0.64659238  1
  O  O33  1  0.89446200  0.40722883  0.85340762  1
  O  O34  1  0.89446200  0.09277117  0.35340762  1
  O  O35  1  0.10553800  0.59277117  0.14659238  1
  O  O36  1  0.13015758  0.60749450  0.61948511  1
  O  O37  1  0.86984242  0.10749450  0.88051489  1
  O  O38  1  0.86984242  0.39250550  0.38051489  1
  O  O39  1  0.13015758  0.89250550  0.11948511  1
  O  O40  1  0.18715910  0.36362927  0.83190693  1
  O  O41  1  0.81284090  0.86362927  0.66809307  1
  O  O42  1  0.81284090  0.63637073  0.16809307  1
  O  O43  1  0.18715910  0.13637073  0.33190693  1
  O  O44  1  0.32207154  0.14530802  0.67948684  1
  O  O45  1  0.67792846  0.64530802  0.82051316  1
  O  O46  1  0.67792846  0.85469198  0.32051316  1
  O  O47  1  0.32207154  0.35469198  0.17948684  1
  O  O48  1  0.35635769  0.42800348  0.61603242  1
  O  O49  1  0.64364231  0.92800348  0.88396758  1
  O  O50  1  0.64364231  0.57199652  0.38396758  1
  O  O51  1  0.35635769  0.07199652  0.11603242  1
  O  O52  1  0.43978027  0.20070305  0.50026482  1
  O  O53  1  0.56021973  0.70070305  0.99973518  1
  O  O54  1  0.56021973  0.79929695  0.49973518  1
  O  O55  1  0.43978027  0.29929695  0.00026482  1
  O  O56  1  0.51817994  0.30100767  0.80358890  1
  O  O57  1  0.48182006  0.80100767  0.69641110  1
  O  O58  1  0.48182006  0.69899233  0.19641110  1
  O  O59  1  0.51817994  0.19899233  0.30358890  1
  O  O60  1  0.61672078  0.10922051  0.65933219  1
  O  O61  1  0.38327922  0.60922051  0.84066781  1
  O  O62  1  0.38327922  0.89077949  0.34066781  1
  O  O63  1  0.61672078  0.39077949  0.15933219  1
  O  O64  1  0.62991026  0.40719416  0.62164603  1
  O  O65  1  0.37008974  0.90719416  0.87835397  1
  O  O66  1  0.37008974  0.59280584  0.37835397  1
  O  O67  1  0.62991026  0.09280584  0.12164603  1
