# generated using pymatgen
data_FeH12C2(NCl2)2
_symmetry_space_group_name_H-M   'P 1'
_cell_length_a   7.31675363
_cell_length_b   7.28916971
_cell_length_c   19.49308287
_cell_angle_alpha   90.00000000
_cell_angle_beta   90.00000000
_cell_angle_gamma   90.00000000
_symmetry_Int_Tables_number   1
_chemical_formula_structural   FeH12C2(NCl2)2
_chemical_formula_sum   'Fe4 H48 C8 N8 Cl16'
_cell_volume   1039.62573754
_cell_formula_units_Z   4
loop_
 _symmetry_equiv_pos_site_id
 _symmetry_equiv_pos_as_xyz
  1  'x, y, z'
loop_
 _atom_site_type_symbol
 _atom_site_label
 _atom_site_symmetry_multiplicity
 _atom_site_fract_x
 _atom_site_fract_y
 _atom_site_fract_z
 _atom_site_occupancy
  Fe  Fe0  1  0.00000000  0.50000000  0.50000000  1
  Fe  Fe1  1  0.50000000  0.00000000  0.50000000  1
  Fe  Fe2  1  0.50000000  0.50000000  0.00000000  1
  Fe  Fe3  1  0.00000000  -0.00000000  0.00000000  1
  H  H4  1  0.06984730  0.57016604  0.91822198  1
  H  H5  1  0.43015270  0.92983396  0.91822198  1
  H  H6  1  0.56984730  0.42983396  0.58177802  1
  H  H7  1  0.93015270  0.07016604  0.58177802  1
  H  H8  1  0.93015270  0.42983396  0.08177802  1
  H  H9  1  0.56984730  0.07016604  0.08177802  1
  H  H10  1  0.43015270  0.57016604  0.41822198  1
  H  H11  1  0.06984730  0.92983396  0.41822198  1
  H  H12  1  0.85194706  0.51321835  0.89940245  1
  H  H13  1  0.64805294  0.98678165  0.89940245  1
  H  H14  1  0.35194706  0.48678165  0.60059755  1
  H  H15  1  0.14805294  0.01321835  0.60059755  1
  H  H16  1  0.14805294  0.48678165  0.10059755  1
  H  H17  1  0.35194706  0.01321835  0.10059755  1
  H  H18  1  0.64805294  0.51321835  0.39940245  1
  H  H19  1  0.85194706  0.98678165  0.39940245  1
  H  H20  1  0.01328387  0.35160429  0.89940227  1
  H  H21  1  0.48671613  0.14839571  0.89940227  1
  H  H22  1  0.51328387  0.64839571  0.60059773  1
  H  H23  1  0.98671613  0.85160429  0.60059773  1
  H  H24  1  0.98671613  0.64839571  0.10059773  1
  H  H25  1  0.51328387  0.85160429  0.10059773  1
  H  H26  1  0.48671613  0.35160429  0.39940227  1
  H  H27  1  0.01328387  0.14839571  0.39940227  1
  H  H28  1  0.93591081  0.43283105  0.78196527  1
  H  H29  1  0.56408919  0.06716895  0.78196527  1
  H  H30  1  0.43591081  0.56716895  0.71803473  1
  H  H31  1  0.06408919  0.93283105  0.71803473  1
  H  H32  1  0.06408919  0.56716895  0.21803473  1
  H  H33  1  0.43591081  0.93283105  0.21803473  1
  H  H34  1  0.56408919  0.43283105  0.28196527  1
  H  H35  1  0.93591081  0.06716895  0.28196527  1
  H  H36  1  0.99158010  0.66665333  0.80208580  1
  H  H37  1  0.50841990  0.83334667  0.80208580  1
  H  H38  1  0.49158010  0.33334667  0.69791420  1
  H  H39  1  0.00841990  0.16665333  0.69791420  1
  H  H40  1  0.00841990  0.33334667  0.19791420  1
  H  H41  1  0.49158010  0.16665333  0.19791420  1
  H  H42  1  0.50841990  0.66665333  0.30208580  1
  H  H43  1  0.99158010  0.83334667  0.30208580  1
  H  H44  1  0.16718671  0.49481343  0.80245539  1
  H  H45  1  0.33281329  0.00518657  0.80245539  1
  H  H46  1  0.66718671  0.50518657  0.69754461  1
  H  H47  1  0.83281329  0.99481343  0.69754461  1
  H  H48  1  0.83281329  0.50518657  0.19754461  1
  H  H49  1  0.66718671  0.99481343  0.19754461  1
  H  H50  1  0.33281329  0.49481343  0.30245539  1
  H  H51  1  0.16718671  0.00518657  0.30245539  1
  C  C52  1  0.02283193  0.52273208  0.81325039  1
  C  C53  1  0.47716807  0.97726792  0.81325039  1
  C  C54  1  0.52283193  0.47726792  0.68674961  1
  C  C55  1  0.97716807  0.02273208  0.68674961  1
  C  C56  1  0.97716807  0.47726792  0.18674961  1
  C  C57  1  0.52283193  0.02273208  0.18674961  1
  C  C58  1  0.47716807  0.52273208  0.31325039  1
  C  C59  1  0.02283193  0.97726792  0.31325039  1
  N  N60  1  0.98788612  0.48774856  0.88703685  1
  N  N61  1  0.51211388  0.01225144  0.88703685  1
  N  N62  1  0.48788612  0.51225144  0.61296315  1
  N  N63  1  0.01211388  0.98774856  0.61296315  1
  N  N64  1  0.01211388  0.51225144  0.11296315  1
  N  N65  1  0.48788612  0.98774856  0.11296315  1
  N  N66  1  0.51211388  0.48774856  0.38703685  1
  N  N67  1  0.98788612  0.01225144  0.38703685  1
  Cl  Cl68  1  0.03230888  0.53227983  0.62135214  1
  Cl  Cl69  1  0.46769112  0.96772017  0.62135214  1
  Cl  Cl70  1  0.53230888  0.46772017  0.87864786  1
  Cl  Cl71  1  0.96769112  0.03227983  0.87864786  1
  Cl  Cl72  1  0.96769112  0.46772017  0.37864786  1
  Cl  Cl73  1  0.53230888  0.03227983  0.37864786  1
  Cl  Cl74  1  0.46769112  0.53227983  0.12135214  1
  Cl  Cl75  1  0.03230888  0.96772017  0.12135214  1
  Cl  Cl76  1  0.25000000  0.25000000  0.49996379  1
  Cl  Cl77  1  0.75000000  0.75000000  0.00003621  1
  Cl  Cl78  1  0.75000000  0.75000000  0.50003621  1
  Cl  Cl79  1  0.25000000  0.25000000  0.99996379  1
  Cl  Cl80  1  0.75000000  0.25000000  0.52121849  1
  Cl  Cl81  1  0.25000000  0.75000000  0.97878151  1
  Cl  Cl82  1  0.25000000  0.75000000  0.47878151  1
  Cl  Cl83  1  0.75000000  0.25000000  0.02121849  1
