# generated using pymatgen
data_Si(H3C)2
_symmetry_space_group_name_H-M   'P 1'
_cell_length_a   10.39184974
_cell_length_b   10.39184974
_cell_length_c   16.46588927
_cell_angle_alpha   98.93541471
_cell_angle_beta   103.13070047
_cell_angle_gamma   113.19974753
_symmetry_Int_Tables_number   1
_chemical_formula_structural   Si(H3C)2
_chemical_formula_sum   'Si14 H84 C28'
_cell_volume   1530.95438723
_cell_formula_units_Z   14
loop_
 _symmetry_equiv_pos_site_id
 _symmetry_equiv_pos_as_xyz
  1  'x, y, z'
loop_
 _atom_site_type_symbol
 _atom_site_label
 _atom_site_symmetry_multiplicity
 _atom_site_fract_x
 _atom_site_fract_y
 _atom_site_fract_z
 _atom_site_occupancy
  Si  Si0  1  0.07371787  0.57371787  0.50000000  1
  Si  Si1  1  0.10367908  0.68742343  0.38355900  1
  Si  Si2  1  0.30386443  0.72012008  0.61644100  1
  Si  Si3  1  0.35992392  0.84777232  0.42374275  1
  Si  Si4  1  0.42402958  0.93618117  0.57625725  1
  Si  Si5  1  0.03886561  0.32603439  0.46058563  1
  Si  Si6  1  0.86544876  0.57827998  0.53941437  1
  Si  Si7  1  0.36692604  0.36692604  -0.00000000  1
  Si  Si8  1  0.35387720  0.21995949  0.10098462  1
  Si  Si9  1  0.11897487  0.25289257  0.89901538  1
  Si  Si10  1  0.12697794  0.00452091  0.03737002  1
  Si  Si11  1  0.96715089  0.08960792  0.96262998  1
  Si  Si12  1  0.44195595  0.61522304  0.07541798  1
  Si  Si13  1  0.53980506  0.36653797  0.92458202  1
  H  H14  1  0.03858167  0.60136090  0.22148441  1
  H  H15  1  0.37987649  0.81709726  0.77851559  1
  H  H16  1  0.90483968  0.48234537  0.25989798  1
  H  H17  1  0.22244739  0.64494170  0.74010202  1
  H  H18  1  0.07543131  0.47356581  0.27106893  1
  H  H19  1  0.20249688  0.80436238  0.72893107  1
  H  H20  1  0.88365223  0.74163007  0.35978030  1
  H  H21  1  0.38184977  0.52387193  0.64021970  1
  H  H22  1  0.01796452  0.85329669  0.31893319  1
  H  H23  1  0.53436350  0.69903132  0.68106681  1
  H  H24  1  0.04492695  0.89525644  0.43244404  1
  H  H25  1  0.46281239  0.61248291  0.56755596  1
  H  H26  1  0.59130160  0.82071139  0.43053555  1
  H  H27  1  0.39017584  0.16076605  0.56946445  1
  H  H28  1  0.45438185  0.72051358  0.32773073  1
  H  H29  1  0.39278284  0.12665112  0.67226927  1
  H  H30  1  0.44274720  0.65015425  0.41910272  1
  H  H31  1  0.23105153  0.02364449  0.58089728  1
  H  H32  1  0.37356637  0.95445753  0.29723815  1
  H  H33  1  0.65721938  0.07632823  0.70276185  1
  H  H34  1  0.51523189  0.07858549  0.39330456  1
  H  H35  1  0.68528093  0.12192733  0.60669544  1
  H  H36  1  0.33196661  0.05782415  0.37513800  1
  H  H37  1  0.68268615  0.95682861  0.62486200  1
  H  H38  1  0.16489680  0.19474658  0.39943887  1
  H  H39  1  0.79530771  0.76545793  0.60056113  1
  H  H40  1  0.29728394  0.36610847  0.47257468  1
  H  H41  1  0.89353379  0.82470926  0.52742532  1
  H  H42  1  0.20004535  0.35597925  0.36541582  1
  H  H43  1  0.99056342  0.83462953  0.63458418  1
  H  H44  1  0.76380853  0.18464198  0.39257867  1
  H  H45  1  0.79206331  0.37122986  0.60742133  1
  H  H46  1  0.85866985  0.09316935  0.35195399  1
  H  H47  1  0.74121536  0.50671586  0.64804601  1
  H  H48  1  0.84905777  0.24101242  0.31339828  1
  H  H49  1  0.92761413  0.53565948  0.68660172  1
  H  H50  1  0.14480754  0.30667464  0.60845441  1
  H  H51  1  0.69822024  0.53635314  0.39154559  1
  H  H52  1  0.01394712  0.13344425  0.53731284  1
  H  H53  1  0.59613141  0.47663428  0.46268716  1
  H  H54  1  0.95239147  0.25496243  0.58458831  1
  H  H55  1  0.67037412  0.36780316  0.41541169  1
  H  H56  1  0.43903309  0.41567808  0.23973525  1
  H  H57  1  0.17594283  0.19929784  0.76026475  1
  H  H58  1  0.32942883  0.24204025  0.24953214  1
  H  H59  1  0.99250811  0.07989669  0.75046786  1
  H  H60  1  0.24328256  0.33509099  0.19366429  1
  H  H61  1  0.14142670  0.04961827  0.80633571  1
  H  H62  1  0.51028626  0.11623583  0.17914839  1
  H  H63  1  0.93708744  0.33113787  0.82085161  1
  H  H64  1  0.62098413  0.29125055  0.17137937  1
  H  H65  1  0.11987119  0.44960476  0.82862063  1
  H  H66  1  0.54639664  0.13711079  0.08005439  1
  H  H67  1  0.05705640  0.46634225  0.91994561  1
  H  H68  1  0.02953585  0.76653491  0.92594691  1
  H  H69  1  0.84058800  0.10358894  0.07405309  1
  H  H70  1  0.21432777  0.82027026  0.99019458  1
  H  H71  1  0.83007568  0.22413319  0.00980542  1
  H  H72  1  0.17912135  0.90330548  0.90653163  1
  H  H73  1  0.99677384  0.27258972  0.09346837  1
  H  H74  1  0.13056329  0.87275077  0.15324636  1
  H  H75  1  0.71950441  0.97731693  0.84675364  1
  H  H76  1  0.94702867  0.83388899  0.09622168  1
  H  H77  1  0.73766731  0.85080699  0.90377832  1
  H  H78  1  0.06280245  0.00276714  0.17636762  1
  H  H79  1  0.82639952  0.88643484  0.82363238  1
  H  H80  1  0.64749984  0.80334648  0.20231751  1
  H  H81  1  0.60102897  0.44518233  0.79768249  1
  H  H82  1  0.70770085  0.68306764  0.15204553  1
  H  H83  1  0.53102211  0.55565532  0.84795447  1
  H  H84  1  0.59779866  0.62861391  0.22056875  1
  H  H85  1  0.40804516  0.37722991  0.77943125  1
  H  H86  1  0.52214878  0.85264259  0.03996906  1
  H  H87  1  0.81267353  0.48217973  0.96003094  1
  H  H88  1  0.38551734  0.71119325  0.94742099  1
  H  H89  1  0.76377227  0.43809635  0.05257901  1
  H  H90  1  0.57098986  0.73469688  0.97730675  1
  H  H91  1  0.75739013  0.59368311  0.02269325  1
  H  H92  1  0.19401650  0.60624670  0.06584887  1
  H  H93  1  0.54039783  0.12816763  0.93415113  1
  H  H94  1  0.33598539  0.75111050  0.15465720  1
  H  H95  1  0.59645330  0.18132819  0.84534280  1
  H  H96  1  0.26954582  0.56940203  0.16311287  1
  H  H97  1  0.40628916  0.10643295  0.83688713  1
  C  C98  1  0.02416550  0.54771950  0.27367603  1
  C  C99  1  0.27404347  0.75048946  0.72632397  1
  C  C100  1  0.00291947  0.80576926  0.37345853  1
  C  C101  1  0.43231073  0.62946093  0.62654147  1
  C  C102  1  0.47265211  0.75011901  0.39792444  1
  C  C103  1  0.35219458  0.07472767  0.60207556  1
  C  C104  1  0.39783897  0.99917249  0.36710158  1
  C  C105  1  0.63207090  0.03073739  0.63289842  1
  C  C106  1  0.19029197  0.31028664  0.42083105  1
  C  C107  1  0.88945559  0.76946093  0.57916895  1
  C  C108  1  0.86004852  0.20023707  0.37110662  1
  C  C109  1  0.82913045  0.48894190  0.62889338  1
  C  C110  1  0.03714879  0.24852360  0.55708502  1
  C  C111  1  0.69143858  0.48006377  0.44291498  1
  C  C112  1  0.33963814  0.31264146  0.20553397  1
  C  C113  1  0.10710749  0.13410417  0.79446603  1
  C  C114  1  0.52364528  0.18716342  0.13527407  1
  C  C115  1  0.05188935  0.38837121  0.86472593  1
  C  C116  1  0.13899166  0.86011474  0.95743160  1
  C  C117  1  0.90268314  0.18156006  0.04256840  1
  C  C118  1  0.06072118  0.92124309  0.12433393  1
  C  C119  1  0.79690916  0.93638725  0.87566607  1
  C  C120  1  0.61539496  0.68864353  0.17145918  1
  C  C121  1  0.51718434  0.44393578  0.82854082  1
  C  C122  1  0.48379033  0.73960575  0.00266386  1
  C  C123  1  0.73694189  0.48112647  0.99733614  1
  C  C124  1  0.29601683  0.63693345  0.11867870  1
  C  C125  1  0.51825475  0.17733813  0.88132130  1
