# generated using pymatgen
data_FeH12C2(NCl2)2
_symmetry_space_group_name_H-M   'P 1'
_cell_length_a   7.29319205
_cell_length_b   7.30063524
_cell_length_c   19.45671638
_cell_angle_alpha   90.00000000
_cell_angle_beta   90.00000000
_cell_angle_gamma   90.00000000
_symmetry_Int_Tables_number   1
_chemical_formula_structural   FeH12C2(NCl2)2
_chemical_formula_sum   'Fe4 H48 C8 N8 Cl16'
_cell_volume   1035.97159687
_cell_formula_units_Z   4
loop_
 _symmetry_equiv_pos_site_id
 _symmetry_equiv_pos_as_xyz
  1  'x, y, z'
loop_
 _atom_site_type_symbol
 _atom_site_label
 _atom_site_symmetry_multiplicity
 _atom_site_fract_x
 _atom_site_fract_y
 _atom_site_fract_z
 _atom_site_occupancy
  Fe  Fe0  1  0.00000000  0.50000000  0.50000000  1
  Fe  Fe1  1  0.50000000  -0.00000000  0.50000000  1
  Fe  Fe2  1  0.50000000  0.50000000  0.00000000  1
  Fe  Fe3  1  0.00000000  -0.00000000  0.00000000  1
  H  H4  1  0.57545161  0.56843500  0.41763746  1
  H  H5  1  0.92454839  0.93156500  0.41763746  1
  H  H6  1  0.07545161  0.43156500  0.08236254  1
  H  H7  1  0.42454839  0.06843500  0.08236254  1
  H  H8  1  0.42454839  0.43156500  0.58236254  1
  H  H9  1  0.07545161  0.06843500  0.58236254  1
  H  H10  1  0.92454839  0.56843500  0.91763746  1
  H  H11  1  0.57545161  0.93156500  0.91763746  1
  H  H12  1  0.35489618  0.51674193  0.40087451  1
  H  H13  1  0.14510382  0.98325807  0.40087451  1
  H  H14  1  0.85489618  0.48325807  0.09912549  1
  H  H15  1  0.64510382  0.01674193  0.09912549  1
  H  H16  1  0.64510382  0.48325807  0.59912549  1
  H  H17  1  0.85489618  0.01674193  0.59912549  1
  H  H18  1  0.14510382  0.51674193  0.90087451  1
  H  H19  1  0.35489618  0.98325807  0.90087451  1
  H  H20  1  0.51232811  0.35120284  0.39902496  1
  H  H21  1  0.98767189  0.14879716  0.39902496  1
  H  H22  1  0.01232811  0.64879716  0.10097504  1
  H  H23  1  0.48767189  0.85120284  0.10097504  1
  H  H24  1  0.48767189  0.64879716  0.60097504  1
  H  H25  1  0.01232811  0.85120284  0.60097504  1
  H  H26  1  0.98767189  0.35120284  0.89902496  1
  H  H27  1  0.51232811  0.14879716  0.89902496  1
  H  H28  1  0.42772526  0.43743818  0.28312682  1
  H  H29  1  0.07227474  0.06256182  0.28312682  1
  H  H30  1  0.92772526  0.56256182  0.21687318  1
  H  H31  1  0.57227474  0.93743818  0.21687318  1
  H  H32  1  0.57227474  0.56256182  0.71687318  1
  H  H33  1  0.92772526  0.93743818  0.71687318  1
  H  H34  1  0.07227474  0.43743818  0.78312682  1
  H  H35  1  0.42772526  0.06256182  0.78312682  1
  H  H36  1  0.49394268  0.66798189  0.30291799  1
  H  H37  1  0.00605732  0.83201811  0.30291799  1
  H  H38  1  0.99394268  0.33201811  0.19708201  1
  H  H39  1  0.50605732  0.16798189  0.19708201  1
  H  H40  1  0.50605732  0.33201811  0.69708201  1
  H  H41  1  0.99394268  0.16798189  0.69708201  1
  H  H42  1  0.00605732  0.66798189  0.80291799  1
  H  H43  1  0.49394268  0.83201811  0.80291799  1
  H  H44  1  0.66327285  0.49023070  0.30104701  1
  H  H45  1  0.83672715  0.00976930  0.30104701  1
  H  H46  1  0.16327285  0.50976930  0.19895299  1
  H  H47  1  0.33672715  0.99023070  0.19895299  1
  H  H48  1  0.33672715  0.50976930  0.69895299  1
  H  H49  1  0.16327285  0.99023070  0.69895299  1
  H  H50  1  0.83672715  0.49023070  0.80104701  1
  H  H51  1  0.66327285  0.00976930  0.80104701  1
  C  C52  1  0.52050162  0.52347729  0.31320378  1
  C  C53  1  0.97949838  0.97652271  0.31320378  1
  C  C54  1  0.02050162  0.47652271  0.18679622  1
  C  C55  1  0.47949838  0.02347729  0.18679622  1
  C  C56  1  0.47949838  0.47652271  0.68679622  1
  C  C57  1  0.02050162  0.02347729  0.68679622  1
  C  C58  1  0.97949838  0.52347729  0.81320378  1
  C  C59  1  0.52050162  0.97652271  0.81320378  1
  N  N60  1  0.48919703  0.48809015  0.38726821  1
  N  N61  1  0.01080297  0.01190985  0.38726821  1
  N  N62  1  0.98919703  0.51190985  0.11273179  1
  N  N63  1  0.51080297  0.98809015  0.11273179  1
  N  N64  1  0.51080297  0.51190985  0.61273179  1
  N  N65  1  0.98919703  0.98809015  0.61273179  1
  N  N66  1  0.01080297  0.48809015  0.88726821  1
  N  N67  1  0.48919703  0.01190985  0.88726821  1
  Cl  Cl68  1  0.97093171  0.53375581  0.62186912  1
  Cl  Cl69  1  0.52906829  0.96624419  0.62186912  1
  Cl  Cl70  1  0.47093171  0.46624419  0.87813088  1
  Cl  Cl71  1  0.02906829  0.03375581  0.87813088  1
  Cl  Cl72  1  0.02906829  0.46624419  0.37813088  1
  Cl  Cl73  1  0.47093171  0.03375581  0.37813088  1
  Cl  Cl74  1  0.52906829  0.53375581  0.12186912  1
  Cl  Cl75  1  0.97093171  0.96624419  0.12186912  1
  Cl  Cl76  1  0.25000000  0.75000000  0.49839292  1
  Cl  Cl77  1  0.75000000  0.25000000  0.00160708  1
  Cl  Cl78  1  0.75000000  0.25000000  0.50160708  1
  Cl  Cl79  1  0.25000000  0.75000000  0.99839292  1
  Cl  Cl80  1  0.25000000  0.25000000  0.52073193  1
  Cl  Cl81  1  0.75000000  0.75000000  0.97926807  1
  Cl  Cl82  1  0.75000000  0.75000000  0.47926807  1
  Cl  Cl83  1  0.25000000  0.25000000  0.02073193  1
