# generated using pymatgen
data_SiH6(NF3)2
_symmetry_space_group_name_H-M   'P 1'
_cell_length_a   7.63222473
_cell_length_b   7.65845683
_cell_length_c   8.75885707
_cell_angle_alpha   90.00000000
_cell_angle_beta   90.00000000
_cell_angle_gamma   90.00000000
_symmetry_Int_Tables_number   1
_chemical_formula_structural   SiH6(NF3)2
_chemical_formula_sum   'Si4 H24 N8 F24'
_cell_volume   511.96451176
_cell_formula_units_Z   4
loop_
 _symmetry_equiv_pos_site_id
 _symmetry_equiv_pos_as_xyz
  1  'x, y, z'
loop_
 _atom_site_type_symbol
 _atom_site_label
 _atom_site_symmetry_multiplicity
 _atom_site_fract_x
 _atom_site_fract_y
 _atom_site_fract_z
 _atom_site_occupancy
  Si  Si0  1  0.00000000  -0.00000000  -0.00000000  1
  Si  Si1  1  0.50000000  0.50000000  -0.00000000  1
  Si  Si2  1  0.50000000  -0.00000000  0.50000000  1
  Si  Si3  1  -0.00000000  0.50000000  0.50000000  1
  H  H4  1  0.85341026  0.05758317  0.59562272  1
  H  H5  1  0.64658974  0.55758317  0.40437728  1
  H  H6  1  0.35341026  0.94241683  0.90437728  1
  H  H7  1  0.14658974  0.44241683  0.09562272  1
  H  H8  1  0.14658974  0.94241683  0.40437728  1
  H  H9  1  0.35341026  0.44241683  0.59562272  1
  H  H10  1  0.64658974  0.05758317  0.09562272  1
  H  H11  1  0.85341026  0.55758317  0.90437728  1
  H  H12  1  0.07296569  0.09999276  0.62438580  1
  H  H13  1  0.42703431  0.59999276  0.37561420  1
  H  H14  1  0.57296569  0.90000724  0.87561420  1
  H  H15  1  0.92703431  0.40000724  0.12438580  1
  H  H16  1  0.92703431  0.90000724  0.37561420  1
  H  H17  1  0.57296569  0.40000724  0.62438580  1
  H  H18  1  0.42703431  0.09999276  0.12438580  1
  H  H19  1  0.07296569  0.59999276  0.87561420  1
  H  H20  1  0.00051816  0.88899952  0.63208634  1
  H  H21  1  0.49948184  0.38899952  0.36791366  1
  H  H22  1  0.50051816  0.11100048  0.86791366  1
  H  H23  1  0.99948184  0.61100048  0.13208634  1
  H  H24  1  0.99948184  0.11100048  0.36791366  1
  H  H25  1  0.50051816  0.61100048  0.63208634  1
  H  H26  1  0.49948184  0.88899952  0.13208634  1
  H  H27  1  0.00051816  0.38899952  0.86791366  1
  N  N28  1  0.98319061  0.01113171  0.58072047  1
  N  N29  1  0.51680939  0.51113171  0.41927953  1
  N  N30  1  0.48319061  0.98886829  0.91927953  1
  N  N31  1  0.01680939  0.48886829  0.08072047  1
  N  N32  1  0.01680939  0.98886829  0.41927953  1
  N  N33  1  0.48319061  0.48886829  0.58072047  1
  N  N34  1  0.51680939  0.01113171  0.08072047  1
  N  N35  1  0.98319061  0.51113171  0.91927953  1
  F  F36  1  0.15137365  0.87165191  0.90531147  1
  F  F37  1  0.34862635  0.37165191  0.09468853  1
  F  F38  1  0.65137365  0.12834809  0.59468853  1
  F  F39  1  0.84862635  0.62834809  0.40531147  1
  F  F40  1  0.84862635  0.12834809  0.09468853  1
  F  F41  1  0.65137365  0.62834809  0.90531147  1
  F  F42  1  0.34862635  0.87165191  0.40531147  1
  F  F43  1  0.15137365  0.37165191  0.59468853  1
  F  F44  1  0.15615334  0.06255377  0.12677116  1
  F  F45  1  0.34384666  0.56255377  0.87322884  1
  F  F46  1  0.65615334  0.93744623  0.37322884  1
  F  F47  1  0.84384666  0.43744623  0.62677116  1
  F  F48  1  0.84384666  0.93744623  0.87322884  1
  F  F49  1  0.65615334  0.43744623  0.12677116  1
  F  F50  1  0.34384666  0.06255377  0.62677116  1
  F  F51  1  0.15615334  0.56255377  0.37322884  1
  F  F52  1  0.94603206  0.82680668  0.11759021  1
  F  F53  1  0.55396794  0.32680668  0.88240979  1
  F  F54  1  0.44603206  0.17319332  0.38240979  1
  F  F55  1  0.05396794  0.67319332  0.61759021  1
  F  F56  1  0.05396794  0.17319332  0.88240979  1
  F  F57  1  0.44603206  0.67319332  0.11759021  1
  F  F58  1  0.55396794  0.82680668  0.61759021  1
  F  F59  1  0.94603206  0.32680668  0.38240979  1
