# generated using pymatgen
data_FeWCl5
_symmetry_space_group_name_H-M   'P 1'
_cell_length_a   6.25223981
_cell_length_b   8.96299541
_cell_length_c   12.77970621
_cell_angle_alpha   86.83347871
_cell_angle_beta   80.88742450
_cell_angle_gamma   69.58724814
_symmetry_Int_Tables_number   1
_chemical_formula_structural   FeWCl5
_chemical_formula_sum   'Fe4 W4 Cl20'
_cell_volume   662.71668001
_cell_formula_units_Z   4
loop_
 _symmetry_equiv_pos_site_id
 _symmetry_equiv_pos_as_xyz
  1  'x, y, z'
loop_
 _atom_site_type_symbol
 _atom_site_label
 _atom_site_symmetry_multiplicity
 _atom_site_fract_x
 _atom_site_fract_y
 _atom_site_fract_z
 _atom_site_occupancy
  Fe  Fe0  1  0.94889570  0.60220861  0.25000000  1
  Fe  Fe1  1  0.05110430  0.39779139  0.75000000  1
  Fe  Fe2  1  0.33907167  0.82185665  0.25000000  1
  Fe  Fe3  1  0.66092833  0.17814335  0.75000000  1
  W  W4  1  0.56790547  0.36418907  0.25000000  1
  W  W5  1  0.43209453  0.63581093  0.75000000  1
  W  W6  1  0.72347883  0.05304234  0.25000000  1
  W  W7  1  0.27652117  0.94695766  0.75000000  1
  Cl  Cl8  1  0.23302876  0.79158395  0.61570231  1
  Cl  Cl9  1  0.47538728  0.79158395  0.88429769  1
  Cl  Cl10  1  0.76697124  0.20841605  0.38429769  1
  Cl  Cl11  1  0.52461272  0.20841605  0.11570231  1
  Cl  Cl12  1  0.09804325  0.59519773  0.85771282  1
  Cl  Cl13  1  0.80675902  0.59519773  0.64228718  1
  Cl  Cl14  1  0.90195675  0.40480227  0.14228718  1
  Cl  Cl15  1  0.19324098  0.40480227  0.35771282  1
  Cl  Cl16  1  0.90597573  0.98948667  0.85965787  1
  Cl  Cl17  1  0.60453760  0.98948667  0.64034213  1
  Cl  Cl18  1  0.09402427  0.01051333  0.14034213  1
  Cl  Cl19  1  0.39546240  0.01051333  0.35965787  1
  Cl  Cl20  1  0.42469893  0.40666468  0.64362344  1
  Cl  Cl21  1  0.66863639  0.40666468  0.85637656  1
  Cl  Cl22  1  0.57530107  0.59333532  0.35637656  1
  Cl  Cl23  1  0.33136361  0.59333532  0.14362344  1
  Cl  Cl24  1  0.03863345  0.17396703  0.64226689  1
  Cl  Cl25  1  0.28739952  0.17396703  0.85773311  1
  Cl  Cl26  1  0.96136655  0.82603297  0.35773311  1
  Cl  Cl27  1  0.71260048  0.82603297  0.14226689  1
