# generated using pymatgen
data_YV(TeO4)2
_symmetry_space_group_name_H-M   'P 1'
_cell_length_a   5.52210795
_cell_length_b   5.52210776
_cell_length_c   21.62560436
_cell_angle_alpha   90.00518345
_cell_angle_beta   90.00518295
_cell_angle_gamma   84.09101472
_symmetry_Int_Tables_number   1
_chemical_formula_structural   YV(TeO4)2
_chemical_formula_sum   'Y4 V4 Te8 O32'
_cell_volume   655.94031509
_cell_formula_units_Z   4
loop_
 _symmetry_equiv_pos_site_id
 _symmetry_equiv_pos_as_xyz
  1  'x, y, z'
loop_
 _atom_site_type_symbol
 _atom_site_label
 _atom_site_symmetry_multiplicity
 _atom_site_fract_x
 _atom_site_fract_y
 _atom_site_fract_z
 _atom_site_occupancy
  Y  Y0  1  0.75146822  0.24853163  -0.00000002  1
  Y  Y1  1  0.24853178  0.75146837  0.00000002  1
  Y  Y2  1  0.74860254  0.25139740  0.50000007  1
  Y  Y3  1  0.25139746  0.74860260  0.49999993  1
  V  V4  1  0.75535696  0.25534092  0.25001444  1
  V  V5  1  0.25533642  0.75535210  0.25001449  1
  V  V6  1  0.24464304  0.74465908  0.74998556  1
  V  V7  1  0.74466358  0.24464790  0.74998551  1
  Te  Te8  1  0.31140209  0.31140192  0.11142711  1
  Te  Te9  1  0.68859791  0.68859808  0.88857289  1
  Te  Te10  1  0.82179949  0.82179941  0.13360614  1
  Te  Te11  1  0.17820051  0.17820059  0.86639386  1
  Te  Te12  1  0.32187310  0.32187345  0.36645790  1
  Te  Te13  1  0.67812690  0.67812655  0.63354210  1
  Te  Te14  1  0.81141984  0.81141988  0.38861261  1
  Te  Te15  1  0.18858016  0.18858012  0.61138739  1
  O  O16  1  0.04721414  0.44033862  0.05962495  1
  O  O17  1  0.44033875  0.04721442  0.05962496  1
  O  O18  1  0.95278586  0.55966138  0.94037505  1
  O  O19  1  0.55966125  0.95278558  0.94037504  1
  O  O20  1  0.51577296  0.51577331  0.06752295  1
  O  O21  1  0.48422704  0.48422669  0.93247705  1
  O  O22  1  0.93507710  0.93507691  0.05798115  1
  O  O23  1  0.06492290  0.06492309  0.94201885  1
  O  O24  1  0.75916454  0.15564797  0.16384791  1
  O  O25  1  0.15564767  0.75916500  0.16384767  1
  O  O26  1  0.24083546  0.84435203  0.83615209  1
  O  O27  1  0.84435233  0.24083500  0.83615233  1
  O  O28  1  0.43525573  0.43525596  0.44202527  1
  O  O29  1  0.56474427  0.56474404  0.55797473  1
  O  O30  1  0.65563868  0.25935216  0.33617603  1
  O  O31  1  0.25935271  0.65563839  0.33617630  1
  O  O32  1  0.34436132  0.74064784  0.66382397  1
  O  O33  1  0.74064729  0.34436161  0.66382370  1
  O  O34  1  0.54736629  0.94034764  0.44042332  1
  O  O35  1  0.94034752  0.54736627  0.44042326  1
  O  O36  1  0.45263371  0.05965236  0.55957668  1
  O  O37  1  0.05965248  0.45263373  0.55957674  1
  O  O38  1  0.01586317  0.01586313  0.43247319  1
  O  O39  1  0.98413683  0.98413687  0.56752681  1
  O  O40  1  0.47055704  0.47055491  0.23367978  1
  O  O41  1  0.52944296  0.52944509  0.76632022  1
  O  O42  1  0.45673961  0.95709755  0.25000934  1
  O  O43  1  0.95709602  0.45673814  0.25000934  1
  O  O44  1  0.54326039  0.04290245  0.74999066  1
  O  O45  1  0.04290398  0.54326186  0.74999066  1
  O  O46  1  0.97023742  0.97023964  0.26631168  1
  O  O47  1  0.02976258  0.02976036  0.73368832  1
