# generated using pymatgen
data_H6PbCI3N
_symmetry_space_group_name_H-M   'P 1'
_cell_length_a   8.65008309
_cell_length_b   8.99139075
_cell_length_c   13.12265404
_cell_angle_alpha   90.00000000
_cell_angle_beta   90.00000000
_cell_angle_gamma   90.00000000
_symmetry_Int_Tables_number   1
_chemical_formula_structural   H6PbCI3N
_chemical_formula_sum   'H24 Pb4 C4 I12 N4'
_cell_volume   1020.63117667
_cell_formula_units_Z   4
loop_
 _symmetry_equiv_pos_site_id
 _symmetry_equiv_pos_as_xyz
  1  'x, y, z'
loop_
 _atom_site_type_symbol
 _atom_site_label
 _atom_site_symmetry_multiplicity
 _atom_site_fract_x
 _atom_site_fract_y
 _atom_site_fract_z
 _atom_site_occupancy
  H  H0  1  0.30379281  0.44129844  0.25000000  1
  H  H1  1  0.19620719  0.94129844  0.25000000  1
  H  H2  1  0.69620719  0.55870156  0.75000000  1
  H  H3  1  0.80379281  0.05870156  0.75000000  1
  H  H4  1  0.45318312  0.34456927  0.18125317  1
  H  H5  1  0.04681688  0.84456927  0.31874683  1
  H  H6  1  0.54681688  0.65543073  0.68125317  1
  H  H7  1  0.95318312  0.15543073  0.81874683  1
  H  H8  1  0.54681688  0.65543073  0.81874683  1
  H  H9  1  0.95318312  0.15543073  0.68125317  1
  H  H10  1  0.45318312  0.34456927  0.31874683  1
  H  H11  1  0.04681688  0.84456927  0.18125317  1
  H  H12  1  0.49614895  0.60951359  0.18579974  1
  H  H13  1  0.00385105  0.10951359  0.31420026  1
  H  H14  1  0.50385105  0.39048641  0.68579974  1
  H  H15  1  0.99614895  0.89048641  0.81420026  1
  H  H16  1  0.50385105  0.39048641  0.81420026  1
  H  H17  1  0.99614895  0.89048641  0.68579974  1
  H  H18  1  0.49614895  0.60951359  0.31420026  1
  H  H19  1  0.00385105  0.10951359  0.18579974  1
  H  H20  1  0.36049191  0.47824058  0.75000000  1
  H  H21  1  0.13950809  0.97824058  0.75000000  1
  H  H22  1  0.63950809  0.52175942  0.25000000  1
  H  H23  1  0.86049191  0.02175942  0.25000000  1
  Pb  Pb24  1  0.50000000  -0.00000000  0.00000000  1
  Pb  Pb25  1  0.00000000  0.50000000  0.50000000  1
  Pb  Pb26  1  0.50000000  -0.00000000  0.50000000  1
  Pb  Pb27  1  0.00000000  0.50000000  0.00000000  1
  C  C28  1  0.42599741  0.40849019  0.25000000  1
  C  C29  1  0.07400259  0.90849019  0.25000000  1
  C  C30  1  0.57400259  0.59150981  0.75000000  1
  C  C31  1  0.92599741  0.09150981  0.75000000  1
  I  I32  1  0.56927608  0.97307164  0.25000000  1
  I  I33  1  0.93072392  0.47307164  0.25000000  1
  I  I34  1  0.43072392  0.02692836  0.75000000  1
  I  I35  1  0.06927608  0.52692836  0.75000000  1
  I  I36  1  0.32637046  0.67944677  0.01757378  1
  I  I37  1  0.17362954  0.17944677  0.48242622  1
  I  I38  1  0.67362954  0.32055323  0.51757378  1
  I  I39  1  0.82637046  0.82055323  0.98242622  1
  I  I40  1  0.67362954  0.32055323  0.98242622  1
  I  I41  1  0.82637046  0.82055323  0.51757378  1
  I  I42  1  0.32637046  0.67944677  0.48242622  1
  I  I43  1  0.17362954  0.17944677  0.01757378  1
  N  N44  1  0.47882751  0.45399828  0.75000000  1
  N  N45  1  0.02117249  0.95399828  0.75000000  1
  N  N46  1  0.52117249  0.54600172  0.25000000  1
  N  N47  1  0.97882751  0.04600172  0.25000000  1
