# generated using pymatgen
data_Ca2Se4O11
_symmetry_space_group_name_H-M   'P 1'
_cell_length_a   7.17494190
_cell_length_b   8.33764939
_cell_length_c   11.50397743
_cell_angle_alpha   89.36334919
_cell_angle_beta   71.82947730
_cell_angle_gamma   115.48492878
_symmetry_Int_Tables_number   1
_chemical_formula_structural   Ca2Se4O11
_chemical_formula_sum   'Ca4 Se8 O22'
_cell_volume   581.72077557
_cell_formula_units_Z   2
loop_
 _symmetry_equiv_pos_site_id
 _symmetry_equiv_pos_as_xyz
  1  'x, y, z'
loop_
 _atom_site_type_symbol
 _atom_site_label
 _atom_site_symmetry_multiplicity
 _atom_site_fract_x
 _atom_site_fract_y
 _atom_site_fract_z
 _atom_site_occupancy
  Ca  Ca0  1  0.15693190  0.88488428  0.07158979  1
  Ca  Ca1  1  0.83452982  0.61291419  0.42736805  1
  Ca  Ca2  1  0.85101632  0.11291419  0.92736805  1
  Ca  Ca3  1  0.15636259  0.38488428  0.57158979  1
  Se  Se4  1  0.94844128  0.89120931  0.67446937  1
  Se  Se5  1  0.23944759  0.61169751  0.82370932  1
  Se  Se6  1  0.04854060  0.11169751  0.32370932  1
  Se  Se7  1  0.76829866  0.39120931  0.17446937  1
  Se  Se8  1  0.45362411  0.29194340  0.90699792  1
  Se  Se9  1  0.56342494  0.22548363  0.61611541  1
  Se  Se10  1  0.54594328  0.72548363  0.11611541  1
  Se  Se11  1  0.43132138  0.79194340  0.40699792  1
  O  O12  1  0.52098525  0.16637929  0.98711758  1
  O  O13  1  0.82799973  0.32071817  0.51750169  1
  O  O14  1  0.47521676  0.82071817  0.01750169  1
  O  O15  1  0.15827646  0.66637929  0.48711758  1
  O  O16  1  0.20814032  0.13350141  0.90563511  1
  O  O17  1  0.48044951  0.37386092  0.57881447  1
  O  O18  1  0.81459693  0.87386092  0.07881447  1
  O  O19  1  0.51972597  0.63350141  0.40563511  1
  O  O20  1  0.82585008  0.75369710  0.81104847  1
  O  O21  1  0.38453551  0.75054120  0.68713154  1
  O  O22  1  0.17887416  0.25054120  0.18713154  1
  O  O23  1  0.61679855  0.25369710  0.31104847  1
  O  O24  1  0.81712078  0.80784958  0.57430001  1
  O  O25  1  0.08865251  0.69262953  0.92442976  1
  O  O26  1  0.17954726  0.19262953  0.42442976  1
  O  O27  1  0.91642879  0.30784958  0.07430001  1
  O  O28  1  0.93493105  0.08737271  0.70687766  1
  O  O29  1  0.06645684  0.41233108  0.79348292  1
  O  O30  1  0.05239132  0.91233108  0.29348292  1
  O  O31  1  0.94556400  0.58737271  0.20687766  1
  O  O32  1  0.64386060  0.30958667  0.75061093  1
  O  O33  1  0.41511515  0.80958667  0.25061093  1
