# generated using pymatgen
data_La4Cd4In2S13
_symmetry_space_group_name_H-M   'P 1'
_cell_length_a   4.03496867
_cell_length_b   20.69918109
_cell_length_c   25.44053402
_cell_angle_alpha   90.00000000
_cell_angle_beta   90.00000000
_cell_angle_gamma   90.00000000
_symmetry_Int_Tables_number   1
_chemical_formula_structural   La4Cd4In2S13
_chemical_formula_sum   'La16 Cd16 In8 S52'
_cell_volume   2124.80732223
_cell_formula_units_Z   4
loop_
 _symmetry_equiv_pos_site_id
 _symmetry_equiv_pos_as_xyz
  1  'x, y, z'
loop_
 _atom_site_type_symbol
 _atom_site_label
 _atom_site_symmetry_multiplicity
 _atom_site_fract_x
 _atom_site_fract_y
 _atom_site_fract_z
 _atom_site_occupancy
  La  La0  1  0.50000000  0.88191522  0.25322522  1
  La  La1  1  0.50000000  0.11808478  0.74677478  1
  La  La2  1  0.50000000  0.38191522  0.24677478  1
  La  La3  1  0.50000000  0.61808478  0.75322522  1
  La  La4  1  0.50000000  0.67405896  0.22189870  1
  La  La5  1  0.50000000  0.32594104  0.77810130  1
  La  La6  1  0.50000000  0.17405896  0.27810130  1
  La  La7  1  0.50000000  0.82594104  0.72189870  1
  La  La8  1  0.50000000  0.53529910  0.34928704  1
  La  La9  1  0.50000000  0.46470090  0.65071296  1
  La  La10  1  0.50000000  0.03529910  0.15071296  1
  La  La11  1  0.50000000  0.96470090  0.84928704  1
  La  La12  1  0.50000000  0.68055952  0.06090337  1
  La  La13  1  0.50000000  0.31944048  0.93909663  1
  La  La14  1  0.50000000  0.18055952  0.43909663  1
  La  La15  1  0.50000000  0.81944048  0.56090337  1
  Cd  Cd16  1  -0.00000000  0.52234340  0.16029925  1
  Cd  Cd17  1  0.00000000  0.47765660  0.83970075  1
  Cd  Cd18  1  -0.00000000  0.02234340  0.33970075  1
  Cd  Cd19  1  0.00000000  0.97765660  0.66029925  1
  Cd  Cd20  1  0.50000000  0.88938367  0.41296148  1
  Cd  Cd21  1  0.50000000  0.11061633  0.58703852  1
  Cd  Cd22  1  0.50000000  0.38938367  0.08703852  1
  Cd  Cd23  1  0.50000000  0.61061633  0.91296148  1
  Cd  Cd24  1  0.50000000  0.65524158  0.48153472  1
  Cd  Cd25  1  0.50000000  0.34475842  0.51846528  1
  Cd  Cd26  1  0.50000000  0.15524158  0.01846528  1
  Cd  Cd27  1  0.50000000  0.84475842  0.98153472  1
  Cd  Cd28  1  0.00000000  0.84805742  0.11164195  1
  Cd  Cd29  1  -0.00000000  0.15194258  0.88835805  1
  Cd  Cd30  1  0.00000000  0.34805742  0.38835805  1
  Cd  Cd31  1  -0.00000000  0.65194258  0.61164195  1
  In  In32  1  0.00000000  0.73162952  0.35056935  1
  In  In33  1  0.00000000  0.26837048  0.64943065  1
  In  In34  1  -0.00000000  0.23162952  0.14943065  1
  In  In35  1  0.00000000  0.76837048  0.85056935  1
  In  In36  1  -0.00000000  0.50000000  -0.00000000  1
  In  In37  1  -0.00000000  -0.00000000  0.50000000  1
  In  In38  1  0.00000000  0.50000000  0.50000000  1
  In  In39  1  0.00000000  -0.00000000  -0.00000000  1
  S  S40  1  0.00000000  0.58606584  0.42734663  1
  S  S41  1  0.00000000  0.41393416  0.57265337  1
  S  S42  1  -0.00000000  0.08606584  0.07265337  1
  S  S43  1  -0.00000000  0.91393416  0.92734663  1
  S  S44  1  -0.00000000  0.87690435  0.48763312  1
  S  S45  1  -0.00000000  0.12309565  0.51236688  1
  S  S46  1  0.00000000  0.37690435  0.01236688  1
  S  S47  1  -0.00000000  0.62309565  0.98763312  1
  S  S48  1  0.50000000  0.93831262  0.05292229  1
  S  S49  1  0.50000000  0.06168738  0.94707771  1
  S  S50  1  0.50000000  0.43831262  0.44707771  1
  S  S51  1  0.50000000  0.56168738  0.55292229  1
  S  S52  1  0.50000000  0.78792531  0.15373287  1
  S  S53  1  0.50000000  0.21207469  0.84626713  1
  S  S54  1  0.50000000  0.28792531  0.34626713  1
  S  S55  1  0.50000000  0.71207469  0.65373287  1
  S  S56  1  0.50000000  0.52748744  0.22861028  1
  S  S57  1  0.50000000  0.47251256  0.77138972  1
  S  S58  1  0.50000000  0.02748744  0.27138972  1
  S  S59  1  0.50000000  0.97251256  0.72861028  1
  S  S60  1  0.00000000  0.89565249  0.33999616  1
  S  S61  1  0.00000000  0.10434751  0.66000384  1
  S  S62  1  0.00000000  0.39565249  0.16000384  1
  S  S63  1  0.00000000  0.60434751  0.83999616  1
  S  S64  1  0.50000000  0.51603278  0.07152601  1
  S  S65  1  0.50000000  0.48396722  0.92847399  1
  S  S66  1  0.50000000  0.01603278  0.42847399  1
  S  S67  1  0.50000000  0.98396722  0.57152601  1
  S  S68  1  0.00000000  0.62478192  0.30233500  1
  S  S69  1  -0.00000000  0.37521808  0.69766500  1
  S  S70  1  -0.00000000  0.12478192  0.19766500  1
  S  S71  1  0.00000000  0.87521808  0.80233500  1
  S  S72  1  0.50000000  0.75238442  0.40563641  1
  S  S73  1  0.50000000  0.24761558  0.59436359  1
  S  S74  1  0.50000000  0.25238442  0.09436359  1
  S  S75  1  0.50000000  0.74761558  0.90563641  1
  S  S76  1  0.00000000  0.64712608  0.14098066  1
  S  S77  1  0.00000000  0.35287392  0.85901934  1
  S  S78  1  0.00000000  0.14712608  0.35901934  1
  S  S79  1  0.00000000  0.85287392  0.64098066  1
  S  S80  1  -0.00000000  0.77680824  0.02738982  1
  S  S81  1  0.00000000  0.22319176  0.97261018  1
  S  S82  1  0.00000000  0.27680824  0.47261018  1
  S  S83  1  0.00000000  0.72319176  0.52738982  1
  S  S84  1  0.00000000  0.77339371  0.25808709  1
  S  S85  1  -0.00000000  0.22660629  0.74191291  1
  S  S86  1  0.00000000  0.27339371  0.24191291  1
  S  S87  1  0.00000000  0.72660629  0.75808709  1
  S  S88  1  0.00000000  0.94064501  0.18262680  1
  S  S89  1  0.00000000  0.05935499  0.81737320  1
  S  S90  1  0.00000000  0.44064501  0.31737320  1
  S  S91  1  0.00000000  0.55935499  0.68262680  1
