# generated using pymatgen
data_HoH15(CO5)3
_symmetry_space_group_name_H-M   'P 1'
_cell_length_a   6.74365004
_cell_length_b   9.19739062
_cell_length_c   12.19635709
_cell_angle_alpha   70.72048343
_cell_angle_beta   90.63349620
_cell_angle_gamma   66.63323127
_symmetry_Int_Tables_number   1
_chemical_formula_structural   HoH15(CO5)3
_chemical_formula_sum   'Ho2 H30 C6 O30'
_cell_volume   646.61808198
_cell_formula_units_Z   2
loop_
 _symmetry_equiv_pos_site_id
 _symmetry_equiv_pos_as_xyz
  1  'x, y, z'
loop_
 _atom_site_type_symbol
 _atom_site_label
 _atom_site_symmetry_multiplicity
 _atom_site_fract_x
 _atom_site_fract_y
 _atom_site_fract_z
 _atom_site_occupancy
  Ho  Ho0  1  0.69460628  0.91983315  0.75375433  1
  Ho  Ho1  1  0.30539372  0.08016685  0.24624567  1
  H  H2  1  0.18694469  0.76110315  0.77471341  1
  H  H3  1  0.81305531  0.23889685  0.22528659  1
  H  H4  1  0.13225081  0.62261659  0.87693869  1
  H  H5  1  0.86774919  0.37738341  0.12306131  1
  H  H6  1  0.93204280  0.84522943  0.55249982  1
  H  H7  1  0.06795720  0.15477057  0.44750018  1
  H  H8  1  0.70713849  0.00618888  0.49498966  1
  H  H9  1  0.29286151  0.99381112  0.50501034  1
  H  H10  1  0.87420579  0.16441541  0.76584323  1
  H  H11  1  0.12579421  0.83558459  0.23415677  1
  H  H12  1  0.85740643  0.17811374  0.62947137  1
  H  H13  1  0.14259357  0.82188626  0.37052863  1
  H  H14  1  0.91816793  0.85177908  0.00912362  1
  H  H15  1  0.08183207  0.14822092  0.99087638  1
  H  H16  1  0.67776075  0.99940507  0.97149323  1
  H  H17  1  0.32223925  0.00059493  0.02850677  1
  H  H18  1  0.42879688  0.25206259  0.82076871  1
  H  H19  1  0.57120312  0.74793741  0.17923129  1
  H  H20  1  0.88634547  0.56954431  0.68182278  1
  H  H21  1  0.11365453  0.43045569  0.31817722  1
  H  H22  1  0.32278663  0.86352313  0.91389454  1
  H  H23  1  0.67721337  0.13647687  0.08610546  1
  H  H24  1  0.11362104  0.61030594  0.51622528  1
  H  H25  1  0.88637896  0.38969406  0.48377472  1
  H  H26  1  0.28057203  0.67105392  0.55631993  1
  H  H27  1  0.71942797  0.32894608  0.44368007  1
  H  H28  1  0.06965751  0.63483812  0.16779572  1
  H  H29  1  0.93034249  0.36516188  0.83220428  1
  H  H30  1  0.24056094  0.70236106  0.11411339  1
  H  H31  1  0.75943906  0.29763894  0.88588661  1
  C  C32  1  0.31210294  0.24498445  0.67122373  1
  C  C33  1  0.68789706  0.75501555  0.32877627  1
  C  C34  1  0.56594403  0.68188451  0.67555411  1
  C  C35  1  0.43405597  0.31811549  0.32444589  1
  C  C36  1  0.59268852  0.66909345  0.01322038  1
  C  C37  1  0.40731148  0.33090655  0.98677962  1
  O  O38  1  0.07444563  0.74317275  0.82070990  1
  O  O39  1  0.92555437  0.25682725  0.17929010  1
  O  O40  1  0.80346349  0.93305244  0.57073539  1
  O  O41  1  0.19653651  0.06694756  0.42926461  1
  O  O42  1  0.85389464  0.10903484  0.71221445  1
  O  O43  1  0.14610536  0.89096516  0.28778555  1
  O  O44  1  0.79929716  0.93624526  0.93922810  1
  O  O45  1  0.20070284  0.06375474  0.06077190  1
  O  O46  1  0.41465018  0.16657971  0.79073594  1
  O  O47  1  0.58534982  0.83342029  0.20926406  1
  O  O48  1  0.40334919  0.14693871  0.61601797  1
  O  O49  1  0.59665081  0.85306129  0.38398203  1
  O  O50  1  0.15469621  0.38741876  0.63803343  1
  O  O51  1  0.84530379  0.61258124  0.36196657  1
  O  O52  1  0.43604060  0.81719649  0.69038636  1
  O  O53  1  0.56395940  0.18280351  0.30961364  1
  O  O54  1  0.78396436  0.63441389  0.72355893  1
  O  O55  1  0.21603564  0.36558611  0.27644107  1
  O  O56  1  0.52895468  0.59270187  0.62884068  1
  O  O57  1  0.47104532  0.40729813  0.37115932  1
  O  O58  1  0.77696912  0.57537959  0.00212088  1
  O  O59  1  0.22303088  0.42462041  0.99787912  1
  O  O60  1  0.48071726  0.82028172  0.91407028  1
  O  O61  1  0.51928274  0.17971828  0.08592972  1
  O  O62  1  0.49585555  0.65186355  0.10230160  1
  O  O63  1  0.50414445  0.34813645  0.89769840  1
  O  O64  1  0.13148612  0.71406108  0.50884322  1
  O  O65  1  0.86851388  0.28593892  0.49115678  1
  O  O66  1  0.08626292  0.74033785  0.13110743  1
  O  O67  1  0.91373708  0.25966215  0.86889257  1
