# generated using pymatgen
data_BaO6
_symmetry_space_group_name_H-M   'P 1'
_cell_length_a   6.62101532
_cell_length_b   8.15325036
_cell_length_c   17.66921769
_cell_angle_alpha   90.00000000
_cell_angle_beta   90.00000000
_cell_angle_gamma   90.00000000
_symmetry_Int_Tables_number   1
_chemical_formula_structural   BaO6
_chemical_formula_sum   'Ba8 O48'
_cell_volume   953.83376593
_cell_formula_units_Z   8
loop_
 _symmetry_equiv_pos_site_id
 _symmetry_equiv_pos_as_xyz
  1  'x, y, z'
loop_
 _atom_site_type_symbol
 _atom_site_label
 _atom_site_symmetry_multiplicity
 _atom_site_fract_x
 _atom_site_fract_y
 _atom_site_fract_z
 _atom_site_occupancy
  Ba  Ba0  1  0.53867718  0.26737947  0.87136736  1
  Ba  Ba1  1  0.96132282  0.73262053  0.37136736  1
  Ba  Ba2  1  0.03867718  0.23262053  0.12863264  1
  Ba  Ba3  1  0.46132282  0.76737947  0.62863264  1
  Ba  Ba4  1  0.46132282  0.73262053  0.12863264  1
  Ba  Ba5  1  0.03867718  0.26737947  0.62863264  1
  Ba  Ba6  1  0.96132282  0.76737947  0.87136736  1
  Ba  Ba7  1  0.53867718  0.23262053  0.37136736  1
  O  O8  1  0.81769521  0.47581809  0.79480886  1
  O  O9  1  0.68230479  0.52418191  0.29480886  1
  O  O10  1  0.31769521  0.02418191  0.20519114  1
  O  O11  1  0.18230479  0.97581809  0.70519114  1
  O  O12  1  0.18230479  0.52418191  0.20519114  1
  O  O13  1  0.31769521  0.47581809  0.70519114  1
  O  O14  1  0.68230479  0.97581809  0.79480886  1
  O  O15  1  0.81769521  0.02418191  0.29480886  1
  O  O16  1  0.85619066  0.32446257  0.77302928  1
  O  O17  1  0.64380934  0.67553743  0.27302928  1
  O  O18  1  0.35619066  0.17553743  0.22697072  1
  O  O19  1  0.14380934  0.82446257  0.72697072  1
  O  O20  1  0.14380934  0.67553743  0.22697072  1
  O  O21  1  0.35619066  0.32446257  0.72697072  1
  O  O22  1  0.64380934  0.82446257  0.77302928  1
  O  O23  1  0.85619066  0.17553743  0.27302928  1
  O  O24  1  0.78354852  0.03602734  0.95703824  1
  O  O25  1  0.71645148  0.96397266  0.45703824  1
  O  O26  1  0.28354852  0.46397266  0.04296176  1
  O  O27  1  0.21645148  0.53602734  0.54296176  1
  O  O28  1  0.21645148  0.96397266  0.04296176  1
  O  O29  1  0.28354852  0.03602734  0.54296176  1
  O  O30  1  0.71645148  0.53602734  0.95703824  1
  O  O31  1  0.78354852  0.46397266  0.45703824  1
  O  O32  1  0.87081104  0.17196491  0.97693348  1
  O  O33  1  0.62918896  0.82803509  0.47693348  1
  O  O34  1  0.37081104  0.32803509  0.02306652  1
  O  O35  1  0.12918896  0.67196491  0.52306652  1
  O  O36  1  0.12918896  0.82803509  0.02306652  1
  O  O37  1  0.37081104  0.17196491  0.52306652  1
  O  O38  1  0.62918896  0.67196491  0.97693348  1
  O  O39  1  0.87081104  0.32803509  0.47693348  1
  O  O40  1  0.17721642  0.46655090  0.88081683  1
  O  O41  1  0.32278358  0.53344910  0.38081683  1
  O  O42  1  0.67721642  0.03344910  0.11918317  1
  O  O43  1  0.82278358  0.96655090  0.61918317  1
  O  O44  1  0.82278358  0.53344910  0.11918317  1
  O  O45  1  0.67721642  0.46655090  0.61918317  1
  O  O46  1  0.32278358  0.96655090  0.88081683  1
  O  O47  1  0.17721642  0.03344910  0.38081683  1
  O  O48  1  0.18254914  0.07335621  0.86454261  1
  O  O49  1  0.31745086  0.92664379  0.36454261  1
  O  O50  1  0.68254914  0.42664379  0.13545739  1
  O  O51  1  0.81745086  0.57335621  0.63545739  1
  O  O52  1  0.81745086  0.92664379  0.13545739  1
  O  O53  1  0.68254914  0.07335621  0.63545739  1
  O  O54  1  0.31745086  0.57335621  0.86454261  1
  O  O55  1  0.18254914  0.42664379  0.36454261  1
