# generated using pymatgen
data_KDyP2H4O9
_symmetry_space_group_name_H-M   'P 1'
_cell_length_a   7.79710449
_cell_length_b   10.36755466
_cell_length_c   10.73353750
_cell_angle_alpha   90.00000000
_cell_angle_beta   90.00000000
_cell_angle_gamma   94.83931129
_symmetry_Int_Tables_number   1
_chemical_formula_structural   KDyP2H4O9
_chemical_formula_sum   'K4 Dy4 P8 H16 O36'
_cell_volume   864.57292722
_cell_formula_units_Z   4
loop_
 _symmetry_equiv_pos_site_id
 _symmetry_equiv_pos_as_xyz
  1  'x, y, z'
loop_
 _atom_site_type_symbol
 _atom_site_label
 _atom_site_symmetry_multiplicity
 _atom_site_fract_x
 _atom_site_fract_y
 _atom_site_fract_z
 _atom_site_occupancy
  K  K0  1  0.74488802  0.81655331  0.18867330  1
  K  K1  1  0.25511198  0.18344669  0.81132670  1
  K  K2  1  0.25511198  0.68344669  0.68867330  1
  K  K3  1  0.74488802  0.31655331  0.31132670  1
  Dy  Dy4  1  0.75001098  0.66437243  0.62460942  1
  Dy  Dy5  1  0.24998902  0.33562757  0.37539058  1
  Dy  Dy6  1  0.24998902  0.83562757  0.12460942  1
  Dy  Dy7  1  0.75001098  0.16437243  0.87539058  1
  P  P8  1  0.95929862  0.87355407  0.85476461  1
  P  P9  1  0.04070138  0.12644593  0.14523539  1
  P  P10  1  0.04070138  0.62644593  0.35476461  1
  P  P11  1  0.95929862  0.37355407  0.64523539  1
  P  P12  1  0.59109189  0.83474715  0.88552951  1
  P  P13  1  0.40890811  0.16525285  0.11447049  1
  P  P14  1  0.40890811  0.66525285  0.38552951  1
  P  P15  1  0.59109189  0.33474715  0.61447049  1
  H  H16  1  0.82573551  0.95379297  0.62442000  1
  H  H17  1  0.17426449  0.04620703  0.37558000  1
  H  H18  1  0.17426449  0.54620703  0.12442000  1
  H  H19  1  0.82573551  0.45379297  0.87558000  1
  H  H20  1  0.44254331  0.96518118  0.70518941  1
  H  H21  1  0.55745669  0.03481882  0.29481059  1
  H  H22  1  0.55745669  0.53481882  0.20518941  1
  H  H23  1  0.44254331  0.46518118  0.79481059  1
  H  H24  1  0.26458362  0.98518287  0.63831224  1
  H  H25  1  0.73541638  0.01481713  0.36168776  1
  H  H26  1  0.73541638  0.51481713  0.13831224  1
  H  H27  1  0.26458362  0.48518287  0.86168776  1
  H  H28  1  0.66233147  0.92795332  0.53837071  1
  H  H29  1  0.33766853  0.07204668  0.46162929  1
  H  H30  1  0.33766853  0.57204668  0.03837071  1
  H  H31  1  0.66233147  0.42795332  0.96162929  1
  O  O32  1  0.57636634  0.73379053  0.78129902  1
  O  O33  1  0.42363366  0.26620947  0.21870098  1
  O  O34  1  0.42363366  0.76620947  0.28129902  1
  O  O35  1  0.57636634  0.23379053  0.71870098  1
  O  O36  1  0.95448908  0.77595384  0.74752778  1
  O  O37  1  0.04551092  0.22404616  0.25247222  1
  O  O38  1  0.04551092  0.72404616  0.24752778  1
  O  O39  1  0.95448908  0.27595384  0.75247222  1
  O  O40  1  0.94262708  0.51180997  0.69279457  1
  O  O41  1  0.05737292  0.48819003  0.30720543  1
  O  O42  1  0.05737292  0.98819003  0.19279457  1
  O  O43  1  0.94262708  0.01180997  0.80720543  1
  O  O44  1  0.89021194  0.63853239  0.44289714  1
  O  O45  1  0.10978806  0.36146761  0.55710286  1
  O  O46  1  0.10978806  0.86146761  0.94289714  1
  O  O47  1  0.89021194  0.13853239  0.05710286  1
  O  O48  1  0.78796102  0.83435984  0.94089663  1
  O  O49  1  0.21203898  0.16564016  0.05910337  1
  O  O50  1  0.21203898  0.66564016  0.44089663  1
  O  O51  1  0.78796102  0.33435984  0.55910337  1
  O  O52  1  0.77215935  0.89494122  0.56165155  1
  O  O53  1  0.22784065  0.10505878  0.43834845  1
  O  O54  1  0.22784065  0.60505878  0.06165155  1
  O  O55  1  0.77215935  0.39494122  0.93834845  1
  O  O56  1  0.37058944  0.94265844  0.63041924  1
  O  O57  1  0.62941056  0.05734156  0.36958076  1
  O  O58  1  0.62941056  0.55734156  0.13041924  1
  O  O59  1  0.37058944  0.44265844  0.86958076  1
  O  O60  1  0.52225230  0.69930037  0.49744992  1
  O  O61  1  0.47774770  0.30069963  0.50255008  1
  O  O62  1  0.47774770  0.80069963  0.99744992  1
  O  O63  1  0.52225230  0.19930037  0.00255008  1
  O  O64  1  0.57574333  0.97348648  0.83686239  1
  O  O65  1  0.42425667  0.02651352  0.16313761  1
  O  O66  1  0.42425667  0.52651352  0.33686239  1
  O  O67  1  0.57574333  0.47348648  0.66313761  1
