# generated using pymatgen
data_Cu5(PO6)2
_symmetry_space_group_name_H-M   'P 1'
_cell_length_a   4.58887116
_cell_length_b   8.93676183
_cell_length_c   10.32997153
_cell_angle_alpha   90.00000000
_cell_angle_beta   90.00000000
_cell_angle_gamma   92.83089013
_symmetry_Int_Tables_number   1
_chemical_formula_structural   Cu5(PO6)2
_chemical_formula_sum   'Cu10 P4 O24'
_cell_volume   423.11152988
_cell_formula_units_Z   2
loop_
 _symmetry_equiv_pos_site_id
 _symmetry_equiv_pos_as_xyz
  1  'x, y, z'
loop_
 _atom_site_type_symbol
 _atom_site_label
 _atom_site_symmetry_multiplicity
 _atom_site_fract_x
 _atom_site_fract_y
 _atom_site_fract_z
 _atom_site_occupancy
  Cu  Cu0  1  0.00000000  0.50000000  0.50000000  1
  Cu  Cu1  1  0.00000000  -0.00000000  -0.00000000  1
  Cu  Cu2  1  0.04752076  0.86261413  0.43152230  1
  Cu  Cu3  1  0.95247924  0.63738587  0.93152230  1
  Cu  Cu4  1  0.95247924  0.13738587  0.56847770  1
  Cu  Cu5  1  0.04752076  0.36261413  0.06847770  1
  Cu  Cu6  1  0.97153813  0.63209780  0.23695511  1
  Cu  Cu7  1  0.02846187  0.86790220  0.73695511  1
  Cu  Cu8  1  0.02846187  0.36790220  0.76304489  1
  Cu  Cu9  1  0.97153813  0.13209780  0.26304489  1
  P  P10  1  0.48578333  0.88647005  0.19499012  1
  P  P11  1  0.51421667  0.61352995  0.69499012  1
  P  P12  1  0.51421667  0.11352995  0.80500988  1
  P  P13  1  0.48578333  0.38647005  0.30500988  1
  O  O14  1  0.30131216  0.50029438  0.37814417  1
  O  O15  1  0.69868784  0.99970562  0.87814417  1
  O  O16  1  0.69868784  0.49970562  0.62185583  1
  O  O17  1  0.30131216  0.00029438  0.12185583  1
  O  O18  1  0.26762285  0.78937090  0.28678003  1
  O  O19  1  0.73237715  0.71062910  0.78678003  1
  O  O20  1  0.73237715  0.21062910  0.71321997  1
  O  O21  1  0.26762285  0.28937090  0.21321997  1
  O  O22  1  0.66879773  0.78650906  0.11379171  1
  O  O23  1  0.33120227  0.71349094  0.61379171  1
  O  O24  1  0.33120227  0.21349094  0.88620829  1
  O  O25  1  0.66879773  0.28650906  0.38620829  1
  O  O26  1  0.67374079  0.97915754  0.29524057  1
  O  O27  1  0.32625921  0.52084246  0.79524057  1
  O  O28  1  0.32625921  0.02084246  0.70475943  1
  O  O29  1  0.67374079  0.47915754  0.20475943  1
  O  O30  1  0.14491965  0.57111206  0.07908014  1
  O  O31  1  0.85508035  0.92888794  0.57908014  1
  O  O32  1  0.85508035  0.42888794  0.92091986  1
  O  O33  1  0.14491965  0.07111206  0.42091986  1
  O  O34  1  0.86404143  0.66854742  0.41310742  1
  O  O35  1  0.13595857  0.83145258  0.91310742  1
  O  O36  1  0.13595857  0.33145258  0.58689258  1
  O  O37  1  0.86404143  0.16854742  0.08689258  1
