# generated using pymatgen
data_ZnS
_symmetry_space_group_name_H-M   'P 1'
_cell_length_a   3.87397958
_cell_length_b   3.87397958
_cell_length_c   56.36911477
_cell_angle_alpha   88.03078019
_cell_angle_beta   88.03078019
_cell_angle_gamma   59.99999802
_symmetry_Int_Tables_number   1
_chemical_formula_structural   ZnS
_chemical_formula_sum   'Zn18 S18'
_cell_volume   732.05607415
_cell_formula_units_Z   18
loop_
 _symmetry_equiv_pos_site_id
 _symmetry_equiv_pos_as_xyz
  1  'x, y, z'
loop_
 _atom_site_type_symbol
 _atom_site_label
 _atom_site_symmetry_multiplicity
 _atom_site_fract_x
 _atom_site_fract_y
 _atom_site_fract_z
 _atom_site_occupancy
  Zn  Zn0  1  0.99999392  0.99999392  0.00001824  1
  Zn  Zn1  1  0.94444094  0.94444094  0.16667718  1
  Zn  Zn2  1  0.88888528  0.88888528  0.33334417  1
  Zn  Zn3  1  0.83332800  0.83332800  0.50001599  1
  Zn  Zn4  1  0.77777772  0.77777772  0.66666683  1
  Zn  Zn5  1  0.72221712  0.72221712  0.83334864  1
  Zn  Zn6  1  0.64815088  0.64815088  0.05554736  1
  Zn  Zn7  1  0.59258735  0.59258735  0.22223796  1
  Zn  Zn8  1  0.53703612  0.53703612  0.38889163  1
  Zn  Zn9  1  0.48147293  0.48147293  0.55558120  1
  Zn  Zn10  1  0.40740795  0.40740795  0.77777614  1
  Zn  Zn11  1  0.35184882  0.35184882  0.94445354  1
  Zn  Zn12  1  0.29629948  0.29629948  0.11110156  1
  Zn  Zn13  1  0.24073776  0.24073776  0.27778673  1
  Zn  Zn14  1  0.18518688  0.18518688  0.44443936  1
  Zn  Zn15  1  0.12962594  0.12962594  0.61112219  1
  Zn  Zn16  1  0.09258534  0.09258534  0.72224397  1
  Zn  Zn17  1  0.03703486  0.03703486  0.88889541  1
  S  S18  1  0.98611836  0.98611836  0.04164491  1
  S  S19  1  0.93056207  0.93056207  0.20831379  1
  S  S20  1  0.87500943  0.87500943  0.37497172  1
  S  S21  1  0.81945698  0.81945698  0.54162907  1
  S  S22  1  0.76388521  0.76388521  0.70834436  1
  S  S23  1  0.70834870  0.70834870  0.87495390  1
  S  S24  1  0.63426982  0.63426982  0.09719055  1
  S  S25  1  0.57871180  0.57871180  0.26386461  1
  S  S26  1  0.52316104  0.52316104  0.43051688  1
  S  S27  1  0.46760736  0.46760736  0.59717792  1
  S  S28  1  0.39353049  0.39353049  0.81940853  1
  S  S29  1  0.33796091  0.33796091  0.98611727  1
  S  S30  1  0.28241839  0.28241839  0.15274484  1
  S  S31  1  0.22686053  0.22686053  0.31941841  1
  S  S32  1  0.17131191  0.17131191  0.48606427  1
  S  S33  1  0.11577038  0.11577038  0.65268886  1
  S  S34  1  0.07871041  0.07871041  0.76386876  1
  S  S35  1  0.02317891  0.02317891  0.93046327  1
