# generated using pymatgen
data_CaFe3Si2O9
_symmetry_space_group_name_H-M   'P 1'
_cell_length_a   5.93063941
_cell_length_b   8.85260019
_cell_length_c   13.17013438
_cell_angle_alpha   90.00000000
_cell_angle_beta   90.00000000
_cell_angle_gamma   90.00000000
_symmetry_Int_Tables_number   1
_chemical_formula_structural   CaFe3Si2O9
_chemical_formula_sum   'Ca4 Fe12 Si8 O36'
_cell_volume   691.45285807
_cell_formula_units_Z   4
loop_
 _symmetry_equiv_pos_site_id
 _symmetry_equiv_pos_as_xyz
  1  'x, y, z'
loop_
 _atom_site_type_symbol
 _atom_site_label
 _atom_site_symmetry_multiplicity
 _atom_site_fract_x
 _atom_site_fract_y
 _atom_site_fract_z
 _atom_site_occupancy
  Ca  Ca0  1  0.75000000  0.12826241  0.68270429  1
  Ca  Ca1  1  0.75000000  0.37173759  0.18270429  1
  Ca  Ca2  1  0.25000000  0.87173759  0.31729571  1
  Ca  Ca3  1  0.25000000  0.62826241  0.81729571  1
  Fe  Fe4  1  0.99610362  0.44368141  0.61199155  1
  Fe  Fe5  1  0.50389638  0.05631859  0.11199155  1
  Fe  Fe6  1  0.49610362  0.55631859  0.38800845  1
  Fe  Fe7  1  0.00389638  0.94368141  0.88800845  1
  Fe  Fe8  1  0.00389638  0.55631859  0.38800845  1
  Fe  Fe9  1  0.49610362  0.94368141  0.88800845  1
  Fe  Fe10  1  0.50389638  0.44368141  0.61199155  1
  Fe  Fe11  1  0.99610362  0.05631859  0.11199155  1
  Fe  Fe12  1  0.25000000  0.76162969  0.56668177  1
  Fe  Fe13  1  0.25000000  0.73837031  0.06668177  1
  Fe  Fe14  1  0.75000000  0.23837031  0.43331823  1
  Fe  Fe15  1  0.75000000  0.26162969  0.93331823  1
  Si  Si16  1  0.25000000  0.13349684  0.53378539  1
  Si  Si17  1  0.25000000  0.36650316  0.03378539  1
  Si  Si18  1  0.75000000  0.86650316  0.46621461  1
  Si  Si19  1  0.75000000  0.63349684  0.96621461  1
  Si  Si20  1  0.75000000  0.76570001  0.68476816  1
  Si  Si21  1  0.75000000  0.73429999  0.18476816  1
  Si  Si22  1  0.25000000  0.23429999  0.31523184  1
  Si  Si23  1  0.25000000  0.26570001  0.81523184  1
  O  O24  1  0.75000000  0.47505300  0.48467468  1
  O  O25  1  0.75000000  0.02494700  0.98467468  1
  O  O26  1  0.25000000  0.52494700  0.51532532  1
  O  O27  1  0.25000000  0.97505300  0.01532532  1
  O  O28  1  0.01782985  0.23085655  0.55799961  1
  O  O29  1  0.48217015  0.26914345  0.05799961  1
  O  O30  1  0.51782985  0.76914345  0.44200039  1
  O  O31  1  0.98217015  0.73085655  0.94200039  1
  O  O32  1  0.98217015  0.76914345  0.44200039  1
  O  O33  1  0.51782985  0.73085655  0.94200039  1
  O  O34  1  0.48217015  0.23085655  0.55799961  1
  O  O35  1  0.01782985  0.26914345  0.05799961  1
  O  O36  1  0.25000000  0.38550329  0.71632846  1
  O  O37  1  0.25000000  0.11449671  0.21632846  1
  O  O38  1  0.75000000  0.61449671  0.28367154  1
  O  O39  1  0.75000000  0.88550329  0.78367154  1
  O  O40  1  0.98194878  0.66374172  0.67421426  1
  O  O41  1  0.51805122  0.83625828  0.17421426  1
  O  O42  1  0.48194878  0.33625828  0.32578574  1
  O  O43  1  0.01805122  0.16374172  0.82578574  1
  O  O44  1  0.01805122  0.33625828  0.32578574  1
  O  O45  1  0.48194878  0.16374172  0.82578574  1
  O  O46  1  0.51805122  0.66374172  0.67421426  1
  O  O47  1  0.98194878  0.83625828  0.17421426  1
  O  O48  1  0.75000000  0.89347941  0.59200465  1
  O  O49  1  0.75000000  0.60652059  0.09200465  1
  O  O50  1  0.25000000  0.10652059  0.40799535  1
  O  O51  1  0.25000000  0.39347941  0.90799535  1
  O  O52  1  0.25000000  0.97668039  0.59213603  1
  O  O53  1  0.25000000  0.52331961  0.09213603  1
  O  O54  1  0.75000000  0.02331961  0.40786397  1
  O  O55  1  0.75000000  0.47668039  0.90786397  1
  O  O56  1  0.75000000  0.38395838  0.69195793  1
  O  O57  1  0.75000000  0.11604162  0.19195793  1
  O  O58  1  0.25000000  0.61604162  0.30804207  1
  O  O59  1  0.25000000  0.88395838  0.80804207  1
