# generated using pymatgen
data_MnCrH18(NF)6
_symmetry_space_group_name_H-M   'P 1'
_cell_length_a   10.35195241
_cell_length_b   10.35195241
_cell_length_c   10.35195241
_cell_angle_alpha   90.00000000
_cell_angle_beta   90.00000000
_cell_angle_gamma   90.00000000
_symmetry_Int_Tables_number   1
_chemical_formula_structural   MnCrH18(NF)6
_chemical_formula_sum   'Mn4 Cr4 H72 N24 F24'
_cell_volume   1109.34543449
_cell_formula_units_Z   4
loop_
 _symmetry_equiv_pos_site_id
 _symmetry_equiv_pos_as_xyz
  1  'x, y, z'
loop_
 _atom_site_type_symbol
 _atom_site_label
 _atom_site_symmetry_multiplicity
 _atom_site_fract_x
 _atom_site_fract_y
 _atom_site_fract_z
 _atom_site_occupancy
  Mn  Mn0  1  0.50000000  0.50000000  -0.00000000  1
  Mn  Mn1  1  0.50000000  0.00000000  0.50000000  1
  Mn  Mn2  1  0.00000000  0.50000000  0.50000000  1
  Mn  Mn3  1  0.00000000  0.00000000  -0.00000000  1
  Cr  Cr4  1  0.00000000  0.00000000  0.50000000  1
  Cr  Cr5  1  0.00000000  0.50000000  -0.00000000  1
  Cr  Cr6  1  0.50000000  0.00000000  -0.00000000  1
  Cr  Cr7  1  0.50000000  0.50000000  0.50000000  1
  H  H8  1  0.12770383  0.63622432  0.16958513  1
  H  H9  1  0.87229617  0.13622432  0.33041487  1
  H  H10  1  0.37229617  0.36377568  0.66958513  1
  H  H11  1  0.62770383  0.86377568  0.83041487  1
  H  H12  1  0.16958513  0.12770383  0.63622432  1
  H  H13  1  0.33041487  0.87229617  0.13622432  1
  H  H14  1  0.66958513  0.37229617  0.36377568  1
  H  H15  1  0.83041487  0.62770383  0.86377568  1
  H  H16  1  0.63622432  0.16958513  0.12770383  1
  H  H17  1  0.13622432  0.33041487  0.87229617  1
  H  H18  1  0.36377568  0.66958513  0.37229617  1
  H  H19  1  0.86377568  0.83041487  0.62770383  1
  H  H20  1  0.87229617  0.36377568  0.83041487  1
  H  H21  1  0.12770383  0.86377568  0.66958513  1
  H  H22  1  0.62770383  0.63622432  0.33041487  1
  H  H23  1  0.37229617  0.13622432  0.16958513  1
  H  H24  1  0.83041487  0.87229617  0.36377568  1
  H  H25  1  0.66958513  0.12770383  0.86377568  1
  H  H26  1  0.33041487  0.62770383  0.63622432  1
  H  H27  1  0.16958513  0.37229617  0.13622432  1
  H  H28  1  0.36377568  0.83041487  0.87229617  1
  H  H29  1  0.86377568  0.66958513  0.12770383  1
  H  H30  1  0.63622432  0.33041487  0.62770383  1
  H  H31  1  0.13622432  0.16958513  0.37229617  1
  H  H32  1  0.22036697  0.62816001  0.03728212  1
  H  H33  1  0.77963303  0.12816001  0.46271788  1
  H  H34  1  0.27963303  0.37183999  0.53728212  1
  H  H35  1  0.72036697  0.87183999  0.96271788  1
  H  H36  1  0.03728212  0.22036697  0.62816001  1
  H  H37  1  0.46271788  0.77963303  0.12816001  1
  H  H38  1  0.53728212  0.27963303  0.37183999  1
  H  H39  1  0.96271788  0.72036697  0.87183999  1
  H  H40  1  0.62816001  0.03728212  0.22036697  1
  H  H41  1  0.12816001  0.46271788  0.77963303  1
  H  H42  1  0.37183999  0.53728212  0.27963303  1
  H  H43  1  0.87183999  0.96271788  0.72036697  1
  H  H44  1  0.77963303  0.37183999  0.96271788  1
  H  H45  1  0.22036697  0.87183999  0.53728212  1
  H  H46  1  0.72036697  0.62816001  0.46271788  1
  H  H47  1  0.27963303  0.12816001  0.03728212  1
  H  H48  1  0.96271788  0.77963303  0.37183999  1
  H  H49  1  0.53728212  0.22036697  0.87183999  1
  H  H50  1  0.46271788  0.72036697  0.62816001  1
  H  H51  1  0.03728212  0.27963303  0.12816001  1
  H  H52  1  0.37183999  0.96271788  0.77963303  1
  H  H53  1  0.87183999  0.53728212  0.22036697  1
  H  H54  1  0.62816001  0.46271788  0.72036697  1
  H  H55  1  0.12816001  0.03728212  0.27963303  1
  H  H56  1  0.10013001  0.73334990  0.04629685  1
  H  H57  1  0.89986999  0.23334990  0.45370315  1
  H  H58  1  0.39986999  0.26665010  0.54629685  1
  H  H59  1  0.60013001  0.76665010  0.95370315  1
  H  H60  1  0.04629685  0.10013001  0.73334990  1
  H  H61  1  0.45370315  0.89986999  0.23334990  1
  H  H62  1  0.54629685  0.39986999  0.26665010  1
  H  H63  1  0.95370315  0.60013001  0.76665010  1
  H  H64  1  0.73334990  0.04629685  0.10013001  1
  H  H65  1  0.23334990  0.45370315  0.89986999  1
  H  H66  1  0.26665010  0.54629685  0.39986999  1
  H  H67  1  0.76665010  0.95370315  0.60013001  1
  H  H68  1  0.89986999  0.26665010  0.95370315  1
  H  H69  1  0.10013001  0.76665010  0.54629685  1
  H  H70  1  0.60013001  0.73334990  0.45370315  1
  H  H71  1  0.39986999  0.23334990  0.04629685  1
  H  H72  1  0.95370315  0.89986999  0.26665010  1
  H  H73  1  0.54629685  0.10013001  0.76665010  1
  H  H74  1  0.45370315  0.60013001  0.73334990  1
  H  H75  1  0.04629685  0.39986999  0.23334990  1
  H  H76  1  0.26665010  0.95370315  0.89986999  1
  H  H77  1  0.76665010  0.54629685  0.10013001  1
  H  H78  1  0.73334990  0.45370315  0.60013001  1
  H  H79  1  0.23334990  0.04629685  0.39986999  1
  N  N80  1  0.42968023  0.87267444  0.14084750  1
  N  N81  1  0.57031977  0.37267444  0.35915250  1
  N  N82  1  0.07031977  0.12732556  0.64084750  1
  N  N83  1  0.92968023  0.62732556  0.85915250  1
  N  N84  1  0.14084750  0.42968023  0.87267444  1
  N  N85  1  0.35915250  0.57031977  0.37267444  1
  N  N86  1  0.64084750  0.07031977  0.12732556  1
  N  N87  1  0.85915250  0.92968023  0.62732556  1
  N  N88  1  0.87267444  0.14084750  0.42968023  1
  N  N89  1  0.37267444  0.35915250  0.57031977  1
  N  N90  1  0.12732556  0.64084750  0.07031977  1
  N  N91  1  0.62732556  0.85915250  0.92968023  1
  N  N92  1  0.57031977  0.12732556  0.85915250  1
  N  N93  1  0.42968023  0.62732556  0.64084750  1
  N  N94  1  0.92968023  0.87267444  0.35915250  1
  N  N95  1  0.07031977  0.37267444  0.14084750  1
  N  N96  1  0.85915250  0.57031977  0.12732556  1
  N  N97  1  0.64084750  0.42968023  0.62732556  1
  N  N98  1  0.35915250  0.92968023  0.87267444  1
  N  N99  1  0.14084750  0.07031977  0.37267444  1
  N  N100  1  0.12732556  0.85915250  0.57031977  1
  N  N101  1  0.62732556  0.64084750  0.42968023  1
  N  N102  1  0.87267444  0.35915250  0.92968023  1
  N  N103  1  0.37267444  0.14084750  0.07031977  1
  F  F104  1  0.56208609  0.61724995  0.13896459  1
  F  F105  1  0.43791391  0.11724995  0.36103541  1
  F  F106  1  0.93791391  0.38275005  0.63896459  1
  F  F107  1  0.06208609  0.88275005  0.86103541  1
  F  F108  1  0.13896459  0.56208609  0.61724995  1
  F  F109  1  0.36103541  0.43791391  0.11724995  1
  F  F110  1  0.63896459  0.93791391  0.38275005  1
  F  F111  1  0.86103541  0.06208609  0.88275005  1
  F  F112  1  0.61724995  0.13896459  0.56208609  1
  F  F113  1  0.11724995  0.36103541  0.43791391  1
  F  F114  1  0.38275005  0.63896459  0.93791391  1
  F  F115  1  0.88275005  0.86103541  0.06208609  1
  F  F116  1  0.43791391  0.38275005  0.86103541  1
  F  F117  1  0.56208609  0.88275005  0.63896459  1
  F  F118  1  0.06208609  0.61724995  0.36103541  1
  F  F119  1  0.93791391  0.11724995  0.13896459  1
  F  F120  1  0.86103541  0.43791391  0.38275005  1
  F  F121  1  0.63896459  0.56208609  0.88275005  1
  F  F122  1  0.36103541  0.06208609  0.61724995  1
  F  F123  1  0.13896459  0.93791391  0.11724995  1
  F  F124  1  0.38275005  0.86103541  0.43791391  1
  F  F125  1  0.88275005  0.63896459  0.56208609  1
  F  F126  1  0.61724995  0.36103541  0.06208609  1
  F  F127  1  0.11724995  0.13896459  0.93791391  1
