# generated using pymatgen
data_Ho3Fe29
_symmetry_space_group_name_H-M   'P 1'
_cell_length_a   6.33977709
_cell_length_b   6.33977709
_cell_length_c   10.40718690
_cell_angle_alpha   84.65182326
_cell_angle_beta   84.65182326
_cell_angle_gamma   82.41451921
_symmetry_Int_Tables_number   1
_chemical_formula_structural   Ho3Fe29
_chemical_formula_sum   'Ho3 Fe29'
_cell_volume   411.43877532
_cell_formula_units_Z   1
loop_
 _symmetry_equiv_pos_site_id
 _symmetry_equiv_pos_as_xyz
  1  'x, y, z'
loop_
 _atom_site_type_symbol
 _atom_site_label
 _atom_site_symmetry_multiplicity
 _atom_site_fract_x
 _atom_site_fract_y
 _atom_site_fract_z
 _atom_site_occupancy
  Ho  Ho0  1  -0.00000000  -0.00000000  0.00000000  1
  Ho  Ho1  1  0.81468122  0.81468122  0.59449648  1
  Ho  Ho2  1  0.18531878  0.18531878  0.40550352  1
  Fe  Fe3  1  0.50000000  0.50000000  0.50000000  1
  Fe  Fe4  1  0.70532493  0.70532493  0.13703090  1
  Fe  Fe5  1  0.29467507  0.29467507  0.86296910  1
  Fe  Fe6  1  0.47692263  0.47692263  0.25595230  1
  Fe  Fe7  1  0.52307737  0.52307737  0.74404770  1
  Fe  Fe8  1  0.69574149  0.12418179  0.79784424  1
  Fe  Fe9  1  0.87581821  0.30425851  0.20215576  1
  Fe  Fe10  1  0.30425851  0.87581821  0.20215576  1
  Fe  Fe11  1  0.12418179  0.69574149  0.79784424  1
  Fe  Fe12  1  0.45478784  0.18087877  0.62708103  1
  Fe  Fe13  1  0.81912123  0.54521216  0.37291897  1
  Fe  Fe14  1  0.54521216  0.81912123  0.37291897  1
  Fe  Fe15  1  0.18087877  0.45478784  0.62708103  1
  Fe  Fe16  1  0.35730302  0.64269698  0.00000000  1
  Fe  Fe17  1  0.64269698  0.35730302  0.00000000  1
  Fe  Fe18  1  0.72331866  0.72331866  0.88795939  1
  Fe  Fe19  1  0.27668134  0.27668134  0.11204061  1
  Fe  Fe20  1  0.90621552  0.40870579  0.79944905  1
  Fe  Fe21  1  0.59129421  0.09378448  0.20055095  1
  Fe  Fe22  1  0.09378448  0.59129421  0.20055095  1
  Fe  Fe23  1  0.40870579  0.90621552  0.79944905  1
  Fe  Fe24  1  0.09444403  0.09444403  0.70520542  1
  Fe  Fe25  1  0.90555597  0.90555597  0.29479458  1
  Fe  Fe26  1  0.67692611  0.18401708  0.40883524  1
  Fe  Fe27  1  0.81598292  0.32307389  0.59116476  1
  Fe  Fe28  1  0.32307389  0.81598292  0.59116476  1
  Fe  Fe29  1  0.18401708  0.67692611  0.40883524  1
  Fe  Fe30  1  -0.00000000  0.50000000  0.00000000  1
  Fe  Fe31  1  0.50000000  -0.00000000  0.00000000  1
