# generated using pymatgen
data_Pr(MnSn)6
_symmetry_space_group_name_H-M   'P 1'
_cell_length_a   5.51379937
_cell_length_b   9.16049398
_cell_length_c   15.25962594
_cell_angle_alpha   107.46689096
_cell_angle_beta   100.40857213
_cell_angle_gamma   90.00000000
_symmetry_Int_Tables_number   1
_chemical_formula_structural   Pr(MnSn)6
_chemical_formula_sum   'Pr3 Mn18 Sn18'
_cell_volume   721.90426724
_cell_formula_units_Z   3
loop_
 _symmetry_equiv_pos_site_id
 _symmetry_equiv_pos_as_xyz
  1  'x, y, z'
loop_
 _atom_site_type_symbol
 _atom_site_label
 _atom_site_symmetry_multiplicity
 _atom_site_fract_x
 _atom_site_fract_y
 _atom_site_fract_z
 _atom_site_occupancy
  Pr  Pr0  1  0.66912600  0.16912600  0.33825200  1
  Pr  Pr1  1  0.33087400  0.83087400  0.66174800  1
  Pr  Pr2  1  -0.00000000  -0.00000000  -0.00000000  1
  Mn  Mn3  1  0.50000000  0.24877644  1.00000000  1
  Mn  Mn4  1  0.50000000  0.75122356  0.00000000  1
  Mn  Mn5  1  -0.00000000  0.50000000  0.50000000  1
  Mn  Mn6  1  -0.00000000  -0.00000000  0.50000000  1
  Mn  Mn7  1  0.50000000  -0.00000000  0.50000000  1
  Mn  Mn8  1  0.50000000  0.50000000  0.50000000  1
  Mn  Mn9  1  0.83355203  0.58354277  0.66710405  1
  Mn  Mn10  1  0.16644797  0.91643872  0.33289595  1
  Mn  Mn11  1  0.83355203  0.08356128  0.66710405  1
  Mn  Mn12  1  0.16644797  0.41645723  0.33289595  1
  Mn  Mn13  1  0.83347617  0.33228931  0.16685592  1
  Mn  Mn14  1  0.16652383  0.16543340  0.83314408  1
  Mn  Mn15  1  0.33337974  0.83456660  0.16685592  1
  Mn  Mn16  1  0.66662026  0.66771069  0.83314408  1
  Mn  Mn17  1  0.16652383  0.66771069  0.83314408  1
  Mn  Mn18  1  0.83347617  0.83456660  0.16685592  1
  Mn  Mn19  1  0.66662026  0.16543340  0.83314408  1
  Mn  Mn20  1  0.33337974  0.33228931  0.16685592  1
  Sn  Sn21  1  0.55628209  0.05628209  0.11256418  1
  Sn  Sn22  1  0.44371791  0.94371791  0.88743582  1
  Sn  Sn23  1  0.55542879  0.55542879  0.11085758  1
  Sn  Sn24  1  0.44457121  0.44457121  0.88914242  1
  Sn  Sn25  1  0.11219086  0.11219086  0.22438173  1
  Sn  Sn26  1  0.88780914  0.88780914  0.77561827  1
  Sn  Sn27  1  0.10997695  0.60997695  0.21995390  1
  Sn  Sn28  1  0.89002305  0.39002305  0.78004610  1
  Sn  Sn29  1  0.22447459  0.22447459  0.44894918  1
  Sn  Sn30  1  0.77552541  0.77552541  0.55105082  1
  Sn  Sn31  1  0.21901910  0.71901910  0.43803821  1
  Sn  Sn32  1  0.78098090  0.28098090  0.56196179  1
  Sn  Sn33  1  0.00000000  0.33535194  0.00000000  1
  Sn  Sn34  1  1.00000000  0.66464806  1.00000000  1
  Sn  Sn35  1  0.66612515  0.50180707  0.33225031  1
  Sn  Sn36  1  0.33387485  0.16955676  0.66774969  1
  Sn  Sn37  1  0.66612515  0.83044324  0.33225031  1
  Sn  Sn38  1  0.33387485  0.49819293  0.66774969  1
