# generated using pymatgen
data_BiH14C4S8N5O
_symmetry_space_group_name_H-M   'P 1'
_cell_length_a   8.53839254
_cell_length_b   13.85859296
_cell_length_c   17.06414983
_cell_angle_alpha   90.00000000
_cell_angle_beta   95.80491753
_cell_angle_gamma   90.00000000
_symmetry_Int_Tables_number   1
_chemical_formula_structural   BiH14C4S8N5O
_chemical_formula_sum   'Bi4 H56 C16 S32 N20 O4'
_cell_volume   2008.84826367
_cell_formula_units_Z   4
loop_
 _symmetry_equiv_pos_site_id
 _symmetry_equiv_pos_as_xyz
  1  'x, y, z'
loop_
 _atom_site_type_symbol
 _atom_site_label
 _atom_site_symmetry_multiplicity
 _atom_site_fract_x
 _atom_site_fract_y
 _atom_site_fract_z
 _atom_site_occupancy
  Bi  Bi0  1  0.31521110  0.25835034  0.35315216  1
  Bi  Bi1  1  0.68478890  0.75835034  0.14684784  1
  Bi  Bi2  1  0.68478890  0.74164966  0.64684784  1
  Bi  Bi3  1  0.31521110  0.24164966  0.85315216  1
  H  H4  1  0.95459724  0.54634242  0.42441470  1
  H  H5  1  0.04540276  0.04634242  0.07558530  1
  H  H6  1  0.04540276  0.45365758  0.57558530  1
  H  H7  1  0.95459724  0.95365758  0.92441470  1
  H  H8  1  0.96343827  0.56399534  0.32265226  1
  H  H9  1  0.03656173  0.06399534  0.17734774  1
  H  H10  1  0.03656173  0.43600466  0.67734774  1
  H  H11  1  0.96343827  0.93600466  0.82265226  1
  H  H12  1  0.85298046  0.03846321  0.44151522  1
  H  H13  1  0.14701954  0.53846321  0.05848478  1
  H  H14  1  0.14701954  0.96153679  0.55848478  1
  H  H15  1  0.85298046  0.46153679  0.94151522  1
  H  H16  1  0.76090952  0.09368353  0.35643615  1
  H  H17  1  0.23909048  0.59368353  0.14356385  1
  H  H18  1  0.23909048  0.90631647  0.64356385  1
  H  H19  1  0.76090952  0.40631647  0.85643615  1
  H  H20  1  0.55855193  0.03928606  0.14720271  1
  H  H21  1  0.44144807  0.53928606  0.35279729  1
  H  H22  1  0.44144807  0.96071394  0.85279729  1
  H  H23  1  0.55855193  0.46071394  0.64720271  1
  H  H24  1  0.50643784  0.14225922  0.08885043  1
  H  H25  1  0.49356216  0.64225922  0.41114957  1
  H  H26  1  0.49356216  0.85774078  0.91114957  1
  H  H27  1  0.50643784  0.35774078  0.58885043  1
  H  H28  1  0.86354096  0.27410600  0.52668352  1
  H  H29  1  0.13645904  0.77410600  0.97331648  1
  H  H30  1  0.13645904  0.72589400  0.47331648  1
  H  H31  1  0.86354096  0.22589400  0.02668352  1
  H  H32  1  0.89151155  0.35232190  0.44993321  1
  H  H33  1  0.10848845  0.85232190  0.05006679  1
  H  H34  1  0.10848845  0.64767810  0.55006679  1
  H  H35  1  0.89151155  0.14767810  0.94993321  1
  H  H36  1  0.67118840  0.34847170  0.14247687  1
  H  H37  1  0.32881160  0.84847170  0.35752313  1
  H  H38  1  0.32881160  0.65152830  0.85752313  1
  H  H39  1  0.67118840  0.15152830  0.64247687  1
  H  H40  1  0.86930702  0.36046600  0.15280312  1
  H  H41  1  0.13069298  0.86046600  0.34719688  1
  H  H42  1  0.13069298  0.63953400  0.84719688  1
  H  H43  1  0.86930702  0.13953400  0.65280312  1
  H  H44  1  0.76858291  0.33770573  0.23307898  1
  H  H45  1  0.23141709  0.83770573  0.26692102  1
  H  H46  1  0.23141709  0.66229427  0.76692102  1
  H  H47  1  0.76858291  0.16229427  0.73307898  1
  H  H48  1  0.74859624  0.44629164  0.18955412  1
  H  H49  1  0.25140376  0.94629164  0.31044588  1
  H  H50  1  0.25140376  0.55370836  0.81044588  1
  H  H51  1  0.74859624  0.05370836  0.68955412  1
  H  H52  1  0.09681187  0.27668535  0.12603517  1
  H  H53  1  0.90318813  0.77668535  0.37396483  1
  H  H54  1  0.90318813  0.72331465  0.87396483  1
  H  H55  1  0.09681187  0.22331465  0.62603517  1
  H  H56  1  0.05261390  0.34361923  0.05351519  1
  H  H57  1  0.94738610  0.84361923  0.44648481  1
  H  H58  1  0.94738610  0.65638077  0.94648481  1
  H  H59  1  0.05261390  0.15638077  0.55351519  1
  C  C60  1  0.11171070  0.45973200  0.37188810  1
  C  C61  1  0.88828930  0.95973200  0.12811190  1
  C  C62  1  0.88828930  0.54026800  0.62811190  1
  C  C63  1  0.11171070  0.04026800  0.87188810  1
  C  C64  1  0.99836808  0.11927047  0.37870880  1
  C  C65  1  0.00163192  0.61927047  0.12129120  1
  C  C66  1  0.00163192  0.88072953  0.62129120  1
  C  C67  1  0.99836808  0.38072953  0.87870880  1
  C  C68  1  0.44815170  0.14736269  0.20204796  1
  C  C69  1  0.55184830  0.64736269  0.29795204  1
  C  C70  1  0.55184830  0.85263731  0.79795204  1
  C  C71  1  0.44815170  0.35263731  0.70204796  1
  C  C72  1  0.66865469  0.29633987  0.44620919  1
  C  C73  1  0.33134531  0.79633987  0.05379081  1
  C  C74  1  0.33134531  0.70366013  0.55379081  1
  C  C75  1  0.66865469  0.20366013  0.94620919  1
  S  S76  1  0.18117336  0.40094551  0.45701266  1
  S  S77  1  0.81882664  0.90094551  0.04298734  1
  S  S78  1  0.81882664  0.59905449  0.54298734  1
  S  S79  1  0.18117336  0.09905449  0.95701266  1
  S  S80  1  0.18184873  0.43254539  0.28391360  1
  S  S81  1  0.81815127  0.93254539  0.21608640  1
  S  S82  1  0.81815127  0.56745461  0.71608640  1
  S  S83  1  0.18184873  0.06745461  0.78391360  1
  S  S84  1  0.16320495  0.09879625  0.44365813  1
  S  S85  1  0.83679505  0.59879625  0.05634187  1
  S  S86  1  0.83679505  0.90120375  0.55634187  1
  S  S87  1  0.16320495  0.40120375  0.94365813  1
  S  S88  1  0.00675728  0.18786451  0.29539559  1
  S  S89  1  0.99324272  0.68786451  0.20460441  1
  S  S90  1  0.99324272  0.81213549  0.70460441  1
  S  S91  1  0.00675728  0.31213549  0.79539559  1
  S  S92  1  0.45637688  0.08943601  0.29148815  1
  S  S93  1  0.54362312  0.58943601  0.20851185  1
  S  S94  1  0.54362312  0.91056399  0.70851185  1
  S  S95  1  0.45637688  0.41056399  0.79148815  1
  S  S96  1  0.36613812  0.26073217  0.18958193  1
  S  S97  1  0.63386188  0.76073217  0.31041807  1
  S  S98  1  0.63386188  0.73926783  0.81041807  1
  S  S99  1  0.36613812  0.23926783  0.68958193  1
  S  S100  1  0.60769176  0.35285068  0.35855659  1
  S  S101  1  0.39230824  0.85285068  0.14144341  1
  S  S102  1  0.39230824  0.64714932  0.64144341  1
  S  S103  1  0.60769176  0.14714932  0.85855659  1
  S  S104  1  0.54553323  0.22268060  0.49272339  1
  S  S105  1  0.45446677  0.72268060  0.00727661  1
  S  S106  1  0.45446677  0.77731940  0.50727661  1
  S  S107  1  0.54553323  0.27731940  0.99272339  1
  N  N108  1  0.00060713  0.52769114  0.37335073  1
  N  N109  1  0.99939287  0.02769114  0.12664927  1
  N  N110  1  0.99939287  0.47230886  0.62664927  1
  N  N111  1  0.00060713  0.97230886  0.87335073  1
  N  N112  1  0.86055781  0.08141574  0.39358767  1
  N  N113  1  0.13944219  0.58141574  0.10641233  1
  N  N114  1  0.13944219  0.91858426  0.60641233  1
  N  N115  1  0.86055781  0.41858426  0.89358767  1
  N  N116  1  0.50828256  0.10598405  0.14132219  1
  N  N117  1  0.49171744  0.60598405  0.35867781  1
  N  N118  1  0.49171744  0.89401595  0.85867781  1
  N  N119  1  0.50828256  0.39401595  0.64132219  1
  N  N120  1  0.81546322  0.31178663  0.47853608  1
  N  N121  1  0.18453678  0.81178663  0.02146392  1
  N  N122  1  0.18453678  0.68821337  0.52146392  1
  N  N123  1  0.81546322  0.18821337  0.97853608  1
  N  N124  1  0.76526931  0.37370524  0.17974353  1
  N  N125  1  0.23473069  0.87370524  0.32025647  1
  N  N126  1  0.23473069  0.62629476  0.82025647  1
  N  N127  1  0.76526931  0.12629476  0.67974353  1
  O  O128  1  0.00576709  0.30719465  0.09557466  1
  O  O129  1  0.99423291  0.80719465  0.40442534  1
  O  O130  1  0.99423291  0.69280535  0.90442534  1
  O  O131  1  0.00576709  0.19280535  0.59557466  1
