# generated using pymatgen
data_Cu5(PO6)2
_symmetry_space_group_name_H-M   'P 1'
_cell_length_a   4.61838852
_cell_length_b   5.60316745
_cell_length_c   16.56679083
_cell_angle_alpha   90.00000000
_cell_angle_beta   91.59901372
_cell_angle_gamma   90.00000000
_symmetry_Int_Tables_number   1
_chemical_formula_structural   Cu5(PO6)2
_chemical_formula_sum   'Cu10 P4 O24'
_cell_volume   428.54191490
_cell_formula_units_Z   2
loop_
 _symmetry_equiv_pos_site_id
 _symmetry_equiv_pos_as_xyz
  1  'x, y, z'
loop_
 _atom_site_type_symbol
 _atom_site_label
 _atom_site_symmetry_multiplicity
 _atom_site_fract_x
 _atom_site_fract_y
 _atom_site_fract_z
 _atom_site_occupancy
  Cu  Cu0  1  -0.00000000  0.50000000  0.50000000  1
  Cu  Cu1  1  -0.00000000  0.00000000  0.00000000  1
  Cu  Cu2  1  0.07175977  0.01581313  0.58363201  1
  Cu  Cu3  1  0.92824023  0.51581313  0.91636799  1
  Cu  Cu4  1  0.92824023  0.98418687  0.41636799  1
  Cu  Cu5  1  0.07175977  0.48418687  0.08363201  1
  Cu  Cu6  1  0.98499455  0.17579504  0.75539937  1
  Cu  Cu7  1  0.01500545  0.67579504  0.74460063  1
  Cu  Cu8  1  0.01500545  0.82420496  0.24460063  1
  Cu  Cu9  1  0.98499455  0.32420496  0.25539937  1
  P  P10  1  0.52280578  0.41430842  0.63185381  1
  P  P11  1  0.47719422  0.91430842  0.86814619  1
  P  P12  1  0.47719422  0.58569158  0.36814619  1
  P  P13  1  0.52280578  0.08569158  0.13185381  1
  O  O14  1  0.15069532  0.17914182  0.48612544  1
  O  O15  1  0.84930468  0.67914182  0.01387456  1
  O  O16  1  0.84930468  0.82085818  0.51387456  1
  O  O17  1  0.15069532  0.32085818  0.98612544  1
  O  O18  1  0.11576100  0.43037264  0.81900007  1
  O  O19  1  0.88423900  0.93037264  0.68099993  1
  O  O20  1  0.88423900  0.56962736  0.18099993  1
  O  O21  1  0.11576100  0.06962736  0.31900007  1
  O  O22  1  0.70381424  0.35480222  0.55718647  1
  O  O23  1  0.29618576  0.85480222  0.94281353  1
  O  O24  1  0.29618576  0.64519778  0.44281353  1
  O  O25  1  0.70381424  0.14519778  0.05718647  1
  O  O26  1  0.33865201  0.18781966  0.64899953  1
  O  O27  1  0.66134799  0.68781966  0.85100047  1
  O  O28  1  0.66134799  0.81218034  0.35100047  1
  O  O29  1  0.33865201  0.31218034  0.14899953  1
  O  O30  1  0.73953552  0.42669422  0.70906380  1
  O  O31  1  0.26046448  0.92669422  0.79093620  1
  O  O32  1  0.26046448  0.57330578  0.29093620  1
  O  O33  1  0.73953552  0.07330578  0.20906380  1
  O  O34  1  0.33629268  0.63557051  0.62855543  1
  O  O35  1  0.66370732  0.13557051  0.87144457  1
  O  O36  1  0.66370732  0.36442949  0.37144457  1
  O  O37  1  0.33629268  0.86442949  0.12855543  1
