# generated using pymatgen
data_ZnCoP2H12O11
_symmetry_space_group_name_H-M   'P 1'
_cell_length_a   7.58581901
_cell_length_b   7.71129055
_cell_length_c   9.52885253
_cell_angle_alpha   88.87916357
_cell_angle_beta   88.93369285
_cell_angle_gamma   87.62023494
_symmetry_Int_Tables_number   1
_chemical_formula_structural   ZnCoP2H12O11
_chemical_formula_sum   'Zn2 Co2 P4 H24 O22'
_cell_volume   556.72842303
_cell_formula_units_Z   2
loop_
 _symmetry_equiv_pos_site_id
 _symmetry_equiv_pos_as_xyz
  1  'x, y, z'
loop_
 _atom_site_type_symbol
 _atom_site_label
 _atom_site_symmetry_multiplicity
 _atom_site_fract_x
 _atom_site_fract_y
 _atom_site_fract_z
 _atom_site_occupancy
  Zn  Zn0  1  0.99926038  0.49619030  0.24854420  1
  Zn  Zn1  1  0.00073962  0.50380970  0.75145580  1
  Co  Co2  1  0.50000000  0.50000000  0.50000000  1
  Co  Co3  1  -0.00000000  -0.00000000  -0.00000000  1
  P  P4  1  0.12525119  0.27690390  0.49152355  1
  P  P5  1  0.87474881  0.72309610  0.50847645  1
  P  P6  1  0.22830866  0.61305687  0.98596769  1
  P  P7  1  0.77169134  0.38694313  0.01403231  1
  H  H8  1  0.20902475  0.10985811  0.48821450  1
  H  H9  1  0.79097525  0.89014189  0.51178550  1
  H  H10  1  0.40023178  0.67653984  0.97197627  1
  H  H11  1  0.59976822  0.32346016  0.02802373  1
  H  H12  1  0.38874532  0.59283353  0.24288085  1
  H  H13  1  0.61125468  0.40716647  0.75711915  1
  H  H14  1  0.59766247  0.58117726  0.23421838  1
  H  H15  1  0.40233753  0.41882274  0.76578162  1
  H  H16  1  0.75278962  0.26746628  0.40627647  1
  H  H17  1  0.24721038  0.73253372  0.59372353  1
  H  H18  1  0.57457735  0.18570009  0.35693058  1
  H  H19  1  0.42542265  0.81429991  0.64306942  1
  H  H20  1  0.66320961  0.93662310  0.10808437  1
  H  H21  1  0.33679039  0.06337690  0.89191563  1
  H  H22  1  0.76543851  0.76191321  0.06509639  1
  H  H23  1  0.23456149  0.23808679  0.93490361  1
  H  H24  1  0.96057801  0.11946188  0.72782217  1
  H  H25  1  0.03942199  0.88053812  0.27217783  1
  H  H26  1  0.95868489  0.91315352  0.73670549  1
  H  H27  1  0.04131511  0.08684648  0.26329451  1
  H  H28  1  0.37515645  0.02278023  0.20698844  1
  H  H29  1  0.62484355  0.97721977  0.79301156  1
  H  H30  1  0.49094664  0.89115788  0.29242192  1
  H  H31  1  0.50905336  0.10884212  0.70757808  1
  O  O32  1  0.98861170  0.27850314  0.36909082  1
  O  O33  1  0.01138830  0.72149686  0.63090918  1
  O  O34  1  0.03541705  0.28854752  0.63795951  1
  O  O35  1  0.96458295  0.71145248  0.36204049  1
  O  O36  1  0.25661725  0.41538984  0.46242223  1
  O  O37  1  0.74338275  0.58461016  0.53757777  1
  O  O38  1  0.09209431  0.75592087  0.95222887  1
  O  O39  1  0.90790569  0.24407913  0.04777113  1
  O  O40  1  0.21824843  0.46713670  0.87468517  1
  O  O41  1  0.78175157  0.53286330  0.12531483  1
  O  O42  1  0.21793807  0.53910204  0.13801097  1
  O  O43  1  0.78206193  0.46089796  0.86198903  1
  O  O44  1  0.49667949  0.62336673  0.29431543  1
  O  O45  1  0.50332051  0.37663327  0.70568457  1
  O  O46  1  0.62416000  0.26340544  0.42575511  1
  O  O47  1  0.37584000  0.73659456  0.57424489  1
  O  O48  1  0.74864521  0.88614712  0.03867659  1
  O  O49  1  0.25135479  0.11385288  0.96132341  1
  O  O50  1  0.91651350  0.01948352  0.78570578  1
  O  O51  1  0.08348650  0.98051648  0.21429422  1
  O  O52  1  0.49452334  0.00578265  0.24559424  1
  O  O53  1  0.50547666  0.99421735  0.75440576  1
