# generated using pymatgen
data_Co2H36N13Cl5O3
_symmetry_space_group_name_H-M   'P 1'
_cell_length_a   7.09689273
_cell_length_b   13.04384457
_cell_length_c   13.04384457
_cell_angle_alpha   70.71968092
_cell_angle_beta   88.31757426
_cell_angle_gamma   88.31757426
_symmetry_Int_Tables_number   1
_chemical_formula_structural   Co2H36N13Cl5O3
_chemical_formula_sum   'Co4 H72 N26 Cl10 O6'
_cell_volume   1139.01772185
_cell_formula_units_Z   2
loop_
 _symmetry_equiv_pos_site_id
 _symmetry_equiv_pos_as_xyz
  1  'x, y, z'
loop_
 _atom_site_type_symbol
 _atom_site_label
 _atom_site_symmetry_multiplicity
 _atom_site_fract_x
 _atom_site_fract_y
 _atom_site_fract_z
 _atom_site_occupancy
  Co  Co0  1  0.50000000  0.50000000  -0.00000000  1
  Co  Co1  1  0.50000000  -0.00000000  0.50000000  1
  Co  Co2  1  -0.00000000  -0.00000000  -0.00000000  1
  Co  Co3  1  -0.00000000  0.50000000  0.50000000  1
  H  H4  1  0.23135544  0.64517195  0.94263613  1
  H  H5  1  0.23135544  0.94263613  0.64517195  1
  H  H6  1  0.76864456  0.35482805  0.05736387  1
  H  H7  1  0.76864456  0.05736387  0.35482805  1
  H  H8  1  0.14728592  0.52426750  0.96129990  1
  H  H9  1  0.14728592  0.96129990  0.52426750  1
  H  H10  1  0.85271408  0.47573250  0.03870010  1
  H  H11  1  0.85271408  0.03870010  0.47573250  1
  H  H12  1  0.25778052  0.58808051  0.84883392  1
  H  H13  1  0.25778052  0.84883392  0.58808051  1
  H  H14  1  0.74221948  0.41191949  0.15116608  1
  H  H15  1  0.74221948  0.15116608  0.41191949  1
  H  H16  1  0.54986316  0.31565115  0.96938523  1
  H  H17  1  0.54986316  0.96938523  0.31565115  1
  H  H18  1  0.45013684  0.68434885  0.03061477  1
  H  H19  1  0.45013684  0.03061477  0.68434885  1
  H  H20  1  0.45190319  0.40012812  0.86037211  1
  H  H21  1  0.45190319  0.86037211  0.40012812  1
  H  H22  1  0.54809681  0.59987188  0.13962789  1
  H  H23  1  0.54809681  0.13962789  0.59987188  1
  H  H24  1  0.32541197  0.34425063  0.97014664  1
  H  H25  1  0.32541197  0.97014664  0.34425063  1
  H  H26  1  0.67458803  0.65574937  0.02985336  1
  H  H27  1  0.67458803  0.02985336  0.65574937  1
  H  H28  1  0.44063379  0.37910846  0.19502708  1
  H  H29  1  0.44063379  0.19502708  0.37910846  1
  H  H30  1  0.55936621  0.62089154  0.80497292  1
  H  H31  1  0.55936621  0.80497292  0.62089154  1
  H  H32  1  0.26041800  0.37188242  0.12039237  1
  H  H33  1  0.26041800  0.12039237  0.37188242  1
  H  H34  1  0.73958200  0.62811758  0.87960763  1
  H  H35  1  0.73958200  0.87960763  0.62811758  1
  H  H36  1  0.27751971  0.47878330  0.15979818  1
  H  H37  1  0.27751971  0.15979818  0.47878330  1
  H  H38  1  0.72248029  0.52121670  0.84020182  1
  H  H39  1  0.72248029  0.84020182  0.52121670  1
  H  H40  1  0.97857791  0.20243989  0.97658895  1
  H  H41  1  0.97857791  0.97658895  0.20243989  1
  H  H42  1  0.02142209  0.79756011  0.02341105  1
  H  H43  1  0.02142209  0.02341105  0.79756011  1
  H  H44  1  0.77263796  0.14854511  0.01314099  1
  H  H45  1  0.77263796  0.01314099  0.14854511  1
  H  H46  1  0.22736204  0.85145489  0.98685901  1
  H  H47  1  0.22736204  0.98685901  0.85145489  1
  H  H48  1  0.84208307  0.17894465  0.88568911  1
  H  H49  1  0.84208307  0.88568911  0.17894465  1
  H  H50  1  0.15791693  0.82105535  0.11431089  1
  H  H51  1  0.15791693  0.11431089  0.82105535  1
  H  H52  1  0.75251943  0.87133154  0.97945400  1
  H  H53  1  0.75251943  0.97945400  0.87133154  1
  H  H54  1  0.24748057  0.12866846  0.02054600  1
  H  H55  1  0.24748057  0.02054600  0.12866846  1
  H  H56  1  0.65076416  0.98416924  0.98416924  1
  H  H57  1  0.34923584  0.01583076  0.01583076  1
  H  H58  1  0.06093250  0.33286049  0.44507068  1
  H  H59  1  0.06093250  0.44507068  0.33286049  1
  H  H60  1  0.93906750  0.66713951  0.55492932  1
  H  H61  1  0.93906750  0.55492932  0.66713951  1
  H  H62  1  0.86230876  0.39369442  0.39369442  1
  H  H63  1  0.13769124  0.60630558  0.60630558  1
  H  H64  1  0.75672796  0.65623820  0.42789951  1
  H  H65  1  0.75672796  0.42789951  0.65623820  1
  H  H66  1  0.24327204  0.34376180  0.57210049  1
  H  H67  1  0.24327204  0.57210049  0.34376180  1
  H  H68  1  0.68778551  0.54569105  0.40342080  1
  H  H69  1  0.68778551  0.40342080  0.54569105  1
  H  H70  1  0.31221449  0.45430895  0.59657920  1
  H  H71  1  0.31221449  0.59657920  0.45430895  1
  H  H72  1  0.85157052  0.62202399  0.32558515  1
  H  H73  1  0.85157052  0.32558515  0.62202399  1
  H  H74  1  0.14842948  0.37797601  0.67441485  1
  H  H75  1  0.14842948  0.67441485  0.37797601  1
  N  N76  1  0.26139010  0.57182522  0.93144700  1
  N  N77  1  0.26139010  0.93144700  0.57182522  1
  N  N78  1  0.73860990  0.42817478  0.06855300  1
  N  N79  1  0.73860990  0.06855300  0.42817478  1
  N  N80  1  0.45315904  0.37875939  0.94365856  1
  N  N81  1  0.45315904  0.94365856  0.37875939  1
  N  N82  1  0.54684096  0.62124061  0.05634144  1
  N  N83  1  0.54684096  0.05634144  0.62124061  1
  N  N84  1  0.35643640  0.42417385  0.13277237  1
  N  N85  1  0.35643640  0.13277237  0.42417385  1
  N  N86  1  0.64356360  0.57582615  0.86722763  1
  N  N87  1  0.64356360  0.86722763  0.57582615  1
  N  N88  1  0.88942241  0.14758130  0.96407155  1
  N  N89  1  0.88942241  0.96407155  0.14758130  1
  N  N90  1  0.11057759  0.85241870  0.03592845  1
  N  N91  1  0.11057759  0.03592845  0.85241870  1
  N  N92  1  0.76590490  0.95396210  0.95396210  1
  N  N93  1  0.23409510  0.04603790  0.04603790  1
  N  N94  1  0.99973346  0.40811026  0.40811026  1
  N  N95  1  0.00026654  0.59188974  0.59188974  1
  N  N96  1  0.80260132  0.59155272  0.40490937  1
  N  N97  1  0.80260132  0.40490937  0.59155272  1
  N  N98  1  0.19739868  0.40844728  0.59509063  1
  N  N99  1  0.19739868  0.59509063  0.40844728  1
  N  N100  1  0.07146646  0.20796076  0.20796076  1
  N  N101  1  0.92853354  0.79203924  0.79203924  1
  Cl  Cl102  1  0.59688003  0.16054729  0.16054729  1
  Cl  Cl103  1  0.40311997  0.83945271  0.83945271  1
  Cl  Cl104  1  0.97364392  0.41211963  0.83531295  1
  Cl  Cl105  1  0.97364392  0.83531295  0.41211963  1
  Cl  Cl106  1  0.02635608  0.58788037  0.16468705  1
  Cl  Cl107  1  0.02635608  0.16468705  0.58788037  1
  Cl  Cl108  1  0.50000000  0.17956964  0.82043036  1
  Cl  Cl109  1  0.50000000  0.82043036  0.17956964  1
  Cl  Cl110  1  0.46870348  0.61175739  0.61175739  1
  Cl  Cl111  1  0.53129652  0.38824261  0.38824261  1
  O  O112  1  0.09577679  0.25208212  0.10537259  1
  O  O113  1  0.09577679  0.10537259  0.25208212  1
  O  O114  1  0.90422321  0.74791788  0.89462741  1
  O  O115  1  0.90422321  0.89462741  0.74791788  1
  O  O116  1  0.02627593  0.26563213  0.26563213  1
  O  O117  1  0.97372407  0.73436787  0.73436787  1
