# generated using pymatgen
data_Np3OF12
_symmetry_space_group_name_H-M   'P 1'
_cell_length_a   8.46029071
_cell_length_b   8.46029071
_cell_length_c   8.49338749
_cell_angle_alpha   64.20220875
_cell_angle_beta   64.20220875
_cell_angle_gamma   90.54404994
_symmetry_Int_Tables_number   1
_chemical_formula_structural   Np3OF12
_chemical_formula_sum   'Np6 O2 F24'
_cell_volume   477.72446001
_cell_formula_units_Z   2
loop_
 _symmetry_equiv_pos_site_id
 _symmetry_equiv_pos_as_xyz
  1  'x, y, z'
loop_
 _atom_site_type_symbol
 _atom_site_label
 _atom_site_symmetry_multiplicity
 _atom_site_fract_x
 _atom_site_fract_y
 _atom_site_fract_z
 _atom_site_occupancy
  Np  Np0  1  0.16683431  0.16683431  0.66479486  1
  Np  Np1  1  0.81805625  0.81805625  0.34059073  1
  Np  Np2  1  0.72095282  0.38521501  0.21197508  1
  Np  Np3  1  0.38521501  0.72095282  0.21197508  1
  Np  Np4  1  0.23346700  0.59790910  0.82274655  1
  Np  Np5  1  0.59790910  0.23346700  0.82274655  1
  O  O6  1  0.87783770  0.87783770  0.48915009  1
  O  O7  1  0.08605783  0.08605783  0.54309506  1
  F  F8  1  0.58603144  0.94259103  0.88789213  1
  F  F9  1  0.94259103  0.58603144  0.88789213  1
  F  F10  1  0.63545119  0.85229780  0.21272998  1
  F  F11  1  0.85229780  0.63545119  0.21272998  1
  F  F12  1  0.87219512  0.21099551  0.76146647  1
  F  F13  1  0.21099551  0.87219512  0.76146647  1
  F  F14  1  0.66034558  0.31941323  0.00648876  1
  F  F15  1  0.31941323  0.66034558  0.00648876  1
  F  F16  1  0.71203895  0.26233539  0.50946523  1
  F  F17  1  0.26233539  0.71203895  0.50946523  1
  F  F18  1  0.39771246  0.02670158  0.13512783  1
  F  F19  1  0.02670158  0.39771246  0.13512783  1
  F  F20  1  0.36247727  0.14969997  0.77788546  1
  F  F21  1  0.14969997  0.36247727  0.77788546  1
  F  F22  1  0.11566039  0.77199763  0.25590067  1
  F  F23  1  0.77199763  0.11566039  0.25590067  1
  F  F24  1  0.52026079  0.74013154  0.60351001  1
  F  F25  1  0.74013154  0.52026079  0.60351001  1
  F  F26  1  0.44445369  0.20547607  0.40433178  1
  F  F27  1  0.20547607  0.44445369  0.40433178  1
  F  F28  1  0.99699224  0.99699224  0.00223024  1
  F  F29  1  0.59772952  0.59772952  0.06222005  1
  F  F30  1  0.38343598  0.38343598  0.90600760  1
  F  F31  1  0.50144562  0.50144562  0.41187147  1
