# generated using pymatgen
data_Rb2Ti3(P2O9)2
_symmetry_space_group_name_H-M   'P 1'
_cell_length_a   5.30401064
_cell_length_b   8.65285714
_cell_length_c   16.98511170
_cell_angle_alpha   90.00000000
_cell_angle_beta   90.00000000
_cell_angle_gamma   90.46677084
_symmetry_Int_Tables_number   1
_chemical_formula_structural   Rb2Ti3(P2O9)2
_chemical_formula_sum   'Rb4 Ti6 P8 O36'
_cell_volume   779.50322405
_cell_formula_units_Z   2
loop_
 _symmetry_equiv_pos_site_id
 _symmetry_equiv_pos_as_xyz
  1  'x, y, z'
loop_
 _atom_site_type_symbol
 _atom_site_label
 _atom_site_symmetry_multiplicity
 _atom_site_fract_x
 _atom_site_fract_y
 _atom_site_fract_z
 _atom_site_occupancy
  Rb  Rb0  1  0.42273700  0.89064780  0.10410910  1
  Rb  Rb1  1  0.57726300  0.10935220  0.60410910  1
  Rb  Rb2  1  0.07136369  0.60969071  0.35944497  1
  Rb  Rb3  1  0.92863631  0.39030929  0.85944497  1
  Ti  Ti4  1  0.44662570  0.40237096  0.06609385  1
  Ti  Ti5  1  0.55337430  0.59762904  0.56609385  1
  Ti  Ti6  1  0.75186566  0.24839498  0.23115137  1
  Ti  Ti7  1  0.24813434  0.75160502  0.73115137  1
  Ti  Ti8  1  0.05119611  0.09501998  0.39693088  1
  Ti  Ti9  1  0.94880389  0.90498002  0.89693088  1
  P  P10  1  0.55555120  0.92350006  0.31531225  1
  P  P11  1  0.44444880  0.07649994  0.81531225  1
  P  P12  1  0.94484357  0.57364857  0.14686669  1
  P  P13  1  0.05515643  0.42635143  0.64686669  1
  P  P14  1  0.57106986  0.32668712  0.41290283  1
  P  P15  1  0.42893014  0.67331288  0.91290283  1
  P  P16  1  0.92506607  0.17255934  0.04865360  1
  P  P17  1  0.07493393  0.82744066  0.54865360  1
  O  O18  1  0.44182690  0.51554706  0.95282422  1
  O  O19  1  0.55817310  0.48445294  0.45282422  1
  O  O20  1  0.72395835  0.55617038  0.08771448  1
  O  O21  1  0.27604165  0.44382962  0.58771448  1
  O  O22  1  0.19756918  0.56555525  0.10099311  1
  O  O23  1  0.80243082  0.43444475  0.60099311  1
  O  O24  1  0.15647618  0.27661303  0.02921851  1
  O  O25  1  0.84352382  0.72338697  0.52921851  1
  O  O26  1  0.68882878  0.25911894  0.01735605  1
  O  O27  1  0.31117122  0.74088106  0.51735605  1
  O  O28  1  0.49000525  0.31662376  0.15978509  1
  O  O29  1  0.50999475  0.68337624  0.65978509  1
  O  O30  1  0.56704478  0.05266803  0.25230999  1
  O  O31  1  0.43295522  0.94733197  0.75230999  1
  O  O32  1  0.90841091  0.14764570  0.13868441  1
  O  O33  1  0.09158909  0.85235430  0.63868441  1
  O  O34  1  0.93562885  0.44384579  0.20962430  1
  O  O35  1  0.06437115  0.55615421  0.70962430  1
  O  O36  1  0.59107581  0.34989037  0.32273178  1
  O  O37  1  0.40892419  0.65010963  0.82273178  1
  O  O38  1  0.00894545  0.18032365  0.30209535  1
  O  O39  1  0.99105455  0.81967635  0.80209535  1
  O  O40  1  0.78007058  0.93761324  0.37325830  1
  O  O41  1  0.21992942  0.06238676  0.87325830  1
  O  O42  1  0.30595283  0.93566544  0.36237194  1
  O  O43  1  0.69404717  0.06433456  0.86237194  1
  O  O44  1  0.80216092  0.23499627  0.44442411  1
  O  O45  1  0.19783908  0.76500373  0.94442411  1
  O  O46  1  0.33443262  0.22658180  0.43215563  1
  O  O47  1  0.66556738  0.77341820  0.93215563  1
  O  O48  1  0.05586717  0.98499735  0.50869859  1
  O  O49  1  0.94413283  0.01500265  0.00869859  1
  O  O50  1  0.54829458  0.76197022  0.27676497  1
  O  O51  1  0.45170542  0.23802978  0.77676497  1
  O  O52  1  0.94251341  0.73488789  0.18562364  1
  O  O53  1  0.05748659  0.26511211  0.68562364  1
