# generated using pymatgen
data_ZnPH5CNClO3
_symmetry_space_group_name_H-M   'P 1'
_cell_length_a   4.80013159
_cell_length_b   8.22971664
_cell_length_c   16.09645383
_cell_angle_alpha   90.00000000
_cell_angle_beta   90.00000000
_cell_angle_gamma   105.84876251
_symmetry_Int_Tables_number   1
_chemical_formula_structural   ZnPH5CNClO3
_chemical_formula_sum   'Zn4 P4 H20 C4 N4 Cl4 O12'
_cell_volume   611.69784128
_cell_formula_units_Z   4
loop_
 _symmetry_equiv_pos_site_id
 _symmetry_equiv_pos_as_xyz
  1  'x, y, z'
loop_
 _atom_site_type_symbol
 _atom_site_label
 _atom_site_symmetry_multiplicity
 _atom_site_fract_x
 _atom_site_fract_y
 _atom_site_fract_z
 _atom_site_occupancy
  Zn  Zn0  1  0.57952203  0.17218968  0.17908532  1
  Zn  Zn1  1  0.92047797  0.32781032  0.67908532  1
  Zn  Zn2  1  0.42047797  0.82781032  0.82091468  1
  Zn  Zn3  1  0.07952203  0.67218968  0.32091468  1
  P  P4  1  0.95968756  0.91446905  0.16659350  1
  P  P5  1  0.54031244  0.58553095  0.66659350  1
  P  P6  1  0.04031244  0.08553095  0.83340650  1
  P  P7  1  0.45968756  0.41446905  0.33340650  1
  H  H8  1  0.52733799  0.58423859  0.13765358  1
  H  H9  1  0.97266201  0.91576141  0.63765358  1
  H  H10  1  0.47266201  0.41576141  0.86234642  1
  H  H11  1  0.02733799  0.08423859  0.36234642  1
  H  H12  1  0.33631298  0.72507951  0.14934912  1
  H  H13  1  0.16368702  0.77492049  0.64934912  1
  H  H14  1  0.66368702  0.27492049  0.85065088  1
  H  H15  1  0.83631298  0.22507951  0.35065088  1
  H  H16  1  0.34198412  0.63079666  0.05749854  1
  H  H17  1  0.15801588  0.86920334  0.55749854  1
  H  H18  1  0.65801588  0.36920334  0.94250146  1
  H  H19  1  0.84198412  0.13079666  0.44250146  1
  H  H20  1  0.85066353  0.75879048  0.03622583  1
  H  H21  1  0.64933647  0.74120952  0.53622583  1
  H  H22  1  0.14933647  0.24120952  0.96377417  1
  H  H23  1  0.35066353  0.25879048  0.46377417  1
  H  H24  1  0.65402130  0.91221709  0.04578106  1
  H  H25  1  0.84597870  0.58778291  0.54578106  1
  H  H26  1  0.34597870  0.08778291  0.95421894  1
  H  H27  1  0.15402130  0.41221709  0.45421894  1
  C  C28  1  0.72811524  0.81641148  0.07967663  1
  C  C29  1  0.77188476  0.68358852  0.57967663  1
  C  C30  1  0.27188476  0.18358852  0.92032337  1
  C  C31  1  0.22811524  0.31641148  0.42032337  1
  N  N32  1  0.46860475  0.68137639  0.10821393  1
  N  N33  1  0.03139525  0.81862361  0.60821393  1
  N  N34  1  0.53139525  0.31862361  0.89178607  1
  N  N35  1  0.96860475  0.18137639  0.39178607  1
  Cl  Cl36  1  0.79732334  0.37027303  0.08492983  1
  Cl  Cl37  1  0.70267666  0.12972697  0.58492983  1
  Cl  Cl38  1  0.20267666  0.62972697  0.91507017  1
  Cl  Cl39  1  0.29732334  0.87027303  0.41507017  1
  O  O40  1  0.23358423  0.02428044  0.12438803  1
  O  O41  1  0.26641577  0.47571956  0.62438803  1
  O  O42  1  0.76641577  0.97571956  0.87561197  1
  O  O43  1  0.73358423  0.52428044  0.37561197  1
  O  O44  1  0.51964503  0.26262944  0.28773085  1
  O  O45  1  0.98035497  0.23737056  0.78773085  1
  O  O46  1  0.48035497  0.73737056  0.71226915  1
  O  O47  1  0.01964503  0.76262944  0.21226915  1
  O  O48  1  0.79489916  0.01093204  0.22080639  1
  O  O49  1  0.70510084  0.48906796  0.72080639  1
  O  O50  1  0.20510084  0.98906796  0.77919361  1
  O  O51  1  0.29489916  0.51093204  0.27919361  1
