# generated using pymatgen
data_InSi4H38C14Cl
_symmetry_space_group_name_H-M   'P 1'
_cell_length_a   9.93422054
_cell_length_b   12.50752422
_cell_length_c   13.13982735
_cell_angle_alpha   76.71794124
_cell_angle_beta   69.14652856
_cell_angle_gamma   67.08466290
_symmetry_Int_Tables_number   1
_chemical_formula_structural   InSi4H38C14Cl
_chemical_formula_sum   'In2 Si8 H76 C28 Cl2'
_cell_volume   1397.40087521
_cell_formula_units_Z   2
loop_
 _symmetry_equiv_pos_site_id
 _symmetry_equiv_pos_as_xyz
  1  'x, y, z'
loop_
 _atom_site_type_symbol
 _atom_site_label
 _atom_site_symmetry_multiplicity
 _atom_site_fract_x
 _atom_site_fract_y
 _atom_site_fract_z
 _atom_site_occupancy
  In  In0  1  0.01817040  0.49165790  0.34145063  1
  In  In1  1  0.98182960  0.50834210  0.65854937  1
  Si  Si2  1  0.24709730  0.20747050  0.28540516  1
  Si  Si3  1  0.75290270  0.79252950  0.71459484  1
  Si  Si4  1  0.87792563  0.26946348  0.36583812  1
  Si  Si5  1  0.12207437  0.73053652  0.63416188  1
  Si  Si6  1  0.18246866  0.67751957  0.14768687  1
  Si  Si7  1  0.81753134  0.32248043  0.85231313  1
  Si  Si8  1  0.81618755  0.73602219  0.20751906  1
  Si  Si9  1  0.18381245  0.26397781  0.79248094  1
  H  H10  1  0.04813052  0.34694704  0.21033645  1
  H  H11  1  0.95186948  0.65305296  0.78966355  1
  H  H12  1  0.19868857  0.09236104  0.47156426  1
  H  H13  1  0.80131143  0.90763896  0.52843574  1
  H  H14  1  0.39621452  0.06965831  0.40640132  1
  H  H15  1  0.60378548  0.93034169  0.59359868  1
  H  H16  1  0.27562848  0.20017244  0.46879530  1
  H  H17  1  0.72437152  0.79982756  0.53120470  1
  H  H18  1  0.27018833  0.12437508  0.12017203  1
  H  H19  1  0.72981167  0.87562492  0.87982797  1
  H  H20  1  0.40371010  0.03119715  0.19071883  1
  H  H21  1  0.59628990  0.96880285  0.80928117  1
  H  H22  1  0.21116266  0.03448733  0.24056901  1
  H  H23  1  0.78883734  0.96551267  0.75943099  1
  H  H24  1  0.39284619  0.31351774  0.12630654  1
  H  H25  1  0.60715381  0.68648226  0.87369346  1
  H  H26  1  0.40349389  0.33733265  0.25154677  1
  H  H27  1  0.59650611  0.66266735  0.74845323  1
  H  H28  1  0.51446252  0.20187771  0.19682101  1
  H  H29  1  0.48553748  0.79812229  0.80317899  1
  H  H30  1  0.96959901  0.12834297  0.51756901  1
  H  H31  1  0.03040099  0.87165703  0.48243099  1
  H  H32  1  0.85140483  0.26812742  0.56217858  1
  H  H33  1  0.14859517  0.73187258  0.43782142  1
  H  H34  1  0.76783629  0.17279402  0.54641277  1
  H  H35  1  0.23216371  0.82720598  0.45358723  1
  H  H36  1  0.68893368  0.43277604  0.28406193  1
  H  H37  1  0.31106632  0.56722396  0.71593807  1
  H  H38  1  0.59738464  0.35701455  0.40285520  1
  H  H39  1  0.40261536  0.64298545  0.59714480  1
  H  H40  1  0.66880074  0.46059684  0.41691685  1
  H  H41  1  0.33119926  0.53940316  0.58308315  1
  H  H42  1  0.88429916  0.19190092  0.20261979  1
  H  H43  1  0.11570084  0.80809908  0.79738021  1
  H  H44  1  0.97861986  0.07535212  0.28654286  1
  H  H45  1  0.02138014  0.92464788  0.71345714  1
  H  H46  1  0.77582425  0.13737183  0.32840372  1
  H  H47  1  0.22417575  0.86262817  0.67159628  1
  H  H48  1  0.97634074  0.71639678  0.32099301  1
  H  H49  1  0.02365926  0.28360322  0.67900699  1
  H  H50  1  0.32932251  0.65924595  0.27535234  1
  H  H51  1  0.67067749  0.34075405  0.72464766  1
  H  H52  1  0.37395011  0.52061584  0.23542716  1
  H  H53  1  0.62604989  0.47938416  0.76457284  1
  H  H54  1  0.45122040  0.62414902  0.14193988  1
  H  H55  1  0.54877960  0.37585098  0.85806012  1
  H  H56  1  0.14454060  0.63213122  0.98469474  1
  H  H57  1  0.85545940  0.36786878  0.01530526  1
  H  H58  1  0.34016223  0.60697954  0.96507662  1
  H  H59  1  0.65983777  0.39302046  0.03492338  1
  H  H60  1  0.25344227  0.50417783  0.04944271  1
  H  H61  1  0.74655773  0.49582217  0.95055729  1
  H  H62  1  0.14907269  0.88445727  0.16154351  1
  H  H63  1  0.85092731  0.11554273  0.83845649  1
  H  H64  1  0.28996775  0.82960991  0.03981097  1
  H  H65  1  0.71003225  0.17039009  0.96018903  1
  H  H66  1  0.09329129  0.88077203  0.04875195  1
  H  H67  1  0.90670871  0.11922797  0.95124805  1
  H  H68  1  0.63715038  0.65995614  0.37240074  1
  H  H69  1  0.36284962  0.34004386  0.62759926  1
  H  H70  1  0.62026827  0.80343016  0.38430710  1
  H  H71  1  0.37973173  0.19656984  0.61569290  1
  H  H72  1  0.53823243  0.78064812  0.29426127  1
  H  H73  1  0.46176757  0.21935188  0.70573873  1
  H  H74  1  0.83119231  0.55840339  0.13891198  1
  H  H75  1  0.16880769  0.44159661  0.86108802  1
  H  H76  1  0.71167028  0.68823920  0.08392874  1
  H  H77  1  0.28832972  0.31176080  0.91607126  1
  H  H78  1  0.91403771  0.64846053  0.02981170  1
  H  H79  1  0.08596229  0.35153947  0.97018830  1
  H  H80  1  0.68242684  0.92395533  0.11787971  1
  H  H81  1  0.31757316  0.07604467  0.88212029  1
  H  H82  1  0.78081606  0.94951871  0.19449575  1
  H  H83  1  0.21918394  0.05048129  0.80550425  1
  H  H84  1  0.88179759  0.89672256  0.06436734  1
  H  H85  1  0.11820241  0.10327744  0.93563266  1
  C  C86  1  0.04922132  0.32142950  0.29698368  1
  C  C87  1  0.95077868  0.67857050  0.70301632  1
  C  C88  1  0.28104473  0.13625970  0.42111206  1
  C  C89  1  0.71895527  0.86374030  0.57888794  1
  C  C90  1  0.28396774  0.08884784  0.20203139  1
  C  C91  1  0.71603226  0.91115216  0.79796861  1
  C  C92  1  0.40266985  0.27239482  0.20808014  1
  C  C93  1  0.59733015  0.72760518  0.79191986  1
  C  C94  1  0.86684476  0.20329042  0.51135970  1
  C  C95  1  0.13315524  0.79670958  0.48864030  1
  C  C96  1  0.69214490  0.39217394  0.36721913  1
  C  C97  1  0.30785510  0.60782606  0.63278087  1
  C  C98  1  0.88228801  0.15775398  0.28795333  1
  C  C99  1  0.11771199  0.84224602  0.71204667  1
  C  C100  1  0.99609556  0.66812001  0.25324718  1
  C  C101  1  0.00390444  0.33187999  0.74675282  1
  C  C102  1  0.34846180  0.61390560  0.20641440  1
  C  C103  1  0.65153820  0.38609440  0.79358560  1
  C  C104  1  0.23401899  0.59799169  0.02588148  1
  C  C105  1  0.76598101  0.40200831  0.97411852  1
  C  C106  1  0.17539690  0.83285317  0.09516935  1
  C  C107  1  0.82460310  0.16714683  0.90483065  1
  C  C108  1  0.63742686  0.74513889  0.32619644  1
  C  C109  1  0.36257314  0.25486111  0.67380356  1
  C  C110  1  0.81944620  0.64956153  0.10570528  1
  C  C111  1  0.18055380  0.35043847  0.89429472  1
  C  C112  1  0.78966035  0.89048760  0.14011693  1
  C  C113  1  0.21033965  0.10951240  0.85988307  1
  Cl  Cl114  1  0.80732666  0.53638777  0.53506984  1
  Cl  Cl115  1  0.19267334  0.46361223  0.46493016  1
