# generated using pymatgen
data_Y2Al2Co15
_symmetry_space_group_name_H-M   'P 1'
_cell_length_a   8.23316863
_cell_length_b   8.32611948
_cell_length_c   8.32611948
_cell_angle_alpha   119.97694756
_cell_angle_beta   90.00000000
_cell_angle_gamma   90.00000000
_symmetry_Int_Tables_number   1
_chemical_formula_structural   Y2Al2Co15
_chemical_formula_sum   'Y4 Al4 Co30'
_cell_volume   494.40602603
_cell_formula_units_Z   2
loop_
 _symmetry_equiv_pos_site_id
 _symmetry_equiv_pos_as_xyz
  1  'x, y, z'
loop_
 _atom_site_type_symbol
 _atom_site_label
 _atom_site_symmetry_multiplicity
 _atom_site_fract_x
 _atom_site_fract_y
 _atom_site_fract_z
 _atom_site_occupancy
  Y  Y0  1  0.75000000  0.99995357  0.00004643  1
  Y  Y1  1  0.25000000  0.00004643  0.99995357  1
  Y  Y2  1  0.25000000  0.66660499  0.33339501  1
  Y  Y3  1  0.75000000  0.33339501  0.66660499  1
  Al  Al4  1  0.59656878  0.66668252  0.33331748  1
  Al  Al5  1  0.40343122  0.33331748  0.66668252  1
  Al  Al6  1  0.09656878  0.33331748  0.66668252  1
  Al  Al7  1  0.90343122  0.66668252  0.33331748  1
  Co  Co8  1  0.50000000  0.50000000  -0.00000000  1
  Co  Co9  1  0.50000000  0.50000000  0.50000000  1
  Co  Co10  1  0.50000000  0.00000000  0.50000000  1
  Co  Co11  1  0.00000000  0.50000000  -0.00000000  1
  Co  Co12  1  0.00000000  0.50000000  0.50000000  1
  Co  Co13  1  0.00000000  0.00000000  0.50000000  1
  Co  Co14  1  0.75000000  0.67200608  0.04852795  1
  Co  Co15  1  0.75000000  0.37652119  0.32801722  1
  Co  Co16  1  0.75000000  0.95137470  0.62332281  1
  Co  Co17  1  0.75000000  0.37667719  0.04862530  1
  Co  Co18  1  0.75000000  0.95147205  0.32799392  1
  Co  Co19  1  0.75000000  0.67198278  0.62347881  1
  Co  Co20  1  0.25000000  0.32799392  0.95147205  1
  Co  Co21  1  0.25000000  0.62347881  0.67198278  1
  Co  Co22  1  0.25000000  0.04862530  0.37667719  1
  Co  Co23  1  0.25000000  0.62332281  0.95137470  1
  Co  Co24  1  0.25000000  0.04852795  0.67200608  1
  Co  Co25  1  0.25000000  0.32801722  0.37652119  1
  Co  Co26  1  0.47541725  0.83672327  0.67352017  1
  Co  Co27  1  0.47528361  0.83668226  0.16331774  1
  Co  Co28  1  0.47541725  0.32647983  0.16327673  1
  Co  Co29  1  0.52458275  0.16327673  0.32647983  1
  Co  Co30  1  0.52471639  0.16331774  0.83668226  1
  Co  Co31  1  0.52458275  0.67352017  0.83672327  1
  Co  Co32  1  0.97541725  0.16327673  0.32647983  1
  Co  Co33  1  0.97528361  0.16331774  0.83668226  1
  Co  Co34  1  0.97541725  0.67352017  0.83672327  1
  Co  Co35  1  0.02458275  0.83672327  0.67352017  1
  Co  Co36  1  0.02471639  0.83668226  0.16331774  1
  Co  Co37  1  0.02458275  0.32647983  0.16327673  1
