# generated using pymatgen
data_Nd2Mn5Co12
_symmetry_space_group_name_H-M   'P 1'
_cell_length_a   8.23468169
_cell_length_b   8.38797792
_cell_length_c   8.38797792
_cell_angle_alpha   120.01511500
_cell_angle_beta   90.00000000
_cell_angle_gamma   90.00000000
_symmetry_Int_Tables_number   1
_chemical_formula_structural   Nd2Mn5Co12
_chemical_formula_sum   'Nd4 Mn10 Co24'
_cell_volume   501.67890263
_cell_formula_units_Z   2
loop_
 _symmetry_equiv_pos_site_id
 _symmetry_equiv_pos_as_xyz
  1  'x, y, z'
loop_
 _atom_site_type_symbol
 _atom_site_label
 _atom_site_symmetry_multiplicity
 _atom_site_fract_x
 _atom_site_fract_y
 _atom_site_fract_z
 _atom_site_occupancy
  Nd  Nd0  1  0.75000000  -0.00010165  0.00010165  1
  Nd  Nd1  1  0.25000000  0.00010165  -0.00010165  1
  Nd  Nd2  1  0.25000000  0.66686203  0.33313797  1
  Nd  Nd3  1  0.75000000  0.33313797  0.66686203  1
  Mn  Mn4  1  0.61547749  0.66680037  0.33319963  1
  Mn  Mn5  1  0.38452251  0.33319963  0.66680037  1
  Mn  Mn6  1  0.11547749  0.33319963  0.66680037  1
  Mn  Mn7  1  0.88452251  0.66680037  0.33319963  1
  Mn  Mn8  1  0.00000000  0.50000000  0.50000000  1
  Mn  Mn9  1  0.00000000  -0.00000000  0.50000000  1
  Mn  Mn10  1  0.00000000  0.50000000  0.00000000  1
  Mn  Mn11  1  0.50000000  0.50000000  0.50000000  1
  Mn  Mn12  1  0.50000000  -0.00000000  0.50000000  1
  Mn  Mn13  1  0.50000000  0.50000000  0.00000000  1
  Co  Co14  1  0.75000000  0.66955516  0.04636664  1
  Co  Co15  1  0.75000000  0.37685094  0.33045922  1
  Co  Co16  1  0.75000000  0.95367612  0.62308411  1
  Co  Co17  1  0.75000000  0.37691589  0.04632388  1
  Co  Co18  1  0.75000000  0.95363336  0.33044484  1
  Co  Co19  1  0.75000000  0.66954078  0.62314906  1
  Co  Co20  1  0.25000000  0.33044484  0.95363336  1
  Co  Co21  1  0.25000000  0.62314906  0.66954078  1
  Co  Co22  1  0.25000000  0.04632388  0.37691589  1
  Co  Co23  1  0.25000000  0.62308411  0.95367612  1
  Co  Co24  1  0.25000000  0.04636664  0.66955516  1
  Co  Co25  1  0.25000000  0.33045922  0.37685094  1
  Co  Co26  1  0.48827760  0.83371996  0.66725669  1
  Co  Co27  1  0.48836994  0.83358159  0.16641841  1
  Co  Co28  1  0.48827760  0.33274331  0.16628004  1
  Co  Co29  1  0.51172240  0.16628004  0.33274331  1
  Co  Co30  1  0.51163006  0.16641841  0.83358159  1
  Co  Co31  1  0.51172240  0.66725669  0.83371996  1
  Co  Co32  1  0.98827760  0.16628004  0.33274331  1
  Co  Co33  1  0.98836994  0.16641841  0.83358159  1
  Co  Co34  1  0.98827760  0.66725669  0.83371996  1
  Co  Co35  1  0.01172240  0.83371996  0.66725669  1
  Co  Co36  1  0.01163006  0.83358159  0.16641841  1
  Co  Co37  1  0.01172240  0.33274331  0.16628004  1
