# generated using pymatgen
data_Ca7(Si2O5)8
_symmetry_space_group_name_H-M   'P 1'
_cell_length_a   9.84387101
_cell_length_b   9.84806148
_cell_length_c   12.55231251
_cell_angle_alpha   77.73745960
_cell_angle_beta   71.43857906
_cell_angle_gamma   59.89017779
_symmetry_Int_Tables_number   1
_chemical_formula_structural   Ca7(Si2O5)8
_chemical_formula_sum   'Ca7 Si16 O40'
_cell_volume   995.84370324
_cell_formula_units_Z   1
loop_
 _symmetry_equiv_pos_site_id
 _symmetry_equiv_pos_as_xyz
  1  'x, y, z'
loop_
 _atom_site_type_symbol
 _atom_site_label
 _atom_site_symmetry_multiplicity
 _atom_site_fract_x
 _atom_site_fract_y
 _atom_site_fract_z
 _atom_site_occupancy
  Ca  Ca0  1  0.14904344  0.29094638  0.48196583  1
  Ca  Ca1  1  0.85095656  0.70905362  0.51803417  1
  Ca  Ca2  1  0.42609960  0.85840209  0.49767741  1
  Ca  Ca3  1  0.57390040  0.14159791  0.50232259  1
  Ca  Ca4  1  0.71111381  0.43476549  0.49941115  1
  Ca  Ca5  1  0.28888619  0.56523451  0.50058885  1
  Ca  Ca6  1  0.00000000  -0.00000000  0.50000000  1
  Si  Si7  1  0.34708406  0.65765540  0.73125581  1
  Si  Si8  1  0.65291594  0.34234460  0.26874419  1
  Si  Si9  1  0.74338276  0.15767123  0.72919359  1
  Si  Si10  1  0.25661724  0.84232877  0.27080641  1
  Si  Si11  1  0.23844651  0.27127575  0.72308582  1
  Si  Si12  1  0.76155349  0.72872425  0.27691418  1
  Si  Si13  1  0.46905514  0.90615563  0.73261968  1
  Si  Si14  1  0.53094486  0.09384437  0.26738032  1
  Si  Si15  1  0.98181449  0.78189018  0.73351615  1
  Si  Si16  1  0.01818551  0.21810982  0.26648385  1
  Si  Si17  1  0.86727714  0.39768061  0.72686607  1
  Si  Si18  1  0.13272286  0.60231939  0.27313393  1
  Si  Si19  1  0.71766694  0.68371183  0.86833022  1
  Si  Si20  1  0.28233306  0.31628817  0.13166978  1
  Si  Si21  1  0.39675887  0.35003406  0.86128988  1
  Si  Si22  1  0.60324113  0.64996594  0.13871012  1
  O  O23  1  0.38109140  0.79802951  0.74550715  1
  O  O24  1  0.61890860  0.20197049  0.25449285  1
  O  O25  1  0.87390276  0.97242255  0.74315915  1
  O  O26  1  0.12609724  0.02757745  0.25684085  1
  O  O27  1  0.04637313  0.32767827  0.74783868  1
  O  O28  1  0.95362687  0.67232173  0.25216132  1
  O  O29  1  0.15055916  0.72703221  0.76505663  1
  O  O30  1  0.84944084  0.27296779  0.23494337  1
  O  O31  1  0.32706966  0.08448946  0.76076652  1
  O  O32  1  0.67293034  0.91551054  0.23923348  1
  O  O33  1  0.81542467  0.25873416  0.75813075  1
  O  O34  1  0.18457533  0.74126584  0.24186925  1
  O  O35  1  0.57623157  0.84460996  0.82467326  1
  O  O36  1  0.42376843  0.15539004  0.17532674  1
  O  O37  1  0.88757550  0.69304196  0.82475555  1
  O  O38  1  0.11242450  0.30695804  0.17524445  1
  O  O39  1  0.73878267  0.53678779  0.81298326  1
  O  O40  1  0.26121733  0.46321221  0.18701674  1
  O  O41  1  0.57696410  0.90227345  0.60311687  1
  O  O42  1  0.42303590  0.09772655  0.39688313  1
  O  O43  1  0.01734202  0.74555939  0.60352501  1
  O  O44  1  0.98265798  0.25444061  0.39647499  1
  O  O45  1  0.87164452  0.46140087  0.59521580  1
  O  O46  1  0.12835548  0.53859913  0.40478420  1
  O  O47  1  0.42886856  0.61140498  0.60004426  1
  O  O48  1  0.57113144  0.38859502  0.39995574  1
  O  O49  1  0.72763138  0.19420109  0.59927514  1
  O  O50  1  0.27236862  0.80579891  0.40072486  1
  O  O51  1  0.30657766  0.31139836  0.59016049  1
  O  O52  1  0.69342234  0.68860164  0.40983951  1
  O  O53  1  0.41868588  0.50866733  0.82103124  1
  O  O54  1  0.58131412  0.49133267  0.17896876  1
  O  O55  1  0.57028945  0.19494450  0.82119394  1
  O  O56  1  0.42971055  0.80505550  0.17880606  1
  O  O57  1  0.26498856  0.36342742  0.80202738  1
  O  O58  1  0.73501144  0.63657258  0.19797262  1
  O  O59  1  0.33101643  0.33632628  0.99620205  1
  O  O60  1  0.66898357  0.66367372  0.00379795  1
  O  O61  1  0.16481944  0.05089632  0.56347905  1
  O  O62  1  0.83518056  0.94910368  0.43652095  1
