# generated using pymatgen
data_NaCuH28CS6(N2O7)2
_symmetry_space_group_name_H-M   'P 1'
_cell_length_a   6.71979654
_cell_length_b   11.20619502
_cell_length_c   15.70756670
_cell_angle_alpha   90.00000000
_cell_angle_beta   90.00000000
_cell_angle_gamma   93.90813893
_symmetry_Int_Tables_number   1
_chemical_formula_structural   NaCuH28CS6(N2O7)2
_chemical_formula_sum   'Na2 Cu2 H56 C2 S12 N8 O28'
_cell_volume   1180.08184975
_cell_formula_units_Z   2
loop_
 _symmetry_equiv_pos_site_id
 _symmetry_equiv_pos_as_xyz
  1  'x, y, z'
loop_
 _atom_site_type_symbol
 _atom_site_label
 _atom_site_symmetry_multiplicity
 _atom_site_fract_x
 _atom_site_fract_y
 _atom_site_fract_z
 _atom_site_occupancy
  Na  Na0  1  0.76676094  0.95716022  0.12358329  1
  Na  Na1  1  0.26676094  0.45716022  0.87641671  1
  Cu  Cu2  1  0.00338299  0.49967660  0.30372905  1
  Cu  Cu3  1  0.50338299  0.99967660  0.69627095  1
  H  H4  1  0.59801100  0.20433391  0.08764870  1
  H  H5  1  0.09801100  0.70433391  0.91235130  1
  H  H6  1  0.45393304  0.08731157  0.04602102  1
  H  H7  1  0.95393304  0.58731157  0.95397898  1
  H  H8  1  0.34771450  0.21191464  0.08277853  1
  H  H9  1  0.84771450  0.71191464  0.91722147  1
  H  H10  1  0.48933789  0.21984816  0.99235352  1
  H  H11  1  0.98933789  0.71984816  0.00764648  1
  H  H12  1  0.66202579  0.70393093  0.27070172  1
  H  H13  1  0.16202579  0.20393093  0.72929828  1
  H  H14  1  0.41050784  0.70296324  0.26932766  1
  H  H15  1  0.91050784  0.20296324  0.73067234  1
  H  H16  1  0.52242967  0.57131880  0.26756134  1
  H  H17  1  0.02242967  0.07131880  0.73243866  1
  H  H18  1  0.52724689  0.65574168  0.35855468  1
  H  H19  1  0.02724689  0.15574168  0.64144532  1
  H  H20  1  0.10692388  0.97412983  0.39680026  1
  H  H21  1  0.60692388  0.47412983  0.60319974  1
  H  H22  1  0.95808682  0.93285117  0.31184835  1
  H  H23  1  0.45808682  0.43285117  0.68815165  1
  H  H24  1  0.98899085  0.07844008  0.34037423  1
  H  H25  1  0.48899085  0.57844008  0.65962577  1
  H  H26  1  0.85733037  0.97846398  0.40332714  1
  H  H27  1  0.35733037  0.47846398  0.59667286  1
  H  H28  1  0.48672014  0.35267305  0.34522165  1
  H  H29  1  0.98672014  0.85267305  0.65477835  1
  H  H30  1  0.35633275  0.35289431  0.43818868  1
  H  H31  1  0.85633275  0.85289431  0.56181132  1
  H  H32  1  0.60800149  0.36468601  0.44119256  1
  H  H33  1  0.10800149  0.86468601  0.55880744  1
  H  H34  1  0.48668757  0.23321696  0.41204699  1
  H  H35  1  0.98668757  0.73321696  0.58795301  1
  H  H36  1  0.73109375  0.02333997  0.93558587  1
  H  H37  1  0.23109375  0.52333997  0.06441413  1
  H  H38  1  0.09917455  0.09633315  0.01558229  1
  H  H39  1  0.59917455  0.59633315  0.98441771  1
  H  H40  1  0.08774471  0.01878410  0.91619299  1
  H  H41  1  0.58774471  0.51878410  0.08380701  1
  H  H42  1  0.99694276  0.16515092  0.92468971  1
  H  H43  1  0.49694276  0.66515092  0.07531029  1
  H  H44  1  0.31477181  0.88004388  0.06481031  1
  H  H45  1  0.81477181  0.38004388  0.93518969  1
  H  H46  1  0.43901129  0.88301532  0.98146884  1
  H  H47  1  0.93901129  0.38301532  0.01853116  1
  H  H48  1  0.52835572  0.04312779  0.27426680  1
  H  H49  1  0.02835572  0.54312779  0.72573320  1
  H  H50  1  0.40356747  0.95026740  0.22019330  1
  H  H51  1  0.90356747  0.45026740  0.77980670  1
  H  H52  1  0.60373583  0.37286384  0.20974221  1
  H  H53  1  0.10373583  0.87286384  0.79025779  1
  H  H54  1  0.36797962  0.37250952  0.21008088  1
  H  H55  1  0.86797962  0.87250952  0.78991912  1
  H  H56  1  0.83491324  0.15349831  0.53892780  1
  H  H57  1  0.33491324  0.65349831  0.46107220  1
  H  H58  1  0.02598096  0.23830659  0.51940840  1
  H  H59  1  0.52598096  0.73830659  0.48059160  1
  C  C60  1  0.01060387  0.07952297  0.95782128  1
  C  C61  1  0.51060387  0.57952297  0.04217872  1
  S  S62  1  0.01551321  0.60679819  0.42130435  1
  S  S63  1  0.51551321  0.10679819  0.57869565  1
  S  S64  1  0.97721347  0.30243820  0.30652625  1
  S  S65  1  0.47721347  0.80243820  0.69347375  1
  S  S66  1  0.01088931  0.58495235  0.17661423  1
  S  S67  1  0.51088931  0.08495235  0.82338577  1
  S  S68  1  0.98660928  0.49303141  0.52465750  1
  S  S69  1  0.48660928  0.99303141  0.47534250  1
  S  S70  1  0.97759197  0.24522332  0.18189930  1
  S  S71  1  0.47759197  0.74522332  0.81810070  1
  S  S72  1  0.04730924  0.76721998  0.18696946  1
  S  S73  1  0.54730924  0.26721998  0.81303054  1
  N  N74  1  0.47075166  0.17979217  0.05198423  1
  N  N75  1  0.97075166  0.67979217  0.94801577  1
  N  N76  1  0.53160764  0.65805657  0.29111934  1
  N  N77  1  0.03160764  0.15805657  0.70888066  1
  N  N78  1  0.97897623  0.99150478  0.36263613  1
  N  N79  1  0.47897623  0.49150478  0.63736387  1
  N  N80  1  0.48412088  0.32607521  0.40936893  1
  N  N81  1  0.98412088  0.82607521  0.59063107  1
  O  O82  1  0.78959403  0.42452558  0.52293494  1
  O  O83  1  0.28959403  0.92452558  0.47706506  1
  O  O84  1  0.00453117  0.57241315  0.60084850  1
  O  O85  1  0.50453117  0.07241315  0.39915150  1
  O  O86  1  0.15088364  0.40947787  0.52393887  1
  O  O87  1  0.65088364  0.90947787  0.47606113  1
  O  O88  1  0.80307334  0.29255742  0.13657323  1
  O  O89  1  0.30307334  0.79255742  0.86342677  1
  O  O90  1  0.16610845  0.29341529  0.13990493  1
  O  O91  1  0.66610845  0.79341529  0.86009507  1
  O  O92  1  0.96418180  0.11367215  0.18521391  1
  O  O93  1  0.46418180  0.61367215  0.81478609  1
  O  O94  1  0.23252368  0.80492876  0.23388879  1
  O  O95  1  0.73252368  0.30492876  0.76611121  1
  O  O96  1  0.05562385  0.81635741  0.09833967  1
  O  O97  1  0.55562385  0.31635741  0.90166033  1
  O  O98  1  0.86954647  0.81226424  0.23140480  1
  O  O99  1  0.36954647  0.31226424  0.76859520  1
  O  O100  1  0.82020830  0.02839228  0.98522480  1
  O  O101  1  0.32020830  0.52839228  0.01477520  1
  O  O102  1  0.44092979  0.91424612  0.03977939  1
  O  O103  1  0.94092979  0.41424612  0.96022061  1
  O  O104  1  0.51325401  0.01239305  0.21599544  1
  O  O105  1  0.01325401  0.51239305  0.78400456  1
  O  O106  1  0.49006787  0.40556317  0.23936638  1
  O  O107  1  0.99006787  0.90556317  0.76063362  1
  O  O108  1  0.98239073  0.15536243  0.53379493  1
  O  O109  1  0.48239073  0.65536243  0.46620507  1
