# generated using pymatgen
data_SiPHO5
_symmetry_space_group_name_H-M   'P 1'
_cell_length_a   6.92027303
_cell_length_b   6.93808363
_cell_length_c   7.00109777
_cell_angle_alpha   90.00000000
_cell_angle_beta   90.00000000
_cell_angle_gamma   119.75567953
_symmetry_Int_Tables_number   1
_chemical_formula_structural   SiPHO5
_chemical_formula_sum   'Si4 P4 H4 O20'
_cell_volume   291.82566435
_cell_formula_units_Z   4
loop_
 _symmetry_equiv_pos_site_id
 _symmetry_equiv_pos_as_xyz
  1  'x, y, z'
loop_
 _atom_site_type_symbol
 _atom_site_label
 _atom_site_symmetry_multiplicity
 _atom_site_fract_x
 _atom_site_fract_y
 _atom_site_fract_z
 _atom_site_occupancy
  Si  Si0  1  0.24929262  0.49993688  0.75005255  1
  Si  Si1  1  0.74929262  -0.00006312  0.74994745  1
  Si  Si2  1  0.75070738  0.50006312  0.24994745  1
  Si  Si3  1  0.25070738  0.00006312  0.25005255  1
  P  P4  1  0.49915770  0.74967030  0.11743639  1
  P  P5  1  0.99915770  0.24967030  0.38256361  1
  P  P6  1  0.50084230  0.25032970  0.88256361  1
  P  P7  1  0.00084230  0.75032970  0.61743639  1
  H  H8  1  0.01666309  0.23242525  0.97433329  1
  H  H9  1  0.51666309  0.73242525  0.52566671  1
  H  H10  1  0.98333691  0.76757475  0.02566671  1
  H  H11  1  0.48333691  0.26757475  0.47433329  1
  O  O12  1  0.31896582  0.56950094  0.98914999  1
  O  O13  1  0.81896582  0.06950094  0.51085001  1
  O  O14  1  0.68103418  0.43049906  0.01085001  1
  O  O15  1  0.18103418  0.93049906  0.48914999  1
  O  O16  1  0.00143256  0.24813094  0.83589948  1
  O  O17  1  0.50143256  0.74813094  0.66410052  1
  O  O18  1  0.99856744  0.75186906  0.16410052  1
  O  O19  1  0.49856744  0.25186906  0.33589948  1
  O  O20  1  0.39913132  0.85208337  0.25182511  1
  O  O21  1  0.89913132  0.35208337  0.24817489  1
  O  O22  1  0.60086868  0.14791663  0.74817489  1
  O  O23  1  0.10086868  0.64791663  0.75182511  1
  O  O24  1  0.59890700  0.64932152  0.25495812  1
  O  O25  1  0.09890700  0.14932152  0.24504188  1
  O  O26  1  0.40109300  0.35067848  0.74504188  1
  O  O27  1  0.90109300  0.85067848  0.75495812  1
  O  O28  1  0.68169949  0.92813983  0.98954557  1
  O  O29  1  0.18169949  0.42813983  0.51045443  1
  O  O30  1  0.31830051  0.07186017  0.01045443  1
  O  O31  1  0.81830051  0.57186017  0.48954557  1
