# generated using pymatgen
data_CeH3CSO7
_symmetry_space_group_name_H-M   'P 1'
_cell_length_a   7.06156893
_cell_length_b   7.06156893
_cell_length_c   11.98405787
_cell_angle_alpha   90.00000000
_cell_angle_beta   90.00000000
_cell_angle_gamma   90.00000000
_symmetry_Int_Tables_number   1
_chemical_formula_structural   CeH3CSO7
_chemical_formula_sum   'Ce4 H12 C4 S4 O28'
_cell_volume   597.59410268
_cell_formula_units_Z   4
loop_
 _symmetry_equiv_pos_site_id
 _symmetry_equiv_pos_as_xyz
  1  'x, y, z'
loop_
 _atom_site_type_symbol
 _atom_site_label
 _atom_site_symmetry_multiplicity
 _atom_site_fract_x
 _atom_site_fract_y
 _atom_site_fract_z
 _atom_site_occupancy
  Ce  Ce0  1  0.13274001  0.39176609  0.47836380  1
  Ce  Ce1  1  0.86725999  0.60823391  0.97836380  1
  Ce  Ce2  1  0.39176609  0.86725999  0.72836380  1
  Ce  Ce3  1  0.60823391  0.13274001  0.22836380  1
  H  H4  1  0.64637072  0.48288578  0.51751646  1
  H  H5  1  0.35362928  0.51711422  0.01751646  1
  H  H6  1  0.48288578  0.35362928  0.76751646  1
  H  H7  1  0.51711422  0.64637072  0.26751646  1
  H  H8  1  0.89574177  0.31547569  0.69742885  1
  H  H9  1  0.10425823  0.68452431  0.19742885  1
  H  H10  1  0.31547569  0.10425823  0.94742885  1
  H  H11  1  0.68452431  0.89574177  0.44742885  1
  H  H12  1  0.96424608  0.11488752  0.65711297  1
  H  H13  1  0.03575392  0.88511248  0.15711297  1
  H  H14  1  0.11488752  0.03575392  0.90711297  1
  H  H15  1  0.88511248  0.96424608  0.40711297  1
  C  C16  1  0.64235776  0.39599421  0.44089651  1
  C  C17  1  0.35764224  0.60400579  0.94089651  1
  C  C18  1  0.39599421  0.35764224  0.69089651  1
  C  C19  1  0.60400579  0.64235776  0.19089651  1
  S  S20  1  0.11176359  0.25867595  0.17267545  1
  S  S21  1  0.88823641  0.74132405  0.67267545  1
  S  S22  1  0.25867595  0.88823641  0.42267545  1
  S  S23  1  0.74132405  0.11176359  0.92267545  1
  O  O24  1  0.28981300  0.16248878  0.13909241  1
  O  O25  1  0.71018700  0.83751122  0.63909241  1
  O  O26  1  0.16248878  0.71018700  0.38909241  1
  O  O27  1  0.83751122  0.28981300  0.88909241  1
  O  O28  1  0.14433711  0.37749211  0.27274774  1
  O  O29  1  0.85566289  0.62250789  0.77274774  1
  O  O30  1  0.37749211  0.85566289  0.52274774  1
  O  O31  1  0.62250789  0.14433711  0.02274774  1
  O  O32  1  0.04924610  0.38057318  0.07913267  1
  O  O33  1  0.95075390  0.61942682  0.57913267  1
  O  O34  1  0.38057318  0.95075390  0.32913267  1
  O  O35  1  0.61942682  0.04924610  0.82913267  1
  O  O36  1  0.96208596  0.11325804  0.19662557  1
  O  O37  1  0.03791404  0.88674196  0.69662557  1
  O  O38  1  0.11325804  0.03791404  0.44662557  1
  O  O39  1  0.88674196  0.96208596  0.94662557  1
  O  O40  1  0.48137074  0.34490918  0.40208671  1
  O  O41  1  0.51862926  0.65509082  0.90208671  1
  O  O42  1  0.34490918  0.51862926  0.65208671  1
  O  O43  1  0.65509082  0.48137074  0.15208671  1
  O  O44  1  0.79686654  0.35237552  0.39330487  1
  O  O45  1  0.20313346  0.64762448  0.89330487  1
  O  O46  1  0.35237552  0.20313346  0.64330487  1
  O  O47  1  0.64762448  0.79686654  0.14330487  1
  O  O48  1  0.93387881  0.24470551  0.63094598  1
  O  O49  1  0.06612119  0.75529449  0.13094598  1
  O  O50  1  0.24470551  0.06612119  0.88094598  1
  O  O51  1  0.75529449  0.93387881  0.38094598  1
