# generated using pymatgen
data_DyAlB14
_symmetry_space_group_name_H-M   'P 1'
_cell_length_a   5.91244517
_cell_length_b   7.29319220
_cell_length_c   7.29319220
_cell_angle_alpha   68.92594814
_cell_angle_beta   66.08756054
_cell_angle_gamma   66.08756054
_symmetry_Int_Tables_number   1
_chemical_formula_structural   DyAlB14
_chemical_formula_sum   'Dy2 Al2 B28'
_cell_volume   255.54094961
_cell_formula_units_Z   2
loop_
 _symmetry_equiv_pos_site_id
 _symmetry_equiv_pos_as_xyz
  1  'x, y, z'
loop_
 _atom_site_type_symbol
 _atom_site_label
 _atom_site_symmetry_multiplicity
 _atom_site_fract_x
 _atom_site_fract_y
 _atom_site_fract_z
 _atom_site_occupancy
  Dy  Dy0  1  0.75000000  0.59845606  0.90154394  1
  Dy  Dy1  1  0.25000000  0.40154394  0.09845606  1
  Al  Al2  1  0.50000000  -0.00000000  0.50000000  1
  Al  Al3  1  -0.00000000  -0.00000000  0.50000000  1
  B  B4  1  0.16743281  0.79887379  0.86626060  1
  B  B5  1  0.83256719  0.20112621  0.13373940  1
  B  B6  1  0.66743281  0.36626060  0.29887379  1
  B  B7  1  0.33256719  0.63373940  0.70112621  1
  B  B8  1  0.64373984  0.98238736  0.73013297  1
  B  B9  1  0.35626016  0.01761264  0.26986703  1
  B  B10  1  0.14373984  0.23013297  0.48238736  1
  B  B11  1  0.85626016  0.76986703  0.51761264  1
  B  B12  1  0.59015385  0.24308328  0.57660901  1
  B  B13  1  0.40984615  0.75691672  0.42339099  1
  B  B14  1  0.09015385  0.07660901  0.74308328  1
  B  B15  1  0.90984615  0.92339099  0.25691672  1
  B  B16  1  0.89829730  0.77732479  0.10158204  1
  B  B17  1  0.77720414  0.22267521  0.89841796  1
  B  B18  1  0.39829730  0.60158204  0.27732479  1
  B  B19  1  0.27720414  0.39841796  0.72267521  1
  B  B20  1  0.10170270  0.22267521  0.89841796  1
  B  B21  1  0.22279586  0.77732479  0.10158204  1
  B  B22  1  0.60170270  0.39841796  0.72267521  1
  B  B23  1  0.72279586  0.60158204  0.27732479  1
  B  B24  1  0.33193764  0.37200970  0.46847934  1
  B  B25  1  0.17242668  0.62799030  0.53152066  1
  B  B26  1  0.83193764  0.96847934  0.87200970  1
  B  B27  1  0.67242668  0.03152066  0.12799030  1
  B  B28  1  0.66806236  0.62799030  0.53152066  1
  B  B29  1  0.82757332  0.37200970  0.46847934  1
  B  B30  1  0.16806236  0.03152066  0.12799030  1
  B  B31  1  0.32757332  0.96847934  0.87200970  1
