# generated using pymatgen
data_TbAlB14
_symmetry_space_group_name_H-M   'P 1'
_cell_length_a   5.91390424
_cell_length_b   7.30140668
_cell_length_c   7.30140668
_cell_angle_alpha   68.96952457
_cell_angle_beta   66.10988204
_cell_angle_gamma   66.10988204
_symmetry_Int_Tables_number   1
_chemical_formula_structural   TbAlB14
_chemical_formula_sum   'Tb2 Al2 B28'
_cell_volume   256.30556587
_cell_formula_units_Z   2
loop_
 _symmetry_equiv_pos_site_id
 _symmetry_equiv_pos_as_xyz
  1  'x, y, z'
loop_
 _atom_site_type_symbol
 _atom_site_label
 _atom_site_symmetry_multiplicity
 _atom_site_fract_x
 _atom_site_fract_y
 _atom_site_fract_z
 _atom_site_occupancy
  Tb  Tb0  1  0.75000000  0.59889973  0.90110027  1
  Tb  Tb1  1  0.25000000  0.40110027  0.09889973  1
  Al  Al2  1  0.50000000  -0.00000000  0.50000000  1
  Al  Al3  1  -0.00000000  -0.00000000  0.50000000  1
  B  B4  1  0.16743001  0.79892338  0.86621660  1
  B  B5  1  0.83256999  0.20107662  0.13378340  1
  B  B6  1  0.66743001  0.36621660  0.29892338  1
  B  B7  1  0.33256999  0.63378340  0.70107662  1
  B  B8  1  0.64344383  0.98327364  0.72983869  1
  B  B9  1  0.35655617  0.01672636  0.27016131  1
  B  B10  1  0.14344383  0.22983869  0.48327364  1
  B  B11  1  0.85655617  0.77016131  0.51672636  1
  B  B12  1  0.59013389  0.24332117  0.57641105  1
  B  B13  1  0.40986611  0.75667883  0.42358895  1
  B  B14  1  0.09013389  0.07641105  0.74332117  1
  B  B15  1  0.90986611  0.92358895  0.25667883  1
  B  B16  1  0.89800922  0.77768743  0.10174792  1
  B  B17  1  0.77744457  0.22231257  0.89825208  1
  B  B18  1  0.39800922  0.60174792  0.27768743  1
  B  B19  1  0.27744457  0.39825208  0.72231257  1
  B  B20  1  0.10199078  0.22231257  0.89825208  1
  B  B21  1  0.22255543  0.77768743  0.10174792  1
  B  B22  1  0.60199078  0.39825208  0.72231257  1
  B  B23  1  0.72255543  0.60174792  0.27768743  1
  B  B24  1  0.33178636  0.37202804  0.46863195  1
  B  B25  1  0.17244635  0.62797196  0.53136805  1
  B  B26  1  0.83178636  0.96863195  0.87202804  1
  B  B27  1  0.67244635  0.03136805  0.12797196  1
  B  B28  1  0.66821364  0.62797196  0.53136805  1
  B  B29  1  0.82755365  0.37202804  0.46863195  1
  B  B30  1  0.16821364  0.03136805  0.12797196  1
  B  B31  1  0.32755365  0.96863195  0.87202804  1
