# generated using pymatgen
data_ZnS
_symmetry_space_group_name_H-M   'P 1'
_cell_length_a   3.87397973
_cell_length_b   3.87397973
_cell_length_c   56.37147746
_cell_angle_alpha   88.03086268
_cell_angle_beta   88.03086268
_cell_angle_gamma   59.99999815
_symmetry_Int_Tables_number   1
_chemical_formula_structural   ZnS
_chemical_formula_sum   'Zn18 S18'
_cell_volume   732.08686497
_cell_formula_units_Z   18
loop_
 _symmetry_equiv_pos_site_id
 _symmetry_equiv_pos_as_xyz
  1  'x, y, z'
loop_
 _atom_site_type_symbol
 _atom_site_label
 _atom_site_symmetry_multiplicity
 _atom_site_fract_x
 _atom_site_fract_y
 _atom_site_fract_z
 _atom_site_occupancy
  Zn  Zn0  1  0.99999419  0.99999419  0.00001742  1
  Zn  Zn1  1  0.94444146  0.94444146  0.16667562  1
  Zn  Zn2  1  0.88888189  0.88888189  0.33335432  1
  Zn  Zn3  1  0.83333040  0.83333040  0.50000879  1
  Zn  Zn4  1  0.77777927  0.77777927  0.66666219  1
  Zn  Zn5  1  0.72221446  0.72221446  0.83335663  1
  Zn  Zn6  1  0.64815109  0.64815109  0.05554672  1
  Zn  Zn7  1  0.59258766  0.59258766  0.22223701  1
  Zn  Zn8  1  0.53703038  0.53703038  0.38890887  1
  Zn  Zn9  1  0.46296373  0.46296373  0.61110880  1
  Zn  Zn10  1  0.40740414  0.40740414  0.77778758  1
  Zn  Zn11  1  0.35184893  0.35184893  0.94445322  1
  Zn  Zn12  1  0.29629990  0.29629990  0.11110031  1
  Zn  Zn13  1  0.24073682  0.24073682  0.27778953  1
  Zn  Zn14  1  0.18518485  0.18518485  0.44444545  1
  Zn  Zn15  1  0.14814324  0.14814324  0.55557027  1
  Zn  Zn16  1  0.09258929  0.09258929  0.72223214  1
  Zn  Zn17  1  0.03703402  0.03703402  0.88889793  1
  S  S18  1  0.98611816  0.98611816  0.04164551  1
  S  S19  1  0.93056161  0.93056161  0.20831516  1
  S  S20  1  0.87501374  0.87501374  0.37495879  1
  S  S21  1  0.81944024  0.81944024  0.54167927  1
  S  S22  1  0.76389803  0.76389803  0.70830592  1
  S  S23  1  0.70834998  0.70834998  0.87495005  1
  S  S24  1  0.63426962  0.63426962  0.09719113  1
  S  S25  1  0.57871192  0.57871192  0.26386423  1
  S  S26  1  0.52316668  0.52316668  0.43049995  1
  S  S27  1  0.44908090  0.44908090  0.65275731  1
  S  S28  1  0.39353317  0.39353317  0.81940049  1
  S  S29  1  0.33796084  0.33796084  0.98611748  1
  S  S30  1  0.28241793  0.28241793  0.15274621  1
  S  S31  1  0.22686237  0.22686237  0.31941288  1
  S  S32  1  0.17132963  0.17132963  0.48601111  1
  S  S33  1  0.13426585  0.13426585  0.59720245  1
  S  S34  1  0.07871441  0.07871441  0.76385676  1
  S  S35  1  0.02317916  0.02317916  0.93046251  1
