# generated using pymatgen
data_CeH3CSO7
_symmetry_space_group_name_H-M   'P 1'
_cell_length_a   7.06726844
_cell_length_b   7.06726844
_cell_length_c   12.03962038
_cell_angle_alpha   90.00000000
_cell_angle_beta   90.00000000
_cell_angle_gamma   90.00000000
_symmetry_Int_Tables_number   1
_chemical_formula_structural   CeH3CSO7
_chemical_formula_sum   'Ce4 H12 C4 S4 O28'
_cell_volume   601.33428916
_cell_formula_units_Z   4
loop_
 _symmetry_equiv_pos_site_id
 _symmetry_equiv_pos_as_xyz
  1  'x, y, z'
loop_
 _atom_site_type_symbol
 _atom_site_label
 _atom_site_symmetry_multiplicity
 _atom_site_fract_x
 _atom_site_fract_y
 _atom_site_fract_z
 _atom_site_occupancy
  Ce  Ce0  1  0.86558843  0.60746419  0.72389421  1
  Ce  Ce1  1  0.13441157  0.39253581  0.22389421  1
  Ce  Ce2  1  0.60746419  0.13441157  0.47389421  1
  Ce  Ce3  1  0.39253581  0.86558843  0.97389421  1
  H  H4  1  0.34954427  0.52382889  0.68138995  1
  H  H5  1  0.65045573  0.47617111  0.18138995  1
  H  H6  1  0.52382889  0.65045573  0.43138995  1
  H  H7  1  0.47617111  0.34954427  0.93138995  1
  H  H8  1  0.04547029  0.88513157  0.55178308  1
  H  H9  1  0.95452971  0.11486843  0.05178308  1
  H  H10  1  0.88513157  0.95452971  0.30178308  1
  H  H11  1  0.11486843  0.04547029  0.80178308  1
  H  H12  1  0.08685107  0.68527031  0.50082889  1
  H  H13  1  0.91314893  0.31472969  0.00082889  1
  H  H14  1  0.68527031  0.91314893  0.25082889  1
  H  H15  1  0.31472969  0.08685107  0.75082889  1
  C  C16  1  0.35570390  0.60611164  0.75915228  1
  C  C17  1  0.64429610  0.39388836  0.25915228  1
  C  C18  1  0.60611164  0.64429610  0.50915228  1
  C  C19  1  0.39388836  0.35570390  0.00915228  1
  S  S20  1  0.74123626  0.11082594  0.77825788  1
  S  S21  1  0.25876374  0.88917406  0.27825788  1
  S  S22  1  0.11082594  0.25876374  0.52825788  1
  S  S23  1  0.88917406  0.74123626  0.02825788  1
  O  O24  1  0.88567864  0.96046001  0.75430212  1
  O  O25  1  0.11432136  0.03953999  0.25430212  1
  O  O26  1  0.96046001  0.11432136  0.50430212  1
  O  O27  1  0.03953999  0.88567864  0.00430212  1
  O  O28  1  0.61994599  0.04720997  0.87101416  1
  O  O29  1  0.38005401  0.95279003  0.37101416  1
  O  O30  1  0.04720997  0.38005401  0.62101416  1
  O  O31  1  0.95279003  0.61994599  0.12101416  1
  O  O32  1  0.62348623  0.14707638  0.67849934  1
  O  O33  1  0.37651377  0.85292362  0.17849934  1
  O  O34  1  0.14707638  0.37651377  0.42849934  1
  O  O35  1  0.85292362  0.62348623  0.92849934  1
  O  O36  1  0.83830456  0.28792596  0.81265101  1
  O  O37  1  0.16169544  0.71207404  0.31265101  1
  O  O38  1  0.28792596  0.16169544  0.56265101  1
  O  O39  1  0.71207404  0.83830456  0.06265101  1
  O  O40  1  0.20165884  0.64799497  0.80806713  1
  O  O41  1  0.79834116  0.35200503  0.30806713  1
  O  O42  1  0.64799497  0.79834116  0.55806713  1
  O  O43  1  0.35200503  0.20165884  0.05806713  1
  O  O44  1  0.51649005  0.65465245  0.79800525  1
  O  O45  1  0.48350995  0.34534755  0.29800525  1
  O  O46  1  0.65465245  0.48350995  0.54800525  1
  O  O47  1  0.34534755  0.51649005  0.04800525  1
  O  O48  1  0.06663469  0.75116514  0.57135469  1
  O  O49  1  0.93336531  0.24883486  0.07135469  1
  O  O50  1  0.75116514  0.93336531  0.32135469  1
  O  O51  1  0.24883486  0.06663469  0.82135469  1
