# generated using pymatgen
data_B10H18C2S
_symmetry_space_group_name_H-M   'P 1'
_cell_length_a   6.18420800
_cell_length_b   13.49338882
_cell_length_c   15.94587398
_cell_angle_alpha   90.00000000
_cell_angle_beta   90.00000000
_cell_angle_gamma   90.00000000
_symmetry_Int_Tables_number   1
_chemical_formula_structural   B10H18C2S
_chemical_formula_sum   'B40 H72 C8 S4'
_cell_volume   1330.61817370
_cell_formula_units_Z   4
loop_
 _symmetry_equiv_pos_site_id
 _symmetry_equiv_pos_as_xyz
  1  'x, y, z'
loop_
 _atom_site_type_symbol
 _atom_site_label
 _atom_site_symmetry_multiplicity
 _atom_site_fract_x
 _atom_site_fract_y
 _atom_site_fract_z
 _atom_site_occupancy
  B  B0  1  0.07808993  0.07532568  0.96508572  1
  B  B1  1  0.42191007  0.92467432  0.46508572  1
  B  B2  1  0.57808993  0.42467432  0.03491428  1
  B  B3  1  0.92191007  0.57532568  0.53491428  1
  B  B4  1  0.02127089  0.03562450  0.86214753  1
  B  B5  1  0.47872911  0.96437550  0.36214753  1
  B  B6  1  0.52127089  0.46437550  0.13785247  1
  B  B7  1  0.97872911  0.53562450  0.63785247  1
  B  B8  1  0.03152277  0.94680763  0.94364835  1
  B  B9  1  0.46847723  0.05319237  0.44364835  1
  B  B10  1  0.53152277  0.55319237  0.05635165  1
  B  B11  1  0.96847723  0.44680763  0.55635165  1
  B  B12  1  0.96095766  0.99782434  0.04368757  1
  B  B13  1  0.53904234  0.00217566  0.54368757  1
  B  B14  1  0.46095766  0.50217566  0.95631243  1
  B  B15  1  0.03904234  0.49782434  0.45631243  1
  B  B16  1  0.88916900  0.14201071  0.90320020  1
  B  B17  1  0.61083100  0.85798929  0.40320020  1
  B  B18  1  0.38916900  0.35798929  0.09679980  1
  B  B19  1  0.11083100  0.64201071  0.59679980  1
  B  B20  1  0.74781021  0.05652392  0.84013207  1
  B  B21  1  0.75218979  0.94347608  0.34013207  1
  B  B22  1  0.24781021  0.44347608  0.15986793  1
  B  B23  1  0.25218979  0.55652392  0.65986793  1
  B  B24  1  0.81502014  0.94469322  0.87554928  1
  B  B25  1  0.68497986  0.05530678  0.37554928  1
  B  B26  1  0.31502014  0.55530678  0.12445072  1
  B  B27  1  0.18497986  0.44469322  0.62445072  1
  B  B28  1  0.76434409  0.92470920  0.98661349  1
  B  B29  1  0.73565591  0.07529080  0.48661349  1
  B  B30  1  0.26434409  0.57529080  0.01338651  1
  B  B31  1  0.23565591  0.42470920  0.51338651  1
  B  B32  1  0.69074559  0.02303982  0.05561924  1
  B  B33  1  0.80925441  0.97696018  0.55561924  1
  B  B34  1  0.19074559  0.47696018  0.94438076  1
  B  B35  1  0.30925441  0.52303982  0.44438076  1
  B  B36  1  0.86813274  0.12083300  0.02709566  1
  B  B37  1  0.63186726  0.87916700  0.52709566  1
  B  B38  1  0.36813274  0.37916700  0.97290434  1
  B  B39  1  0.13186726  0.62083300  0.47290434  1
  H  H40  1  0.24702820  0.11566496  0.97867943  1
  H  H41  1  0.25297180  0.88433504  0.47867943  1
  H  H42  1  0.74702820  0.38433504  0.02132057  1
  H  H43  1  0.75297180  0.61566496  0.52132057  1
  H  H44  1  0.15684213  0.03664994  0.80847602  1
  H  H45  1  0.34315787  0.96335006  0.30847602  1
  H  H46  1  0.65684213  0.46335006  0.19152398  1
  H  H47  1  0.84315787  0.53664994  0.69152398  1
  H  H48  1  0.16362258  0.88178766  0.94614281  1
  H  H49  1  0.33637742  0.11821234  0.44614281  1
  H  H50  1  0.66362258  0.61821234  0.05385719  1
  H  H51  1  0.83637742  0.38178766  0.55385719  1
  H  H52  1  0.06254850  0.97237845  0.10381454  1
  H  H53  1  0.43745150  0.02762155  0.60381454  1
  H  H54  1  0.56254850  0.52762155  0.89618546  1
  H  H55  1  0.93745150  0.47237845  0.39618546  1
  H  H56  1  0.68159593  0.11981608  0.89904054  1
  H  H57  1  0.81840407  0.88018392  0.39904054  1
  H  H58  1  0.18159593  0.38018392  0.10095946  1
  H  H59  1  0.31840407  0.61981608  0.60095946  1
  H  H60  1  0.90861176  0.22723853  0.88421769  1
  H  H61  1  0.59138824  0.77276147  0.38421769  1
  H  H62  1  0.40861176  0.27276147  0.11578231  1
  H  H63  1  0.09138824  0.72723853  0.61578231  1
  H  H64  1  0.65767401  0.07920910  0.77643966  1
  H  H65  1  0.84232599  0.92079090  0.27643966  1
  H  H66  1  0.15767401  0.42079090  0.22356034  1
  H  H67  1  0.34232599  0.57920910  0.72356034  1
  H  H68  1  0.70811884  0.84354743  0.00819438  1
  H  H69  1  0.79188116  0.15645257  0.50819438  1
  H  H70  1  0.20811884  0.65645257  0.99180562  1
  H  H71  1  0.29188116  0.34354743  0.49180562  1
  H  H72  1  0.58570313  0.98011225  0.99289435  1
  H  H73  1  0.91429687  0.01988775  0.49289435  1
  H  H74  1  0.08570313  0.51988775  0.00710565  1
  H  H75  1  0.41429687  0.48011225  0.50710565  1
  H  H76  1  0.58570883  0.01666152  0.11804924  1
  H  H77  1  0.91429117  0.98333848  0.61804924  1
  H  H78  1  0.08570883  0.48333848  0.88195076  1
  H  H79  1  0.41429117  0.51666152  0.38195076  1
  H  H80  1  0.65309938  0.11167431  0.02192919  1
  H  H81  1  0.84690062  0.88832569  0.52192919  1
  H  H82  1  0.15309938  0.38832569  0.97807081  1
  H  H83  1  0.34690062  0.61167431  0.47807081  1
  H  H84  1  0.89320464  0.19069733  0.07194661  1
  H  H85  1  0.60679536  0.80930267  0.57194661  1
  H  H86  1  0.39320464  0.30930267  0.92805339  1
  H  H87  1  0.10679536  0.69069733  0.42805339  1
  H  H88  1  0.48117800  0.76161148  0.73999217  1
  H  H89  1  0.01882200  0.23838852  0.23999217  1
  H  H90  1  0.98117800  0.73838852  0.26000783  1
  H  H91  1  0.51882200  0.26161148  0.76000783  1
  H  H92  1  0.44454895  0.89322929  0.74873862  1
  H  H93  1  0.05545105  0.10677071  0.24873862  1
  H  H94  1  0.94454895  0.60677071  0.25126138  1
  H  H95  1  0.55545105  0.39322929  0.75126138  1
  H  H96  1  0.42261696  0.81707033  0.84100682  1
  H  H97  1  0.07738304  0.18292967  0.34100682  1
  H  H98  1  0.92261696  0.68292967  0.15899318  1
  H  H99  1  0.57738304  0.31707033  0.65899318  1
  H  H100  1  0.75930273  0.71679041  0.90311903  1
  H  H101  1  0.74069727  0.28320959  0.40311903  1
  H  H102  1  0.25930273  0.78320959  0.09688097  1
  H  H103  1  0.24069727  0.21679041  0.59688097  1
  H  H104  1  0.02766167  0.72754488  0.86072007  1
  H  H105  1  0.47233833  0.27245512  0.36072007  1
  H  H106  1  0.52766167  0.77245512  0.13927993  1
  H  H107  1  0.97233833  0.22754488  0.63927993  1
  H  H108  1  0.82162678  0.66756132  0.80041834  1
  H  H109  1  0.67837322  0.33243868  0.30041834  1
  H  H110  1  0.32162678  0.83243868  0.19958166  1
  H  H111  1  0.17837322  0.16756132  0.69958166  1
  C  C112  1  0.50390266  0.82652933  0.78043185  1
  C  C113  1  0.99609734  0.17347067  0.28043185  1
  C  C114  1  0.00390266  0.67347067  0.21956815  1
  C  C115  1  0.49609734  0.32652933  0.71956815  1
  C  C116  1  0.85472038  0.72662230  0.84586395  1
  C  C117  1  0.64527962  0.27337770  0.34586395  1
  C  C118  1  0.35472038  0.77337770  0.15413605  1
  C  C119  1  0.14527962  0.22662230  0.65413605  1
  S  S120  1  0.79056611  0.84247233  0.79576946  1
  S  S121  1  0.70943389  0.15752767  0.29576946  1
  S  S122  1  0.29056611  0.65752767  0.20423054  1
  S  S123  1  0.20943389  0.34247233  0.70423054  1
