# generated using pymatgen
data_V2S3O14
_symmetry_space_group_name_H-M   'P 1'
_cell_length_a   9.02278663
_cell_length_b   9.02278663
_cell_length_c   15.49321392
_cell_angle_alpha   90.00000000
_cell_angle_beta   90.00000000
_cell_angle_gamma   90.00000000
_symmetry_Int_Tables_number   1
_chemical_formula_structural   V2S3O14
_chemical_formula_sum   'V8 S12 O56'
_cell_volume   1261.31305847
_cell_formula_units_Z   4
loop_
 _symmetry_equiv_pos_site_id
 _symmetry_equiv_pos_as_xyz
  1  'x, y, z'
loop_
 _atom_site_type_symbol
 _atom_site_label
 _atom_site_symmetry_multiplicity
 _atom_site_fract_x
 _atom_site_fract_y
 _atom_site_fract_z
 _atom_site_occupancy
  V  V0  1  0.25414599  0.74585401  0.29729156  1
  V  V1  1  0.74585401  0.25414599  0.29729156  1
  V  V2  1  0.24585401  0.24585401  0.79729156  1
  V  V3  1  0.75414599  0.75414599  0.79729156  1
  V  V4  1  0.74585401  0.25414599  0.70270844  1
  V  V5  1  0.25414599  0.74585401  0.70270844  1
  V  V6  1  0.75414599  0.75414599  0.20270844  1
  V  V7  1  0.24585401  0.24585401  0.20270844  1
  S  S8  1  -0.00000000  0.50000000  0.25000000  1
  S  S9  1  0.50000000  -0.00000000  0.75000000  1
  S  S10  1  -0.00000000  0.50000000  0.75000000  1
  S  S11  1  0.50000000  -0.00000000  0.25000000  1
  S  S12  1  0.50000000  0.50000000  0.24937394  1
  S  S13  1  -0.00000000  0.00000000  0.74937394  1
  S  S14  1  0.50000000  0.50000000  0.75062606  1
  S  S15  1  -0.00000000  -0.00000000  0.25062606  1
  S  S16  1  0.17845024  0.82154976  0.50000000  1
  S  S17  1  0.82154976  0.17845024  0.50000000  1
  S  S18  1  0.32154976  0.32154976  -0.00000000  1
  S  S19  1  0.67845024  0.67845024  -0.00000000  1
  O  O20  1  0.25127687  0.74872313  0.19275939  1
  O  O21  1  0.74872313  0.25127687  0.19275939  1
  O  O22  1  0.24872313  0.24872313  0.69275939  1
  O  O23  1  0.75127687  0.75127687  0.69275939  1
  O  O24  1  0.74872313  0.25127687  0.80724061  1
  O  O25  1  0.25127687  0.74872313  0.80724061  1
  O  O26  1  0.75127687  0.75127687  0.30724061  1
  O  O27  1  0.24872313  0.24872313  0.30724061  1
  O  O28  1  0.25460334  0.74539666  0.42155299  1
  O  O29  1  0.74539666  0.25460334  0.42155299  1
  O  O30  1  0.24539666  0.24539666  0.92155299  1
  O  O31  1  0.75460334  0.75460334  0.92155299  1
  O  O32  1  0.74539666  0.25460334  0.57844701  1
  O  O33  1  0.25460334  0.74539666  0.57844701  1
  O  O34  1  0.75460334  0.75460334  0.07844701  1
  O  O35  1  0.24539666  0.24539666  0.07844701  1
  O  O36  1  0.40494474  0.90966933  0.30834322  1
  O  O37  1  0.59505526  0.09033067  0.30834322  1
  O  O38  1  0.09505526  0.40966933  0.80834322  1
  O  O39  1  0.90494474  0.59033067  0.80834322  1
  O  O40  1  0.59505526  0.09033067  0.69165678  1
  O  O41  1  0.40494474  0.90966933  0.69165678  1
  O  O42  1  0.90494474  0.59033067  0.19165678  1
  O  O43  1  0.09505526  0.40966933  0.19165678  1
  O  O44  1  0.90966933  0.40494474  0.30834322  1
  O  O45  1  0.09033067  0.59505526  0.30834322  1
  O  O46  1  0.40966933  0.09505526  0.80834322  1
  O  O47  1  0.59033067  0.90494474  0.80834322  1
  O  O48  1  0.09033067  0.59505526  0.69165678  1
  O  O49  1  0.90966933  0.40494474  0.69165678  1
  O  O50  1  0.59033067  0.90494474  0.19165678  1
  O  O51  1  0.40966933  0.09505526  0.19165678  1
  O  O52  1  0.40782024  0.59217976  0.30958070  1
  O  O53  1  0.59217976  0.40782024  0.30958070  1
  O  O54  1  0.09217976  0.09217976  0.80958070  1
  O  O55  1  0.90782024  0.90782024  0.80958070  1
  O  O56  1  0.59217976  0.40782024  0.69041930  1
  O  O57  1  0.40782024  0.59217976  0.69041930  1
  O  O58  1  0.90782024  0.90782024  0.19041930  1
  O  O59  1  0.09217976  0.09217976  0.19041930  1
  O  O60  1  0.09314327  0.90685673  0.30686888  1
  O  O61  1  0.90685673  0.09314327  0.30686888  1
  O  O62  1  0.40685673  0.40685673  0.80686888  1
  O  O63  1  0.59314327  0.59314327  0.80686888  1
  O  O64  1  0.90685673  0.09314327  0.69313112  1
  O  O65  1  0.09314327  0.90685673  0.69313112  1
  O  O66  1  0.59314327  0.59314327  0.19313112  1
  O  O67  1  0.40685673  0.40685673  0.19313112  1
  O  O68  1  0.02506699  0.77901561  0.50000000  1
  O  O69  1  0.97493301  0.22098439  0.50000000  1
  O  O70  1  0.47493301  0.27901561  0.00000000  1
  O  O71  1  0.52506699  0.72098439  0.00000000  1
  O  O72  1  0.77901561  0.02506699  0.50000000  1
  O  O73  1  0.22098439  0.97493301  0.50000000  1
  O  O74  1  0.27901561  0.47493301  0.00000000  1
  O  O75  1  0.72098439  0.52506699  0.00000000  1
