# generated using pymatgen
data_PH14C4NO4
_symmetry_space_group_name_H-M   'P 1'
_cell_length_a   8.47431133
_cell_length_b   9.06066847
_cell_length_c   12.07408743
_cell_angle_alpha   85.95903655
_cell_angle_beta   83.30550785
_cell_angle_gamma   79.48783316
_symmetry_Int_Tables_number   1
_chemical_formula_structural   PH14C4NO4
_chemical_formula_sum   'P4 H56 C16 N4 O16'
_cell_volume   904.15901693
_cell_formula_units_Z   4
loop_
 _symmetry_equiv_pos_site_id
 _symmetry_equiv_pos_as_xyz
  1  'x, y, z'
loop_
 _atom_site_type_symbol
 _atom_site_label
 _atom_site_symmetry_multiplicity
 _atom_site_fract_x
 _atom_site_fract_y
 _atom_site_fract_z
 _atom_site_occupancy
  P  P0  1  0.83061367  0.62350139  0.39613707  1
  P  P1  1  0.16938633  0.37649861  0.60386293  1
  P  P2  1  0.31362759  0.09627765  0.88799659  1
  P  P3  1  0.68637241  0.90372235  0.11200341  1
  H  H4  1  0.89813159  0.69166420  0.21749682  1
  H  H5  1  0.10186841  0.30833580  0.78250318  1
  H  H6  1  0.00492599  0.64154183  0.51483954  1
  H  H7  1  0.99507401  0.35845817  0.48516046  1
  H  H8  1  0.35376540  0.13485487  0.70558851  1
  H  H9  1  0.64623460  0.86514513  0.29441149  1
  H  H10  1  0.53730842  0.12209487  0.96300310  1
  H  H11  1  0.46269158  0.87790513  0.03699690  1
  H  H12  1  0.69449182  0.54347673  0.01396298  1
  H  H13  1  0.30550818  0.45652327  0.98603702  1
  H  H14  1  0.82845789  0.42163183  0.92118943  1
  H  H15  1  0.17154211  0.57836817  0.07881057  1
  H  H16  1  0.65629494  0.35966672  0.99540921  1
  H  H17  1  0.34370506  0.64033328  0.00459079  1
  H  H18  1  0.77361548  0.36681584  0.17689613  1
  H  H19  1  0.22638452  0.63318416  0.82310387  1
  H  H20  1  0.94258566  0.43290425  0.10445160  1
  H  H21  1  0.05741434  0.56709575  0.89554840  1
  H  H22  1  0.84164934  0.14562174  0.06183008  1
  H  H23  1  0.15835066  0.85437826  0.93816992  1
  H  H24  1  0.01718590  0.20480650  0.00893347  1
  H  H25  1  0.98281410  0.79519350  0.99106653  1
  H  H26  1  0.05188045  0.01450648  0.15879614  1
  H  H27  1  0.94811955  0.98549352  0.84120386  1
  H  H28  1  0.91065951  0.13403360  0.24809332  1
  H  H29  1  0.08934049  0.86596640  0.75190668  1
  H  H30  1  0.19689941  0.14629839  0.27923604  1
  H  H31  1  0.80310059  0.85370161  0.72076396  1
  H  H32  1  0.23743570  0.20701192  0.13741767  1
  H  H33  1  0.76256430  0.79298808  0.86258233  1
  H  H34  1  0.09754236  0.32363739  0.23154285  1
  H  H35  1  0.90245764  0.67636261  0.76845715  1
  H  H36  1  0.79202201  0.98513533  0.53162159  1
  H  H37  1  0.20797799  0.01486467  0.46837841  1
  H  H38  1  0.60528750  0.09616244  0.50138762  1
  H  H39  1  0.39471250  0.90383756  0.49861238  1
  H  H40  1  0.79071856  0.15362102  0.44705872  1
  H  H41  1  0.20928144  0.84637898  0.55294128  1
  H  H42  1  0.66226552  0.13646934  0.69695119  1
  H  H43  1  0.33773448  0.86353066  0.30304881  1
  H  H44  1  0.84755674  0.19486210  0.64135813  1
  H  H45  1  0.15244326  0.80513790  0.35864187  1
  H  H46  1  0.51725545  0.33790650  0.59615695  1
  H  H47  1  0.48274455  0.66209350  0.40384305  1
  H  H48  1  0.69579847  0.39704305  0.53806670  1
  H  H49  1  0.30420153  0.60295695  0.46193330  1
  H  H50  1  0.56906379  0.38141419  0.77791877  1
  H  H51  1  0.43093621  0.61858581  0.22208123  1
  H  H52  1  0.75612907  0.43555062  0.72289211  1
  H  H53  1  0.24387093  0.56444938  0.27710789  1
  H  H54  1  0.53866817  0.66359324  0.75813567  1
  H  H55  1  0.46133183  0.33640676  0.24186433  1
  H  H56  1  0.60685903  0.65489617  0.61413136  1
  H  H57  1  0.39314097  0.34510383  0.38586864  1
  H  H58  1  0.41946878  0.59930824  0.66605895  1
  H  H59  1  0.58053122  0.40069176  0.33394105  1
  C  C60  1  0.75094452  0.42618732  0.00088011  1
  C  C61  1  0.24905548  0.57381268  0.99911989  1
  C  C62  1  0.84928816  0.36627505  0.09650100  1
  C  C63  1  0.15071184  0.63372495  0.90349900  1
  C  C64  1  0.00760464  0.13200808  0.17891701  1
  C  C65  1  0.99239536  0.86799192  0.82108299  1
  C  C66  1  0.14236143  0.20765658  0.20761342  1
  C  C67  1  0.85763857  0.79234342  0.79238658  1
  C  C68  1  0.72811391  0.10090940  0.51988661  1
  C  C69  1  0.27188609  0.89909060  0.48011339  1
  C  C70  1  0.72523376  0.18753164  0.62346883  1
  C  C71  1  0.27476624  0.81246836  0.37653117  1
  C  C72  1  0.63079755  0.43818415  0.70671620  1
  C  C73  1  0.36920245  0.56181585  0.29328380  1
  C  C74  1  0.54382913  0.59776216  0.68440887  1
  C  C75  1  0.45617087  0.40223784  0.31559113  1
  N  N76  1  0.92978140  0.20719929  0.07959271  1
  N  N77  1  0.07021860  0.79280071  0.92040729  1
  N  N78  1  0.63688873  0.34525382  0.60828914  1
  N  N79  1  0.36311127  0.65474618  0.39171086  1
  O  O80  1  0.66560116  0.71750230  0.38093996  1
  O  O81  1  0.33439884  0.28249770  0.61906004  1
  O  O82  1  0.83237590  0.46041247  0.43924272  1
  O  O83  1  0.16762410  0.53958753  0.56075728  1
  O  O84  1  0.94322600  0.62074027  0.28041489  1
  O  O85  1  0.05677400  0.37925973  0.71958511  1
  O  O86  1  0.91114059  0.70770057  0.48058125  1
  O  O87  1  0.08885941  0.29229943  0.51941875  1
  O  O88  1  0.15460855  0.20818172  0.89054550  1
  O  O89  1  0.84539145  0.79181828  0.10945450  1
  O  O90  1  0.30876680  0.95326250  0.96223843  1
  O  O91  1  0.69123320  0.04673750  0.03776157  1
  O  O92  1  0.36927272  0.04737260  0.76320000  1
  O  O93  1  0.63072728  0.95262740  0.23680000  1
  O  O94  1  0.44631686  0.18360867  0.92368373  1
  O  O95  1  0.55368314  0.81639133  0.07631627  1
