# generated using pymatgen
data_InH12C4Se2I3
_symmetry_space_group_name_H-M   'P 1'
_cell_length_a   8.53806891
_cell_length_b   8.77015782
_cell_length_c   25.57905001
_cell_angle_alpha   90.00000000
_cell_angle_beta   90.09600340
_cell_angle_gamma   90.00000000
_symmetry_Int_Tables_number   1
_chemical_formula_structural   InH12C4Se2I3
_chemical_formula_sum   'In4 H48 C16 Se8 I12'
_cell_volume   1915.36199345
_cell_formula_units_Z   4
loop_
 _symmetry_equiv_pos_site_id
 _symmetry_equiv_pos_as_xyz
  1  'x, y, z'
loop_
 _atom_site_type_symbol
 _atom_site_label
 _atom_site_symmetry_multiplicity
 _atom_site_fract_x
 _atom_site_fract_y
 _atom_site_fract_z
 _atom_site_occupancy
  In  In0  1  0.32997964  0.35579388  0.62270630  1
  In  In1  1  0.67002036  0.85579388  0.87729370  1
  In  In2  1  0.67002036  0.64420612  0.37729370  1
  In  In3  1  0.32997964  0.14420612  0.12270630  1
  H  H4  1  0.01617711  0.73951670  0.65358475  1
  H  H5  1  0.98382289  0.23951670  0.84641525  1
  H  H6  1  0.98382289  0.26048330  0.34641525  1
  H  H7  1  0.01617711  0.76048330  0.15358475  1
  H  H8  1  0.22150699  0.77273809  0.64242283  1
  H  H9  1  0.77849301  0.27273809  0.85757717  1
  H  H10  1  0.77849301  0.22726191  0.35757717  1
  H  H11  1  0.22150699  0.72726191  0.14242283  1
  H  H12  1  0.07802432  0.86274812  0.60127929  1
  H  H13  1  0.92197568  0.36274812  0.89872071  1
  H  H14  1  0.92197568  0.13725188  0.39872071  1
  H  H15  1  0.07802432  0.63725188  0.10127929  1
  H  H16  1  0.25005966  0.57703789  0.49170027  1
  H  H17  1  0.74994034  0.07703789  0.00829973  1
  H  H18  1  0.74994034  0.42296211  0.50829973  1
  H  H19  1  0.25005966  0.92296211  0.99170027  1
  H  H20  1  0.33933312  0.71597709  0.53397782  1
  H  H21  1  0.66066688  0.21597709  0.96602218  1
  H  H22  1  0.66066688  0.28402291  0.46602218  1
  H  H23  1  0.33933312  0.78402291  0.03397782  1
  H  H24  1  0.15923229  0.76007001  0.49990692  1
  H  H25  1  0.84076771  0.26007001  0.00009308  1
  H  H26  1  0.84076771  0.23992999  0.50009308  1
  H  H27  1  0.15923229  0.73992999  0.99990692  1
  H  H28  1  0.53166477  0.22536908  0.76078540  1
  H  H29  1  0.46833523  0.72536908  0.73921460  1
  H  H30  1  0.46833523  0.77463092  0.23921460  1
  H  H31  1  0.53166477  0.27463092  0.26078540  1
  H  H32  1  0.72131419  0.15145007  0.74456537  1
  H  H33  1  0.27868581  0.65145007  0.75543463  1
  H  H34  1  0.27868581  0.84854993  0.25543463  1
  H  H35  1  0.72131419  0.34854993  0.24456537  1
  H  H36  1  0.65820603  0.33214877  0.71769975  1
  H  H37  1  0.34179397  0.83214877  0.78230025  1
  H  H38  1  0.34179397  0.66785123  0.28230025  1
  H  H39  1  0.65820603  0.16785123  0.21769975  1
  H  H40  1  0.67784890  0.04743135  0.58967329  1
  H  H41  1  0.32215110  0.54743135  0.91032671  1
  H  H42  1  0.32215110  0.95256865  0.41032671  1
  H  H43  1  0.67784890  0.45256865  0.08967329  1
  H  H44  1  0.79535398  0.01064106  0.64668591  1
  H  H45  1  0.20464602  0.51064106  0.85331409  1
  H  H46  1  0.20464602  0.98935894  0.35331409  1
  H  H47  1  0.79535398  0.48935894  0.14668591  1
  H  H48  1  0.77226493  0.20291608  0.62323416  1
  H  H49  1  0.22773507  0.70291608  0.87676584  1
  H  H50  1  0.22773507  0.79708392  0.37676584  1
  H  H51  1  0.77226493  0.29708392  0.12323416  1
  C  C52  1  0.22845529  0.67071672  0.51903886  1
  C  C53  1  0.77154471  0.17071672  0.98096114  1
  C  C54  1  0.77154471  0.32928328  0.48096114  1
  C  C55  1  0.22845529  0.82928328  0.01903886  1
  C  C56  1  0.10624689  0.76047322  0.62402842  1
  C  C57  1  0.89375311  0.26047322  0.87597158  1
  C  C58  1  0.89375311  0.23952678  0.37597158  1
  C  C59  1  0.10624689  0.73952678  0.12402842  1
  C  C60  1  0.71572411  0.09155864  0.62763718  1
  C  C61  1  0.28427589  0.59155864  0.87236282  1
  C  C62  1  0.28427589  0.90844136  0.37236282  1
  C  C63  1  0.71572411  0.40844136  0.12763718  1
  C  C64  1  0.62134185  0.21837669  0.73042517  1
  C  C65  1  0.37865815  0.71837669  0.76957483  1
  C  C66  1  0.37865815  0.78162331  0.26957483  1
  C  C67  1  0.62134185  0.28162331  0.23042517  1
  Se  Se68  1  0.10531957  0.58365164  0.57658139  1
  Se  Se69  1  0.89468043  0.08365164  0.92341861  1
  Se  Se70  1  0.89468043  0.41634836  0.42341861  1
  Se  Se71  1  0.10531957  0.91634836  0.07658139  1
  Se  Se72  1  0.52663430  0.11049854  0.67099994  1
  Se  Se73  1  0.47336570  0.61049854  0.82900006  1
  Se  Se74  1  0.47336570  0.88950146  0.32900006  1
  Se  Se75  1  0.52663430  0.38950146  0.17099994  1
  I  I76  1  0.57241999  0.56184370  0.62410337  1
  I  I77  1  0.42758001  0.06184370  0.87589663  1
  I  I78  1  0.42758001  0.43815630  0.37589663  1
  I  I79  1  0.57241999  0.93815630  0.12410337  1
  I  I80  1  0.27712853  0.17453515  0.53646685  1
  I  I81  1  0.72287147  0.67453515  0.96353315  1
  I  I82  1  0.72287147  0.82546485  0.46353315  1
  I  I83  1  0.27712853  0.32546485  0.03646685  1
  I  I84  1  0.13042256  0.32205889  0.70679368  1
  I  I85  1  0.86957744  0.82205889  0.79320632  1
  I  I86  1  0.86957744  0.67794111  0.29320632  1
  I  I87  1  0.13042256  0.17794111  0.20679368  1
