# generated using pymatgen
data_Bi2O3
_symmetry_space_group_name_H-M   'P 1'
_cell_length_a   9.70354149
_cell_length_b   9.70354149
_cell_length_c   9.70354149
_cell_angle_alpha   109.47122063
_cell_angle_beta   109.47122063
_cell_angle_gamma   109.47122063
_symmetry_Int_Tables_number   1
_chemical_formula_structural   Bi2O3
_chemical_formula_sum   'Bi16 O24'
_cell_volume   703.34581931
_cell_formula_units_Z   8
loop_
 _symmetry_equiv_pos_site_id
 _symmetry_equiv_pos_as_xyz
  1  'x, y, z'
loop_
 _atom_site_type_symbol
 _atom_site_label
 _atom_site_symmetry_multiplicity
 _atom_site_fract_x
 _atom_site_fract_y
 _atom_site_fract_z
 _atom_site_occupancy
  Bi  Bi0  1  0.00000000  0.50000000  0.00000000  1
  Bi  Bi1  1  0.00000000  0.00000000  0.50000000  1
  Bi  Bi2  1  0.50000000  0.00000000  -0.00000000  1
  Bi  Bi3  1  0.50000000  0.50000000  0.50000000  1
  Bi  Bi4  1  0.27764896  0.75000000  0.52764896  1
  Bi  Bi5  1  0.22235104  0.25000000  0.97235104  1
  Bi  Bi6  1  0.75000000  0.52764896  0.27764896  1
  Bi  Bi7  1  0.25000000  0.97235104  0.22235104  1
  Bi  Bi8  1  0.52764896  0.27764896  0.75000000  1
  Bi  Bi9  1  0.97235104  0.22235104  0.25000000  1
  Bi  Bi10  1  0.72235104  0.25000000  0.47235104  1
  Bi  Bi11  1  0.77764896  0.75000000  0.02764896  1
  Bi  Bi12  1  0.25000000  0.47235104  0.72235104  1
  Bi  Bi13  1  0.75000000  0.02764896  0.77764896  1
  Bi  Bi14  1  0.47235104  0.72235104  0.25000000  1
  Bi  Bi15  1  0.02764896  0.77764896  0.75000000  1
  O  O16  1  0.53217157  0.55056603  0.77427009  1
  O  O17  1  0.72370406  0.94943397  0.98160554  1
  O  O18  1  0.96782843  0.24209852  0.51839446  1
  O  O19  1  0.77629594  0.25790148  0.72572991  1
  O  O20  1  0.55056603  0.77427009  0.53217157  1
  O  O21  1  0.94943397  0.98160554  0.72370406  1
  O  O22  1  0.24209852  0.51839446  0.96782843  1
  O  O23  1  0.25790148  0.72572991  0.77629594  1
  O  O24  1  0.77427009  0.53217157  0.55056603  1
  O  O25  1  0.98160554  0.72370406  0.94943397  1
  O  O26  1  0.51839446  0.96782843  0.24209852  1
  O  O27  1  0.72572991  0.77629594  0.25790148  1
  O  O28  1  0.46782843  0.44943397  0.22572991  1
  O  O29  1  0.27629594  0.05056603  0.01839446  1
  O  O30  1  0.03217157  0.75790148  0.48160554  1
  O  O31  1  0.22370406  0.74209852  0.27427009  1
  O  O32  1  0.44943397  0.22572991  0.46782843  1
  O  O33  1  0.05056603  0.01839446  0.27629594  1
  O  O34  1  0.75790148  0.48160554  0.03217157  1
  O  O35  1  0.74209852  0.27427009  0.22370406  1
  O  O36  1  0.22572991  0.46782843  0.44943397  1
  O  O37  1  0.01839446  0.27629594  0.05056603  1
  O  O38  1  0.48160554  0.03217157  0.75790148  1
  O  O39  1  0.27427009  0.22370406  0.74209852  1
