# generated using pymatgen
data_Ba3Ge9O22
_symmetry_space_group_name_H-M   'P 1'
_cell_length_a   4.79990448
_cell_length_b   13.48833241
_cell_length_c   15.45004228
_cell_angle_alpha   106.84415211
_cell_angle_beta   90.00000000
_cell_angle_gamma   90.00000000
_symmetry_Int_Tables_number   1
_chemical_formula_structural   Ba3Ge9O22
_chemical_formula_sum   'Ba6 Ge18 O44'
_cell_volume   957.36214038
_cell_formula_units_Z   2
loop_
 _symmetry_equiv_pos_site_id
 _symmetry_equiv_pos_as_xyz
  1  'x, y, z'
loop_
 _atom_site_type_symbol
 _atom_site_label
 _atom_site_symmetry_multiplicity
 _atom_site_fract_x
 _atom_site_fract_y
 _atom_site_fract_z
 _atom_site_occupancy
  Ba  Ba0  1  0.05059186  0.13013162  0.88656921  1
  Ba  Ba1  1  0.05059186  0.86986838  0.11343079  1
  Ba  Ba2  1  0.02417281  0.24441462  0.50054308  1
  Ba  Ba3  1  0.02417281  0.75558538  0.49945692  1
  Ba  Ba4  1  0.98903825  0.37071576  0.11531231  1
  Ba  Ba5  1  0.98903825  0.62928424  0.88468769  1
  Ge  Ge6  1  0.52895868  0.38655085  0.91908505  1
  Ge  Ge7  1  0.52895868  0.61344915  0.08091495  1
  Ge  Ge8  1  0.53411307  0.18060706  0.69290812  1
  Ge  Ge9  1  0.53411307  0.81939294  0.30709188  1
  Ge  Ge10  1  0.54397494  0.44912307  0.69091211  1
  Ge  Ge11  1  0.54397494  0.55087693  0.30908789  1
  Ge  Ge12  1  0.51854159  0.04968744  0.30675090  1
  Ge  Ge13  1  0.51854159  0.95031256  0.69324910  1
  Ge  Ge14  1  0.52020928  0.11318868  0.08148460  1
  Ge  Ge15  1  0.52020928  0.88681132  0.91851540  1
  Ge  Ge16  1  0.52623988  0.31982453  0.30931952  1
  Ge  Ge17  1  0.52623988  0.68017547  0.69068048  1
  Ge  Ge18  1  0.04162569  0.34115992  0.77013348  1
  Ge  Ge19  1  0.04162569  0.65884008  0.22986652  1
  Ge  Ge20  1  0.01931252  0.15882318  0.23054541  1
  Ge  Ge21  1  0.01931252  0.84117682  0.76945459  1
  Ge  Ge22  1  0.46813517  -0.00000000  0.50000000  1
  Ge  Ge23  1  0.60185315  0.50000000  0.50000000  1
  O  O24  1  0.37492612  0.06975031  0.41616890  1
  O  O25  1  0.37492612  0.93024969  0.58383110  1
  O  O26  1  0.38775333  0.42387708  0.27055762  1
  O  O27  1  0.38775333  0.57612292  0.72944238  1
  O  O28  1  0.67337967  0.07726973  0.73256238  1
  O  O29  1  0.67337967  0.92273027  0.26743762  1
  O  O30  1  0.36278386  -0.00000000  -0.00000000  1
  O  O31  1  0.68660710  0.50000000  -0.00000000  1
  O  O32  1  0.36496520  0.31304930  0.98452677  1
  O  O33  1  0.36496520  0.68695070  0.01547323  1
  O  O34  1  0.67140260  0.18939415  0.01639208  1
  O  O35  1  0.67140260  0.81060585  0.98360792  1
  O  O36  1  0.80991587  0.45571798  0.77212530  1
  O  O37  1  0.80991587  0.54428202  0.22787470  1
  O  O38  1  0.25173295  0.04297874  0.22562970  1
  O  O39  1  0.25173295  0.95702126  0.77437030  1
  O  O40  1  0.81572892  0.31138758  0.86408729  1
  O  O41  1  0.81572892  0.68861242  0.13591271  1
  O  O42  1  0.23641665  0.18963234  0.13718299  1
  O  O43  1  0.23641665  0.81036766  0.86281701  1
  O  O44  1  0.81790492  0.25571882  0.67654082  1
  O  O45  1  0.81790492  0.74428118  0.32345918  1
  O  O46  1  0.24976632  0.24124181  0.32498855  1
  O  O47  1  0.24976632  0.75875819  0.67501145  1
  O  O48  1  0.27307834  0.22872905  0.77581337  1
  O  O49  1  0.27307834  0.77127095  0.22418663  1
  O  O50  1  0.78760524  0.27146390  0.22691161  1
  O  O51  1  0.78760524  0.72853610  0.77308839  1
  O  O52  1  0.27215139  0.43631591  0.86011174  1
  O  O53  1  0.27215139  0.56368409  0.13988826  1
  O  O54  1  0.78222780  0.06467560  0.13949583  1
  O  O55  1  0.78222780  0.93532440  0.86050417  1
  O  O56  1  0.27472098  0.35696689  0.67441370  1
  O  O57  1  0.27472098  0.64303311  0.32558630  1
  O  O58  1  0.79322547  0.14000225  0.32544032  1
  O  O59  1  0.79322547  0.85999775  0.67455968  1
  O  O60  1  0.39767681  0.13043052  0.58216044  1
  O  O61  1  0.39767681  0.86956948  0.41783956  1
  O  O62  1  0.22051689  0.50000000  0.50000000  1
  O  O63  1  0.67168662  0.36972625  0.41853843  1
  O  O64  1  0.67168662  0.63027375  0.58146157  1
  O  O65  1  0.69838457  0.57031507  0.41678626  1
  O  O66  1  0.69838457  0.42968493  0.58321374  1
  O  O67  1  0.85224716  -0.00000000  0.50000000  1
