# generated using pymatgen
data_TiH3CO5
_symmetry_space_group_name_H-M   'P 1'
_cell_length_a   9.68387705
_cell_length_b   9.68387705
_cell_length_c   9.45715716
_cell_angle_alpha   90.00000000
_cell_angle_beta   90.00000000
_cell_angle_gamma   111.13242088
_symmetry_Int_Tables_number   1
_chemical_formula_structural   TiH3CO5
_chemical_formula_sum   'Ti8 H24 C8 O40'
_cell_volume   827.22613998
_cell_formula_units_Z   8
loop_
 _symmetry_equiv_pos_site_id
 _symmetry_equiv_pos_as_xyz
  1  'x, y, z'
loop_
 _atom_site_type_symbol
 _atom_site_label
 _atom_site_symmetry_multiplicity
 _atom_site_fract_x
 _atom_site_fract_y
 _atom_site_fract_z
 _atom_site_occupancy
  Ti  Ti0  1  0.04041640  0.67200771  0.09933309  1
  Ti  Ti1  1  0.32799229  0.95958360  0.90066691  1
  Ti  Ti2  1  0.82799229  0.45958360  0.59933309  1
  Ti  Ti3  1  0.54041640  0.17200771  0.40066691  1
  Ti  Ti4  1  0.95958360  0.32799229  0.90066691  1
  Ti  Ti5  1  0.67200771  0.04041640  0.09933309  1
  Ti  Ti6  1  0.17200771  0.54041640  0.40066691  1
  Ti  Ti7  1  0.45958360  0.82799229  0.59933309  1
  H  H8  1  0.79008886  0.57162535  0.28578252  1
  H  H9  1  0.42837465  0.20991114  0.71421748  1
  H  H10  1  0.92837465  0.70991114  0.78578252  1
  H  H11  1  0.29008886  0.07162535  0.21421748  1
  H  H12  1  0.20991114  0.42837465  0.71421748  1
  H  H13  1  0.57162535  0.79008886  0.28578252  1
  H  H14  1  0.07162535  0.29008886  0.21421748  1
  H  H15  1  0.70991114  0.92837465  0.78578252  1
  H  H16  1  0.75067731  0.48358546  0.13367731  1
  H  H17  1  0.51641454  0.24932269  0.86632269  1
  H  H18  1  0.01641454  0.74932269  0.63367731  1
  H  H19  1  0.25067731  0.98358546  0.36632269  1
  H  H20  1  0.24932269  0.51641454  0.86632269  1
  H  H21  1  0.48358546  0.75067731  0.13367731  1
  H  H22  1  0.98358546  0.25067731  0.36632269  1
  H  H23  1  0.74932269  0.01641454  0.63367731  1
  H  H24  1  0.03018554  0.88680218  0.42893730  1
  H  H25  1  0.11319782  0.96981446  0.57106270  1
  H  H26  1  0.61319782  0.46981446  0.92893730  1
  H  H27  1  0.53018554  0.38680218  0.07106270  1
  H  H28  1  0.96981446  0.11319782  0.57106270  1
  H  H29  1  0.88680218  0.03018554  0.42893730  1
  H  H30  1  0.38680218  0.53018554  0.07106270  1
  H  H31  1  0.46981446  0.61319782  0.92893730  1
  C  C32  1  0.89532048  0.89532048  0.16287774  1
  C  C33  1  0.10467952  0.10467952  0.83712226  1
  C  C34  1  0.60467952  0.60467952  0.66287774  1
  C  C35  1  0.39532048  0.39532048  0.33712226  1
  C  C36  1  0.83665710  0.83665710  0.01466540  1
  C  C37  1  0.16334290  0.16334290  0.98533460  1
  C  C38  1  0.66334290  0.66334290  0.51466540  1
  C  C39  1  0.33665710  0.33665710  0.48533460  1
  O  O40  1  0.98861577  0.84738594  0.21793536  1
  O  O41  1  0.15261406  0.01138423  0.78206464  1
  O  O42  1  0.65261406  0.51138423  0.71793536  1
  O  O43  1  0.48861577  0.34738594  0.28206464  1
  O  O44  1  0.01138423  0.15261406  0.78206464  1
  O  O45  1  0.84738594  0.98861577  0.21793536  1
  O  O46  1  0.34738594  0.48861577  0.28206464  1
  O  O47  1  0.51138423  0.65261406  0.71793536  1
  O  O48  1  0.88708864  0.74492101  0.96031420  1
  O  O49  1  0.25507899  0.11291136  0.03968580  1
  O  O50  1  0.75507899  0.61291136  0.46031420  1
  O  O51  1  0.38708864  0.24492101  0.53968580  1
  O  O52  1  0.11291136  0.25507899  0.03968580  1
  O  O53  1  0.74492101  0.88708864  0.96031420  1
  O  O54  1  0.24492101  0.38708864  0.53968580  1
  O  O55  1  0.61291136  0.75507899  0.46031420  1
  O  O56  1  0.14404333  0.64404333  0.25000000  1
  O  O57  1  0.35595667  0.85595667  0.75000000  1
  O  O58  1  0.85595667  0.35595667  0.75000000  1
  O  O59  1  0.64404333  0.14404333  0.25000000  1
  O  O60  1  0.00000000  0.50000000  0.00000000  1
  O  O61  1  0.50000000  0.00000000  0.00000000  1
  O  O62  1  0.00000000  0.50000000  0.50000000  1
  O  O63  1  0.50000000  0.00000000  0.50000000  1
  O  O64  1  0.18799513  0.81200487  0.00000000  1
  O  O65  1  0.68799513  0.31200487  0.50000000  1
  O  O66  1  0.81200487  0.18799513  0.00000000  1
  O  O67  1  0.31200487  0.68799513  0.50000000  1
  O  O68  1  0.82823822  0.55416171  0.19351301  1
  O  O69  1  0.44583829  0.17176178  0.80648699  1
  O  O70  1  0.94583829  0.67176178  0.69351301  1
  O  O71  1  0.32823822  0.05416171  0.30648699  1
  O  O72  1  0.17176178  0.44583829  0.80648699  1
  O  O73  1  0.55416171  0.82823822  0.19351301  1
  O  O74  1  0.05416171  0.32823822  0.30648699  1
  O  O75  1  0.67176178  0.94583829  0.69351301  1
  O  O76  1  0.10631935  0.89368065  0.50000000  1
  O  O77  1  0.60631935  0.39368065  0.00000000  1
  O  O78  1  0.89368065  0.10631935  0.50000000  1
  O  O79  1  0.39368065  0.60631935  0.00000000  1
