# generated using pymatgen
data_KAlBP2O9
_symmetry_space_group_name_H-M   'P 1'
_cell_length_a   8.28986437
_cell_length_b   9.38822900
_cell_length_c   9.42808005
_cell_angle_alpha   103.03805948
_cell_angle_beta   90.00000000
_cell_angle_gamma   90.00000000
_symmetry_Int_Tables_number   1
_chemical_formula_structural   KAlBP2O9
_chemical_formula_sum   'K4 Al4 B4 P8 O36'
_cell_volume   714.84451736
_cell_formula_units_Z   4
loop_
 _symmetry_equiv_pos_site_id
 _symmetry_equiv_pos_as_xyz
  1  'x, y, z'
loop_
 _atom_site_type_symbol
 _atom_site_label
 _atom_site_symmetry_multiplicity
 _atom_site_fract_x
 _atom_site_fract_y
 _atom_site_fract_z
 _atom_site_occupancy
  K  K0  1  0.09627690  0.80025180  0.93015509  1
  K  K1  1  0.59627690  0.19974820  0.56984491  1
  K  K2  1  0.90372310  0.19974820  0.06984491  1
  K  K3  1  0.40372310  0.80025180  0.43015509  1
  Al  Al4  1  0.65206966  0.79322520  0.06534438  1
  Al  Al5  1  0.15206966  0.20677480  0.43465562  1
  Al  Al6  1  0.34793034  0.20677480  0.93465562  1
  Al  Al7  1  0.84793034  0.79322520  0.56534438  1
  B  B8  1  0.05740861  0.66562270  0.30728931  1
  B  B9  1  0.55740861  0.33437730  0.19271069  1
  B  B10  1  0.94259139  0.33437730  0.69271069  1
  B  B11  1  0.44259139  0.66562270  0.80728931  1
  P  P12  1  0.93385644  0.93089064  0.29532230  1
  P  P13  1  0.43385644  0.06910936  0.20467770  1
  P  P14  1  0.06614356  0.06910936  0.70467770  1
  P  P15  1  0.56614356  0.93089064  0.79532230  1
  P  P16  1  0.74098505  0.58181754  0.27606732  1
  P  P17  1  0.24098505  0.41818246  0.22393268  1
  P  P18  1  0.25901495  0.41818246  0.72393268  1
  P  P19  1  0.75901495  0.58181754  0.77606732  1
  O  O20  1  0.51138504  0.91968925  0.19378722  1
  O  O21  1  0.01138504  0.08031075  0.30621278  1
  O  O22  1  0.48861496  0.08031075  0.80621278  1
  O  O23  1  0.98861496  0.91968925  0.69378722  1
  O  O24  1  0.83535921  0.91955338  0.42963560  1
  O  O25  1  0.33535921  0.08044662  0.07036440  1
  O  O26  1  0.16464079  0.08044662  0.57036440  1
  O  O27  1  0.66464079  0.91955338  0.92963560  1
  O  O28  1  0.83992961  0.89104224  0.15161894  1
  O  O29  1  0.33992961  0.10895776  0.34838106  1
  O  O30  1  0.16007039  0.10895776  0.84838106  1
  O  O31  1  0.66007039  0.89104224  0.65161894  1
  O  O32  1  0.08087097  0.81429810  0.27644915  1
  O  O33  1  0.58087097  0.18570190  0.22355085  1
  O  O34  1  0.91912903  0.18570190  0.72355085  1
  O  O35  1  0.41912903  0.81429810  0.77644915  1
  O  O36  1  0.04150785  0.70529326  0.46418464  1
  O  O37  1  0.54150785  0.29470674  0.03581536  1
  O  O38  1  0.95849215  0.29470674  0.53581536  1
  O  O39  1  0.45849215  0.70529326  0.96418464  1
  O  O40  1  0.63196347  0.66046295  0.18773205  1
  O  O41  1  0.13196347  0.33953705  0.31226795  1
  O  O42  1  0.36803653  0.33953705  0.81226795  1
  O  O43  1  0.86803653  0.66046295  0.68773205  1
  O  O44  1  0.72075693  0.64848177  0.43813570  1
  O  O45  1  0.22075693  0.35151823  0.06186430  1
  O  O46  1  0.27924307  0.35151823  0.56186430  1
  O  O47  1  0.77924307  0.64848177  0.93813570  1
  O  O48  1  0.92230518  0.58480225  0.22836581  1
  O  O49  1  0.42230518  0.41519775  0.27163419  1
  O  O50  1  0.07769482  0.41519775  0.77163419  1
  O  O51  1  0.57769482  0.58480225  0.72836581  1
  O  O52  1  0.70724610  0.41368938  0.24070010  1
  O  O53  1  0.20724610  0.58631062  0.25929990  1
  O  O54  1  0.29275390  0.58631062  0.75929990  1
  O  O55  1  0.79275390  0.41368938  0.74070010  1
