# generated using pymatgen
data_K2ScSi2O7
_symmetry_space_group_name_H-M   'P 1'
_cell_length_a   8.53862760
_cell_length_b   12.79516551
_cell_length_c   12.85978022
_cell_angle_alpha   90.00000000
_cell_angle_beta   90.00000000
_cell_angle_gamma   90.00000000
_symmetry_Int_Tables_number   1
_chemical_formula_structural   K2ScSi2O7
_chemical_formula_sum   'K16 Sc8 Si16 O56'
_cell_volume   1404.97154068
_cell_formula_units_Z   8
loop_
 _symmetry_equiv_pos_site_id
 _symmetry_equiv_pos_as_xyz
  1  'x, y, z'
loop_
 _atom_site_type_symbol
 _atom_site_label
 _atom_site_symmetry_multiplicity
 _atom_site_fract_x
 _atom_site_fract_y
 _atom_site_fract_z
 _atom_site_occupancy
  K  K0  1  0.00000000  0.48148313  0.29127774  1
  K  K1  1  0.00000000  0.51851687  0.70872226  1
  K  K2  1  0.00000000  0.98148313  0.20872226  1
  K  K3  1  0.00000000  0.01851687  0.79127774  1
  K  K4  1  0.50000000  0.52588753  0.34283065  1
  K  K5  1  0.50000000  0.47411247  0.65716935  1
  K  K6  1  0.50000000  0.02588753  0.15716935  1
  K  K7  1  0.50000000  0.97411247  0.84283065  1
  K  K8  1  0.00000000  0.84438043  0.52111404  1
  K  K9  1  0.00000000  0.15561957  0.47888596  1
  K  K10  1  0.00000000  0.34438043  0.97888596  1
  K  K11  1  0.00000000  0.65561957  0.02111404  1
  K  K12  1  0.50000000  0.78464397  0.52106732  1
  K  K13  1  0.50000000  0.21535603  0.47893268  1
  K  K14  1  0.50000000  0.28464397  0.97893268  1
  K  K15  1  0.50000000  0.71535603  0.02106732  1
  Sc  Sc16  1  0.25070164  0.74978009  0.25185087  1
  Sc  Sc17  1  0.25070164  0.25021991  0.74814913  1
  Sc  Sc18  1  0.74929836  0.24978009  0.24814913  1
  Sc  Sc19  1  0.74929836  0.75021991  0.75185087  1
  Sc  Sc20  1  0.74929836  0.25021991  0.74814913  1
  Sc  Sc21  1  0.74929836  0.74978009  0.25185087  1
  Sc  Sc22  1  0.25070164  0.75021991  0.75185087  1
  Sc  Sc23  1  0.25070164  0.24978009  0.24814913  1
  Si  Si24  1  0.18847459  0.62242520  0.49409265  1
  Si  Si25  1  0.18847459  0.37757480  0.50590735  1
  Si  Si26  1  0.81152541  0.12242520  0.00590735  1
  Si  Si27  1  0.81152541  0.87757480  0.99409265  1
  Si  Si28  1  0.81152541  0.37757480  0.50590735  1
  Si  Si29  1  0.81152541  0.62242520  0.49409265  1
  Si  Si30  1  0.18847459  0.87757480  0.99409265  1
  Si  Si31  1  0.18847459  0.12242520  0.00590735  1
  Si  Si32  1  0.31156471  0.49299887  0.12087289  1
  Si  Si33  1  0.31156471  0.50700113  0.87912711  1
  Si  Si34  1  0.68843529  0.99299887  0.37912711  1
  Si  Si35  1  0.68843529  0.00700113  0.62087289  1
  Si  Si36  1  0.68843529  0.50700113  0.87912711  1
  Si  Si37  1  0.68843529  0.49299887  0.12087289  1
  Si  Si38  1  0.31156471  0.00700113  0.62087289  1
  Si  Si39  1  0.31156471  0.99299887  0.37912711  1
  O  O40  1  0.25794905  0.50000000  0.50000000  1
  O  O41  1  0.74205095  0.00000000  0.00000000  1
  O  O42  1  0.74205095  0.50000000  0.50000000  1
  O  O43  1  0.25794905  0.00000000  0.00000000  1
  O  O44  1  0.23968733  0.50000000  0.00000000  1
  O  O45  1  0.76031267  -0.00000000  0.50000000  1
  O  O46  1  0.76031267  0.50000000  -0.00000000  1
  O  O47  1  0.23968733  -0.00000000  0.50000000  1
  O  O48  1  0.00000000  0.61211368  0.46636277  1
  O  O49  1  0.00000000  0.38788632  0.53363723  1
  O  O50  1  0.00000000  0.11211368  0.03363723  1
  O  O51  1  0.00000000  0.88788632  0.96636277  1
  O  O52  1  0.50000000  0.46807330  0.10968999  1
  O  O53  1  0.50000000  0.53192670  0.89031001  1
  O  O54  1  0.50000000  0.96807330  0.39031001  1
  O  O55  1  0.50000000  0.03192670  0.60968999  1
  O  O56  1  0.00000000  0.72737251  0.25321300  1
  O  O57  1  0.00000000  0.27262749  0.74678700  1
  O  O58  1  0.00000000  0.22737251  0.24678700  1
  O  O59  1  0.00000000  0.77262749  0.75321300  1
  O  O60  1  0.50000000  0.76813102  0.23514124  1
  O  O61  1  0.50000000  0.23186898  0.76485876  1
  O  O62  1  0.50000000  0.26813102  0.26485876  1
  O  O63  1  0.50000000  0.73186898  0.73514124  1
  O  O64  1  0.27838749  0.67822506  0.39907677  1
  O  O65  1  0.27838749  0.32177494  0.60092323  1
  O  O66  1  0.72161251  0.17822506  0.10092323  1
  O  O67  1  0.72161251  0.82177494  0.89907677  1
  O  O68  1  0.72161251  0.32177494  0.60092323  1
  O  O69  1  0.72161251  0.67822506  0.39907677  1
  O  O70  1  0.27838749  0.82177494  0.89907677  1
  O  O71  1  0.27838749  0.17822506  0.10092323  1
  O  O72  1  0.28578080  0.60405442  0.17768978  1
  O  O73  1  0.28578080  0.39594558  0.82231022  1
  O  O74  1  0.71421920  0.10405442  0.32231022  1
  O  O75  1  0.71421920  0.89594558  0.67768978  1
  O  O76  1  0.71421920  0.39594558  0.82231022  1
  O  O77  1  0.71421920  0.60405442  0.17768978  1
  O  O78  1  0.28578080  0.89594558  0.67768978  1
  O  O79  1  0.28578080  0.10405442  0.32231022  1
  O  O80  1  0.20809244  0.81899521  0.10435398  1
  O  O81  1  0.20809244  0.18100479  0.89564602  1
  O  O82  1  0.79190756  0.31899521  0.39564602  1
  O  O83  1  0.79190756  0.68100479  0.60435398  1
  O  O84  1  0.79190756  0.18100479  0.89564602  1
  O  O85  1  0.79190756  0.81899521  0.10435398  1
  O  O86  1  0.20809244  0.68100479  0.60435398  1
  O  O87  1  0.20809244  0.31899521  0.39564602  1
  O  O88  1  0.22716811  0.89619540  0.32276205  1
  O  O89  1  0.22716811  0.10380460  0.67723795  1
  O  O90  1  0.77283189  0.39619540  0.17723795  1
  O  O91  1  0.77283189  0.60380460  0.82276205  1
  O  O92  1  0.77283189  0.10380460  0.67723795  1
  O  O93  1  0.77283189  0.89619540  0.32276205  1
  O  O94  1  0.22716811  0.60380460  0.82276205  1
  O  O95  1  0.22716811  0.39619540  0.17723795  1
