# generated using pymatgen
data_CaAl2(Si8O19)2
_symmetry_space_group_name_H-M   'P 1'
_cell_length_a   13.50404171
_cell_length_b   13.50404171
_cell_length_c   14.75367156
_cell_angle_alpha   90.00000000
_cell_angle_beta   90.00000000
_cell_angle_gamma   120.71053355
_symmetry_Int_Tables_number   1
_chemical_formula_structural   CaAl2(Si8O19)2
_chemical_formula_sum   'Ca2 Al4 Si32 O76'
_cell_volume   2313.15150177
_cell_formula_units_Z   2
loop_
 _symmetry_equiv_pos_site_id
 _symmetry_equiv_pos_as_xyz
  1  'x, y, z'
loop_
 _atom_site_type_symbol
 _atom_site_label
 _atom_site_symmetry_multiplicity
 _atom_site_fract_x
 _atom_site_fract_y
 _atom_site_fract_z
 _atom_site_occupancy
  Ca  Ca0  1  0.01408161  0.98591839  0.75000000  1
  Ca  Ca1  1  0.98591839  0.01408161  0.25000000  1
  Al  Al2  1  0.56575769  0.89929406  0.25000000  1
  Al  Al3  1  0.10070594  0.43424231  0.25000000  1
  Al  Al4  1  0.43424231  0.10070594  0.75000000  1
  Al  Al5  1  0.89929406  0.56575769  0.75000000  1
  Si  Si6  1  0.77581461  0.99738459  0.61085459  1
  Si  Si7  1  0.23358018  0.23271379  0.60862809  1
  Si  Si8  1  0.99756173  0.77002529  0.60749911  1
  Si  Si9  1  0.22997471  0.00243827  0.60749911  1
  Si  Si10  1  0.00261541  0.22418539  0.61085459  1
  Si  Si11  1  0.76728621  0.76641982  0.60862809  1
  Si  Si12  1  0.22418539  0.00261541  0.38914541  1
  Si  Si13  1  0.76641982  0.76728621  0.39137191  1
  Si  Si14  1  0.00243827  0.22997471  0.39250089  1
  Si  Si15  1  0.77002529  0.99756173  0.39250089  1
  Si  Si16  1  0.99738459  0.77581461  0.38914541  1
  Si  Si17  1  0.23271379  0.23358018  0.39137191  1
  Si  Si18  1  0.22418539  0.00261541  0.11085459  1
  Si  Si19  1  0.76641982  0.76728621  0.10862809  1
  Si  Si20  1  0.00243827  0.22997471  0.10749911  1
  Si  Si21  1  0.77002529  0.99756173  0.10749911  1
  Si  Si22  1  0.99738459  0.77581461  0.11085459  1
  Si  Si23  1  0.23271379  0.23358018  0.10862809  1
  Si  Si24  1  0.77581461  0.99738459  0.88914541  1
  Si  Si25  1  0.23358018  0.23271379  0.89137191  1
  Si  Si26  1  0.99756173  0.77002529  0.89250089  1
  Si  Si27  1  0.22997471  0.00243827  0.89250089  1
  Si  Si28  1  0.00261541  0.22418539  0.88914541  1
  Si  Si29  1  0.76728621  0.76641982  0.89137191  1
  Si  Si30  1  0.33593355  0.42967762  0.25000000  1
  Si  Si31  1  0.09111169  0.67167225  0.25000000  1
  Si  Si32  1  0.32832775  0.90888831  0.25000000  1
  Si  Si33  1  0.57032238  0.66406645  0.25000000  1
  Si  Si34  1  0.66406645  0.57032238  0.75000000  1
  Si  Si35  1  0.90888831  0.32832775  0.75000000  1
  Si  Si36  1  0.67167225  0.09111169  0.75000000  1
  Si  Si37  1  0.42967762  0.33593355  0.75000000  1
  O  O38  1  0.33430326  0.66569674  0.57005075  1
  O  O39  1  0.66569674  0.33430326  0.42994925  1
  O  O40  1  0.66569674  0.33430326  0.07005075  1
  O  O41  1  0.33430326  0.66569674  0.92994925  1
  O  O42  1  0.76498707  0.00197190  0.50235704  1
  O  O43  1  0.25104612  0.25104612  0.50000000  1
  O  O44  1  0.00197190  0.76498707  0.49764296  1
  O  O45  1  0.23501293  0.99802810  0.49764296  1
  O  O46  1  0.99802810  0.23501293  0.50235704  1
  O  O47  1  0.74895388  0.74895388  0.50000000  1
  O  O48  1  0.23501293  0.99802810  0.00235704  1
  O  O49  1  0.74895388  0.74895388  0.00000000  1
  O  O50  1  0.99802810  0.23501293  0.99764296  1
  O  O51  1  0.76498707  0.00197190  0.99764296  1
  O  O52  1  0.00197190  0.76498707  0.00235704  1
  O  O53  1  0.25104612  0.25104612  0.00000000  1
  O  O54  1  0.81451462  0.90463472  0.13564922  1
  O  O55  1  0.09536528  0.18548538  0.13564922  1
  O  O56  1  0.08649715  0.91350285  0.14115665  1
  O  O57  1  0.18548538  0.09536528  0.86435078  1
  O  O58  1  0.90463472  0.81451462  0.86435078  1
  O  O59  1  0.91350285  0.08649715  0.85884335  1
  O  O60  1  0.18548538  0.09536528  0.63564922  1
  O  O61  1  0.90463472  0.81451462  0.63564922  1
  O  O62  1  0.91350285  0.08649715  0.64115665  1
  O  O63  1  0.81451462  0.90463472  0.36435078  1
  O  O64  1  0.09536528  0.18548538  0.36435078  1
  O  O65  1  0.08649715  0.91350285  0.35884335  1
  O  O66  1  0.46909906  0.53090094  0.25000000  1
  O  O67  1  0.07982594  0.54996200  0.25000000  1
  O  O68  1  0.45003800  0.92017406  0.25000000  1
  O  O69  1  0.53090094  0.46909906  0.75000000  1
  O  O70  1  0.92017406  0.45003800  0.75000000  1
  O  O71  1  0.54996200  0.07982594  0.75000000  1
  O  O72  1  0.65288141  0.96631194  0.15391184  1
  O  O73  1  0.32125332  0.35035789  0.15964617  1
  O  O74  1  0.02789135  0.68932362  0.16044823  1
  O  O75  1  0.31067638  0.97210865  0.16044823  1
  O  O76  1  0.03368806  0.34711859  0.15391184  1
  O  O77  1  0.64964211  0.67874668  0.15964617  1
  O  O78  1  0.34711859  0.03368806  0.84608816  1
  O  O79  1  0.67874668  0.64964211  0.84035383  1
  O  O80  1  0.97210865  0.31067638  0.83955177  1
  O  O81  1  0.68932362  0.02789135  0.83955177  1
  O  O82  1  0.96631194  0.65288141  0.84608816  1
  O  O83  1  0.35035789  0.32125332  0.84035383  1
  O  O84  1  0.34711859  0.03368806  0.65391184  1
  O  O85  1  0.67874668  0.64964211  0.65964617  1
  O  O86  1  0.97210865  0.31067638  0.66044823  1
  O  O87  1  0.68932362  0.02789135  0.66044823  1
  O  O88  1  0.96631194  0.65288141  0.65391184  1
  O  O89  1  0.35035789  0.32125332  0.65964617  1
  O  O90  1  0.65288141  0.96631194  0.34608816  1
  O  O91  1  0.32125332  0.35035789  0.34035383  1
  O  O92  1  0.02789135  0.68932362  0.33955177  1
  O  O93  1  0.31067638  0.97210865  0.33955177  1
  O  O94  1  0.03368806  0.34711859  0.34608816  1
  O  O95  1  0.64964211  0.67874668  0.34035383  1
  O  O96  1  0.52854686  0.75459854  0.25000000  1
  O  O97  1  0.24540146  0.47145314  0.25000000  1
  O  O98  1  0.22440264  0.77559736  0.25000000  1
  O  O99  1  0.47145314  0.24540146  0.75000000  1
  O  O100  1  0.75459854  0.52854686  0.75000000  1
  O  O101  1  0.77559736  0.22440264  0.75000000  1
  O  O102  1  0.75071867  0.87149948  0.85657074  1
  O  O103  1  0.12850052  0.24928133  0.85657074  1
  O  O104  1  0.11716386  0.88283614  0.85520281  1
  O  O105  1  0.24928133  0.12850052  0.14342926  1
  O  O106  1  0.87149948  0.75071867  0.14342926  1
  O  O107  1  0.88283614  0.11716386  0.14479719  1
  O  O108  1  0.24928133  0.12850052  0.35657074  1
  O  O109  1  0.87149948  0.75071867  0.35657074  1
  O  O110  1  0.88283614  0.11716386  0.35520281  1
  O  O111  1  0.75071867  0.87149948  0.64342926  1
  O  O112  1  0.12850052  0.24928133  0.64342926  1
  O  O113  1  0.11716386  0.88283614  0.64479719  1
