# generated using pymatgen
data_MoH12C2(S2N)2
_symmetry_space_group_name_H-M   'P 1'
_cell_length_a   7.16798602
_cell_length_b   9.58110714
_cell_length_c   16.26657912
_cell_angle_alpha   90.00000000
_cell_angle_beta   90.00000000
_cell_angle_gamma   90.00000000
_symmetry_Int_Tables_number   1
_chemical_formula_structural   MoH12C2(S2N)2
_chemical_formula_sum   'Mo4 H48 C8 S16 N8'
_cell_volume   1117.14379132
_cell_formula_units_Z   4
loop_
 _symmetry_equiv_pos_site_id
 _symmetry_equiv_pos_as_xyz
  1  'x, y, z'
loop_
 _atom_site_type_symbol
 _atom_site_label
 _atom_site_symmetry_multiplicity
 _atom_site_fract_x
 _atom_site_fract_y
 _atom_site_fract_z
 _atom_site_occupancy
  Mo  Mo0  1  0.75000000  0.25745344  0.04995456  1
  Mo  Mo1  1  0.75000000  0.75745344  0.45004544  1
  Mo  Mo2  1  0.25000000  0.74254656  0.95004544  1
  Mo  Mo3  1  0.25000000  0.24254656  0.54995456  1
  H  H4  1  0.75000000  0.46131139  0.90633644  1
  H  H5  1  0.75000000  0.96131139  0.59366356  1
  H  H6  1  0.25000000  0.53868861  0.09366356  1
  H  H7  1  0.25000000  0.03868861  0.40633644  1
  H  H8  1  0.63377380  0.61522684  0.89406428  1
  H  H9  1  0.86622620  0.11522684  0.60593572  1
  H  H10  1  0.13377380  0.38477316  0.10593572  1
  H  H11  1  0.36622620  0.88477316  0.39406428  1
  H  H12  1  0.36622620  0.38477316  0.10593572  1
  H  H13  1  0.13377380  0.88477316  0.39406428  1
  H  H14  1  0.86622620  0.61522684  0.89406428  1
  H  H15  1  0.63377380  0.11522684  0.60593572  1
  H  H16  1  0.75000000  0.73907084  0.06397745  1
  H  H17  1  0.75000000  0.23907084  0.43602255  1
  H  H18  1  0.25000000  0.26092916  0.93602255  1
  H  H19  1  0.25000000  0.76092916  0.56397745  1
  H  H20  1  0.86653416  0.89055482  0.06855624  1
  H  H21  1  0.63346584  0.39055482  0.43144376  1
  H  H22  1  0.36653416  0.10944518  0.93144376  1
  H  H23  1  0.13346584  0.60944518  0.56855624  1
  H  H24  1  0.13346584  0.10944518  0.93144376  1
  H  H25  1  0.36653416  0.60944518  0.56855624  1
  H  H26  1  0.63346584  0.89055482  0.06855624  1
  H  H27  1  0.86653416  0.39055482  0.43144376  1
  H  H28  1  0.75000000  0.63462344  0.75380564  1
  H  H29  1  0.75000000  0.13462344  0.74619436  1
  H  H30  1  0.25000000  0.36537656  0.24619436  1
  H  H31  1  0.25000000  0.86537656  0.25380564  1
  H  H32  1  0.87429030  0.47431054  0.76867994  1
  H  H33  1  0.62570970  0.97431054  0.73132006  1
  H  H34  1  0.37429030  0.52568946  0.23132006  1
  H  H35  1  0.12570970  0.02568946  0.26867994  1
  H  H36  1  0.12570970  0.52568946  0.23132006  1
  H  H37  1  0.37429030  0.02568946  0.26867994  1
  H  H38  1  0.62570970  0.47431054  0.76867994  1
  H  H39  1  0.87429030  0.97431054  0.73132006  1
  H  H40  1  0.75000000  0.93421111  0.20664323  1
  H  H41  1  0.75000000  0.43421111  0.29335677  1
  H  H42  1  0.25000000  0.06578889  0.79335677  1
  H  H43  1  0.25000000  0.56578889  0.70664323  1
  H  H44  1  0.62514180  0.77199885  0.20114795  1
  H  H45  1  0.87485820  0.27199885  0.29885205  1
  H  H46  1  0.12514180  0.22800115  0.79885205  1
  H  H47  1  0.37485820  0.72800115  0.70114795  1
  H  H48  1  0.37485820  0.22800115  0.79885205  1
  H  H49  1  0.12514180  0.72800115  0.70114795  1
  H  H50  1  0.87485820  0.77199885  0.20114795  1
  H  H51  1  0.62514180  0.27199885  0.29885205  1
  C  C52  1  0.75000000  0.53420014  0.78574244  1
  C  C53  1  0.75000000  0.03420014  0.71425756  1
  C  C54  1  0.25000000  0.46579986  0.21425756  1
  C  C55  1  0.25000000  0.96579986  0.28574244  1
  C  C56  1  0.75000000  0.82854985  0.18135325  1
  C  C57  1  0.75000000  0.32854985  0.31864675  1
  C  C58  1  0.25000000  0.17145015  0.81864675  1
  C  C59  1  0.25000000  0.67145015  0.68135325  1
  S  S60  1  0.75000000  0.47933297  0.08575420  1
  S  S61  1  0.75000000  0.97933297  0.41424580  1
  S  S62  1  0.25000000  0.52066703  0.91424580  1
  S  S63  1  0.25000000  0.02066703  0.58575420  1
  S  S64  1  0.75000000  0.23597683  0.91455044  1
  S  S65  1  0.75000000  0.73597683  0.58544956  1
  S  S66  1  0.25000000  0.76402317  0.08544956  1
  S  S67  1  0.25000000  0.26402317  0.41455044  1
  S  S68  1  0.99845739  0.15300252  0.09996537  1
  S  S69  1  0.50154261  0.65300252  0.40003463  1
  S  S70  1  0.49845739  0.84699748  0.90003463  1
  S  S71  1  0.00154261  0.34699748  0.59996537  1
  S  S72  1  0.00154261  0.84699748  0.90003463  1
  S  S73  1  0.49845739  0.34699748  0.59996537  1
  S  S74  1  0.50154261  0.15300252  0.09996537  1
  S  S75  1  0.99845739  0.65300252  0.40003463  1
  N  N76  1  0.75000000  0.55801168  0.87590955  1
  N  N77  1  0.75000000  0.05801168  0.62409045  1
  N  N78  1  0.25000000  0.44198832  0.12409045  1
  N  N79  1  0.25000000  0.94198832  0.37590955  1
  N  N80  1  0.75000000  0.83750142  0.08985146  1
  N  N81  1  0.75000000  0.33750142  0.41014854  1
  N  N82  1  0.25000000  0.16249858  0.91014854  1
  N  N83  1  0.25000000  0.66249858  0.58985146  1
