# generated using pymatgen
data_CeSiGe
_symmetry_space_group_name_H-M   'P 1'
_cell_length_a   4.15125112
_cell_length_b   4.15125112
_cell_length_c   7.91305821
_cell_angle_alpha   105.20680792
_cell_angle_beta   105.20680792
_cell_angle_gamma   90.00000000
_symmetry_Int_Tables_number   1
_chemical_formula_structural   CeSiGe
_chemical_formula_sum   'Ce2 Si2 Ge2'
_cell_volume   126.63538699
_cell_formula_units_Z   2
loop_
 _symmetry_equiv_pos_site_id
 _symmetry_equiv_pos_as_xyz
  1  'x, y, z'
loop_
 _atom_site_type_symbol
 _atom_site_label
 _atom_site_symmetry_multiplicity
 _atom_site_fract_x
 _atom_site_fract_y
 _atom_site_fract_z
 _atom_site_occupancy
  Ce  Ce0  1  0.58229063  0.58229063  0.16458126  1
  Ce  Ce1  1  0.83229063  0.33229063  0.66458126  1
  Si  Si2  1  0.99948088  0.99948088  0.99896176  1
  Si  Si3  1  0.24948088  0.74948088  0.49896176  1
  Ge  Ge4  1  0.16522849  0.16522849  0.33045698  1
  Ge  Ge5  1  0.41522849  0.91522849  0.83045698  1
