# generated using pymatgen
data_RbH3(SeO3)2
_symmetry_space_group_name_H-M   'P 1'
_cell_length_a   6.21469101
_cell_length_b   6.23774260
_cell_length_c   20.86132342
_cell_angle_alpha   90.00000000
_cell_angle_beta   90.00000000
_cell_angle_gamma   90.00000000
_symmetry_Int_Tables_number   1
_chemical_formula_structural   RbH3(SeO3)2
_chemical_formula_sum   'Rb4 H12 Se8 O24'
_cell_volume   808.70261326
_cell_formula_units_Z   4
loop_
 _symmetry_equiv_pos_site_id
 _symmetry_equiv_pos_as_xyz
  1  'x, y, z'
loop_
 _atom_site_type_symbol
 _atom_site_label
 _atom_site_symmetry_multiplicity
 _atom_site_fract_x
 _atom_site_fract_y
 _atom_site_fract_z
 _atom_site_occupancy
  Rb  Rb0  1  0.27972229  0.25729829  0.38595044  1
  Rb  Rb1  1  0.22027771  0.25729829  0.61404956  1
  Rb  Rb2  1  0.77972229  0.74270171  0.11404956  1
  Rb  Rb3  1  0.72027771  0.74270171  0.88595044  1
  H  H4  1  0.31110614  0.01932384  0.04623767  1
  H  H5  1  0.18889386  0.01932384  0.95376233  1
  H  H6  1  0.81110614  0.98067616  0.45376233  1
  H  H7  1  0.68889386  0.98067616  0.54623767  1
  H  H8  1  0.96701391  0.47690632  0.26340226  1
  H  H9  1  0.53298609  0.47690632  0.73659774  1
  H  H10  1  0.46701391  0.52309368  0.23659774  1
  H  H11  1  0.03298609  0.52309368  0.76340226  1
  H  H12  1  0.59832598  0.27504925  0.12442853  1
  H  H13  1  0.90167402  0.27504925  0.87557147  1
  H  H14  1  0.09832598  0.72495075  0.37557147  1
  H  H15  1  0.40167402  0.72495075  0.62442853  1
  Se  Se16  1  0.22233270  0.29457710  0.11481301  1
  Se  Se17  1  0.27766730  0.29457710  0.88518699  1
  Se  Se18  1  0.72233270  0.70542290  0.38518699  1
  Se  Se19  1  0.77766730  0.70542290  0.61481301  1
  Se  Se20  1  0.73656786  0.16836384  0.25277153  1
  Se  Se21  1  0.76343214  0.16836384  0.74722847  1
  Se  Se22  1  0.23656786  0.83163616  0.24722847  1
  Se  Se23  1  0.26343214  0.83163616  0.75277153  1
  O  O24  1  0.19080517  0.02495556  0.07650143  1
  O  O25  1  0.30919483  0.02495556  0.92349857  1
  O  O26  1  0.69080517  0.97504444  0.42349857  1
  O  O27  1  0.80919483  0.97504444  0.57650143  1
  O  O28  1  0.50712210  0.30810374  0.26818306  1
  O  O29  1  0.99287790  0.30810374  0.73181694  1
  O  O30  1  0.00712210  0.69189626  0.23181694  1
  O  O31  1  0.49287790  0.69189626  0.76818306  1
  O  O32  1  0.49681472  0.32523877  0.08826321  1
  O  O33  1  0.00318528  0.32523877  0.91173679  1
  O  O34  1  0.99681472  0.67476123  0.41173679  1
  O  O35  1  0.50318528  0.67476123  0.58826321  1
  O  O36  1  0.77860469  0.19681717  0.17215696  1
  O  O37  1  0.72139531  0.19681717  0.82784304  1
  O  O38  1  0.27860469  0.80318283  0.32784304  1
  O  O39  1  0.22139531  0.80318283  0.67215696  1
  O  O40  1  0.09359458  0.45571857  0.06623843  1
  O  O41  1  0.40640542  0.45571857  0.93376157  1
  O  O42  1  0.59359458  0.54428143  0.43376157  1
  O  O43  1  0.90640542  0.54428143  0.56623843  1
  O  O44  1  0.94439767  0.33313796  0.28811473  1
  O  O45  1  0.55560233  0.33313796  0.71188527  1
  O  O46  1  0.44439767  0.66686204  0.21188527  1
  O  O47  1  0.05560233  0.66686204  0.78811473  1
