# generated using pymatgen
data_LaMn3V4O12
_symmetry_space_group_name_H-M   'P 1'
_cell_length_a   6.61661756
_cell_length_b   6.59250775
_cell_length_c   6.58122216
_cell_angle_alpha   109.77143978
_cell_angle_beta   110.17747437
_cell_angle_gamma   108.64352984
_symmetry_Int_Tables_number   1
_chemical_formula_structural   LaMn3V4O12
_chemical_formula_sum   'La1 Mn3 V4 O12'
_cell_volume   220.46869567
_cell_formula_units_Z   1
loop_
 _symmetry_equiv_pos_site_id
 _symmetry_equiv_pos_as_xyz
  1  'x, y, z'
loop_
 _atom_site_type_symbol
 _atom_site_label
 _atom_site_symmetry_multiplicity
 _atom_site_fract_x
 _atom_site_fract_y
 _atom_site_fract_z
 _atom_site_occupancy
  La  La0  1  -0.00000114  0.99999825  -0.00000091  1
  Mn  Mn1  1  0.50000914  0.00001630  0.49999909  1
  Mn  Mn2  1  0.99999989  0.49999932  0.50000022  1
  Mn  Mn3  1  0.49999809  0.49999686  0.99999992  1
  V  V4  1  -0.00000071  -0.00000181  0.50000009  1
  V  V5  1  0.49999956  0.99999843  -0.00000125  1
  V  V6  1  0.00000023  0.49999922  0.00000181  1
  V  V7  1  0.49999997  0.50000206  0.50000059  1
  O  O8  1  0.68355900  0.81560042  0.50979654  1
  O  O9  1  0.69575787  0.18274859  0.87138238  1
  O  O10  1  0.30424200  0.81725059  0.12861704  1
  O  O11  1  0.31643804  0.18440119  0.49020358  1
  O  O12  1  0.82175566  0.53017584  0.71017660  1
  O  O13  1  0.18589507  0.89280019  0.70758788  1
  O  O14  1  0.81410446  0.10719822  0.29241267  1
  O  O15  1  0.17824310  0.46982062  0.28982303  1
  O  O16  1  0.51591111  0.69342339  0.80142320  1
  O  O17  1  0.89357688  0.69619932  0.18159931  1
  O  O18  1  0.10642298  0.30379887  0.81840089  1
  O  O19  1  0.48408879  0.30657412  0.19857733  1
