# generated using pymatgen
data_ZnP2PdO7
_symmetry_space_group_name_H-M   'P 1'
_cell_length_a   5.95575144
_cell_length_b   12.50334105
_cell_length_c   6.85817781
_cell_angle_alpha   90.00000000
_cell_angle_beta   90.00000000
_cell_angle_gamma   90.00000000
_symmetry_Int_Tables_number   1
_chemical_formula_structural   ZnP2PdO7
_chemical_formula_sum   'Zn4 P8 Pd4 O28'
_cell_volume   510.70649680
_cell_formula_units_Z   4
loop_
 _symmetry_equiv_pos_site_id
 _symmetry_equiv_pos_as_xyz
  1  'x, y, z'
loop_
 _atom_site_type_symbol
 _atom_site_label
 _atom_site_symmetry_multiplicity
 _atom_site_fract_x
 _atom_site_fract_y
 _atom_site_fract_z
 _atom_site_occupancy
  Zn  Zn0  1  0.75000000  0.74437186  0.25423442  1
  Zn  Zn1  1  0.25000000  0.25562814  0.74576558  1
  Zn  Zn2  1  0.25000000  0.75562814  0.75423442  1
  Zn  Zn3  1  0.75000000  0.24437186  0.24576558  1
  P  P4  1  0.75000000  0.88313645  0.66868692  1
  P  P5  1  0.25000000  0.11686355  0.33131308  1
  P  P6  1  0.25000000  0.61686355  0.16868692  1
  P  P7  1  0.75000000  0.38313645  0.83131308  1
  P  P8  1  0.75000000  0.61249353  0.83390568  1
  P  P9  1  0.25000000  0.38750647  0.16609432  1
  P  P10  1  0.25000000  0.88750647  0.33390568  1
  P  P11  1  0.75000000  0.11249353  0.66609432  1
  Pd  Pd12  1  -0.00000000  0.00000000  -0.00000000  1
  Pd  Pd13  1  0.00000000  0.50000000  0.50000000  1
  Pd  Pd14  1  0.50000000  -0.00000000  -0.00000000  1
  Pd  Pd15  1  0.50000000  0.50000000  0.50000000  1
  O  O16  1  0.75000000  0.69861738  0.98593984  1
  O  O17  1  0.25000000  0.30138262  0.01406016  1
  O  O18  1  0.25000000  0.80138262  0.48593984  1
  O  O19  1  0.75000000  0.19861738  0.51406016  1
  O  O20  1  0.75000000  0.99716395  0.55736097  1
  O  O21  1  0.25000000  0.00283605  0.44263903  1
  O  O22  1  0.25000000  0.50283605  0.05736097  1
  O  O23  1  0.75000000  0.49716395  0.94263903  1
  O  O24  1  0.75000000  0.79629374  0.51807076  1
  O  O25  1  0.25000000  0.20370626  0.48192924  1
  O  O26  1  0.25000000  0.70370626  0.01807076  1
  O  O27  1  0.75000000  0.29629374  0.98192924  1
  O  O28  1  0.96980510  0.61609771  0.71085867  1
  O  O29  1  0.03019490  0.38390229  0.28914133  1
  O  O30  1  0.03019490  0.88390229  0.21085867  1
  O  O31  1  0.46980510  0.38390229  0.28914133  1
  O  O32  1  0.96980510  0.11609771  0.78914133  1
  O  O33  1  0.53019490  0.61609771  0.71085867  1
  O  O34  1  0.53019490  0.11609771  0.78914133  1
  O  O35  1  0.46980510  0.88390229  0.21085867  1
  O  O36  1  0.96876485  0.87989908  0.79394205  1
  O  O37  1  0.03123515  0.12010092  0.20605795  1
  O  O38  1  0.03123515  0.62010092  0.29394205  1
  O  O39  1  0.46876485  0.12010092  0.20605795  1
  O  O40  1  0.96876485  0.37989908  0.70605795  1
  O  O41  1  0.53123515  0.87989908  0.79394205  1
  O  O42  1  0.53123515  0.37989908  0.70605795  1
  O  O43  1  0.46876485  0.62010092  0.29394205  1
