# generated using pymatgen
data_Sr2Ca2Cu3(BiO5)2
_symmetry_space_group_name_H-M   'P 1'
_cell_length_a   3.77917994
_cell_length_b   3.77917994
_cell_length_c   19.00611022
_cell_angle_alpha   95.70577910
_cell_angle_beta   95.70577910
_cell_angle_gamma   90.00000000
_symmetry_Int_Tables_number   1
_chemical_formula_structural   Sr2Ca2Cu3(BiO5)2
_chemical_formula_sum   'Sr2 Ca2 Cu3 Bi2 O10'
_cell_volume   268.75259334
_cell_formula_units_Z   1
loop_
 _symmetry_equiv_pos_site_id
 _symmetry_equiv_pos_as_xyz
  1  'x, y, z'
loop_
 _atom_site_type_symbol
 _atom_site_label
 _atom_site_symmetry_multiplicity
 _atom_site_fract_x
 _atom_site_fract_y
 _atom_site_fract_z
 _atom_site_occupancy
  Sr  Sr0  1  0.36547897  0.36547897  0.73095793  1
  Sr  Sr1  1  0.63452103  0.63452103  0.26904207  1
  Ca  Ca2  1  0.45656401  0.45656401  0.91312802  1
  Ca  Ca3  1  0.54343599  0.54343599  0.08687198  1
  Cu  Cu4  1  0.08489827  0.08489827  0.16979654  1
  Cu  Cu5  1  0.91510173  0.91510173  0.83020346  1
  Cu  Cu6  1  0.00000000  0.00000000  0.00000000  1
  Bi  Bi7  1  0.21112451  0.21112451  0.42224902  1
  Bi  Bi8  1  0.78887549  0.78887549  0.57775098  1
  O  O9  1  0.28899256  0.28899256  0.57798512  1
  O  O10  1  0.71100744  0.71100744  0.42201488  1
  O  O11  1  0.15602428  0.15602428  0.31204855  1
  O  O12  1  0.84397572  0.84397572  0.68795145  1
  O  O13  1  0.00000000  0.50000000  0.00000000  1
  O  O14  1  0.50000000  0.00000000  0.00000000  1
  O  O15  1  0.08610689  0.58610689  0.17221377  1
  O  O16  1  0.91389311  0.41389311  0.82778623  1
  O  O17  1  0.58610689  0.08610689  0.17221377  1
  O  O18  1  0.41389311  0.91389311  0.82778623  1
