# generated using pymatgen
data_AgPb2Cl3OF
_symmetry_space_group_name_H-M   'P 1'
_cell_length_a   10.15335654
_cell_length_b   10.11426128
_cell_length_c   10.11426128
_cell_angle_alpha   90.00000000
_cell_angle_beta   60.12729120
_cell_angle_gamma   119.87270880
_symmetry_Int_Tables_number   1
_chemical_formula_structural   AgPb2Cl3OF
_chemical_formula_sum   'Ag4 Pb8 Cl12 O4 F4'
_cell_volume   737.26839350
_cell_formula_units_Z   4
loop_
 _symmetry_equiv_pos_site_id
 _symmetry_equiv_pos_as_xyz
  1  'x, y, z'
loop_
 _atom_site_type_symbol
 _atom_site_label
 _atom_site_symmetry_multiplicity
 _atom_site_fract_x
 _atom_site_fract_y
 _atom_site_fract_z
 _atom_site_occupancy
  Ag  Ag0  1  0.50294805  0.00070691  0.49852597  1
  Ag  Ag1  1  0.50294805  0.50224114  0.49852597  1
  Ag  Ag2  1  0.00294805  0.50147403  0.99929309  1
  Ag  Ag3  1  0.00294805  0.50147403  0.49775886  1
  Pb  Pb4  1  0.07757737  0.85100235  0.21121131  1
  Pb  Pb5  1  0.07757737  0.22657503  0.21121131  1
  Pb  Pb6  1  0.44218001  0.22109000  0.83690496  1
  Pb  Pb7  1  0.44218001  0.22109000  0.22091504  1
  Pb  Pb8  1  0.94218001  0.16309504  0.77891000  1
  Pb  Pb9  1  0.94218001  0.77908496  0.77891000  1
  Pb  Pb10  1  0.57757737  0.78878869  0.14899765  1
  Pb  Pb11  1  0.57757737  0.78878869  0.77342497  1
  Cl  Cl12  1  0.86520742  0.43260371  0.81739629  1
  Cl  Cl13  1  0.63919971  0.81959985  0.43040015  1
  Cl  Cl14  1  0.24952597  0.42253168  0.42428241  1
  Cl  Cl15  1  0.24952597  0.82699429  0.82619163  1
  Cl  Cl16  1  0.24952597  0.82699429  0.42428241  1
  Cl  Cl17  1  0.24952597  0.42253168  0.82619163  1
  Cl  Cl18  1  0.13919971  0.56959985  0.18040015  1
  Cl  Cl19  1  0.36520742  0.18260371  0.56739629  1
  Cl  Cl20  1  0.74952597  0.57571759  0.57746832  1
  Cl  Cl21  1  0.74952597  0.17380837  0.17300571  1
  Cl  Cl22  1  0.74952597  0.17380837  0.57746832  1
  Cl  Cl23  1  0.74952597  0.57571759  0.17300571  1
  O  O24  1  0.38717014  0.31150598  0.05641493  1
  O  O25  1  0.38717014  0.07566416  0.05641493  1
  O  O26  1  0.88717014  0.94358507  0.68849402  1
  O  O27  1  0.88717014  0.94358507  0.92433584  1
  F  F28  1  0.08886893  0.04443446  0.35026354  1
  F  F29  1  0.08886893  0.04443446  0.06086753  1
  F  F30  1  0.58886893  0.64973646  0.95556554  1
  F  F31  1  0.58886893  0.93913247  0.95556554  1
