# generated using pymatgen
data_TmScO3
_symmetry_space_group_name_H-M   'P 1'
_cell_length_a   5.40953047
_cell_length_b   5.70879132
_cell_length_c   7.94428252
_cell_angle_alpha   90.00000000
_cell_angle_beta   90.00000000
_cell_angle_gamma   90.00000000
_symmetry_Int_Tables_number   1
_chemical_formula_structural   TmScO3
_chemical_formula_sum   'Tm4 Sc4 O12'
_cell_volume   245.33438418
_cell_formula_units_Z   4
loop_
 _symmetry_equiv_pos_site_id
 _symmetry_equiv_pos_as_xyz
  1  'x, y, z'
loop_
 _atom_site_type_symbol
 _atom_site_label
 _atom_site_symmetry_multiplicity
 _atom_site_fract_x
 _atom_site_fract_y
 _atom_site_fract_z
 _atom_site_occupancy
  Tm  Tm0  1  0.01830715  0.43691833  0.25000000  1
  Tm  Tm1  1  0.98169285  0.56308167  0.75000000  1
  Tm  Tm2  1  0.51830715  0.06308167  0.75000000  1
  Tm  Tm3  1  0.48169285  0.93691833  0.25000000  1
  Sc  Sc4  1  0.00000000  -0.00000000  0.00000000  1
  Sc  Sc5  1  0.50000000  0.50000000  0.00000000  1
  Sc  Sc6  1  -0.00000000  -0.00000000  0.50000000  1
  Sc  Sc7  1  0.50000000  0.50000000  0.50000000  1
  O  O8  1  0.31446863  0.18882868  0.07019156  1
  O  O9  1  0.68553137  0.81117132  0.92980844  1
  O  O10  1  0.81446863  0.31117132  0.92980844  1
  O  O11  1  0.68553137  0.81117132  0.57019156  1
  O  O12  1  0.18553137  0.68882868  0.07019156  1
  O  O13  1  0.31446863  0.18882868  0.42980844  1
  O  O14  1  0.18553137  0.68882868  0.42980844  1
  O  O15  1  0.81446863  0.31117132  0.57019156  1
  O  O16  1  0.63559702  0.56269238  0.25000000  1
  O  O17  1  0.36440298  0.43730762  0.75000000  1
  O  O18  1  0.13559702  0.93730762  0.75000000  1
  O  O19  1  0.86440298  0.06269238  0.25000000  1
