# generated using pymatgen
data_NaZn2(PO4)2
_symmetry_space_group_name_H-M   'P 1'
_cell_length_a   5.14004927
_cell_length_b   8.85495194
_cell_length_c   8.94755982
_cell_angle_alpha   97.76452598
_cell_angle_beta   100.23704378
_cell_angle_gamma   105.83973696
_symmetry_Int_Tables_number   1
_chemical_formula_structural   NaZn2(PO4)2
_chemical_formula_sum   'Na2 Zn4 P4 O16'
_cell_volume   378.22612557
_cell_formula_units_Z   2
loop_
 _symmetry_equiv_pos_site_id
 _symmetry_equiv_pos_as_xyz
  1  'x, y, z'
loop_
 _atom_site_type_symbol
 _atom_site_label
 _atom_site_symmetry_multiplicity
 _atom_site_fract_x
 _atom_site_fract_y
 _atom_site_fract_z
 _atom_site_occupancy
  Na  Na0  1  0.41032614  0.69847024  0.18771181  1
  Na  Na1  1  0.58967386  0.30152976  0.81228819  1
  Zn  Zn2  1  0.77990814  0.38656492  0.24417000  1
  Zn  Zn3  1  0.22009186  0.61343508  0.75583000  1
  Zn  Zn4  1  0.31901114  0.10917733  0.38775479  1
  Zn  Zn5  1  0.68098886  0.89082267  0.61224521  1
  P  P6  1  0.16358881  0.25861042  0.07975104  1
  P  P7  1  0.83641119  0.74138958  0.92024896  1
  P  P8  1  0.09317770  0.74962958  0.43994789  1
  P  P9  1  0.90682230  0.25037042  0.56005211  1
  O  O10  1  0.14609367  0.13194634  0.18182876  1
  O  O11  1  0.85390633  0.86805366  0.81817124  1
  O  O12  1  0.71810366  0.11732674  0.62413990  1
  O  O13  1  0.28189634  0.88267326  0.37586010  1
  O  O14  1  0.22099611  0.20004146  0.92263875  1
  O  O15  1  0.77900389  0.79995854  0.07736125  1
  O  O16  1  0.72346190  0.24310883  0.39481792  1
  O  O17  1  0.27653810  0.75689117  0.60518208  1
  O  O18  1  0.18925377  0.22664621  0.54759058  1
  O  O19  1  0.81074623  0.77335379  0.45240942  1
  O  O20  1  0.05801308  0.59031285  0.33336722  1
  O  O21  1  0.94198692  0.40968715  0.66663278  1
  O  O22  1  0.41605047  0.41219127  0.15621903  1
  O  O23  1  0.58394953  0.58780873  0.84378097  1
  O  O24  1  0.89314092  0.30730331  0.05726550  1
  O  O25  1  0.10685908  0.69269669  0.94273450  1
