# generated using pymatgen
data_NaMnH2C3O7
_symmetry_space_group_name_H-M   'P 1'
_cell_length_a   6.01195491
_cell_length_b   7.47519349
_cell_length_c   16.05380177
_cell_angle_alpha   90.00000000
_cell_angle_beta   90.00000000
_cell_angle_gamma   101.09691801
_symmetry_Int_Tables_number   1
_chemical_formula_structural   NaMnH2C3O7
_chemical_formula_sum   'Na4 Mn4 H8 C12 O28'
_cell_volume   707.97705645
_cell_formula_units_Z   4
loop_
 _symmetry_equiv_pos_site_id
 _symmetry_equiv_pos_as_xyz
  1  'x, y, z'
loop_
 _atom_site_type_symbol
 _atom_site_label
 _atom_site_symmetry_multiplicity
 _atom_site_fract_x
 _atom_site_fract_y
 _atom_site_fract_z
 _atom_site_occupancy
  Na  Na0  1  0.96791099  0.79641795  0.32072819  1
  Na  Na1  1  0.03208901  0.20358205  0.67927181  1
  Na  Na2  1  0.03208901  0.70358205  0.82072819  1
  Na  Na3  1  0.96791099  0.29641795  0.17927181  1
  Mn  Mn4  1  0.22693472  0.78837437  0.60331349  1
  Mn  Mn5  1  0.77306528  0.21162563  0.39668651  1
  Mn  Mn6  1  0.77306528  0.71162563  0.10331349  1
  Mn  Mn7  1  0.22693472  0.28837437  0.89668651  1
  H  H8  1  0.45212715  0.64637503  0.88578118  1
  H  H9  1  0.54787285  0.35362497  0.11421882  1
  H  H10  1  0.54787285  0.85362497  0.38578118  1
  H  H11  1  0.45212715  0.14637503  0.61421882  1
  H  H12  1  0.67753941  0.86127368  0.47462988  1
  H  H13  1  0.32246059  0.13872632  0.52537012  1
  H  H14  1  0.32246059  0.63872632  0.97462988  1
  H  H15  1  0.67753941  0.36127368  0.02537012  1
  C  C16  1  0.55637400  0.75243674  0.73701015  1
  C  C17  1  0.44362600  0.24756326  0.26298985  1
  C  C18  1  0.44362600  0.74756326  0.23701015  1
  C  C19  1  0.55637400  0.25243674  0.76298985  1
  C  C20  1  0.70634130  0.79578729  0.65738651  1
  C  C21  1  0.29365870  0.20421271  0.34261349  1
  C  C22  1  0.29365870  0.70421271  0.15738651  1
  C  C23  1  0.70634130  0.29578729  0.84261349  1
  C  C24  1  0.99566749  0.93064061  0.96404219  1
  C  C25  1  0.00433251  0.06935939  0.03595781  1
  C  C26  1  0.00433251  0.56935939  0.46404219  1
  C  C27  1  0.99566749  0.43064061  0.53595781  1
  O  O28  1  0.68800521  0.90967116  0.41714681  1
  O  O29  1  0.31199479  0.09032884  0.58285319  1
  O  O30  1  0.31199479  0.59032884  0.91714681  1
  O  O31  1  0.68800521  0.40967116  0.08285319  1
  O  O32  1  0.91949730  0.83493131  0.66820272  1
  O  O33  1  0.08050270  0.16506869  0.33179728  1
  O  O34  1  0.08050270  0.66506869  0.16820272  1
  O  O35  1  0.91949730  0.33493131  0.83179728  1
  O  O36  1  0.89400782  0.76809813  0.97734342  1
  O  O37  1  0.10599218  0.23190187  0.02265658  1
  O  O38  1  0.10599218  0.73190187  0.47734342  1
  O  O39  1  0.89400782  0.26809813  0.52265658  1
  O  O40  1  0.90792856  0.51116448  0.39635845  1
  O  O41  1  0.09207144  0.48883552  0.60364155  1
  O  O42  1  0.09207144  0.98883552  0.89635845  1
  O  O43  1  0.90792856  0.01116448  0.10364155  1
  O  O44  1  0.34842321  0.76295592  0.72840873  1
  O  O45  1  0.65157679  0.23704408  0.27159127  1
  O  O46  1  0.65157679  0.73704408  0.22840873  1
  O  O47  1  0.34842321  0.26295592  0.77159127  1
  O  O48  1  0.64631086  0.70915501  0.80304957  1
  O  O49  1  0.35368914  0.29084499  0.19695043  1
  O  O50  1  0.35368914  0.79084499  0.30304957  1
  O  O51  1  0.64631086  0.20915501  0.69695043  1
  O  O52  1  0.60111051  0.78873666  0.58846575  1
  O  O53  1  0.39888949  0.21126334  0.41153425  1
  O  O54  1  0.39888949  0.71126334  0.08846575  1
  O  O55  1  0.60111051  0.28873666  0.91153425  1
