# generated using pymatgen
data_RbV3CdCu4O13
_symmetry_space_group_name_H-M   'P 1'
_cell_length_a   6.28360993
_cell_length_b   8.50440783
_cell_length_c   11.01764957
_cell_angle_alpha   98.02067727
_cell_angle_beta   90.00000000
_cell_angle_gamma   90.00000000
_symmetry_Int_Tables_number   1
_chemical_formula_structural   RbV3CdCu4O13
_chemical_formula_sum   'Rb2 V6 Cd2 Cu8 O26'
_cell_volume   583.00592773
_cell_formula_units_Z   2
loop_
 _symmetry_equiv_pos_site_id
 _symmetry_equiv_pos_as_xyz
  1  'x, y, z'
loop_
 _atom_site_type_symbol
 _atom_site_label
 _atom_site_symmetry_multiplicity
 _atom_site_fract_x
 _atom_site_fract_y
 _atom_site_fract_z
 _atom_site_occupancy
  Rb  Rb0  1  0.75000000  0.51190301  0.89326256  1
  Rb  Rb1  1  0.25000000  0.48809699  0.10673744  1
  V  V2  1  0.75000000  0.13004090  0.00209339  1
  V  V3  1  0.25000000  0.86995910  0.99790661  1
  V  V4  1  0.75000000  0.46564755  0.29663346  1
  V  V5  1  0.25000000  0.53435245  0.70336654  1
  V  V6  1  0.75000000  0.17977217  0.61772053  1
  V  V7  1  0.25000000  0.82022783  0.38227947  1
  Cd  Cd8  1  0.75000000  0.80495111  0.14187106  1
  Cd  Cd9  1  0.25000000  0.19504889  0.85812894  1
  Cu  Cu10  1  0.99393148  0.89040168  0.72602375  1
  Cu  Cu11  1  0.00606852  0.10959832  0.27397625  1
  Cu  Cu12  1  0.49393148  0.10959832  0.27397625  1
  Cu  Cu13  1  0.50606852  0.89040168  0.72602375  1
  Cu  Cu14  1  0.75000000  0.60434180  0.60532885  1
  Cu  Cu15  1  0.25000000  0.39565820  0.39467115  1
  Cu  Cu16  1  0.75000000  0.85572613  0.43941502  1
  Cu  Cu17  1  0.25000000  0.14427387  0.56058498  1
  O  O18  1  0.96823475  0.24508617  0.98231753  1
  O  O19  1  0.03176525  0.75491383  0.01768247  1
  O  O20  1  0.46823475  0.75491383  0.01768247  1
  O  O21  1  0.53176525  0.24508617  0.98231753  1
  O  O22  1  0.75000000  0.38013024  0.61522203  1
  O  O23  1  0.25000000  0.61986976  0.38477797  1
  O  O24  1  0.47906560  0.65594981  0.70777433  1
  O  O25  1  0.52093440  0.34405019  0.29222567  1
  O  O26  1  0.97906560  0.34405019  0.29222567  1
  O  O27  1  0.02093440  0.65594981  0.70777433  1
  O  O28  1  0.75000000  0.55074737  0.16561092  1
  O  O29  1  0.25000000  0.44925263  0.83438908  1
  O  O30  1  0.75000000  0.08343996  0.46646072  1
  O  O31  1  0.25000000  0.91656004  0.53353928  1
  O  O32  1  0.01153102  0.87732089  0.30842581  1
  O  O33  1  0.98846898  0.12267911  0.69157419  1
  O  O34  1  0.51153102  0.12267911  0.69157419  1
  O  O35  1  0.48846898  0.87732089  0.30842581  1
  O  O36  1  0.75000000  0.62279743  0.42230671  1
  O  O37  1  0.25000000  0.37720257  0.57769329  1
  O  O38  1  0.75000000  0.84144744  0.61737478  1
  O  O39  1  0.25000000  0.15855256  0.38262522  1
  O  O40  1  0.75000000  0.07334686  0.16577145  1
  O  O41  1  0.25000000  0.92665314  0.83422855  1
  O  O42  1  0.75000000  0.96894153  0.89004830  1
  O  O43  1  0.25000000  0.03105847  0.10995170  1
