# generated using pymatgen
data_NaH8CN5O3
_symmetry_space_group_name_H-M   'P 1'
_cell_length_a   5.98452724
_cell_length_b   10.10131466
_cell_length_c   12.77319240
_cell_angle_alpha   87.45326377
_cell_angle_beta   78.04992647
_cell_angle_gamma   77.78189192
_symmetry_Int_Tables_number   1
_chemical_formula_structural   NaH8CN5O3
_chemical_formula_sum   'Na4 H32 C4 N20 O12'
_cell_volume   738.31462538
_cell_formula_units_Z   4
loop_
 _symmetry_equiv_pos_site_id
 _symmetry_equiv_pos_as_xyz
  1  'x, y, z'
loop_
 _atom_site_type_symbol
 _atom_site_label
 _atom_site_symmetry_multiplicity
 _atom_site_fract_x
 _atom_site_fract_y
 _atom_site_fract_z
 _atom_site_occupancy
  Na  Na0  1  0.20967681  0.10607407  0.00603874  1
  Na  Na1  1  0.79032319  0.89392593  0.99396126  1
  Na  Na2  1  0.28123153  0.39421534  0.50145153  1
  Na  Na3  1  0.71876847  0.60578466  0.49854847  1
  H  H4  1  0.10678864  0.53057735  0.13263466  1
  H  H5  1  0.89321136  0.46942265  0.86736534  1
  H  H6  1  0.05743591  0.12272420  0.62660827  1
  H  H7  1  0.94256409  0.87727580  0.37339173  1
  H  H8  1  0.19177946  0.82175729  0.09901527  1
  H  H9  1  0.80822054  0.17824271  0.90098473  1
  H  H10  1  0.23693750  0.63749289  0.38736932  1
  H  H11  1  0.76306250  0.36250711  0.61263068  1
  H  H12  1  0.56391151  0.17131087  0.62984074  1
  H  H13  1  0.43608849  0.82868913  0.37015926  1
  H  H14  1  0.90465985  0.20902016  0.21178198  1
  H  H15  1  0.09534015  0.79097984  0.78821802  1
  H  H16  1  0.21963792  0.66939295  0.60776722  1
  H  H17  1  0.78036208  0.33060705  0.39223278  1
  H  H18  1  0.80347648  0.31977149  0.13560456  1
  H  H19  1  0.19652352  0.68022851  0.86439544  1
  H  H20  1  0.00496384  0.92690577  0.17670761  1
  H  H21  1  0.99503616  0.07309423  0.82329239  1
  H  H22  1  0.65472568  0.44193642  0.32211557  1
  H  H23  1  0.34527432  0.55806358  0.67788443  1
  H  H24  1  0.14114884  0.54523617  0.31978595  1
  H  H25  1  0.85885116  0.45476383  0.68021405  1
  H  H26  1  0.29479491  0.38829432  0.16230157  1
  H  H27  1  0.70520509  0.61170568  0.83769843  1
  H  H28  1  0.40097721  0.28511151  0.70584564  1
  H  H29  1  0.59902279  0.71488849  0.29415436  1
  H  H30  1  0.74010129  0.02181991  0.36784880  1
  H  H31  1  0.25989871  0.97818009  0.63215120  1
  H  H32  1  0.62877496  0.12618715  0.12315689  1
  H  H33  1  0.37122504  0.87381285  0.87684311  1
  H  H34  1  0.46323180  0.03402721  0.18307359  1
  H  H35  1  0.53676820  0.96597279  0.81692641  1
  C  C36  1  0.43437481  0.55331329  0.13739785  1
  C  C37  1  0.56562519  0.44668671  0.86260215  1
  C  C38  1  0.06768492  0.04714222  0.36303586  1
  C  C39  1  0.93231508  0.95285778  0.63696414  1
  N  N40  1  0.24690878  0.49079614  0.16835417  1
  N  N41  1  0.75309122  0.50920386  0.83164583  1
  N  N42  1  0.42036077  0.68027025  0.09944012  1
  N  N43  1  0.57963923  0.31972975  0.90055988  1
  N  N44  1  0.65357449  0.49654054  0.14862019  1
  N  N45  1  0.34642551  0.50345946  0.85137981  1
  N  N46  1  0.01876420  0.18201275  0.37896793  1
  N  N47  1  0.98123580  0.81798725  0.62103207  1
  N  N48  1  0.70693501  0.00656997  0.63484237  1
  N  N49  1  0.29306499  0.99343003  0.36515763  1
  N  N50  1  0.22273896  0.21074948  0.39340964  1
  N  N51  1  0.77726104  0.78925052  0.60659036  1
  N  N52  1  0.38363461  0.09947553  0.38581039  1
  N  N53  1  0.61636539  0.90052447  0.61418961  1
  N  N54  1  0.77845488  0.59364909  0.11488970  1
  N  N55  1  0.22154512  0.40635091  0.88511030  1
  N  N56  1  0.64054988  0.70202919  0.08627917  1
  N  N57  1  0.35945012  0.29797081  0.91372083  1
  N  N58  1  0.08794662  0.02717927  0.65704769  1
  N  N59  1  0.91205338  0.97282073  0.34295231  1
  O  O60  1  0.87391110  0.22079613  0.13913557  1
  O  O61  1  0.12608890  0.77920387  0.86086443  1
  O  O62  1  0.51788352  0.07021737  0.11252103  1
  O  O63  1  0.48211648  0.92978263  0.88747897  1
  O  O64  1  0.07059061  0.90776945  0.10038599  1
  O  O65  1  0.92940939  0.09223055  0.89961401  1
  O  O66  1  0.48761350  0.27092495  0.63204130  1
  O  O67  1  0.51238650  0.72907505  0.36795870  1
  O  O68  1  0.66117957  0.41691958  0.39672184  1
  O  O69  1  0.33882043  0.58308042  0.60327816  1
  O  O70  1  0.11699684  0.58220538  0.39274844  1
  O  O71  1  0.88300316  0.41779462  0.60725156  1
