# generated using pymatgen
data_NaCo2Se2O7
_symmetry_space_group_name_H-M   'P 1'
_cell_length_a   6.05322165
_cell_length_b   13.51361294
_cell_length_c   8.37969991
_cell_angle_alpha   90.00000000
_cell_angle_beta   90.00000000
_cell_angle_gamma   90.00000000
_symmetry_Int_Tables_number   1
_chemical_formula_structural   NaCo2Se2O7
_chemical_formula_sum   'Na4 Co8 Se8 O28'
_cell_volume   685.46694759
_cell_formula_units_Z   4
loop_
 _symmetry_equiv_pos_site_id
 _symmetry_equiv_pos_as_xyz
  1  'x, y, z'
loop_
 _atom_site_type_symbol
 _atom_site_label
 _atom_site_symmetry_multiplicity
 _atom_site_fract_x
 _atom_site_fract_y
 _atom_site_fract_z
 _atom_site_occupancy
  Na  Na0  1  0.75000000  0.75113433  0.36962792  1
  Na  Na1  1  0.25000000  0.24886567  0.63037208  1
  Na  Na2  1  0.25000000  0.74886567  0.86962792  1
  Na  Na3  1  0.75000000  0.25113433  0.13037208  1
  Co  Co4  1  -0.00000000  0.00000000  0.00000000  1
  Co  Co5  1  0.00000000  0.50000000  0.50000000  1
  Co  Co6  1  0.50000000  0.00000000  -0.00000000  1
  Co  Co7  1  0.50000000  0.50000000  0.50000000  1
  Co  Co8  1  0.75000000  0.88433515  0.72540289  1
  Co  Co9  1  0.25000000  0.11566485  0.27459711  1
  Co  Co10  1  0.25000000  0.61566485  0.22540289  1
  Co  Co11  1  0.75000000  0.38433515  0.77459711  1
  Se  Se12  1  0.75000000  0.67193128  0.72619737  1
  Se  Se13  1  0.25000000  0.32806872  0.27380263  1
  Se  Se14  1  0.25000000  0.82806872  0.22619737  1
  Se  Se15  1  0.75000000  0.17193128  0.77380263  1
  Se  Se16  1  0.75000000  0.52550086  0.12028527  1
  Se  Se17  1  0.25000000  0.47449914  0.87971473  1
  Se  Se18  1  0.25000000  0.97449914  0.62028527  1
  Se  Se19  1  0.75000000  0.02550086  0.37971473  1
  O  O20  1  0.47445761  0.98601345  0.75089056  1
  O  O21  1  0.52554239  0.01398655  0.24910944  1
  O  O22  1  0.52554239  0.51398655  0.25089056  1
  O  O23  1  0.97445761  0.01398655  0.24910944  1
  O  O24  1  0.47445761  0.48601345  0.74910944  1
  O  O25  1  0.02554239  0.98601345  0.75089056  1
  O  O26  1  0.02554239  0.48601345  0.74910944  1
  O  O27  1  0.97445761  0.51398655  0.25089056  1
  O  O28  1  0.95926392  0.75724388  0.69921768  1
  O  O29  1  0.04073608  0.24275612  0.30078232  1
  O  O30  1  0.04073608  0.74275612  0.19921768  1
  O  O31  1  0.45926392  0.24275612  0.30078232  1
  O  O32  1  0.95926392  0.25724388  0.80078232  1
  O  O33  1  0.54073608  0.75724388  0.69921768  1
  O  O34  1  0.54073608  0.25724388  0.80078232  1
  O  O35  1  0.45926392  0.74275612  0.19921768  1
  O  O36  1  0.75000000  0.61298323  0.53560727  1
  O  O37  1  0.25000000  0.38701677  0.46439273  1
  O  O38  1  0.25000000  0.88701677  0.03560727  1
  O  O39  1  0.75000000  0.11298323  0.96439273  1
  O  O40  1  0.75000000  0.91249632  0.47252942  1
  O  O41  1  0.25000000  0.08750368  0.52747058  1
  O  O42  1  0.25000000  0.58750368  0.97252942  1
  O  O43  1  0.75000000  0.41249632  0.02747058  1
  O  O44  1  0.75000000  0.91760502  0.97010428  1
  O  O45  1  0.25000000  0.08239498  0.02989572  1
  O  O46  1  0.25000000  0.58239498  0.47010428  1
  O  O47  1  0.75000000  0.41760502  0.52989572  1
