# generated using pymatgen
data_Rb3YbCl6
_symmetry_space_group_name_H-M   'P 1'
_cell_length_a   8.12084495
_cell_length_b   12.86560979
_cell_length_c   13.56517316
_cell_angle_alpha   100.41572260
_cell_angle_beta   107.41718516
_cell_angle_gamma   90.00000000
_symmetry_Int_Tables_number   1
_chemical_formula_structural   Rb3YbCl6
_chemical_formula_sum   'Rb12 Yb4 Cl24'
_cell_volume   1327.80593381
_cell_formula_units_Z   4
loop_
 _symmetry_equiv_pos_site_id
 _symmetry_equiv_pos_as_xyz
  1  'x, y, z'
loop_
 _atom_site_type_symbol
 _atom_site_label
 _atom_site_symmetry_multiplicity
 _atom_site_fract_x
 _atom_site_fract_y
 _atom_site_fract_z
 _atom_site_occupancy
  Rb  Rb0  1  0.69520330  0.06818630  0.90020139  1
  Rb  Rb1  1  0.30479670  0.93181370  0.09979861  1
  Rb  Rb2  1  0.79500191  0.43181370  0.09979861  1
  Rb  Rb3  1  0.20499809  0.56818630  0.90020139  1
  Rb  Rb4  1  0.52738629  0.35147955  0.68873353  1
  Rb  Rb5  1  0.47261371  0.64852045  0.31126647  1
  Rb  Rb6  1  0.83865277  0.14852045  0.31126647  1
  Rb  Rb7  1  0.16134723  0.85147955  0.68873353  1
  Rb  Rb8  1  0.34932214  0.29840766  0.32413172  1
  Rb  Rb9  1  0.65067786  0.70159234  0.67586828  1
  Rb  Rb10  1  0.02519043  0.20159234  0.67586828  1
  Rb  Rb11  1  0.97480957  0.79840766  0.32413172  1
  Yb  Yb12  1  0.21311702  0.25000000  0.00000000  1
  Yb  Yb13  1  0.78688298  0.75000000  0.00000000  1
  Yb  Yb14  1  0.50000000  -0.00000000  0.50000000  1
  Yb  Yb15  1  0.00000000  0.50000000  0.50000000  1
  Cl  Cl16  1  0.38125984  0.08151934  0.66298552  1
  Cl  Cl17  1  0.61874016  0.91848066  0.33701448  1
  Cl  Cl18  1  0.71827432  0.41848066  0.33701448  1
  Cl  Cl19  1  0.28172568  0.58151934  0.66298552  1
  Cl  Cl20  1  0.49786129  0.17382344  0.11553336  1
  Cl  Cl21  1  0.50213871  0.82617656  0.88446664  1
  Cl  Cl22  1  0.38232792  0.32617656  0.88446664  1
  Cl  Cl23  1  0.61767208  0.67382344  0.11553336  1
  Cl  Cl24  1  0.21074003  0.03555455  0.34780244  1
  Cl  Cl25  1  0.78925997  0.96444545  0.65219756  1
  Cl  Cl26  1  0.86293758  0.46444545  0.65219756  1
  Cl  Cl27  1  0.13706242  0.53555455  0.34780244  1
  Cl  Cl28  1  0.09997894  0.69992235  0.11703566  1
  Cl  Cl29  1  0.90002106  0.30007765  0.88296434  1
  Cl  Cl30  1  0.98294328  0.80007765  0.88296434  1
  Cl  Cl31  1  0.01705672  0.19992235  0.11703566  1
  Cl  Cl32  1  0.28130099  0.44367974  0.11941994  1
  Cl  Cl33  1  0.71869901  0.55632026  0.88058006  1
  Cl  Cl34  1  0.16188104  0.05632026  0.88058006  1
  Cl  Cl35  1  0.83811896  0.94367974  0.11941994  1
  Cl  Cl36  1  0.64336740  0.18979451  0.49837889  1
  Cl  Cl37  1  0.35663260  0.81020549  0.50162111  1
  Cl  Cl38  1  0.14498851  0.31020549  0.50162111  1
  Cl  Cl39  1  0.85501149  0.68979451  0.49837889  1
