# generated using pymatgen
data_Li2Fe2(WO4)3
_symmetry_space_group_name_H-M   'P 1'
_cell_length_a   9.53034835
_cell_length_b   9.75367503
_cell_length_c   13.21532156
_cell_angle_alpha   90.00000000
_cell_angle_beta   90.00000000
_cell_angle_gamma   90.00000000
_symmetry_Int_Tables_number   1
_chemical_formula_structural   Li2Fe2(WO4)3
_chemical_formula_sum   'Li8 Fe8 W12 O48'
_cell_volume   1228.44238333
_cell_formula_units_Z   4
loop_
 _symmetry_equiv_pos_site_id
 _symmetry_equiv_pos_as_xyz
  1  'x, y, z'
loop_
 _atom_site_type_symbol
 _atom_site_label
 _atom_site_symmetry_multiplicity
 _atom_site_fract_x
 _atom_site_fract_y
 _atom_site_fract_z
 _atom_site_occupancy
  Li  Li0  1  0.73072779  0.72305990  0.68898061  1
  Li  Li1  1  0.26927221  0.27694010  0.31101939  1
  Li  Li2  1  0.23072779  0.77694010  0.81101939  1
  Li  Li3  1  0.76927221  0.72305990  0.31101939  1
  Li  Li4  1  0.76927221  0.22305990  0.18898061  1
  Li  Li5  1  0.23072779  0.27694010  0.68898061  1
  Li  Li6  1  0.26927221  0.77694010  0.18898061  1
  Li  Li7  1  0.73072779  0.22305990  0.81101939  1
  Fe  Fe8  1  0.53421727  0.74592842  0.87755406  1
  Fe  Fe9  1  0.46578273  0.25407158  0.12244594  1
  Fe  Fe10  1  0.03421727  0.75407158  0.62244594  1
  Fe  Fe11  1  0.96578273  0.74592842  0.12244594  1
  Fe  Fe12  1  0.96578273  0.24592842  0.37755406  1
  Fe  Fe13  1  0.03421727  0.25407158  0.87755406  1
  Fe  Fe14  1  0.46578273  0.75407158  0.37755406  1
  Fe  Fe15  1  0.53421727  0.24592842  0.62244594  1
  W  W16  1  0.89499717  0.90226367  0.85767467  1
  W  W17  1  0.10500283  0.09773633  0.14232533  1
  W  W18  1  0.39499717  0.59773633  0.64232533  1
  W  W19  1  0.60500283  0.90226367  0.14232533  1
  W  W20  1  0.60500283  0.40226367  0.35767467  1
  W  W21  1  0.39499717  0.09773633  0.85767467  1
  W  W22  1  0.10500283  0.59773633  0.35767467  1
  W  W23  1  0.89499717  0.40226367  0.64232533  1
  W  W24  1  0.75000000  0.46211199  -0.00000000  1
  W  W25  1  0.25000000  0.53788801  -0.00000000  1
  W  W26  1  0.25000000  0.03788801  0.50000000  1
  W  W27  1  0.75000000  0.96211199  0.50000000  1
  O  O28  1  0.92962350  0.85944723  0.98728718  1
  O  O29  1  0.07037650  0.14055277  0.01271282  1
  O  O30  1  0.42962350  0.64055277  0.51271282  1
  O  O31  1  0.57037650  0.85944723  0.01271282  1
  O  O32  1  0.57037650  0.35944723  0.48728718  1
  O  O33  1  0.42962350  0.14055277  0.98728718  1
  O  O34  1  0.07037650  0.64055277  0.48728718  1
  O  O35  1  0.92962350  0.35944723  0.51271282  1
  O  O36  1  0.88890313  0.58793238  0.66217189  1
  O  O37  1  0.11109687  0.41206762  0.33782811  1
  O  O38  1  0.38890313  0.91206762  0.83782811  1
  O  O39  1  0.61109687  0.58793238  0.33782811  1
  O  O40  1  0.61109687  0.08793238  0.16217189  1
  O  O41  1  0.38890313  0.41206762  0.66217189  1
  O  O42  1  0.11109687  0.91206762  0.16217189  1
  O  O43  1  0.88890313  0.08793238  0.83782811  1
  O  O44  1  0.53451901  0.67145326  0.71946213  1
  O  O45  1  0.46548099  0.32854674  0.28053787  1
  O  O46  1  0.03451901  0.82854674  0.78053787  1
  O  O47  1  0.96548099  0.67145326  0.28053787  1
  O  O48  1  0.96548099  0.17145326  0.21946213  1
  O  O49  1  0.03451901  0.32854674  0.71946213  1
  O  O50  1  0.46548099  0.82854674  0.21946213  1
  O  O51  1  0.53451901  0.17145326  0.78053787  1
  O  O52  1  0.62508756  0.56823054  0.93465223  1
  O  O53  1  0.37491244  0.43176946  0.06534777  1
  O  O54  1  0.12508756  0.93176946  0.56534777  1
  O  O55  1  0.87491244  0.56823054  0.06534777  1
  O  O56  1  0.87491244  0.06823054  0.43465223  1
  O  O57  1  0.12508756  0.43176946  0.93465223  1
  O  O58  1  0.37491244  0.93176946  0.43465223  1
  O  O59  1  0.62508756  0.06823054  0.56534777  1
  O  O60  1  0.83492429  0.85078921  0.59339227  1
  O  O61  1  0.16507571  0.14921079  0.40660773  1
  O  O62  1  0.33492429  0.64921079  0.90660773  1
  O  O63  1  0.66507571  0.85078921  0.40660773  1
  O  O64  1  0.66507571  0.35078921  0.09339227  1
  O  O65  1  0.33492429  0.14921079  0.59339227  1
  O  O66  1  0.16507571  0.64921079  0.09339227  1
  O  O67  1  0.83492429  0.35078921  0.90660773  1
  O  O68  1  0.72851803  0.82631508  0.81931223  1
  O  O69  1  0.27148197  0.17368492  0.18068777  1
  O  O70  1  0.22851803  0.67368492  0.68068777  1
  O  O71  1  0.77148197  0.82631508  0.18068777  1
  O  O72  1  0.77148197  0.32631508  0.31931223  1
  O  O73  1  0.22851803  0.17368492  0.81931223  1
  O  O74  1  0.27148197  0.67368492  0.31931223  1
  O  O75  1  0.72851803  0.32631508  0.68068777  1
