# generated using pymatgen
data_Na2HoTa5O15
_symmetry_space_group_name_H-M   'P 1'
_cell_length_a   3.92188456
_cell_length_b   12.58478258
_cell_length_c   12.58478258
_cell_angle_alpha   90.00000000
_cell_angle_beta   90.00000000
_cell_angle_gamma   90.00000000
_symmetry_Int_Tables_number   1
_chemical_formula_structural   Na2HoTa5O15
_chemical_formula_sum   'Na4 Ho2 Ta10 O30'
_cell_volume   621.13534063
_cell_formula_units_Z   2
loop_
 _symmetry_equiv_pos_site_id
 _symmetry_equiv_pos_as_xyz
  1  'x, y, z'
loop_
 _atom_site_type_symbol
 _atom_site_label
 _atom_site_symmetry_multiplicity
 _atom_site_fract_x
 _atom_site_fract_y
 _atom_site_fract_z
 _atom_site_occupancy
  Na  Na0  1  0.50000000  0.17214141  0.67214141  1
  Na  Na1  1  0.50000000  0.82785859  0.32785859  1
  Na  Na2  1  0.50000000  0.32785859  0.17214141  1
  Na  Na3  1  0.50000000  0.67214141  0.82785859  1
  Ho  Ho4  1  0.50000000  -0.00000000  0.00000000  1
  Ho  Ho5  1  0.50000000  0.50000000  0.50000000  1
  Ta  Ta6  1  0.00000000  -0.00000000  0.50000000  1
  Ta  Ta7  1  0.00000000  0.50000000  0.00000000  1
  Ta  Ta8  1  0.00000000  0.07872838  0.21128797  1
  Ta  Ta9  1  -0.00000000  0.92127162  0.78871203  1
  Ta  Ta10  1  -0.00000000  0.78871203  0.07872838  1
  Ta  Ta11  1  -0.00000000  0.42127162  0.71128797  1
  Ta  Ta12  1  0.00000000  0.21128797  0.92127162  1
  Ta  Ta13  1  0.00000000  0.57872838  0.28871203  1
  Ta  Ta14  1  0.00000000  0.71128797  0.57872838  1
  Ta  Ta15  1  -0.00000000  0.28871203  0.42127162  1
  O  O16  1  0.50000000  0.07990056  0.18690999  1
  O  O17  1  0.50000000  0.92009944  0.81309001  1
  O  O18  1  0.50000000  0.81309001  0.07990056  1
  O  O19  1  0.50000000  0.42009944  0.68690999  1
  O  O20  1  0.50000000  0.18690999  0.92009944  1
  O  O21  1  0.50000000  0.57990056  0.31309001  1
  O  O22  1  0.50000000  0.68690999  0.57990056  1
  O  O23  1  0.50000000  0.31309001  0.42009944  1
  O  O24  1  0.00000000  0.72377597  0.22377597  1
  O  O25  1  -0.00000000  0.27622403  0.77622403  1
  O  O26  1  -0.00000000  0.77622403  0.72377597  1
  O  O27  1  0.00000000  0.22377597  0.27622403  1
  O  O28  1  0.50000000  -0.00000000  0.50000000  1
  O  O29  1  0.50000000  0.50000000  0.00000000  1
  O  O30  1  -0.00000000  0.13046777  0.05716692  1
  O  O31  1  0.00000000  0.86953223  0.94283308  1
  O  O32  1  -0.00000000  0.94283308  0.13046777  1
  O  O33  1  0.00000000  0.36953223  0.55716692  1
  O  O34  1  0.00000000  0.05716692  0.86953223  1
  O  O35  1  -0.00000000  0.63046777  0.44283308  1
  O  O36  1  0.00000000  0.55716692  0.63046777  1
  O  O37  1  -0.00000000  0.44283308  0.36953223  1
  O  O38  1  0.00000000  0.99801200  0.34087310  1
  O  O39  1  -0.00000000  0.00198800  0.65912690  1
  O  O40  1  -0.00000000  0.65912690  0.99801200  1
  O  O41  1  -0.00000000  0.50198800  0.84087310  1
  O  O42  1  0.00000000  0.34087310  0.00198800  1
  O  O43  1  0.00000000  0.49801200  0.15912690  1
  O  O44  1  0.00000000  0.84087310  0.49801200  1
  O  O45  1  -0.00000000  0.15912690  0.50198800  1
