# generated using pymatgen
data_MnSi(AgTe2)2
_symmetry_space_group_name_H-M   'P 1'
_cell_length_a   7.37798599
_cell_length_b   7.73317696
_cell_length_c   8.78959526
_cell_angle_alpha   90.00000000
_cell_angle_beta   90.00000000
_cell_angle_gamma   90.00000000
_symmetry_Int_Tables_number   1
_chemical_formula_structural   MnSi(AgTe2)2
_chemical_formula_sum   'Mn2 Si2 Ag4 Te8'
_cell_volume   501.49274190
_cell_formula_units_Z   2
loop_
 _symmetry_equiv_pos_site_id
 _symmetry_equiv_pos_as_xyz
  1  'x, y, z'
loop_
 _atom_site_type_symbol
 _atom_site_label
 _atom_site_symmetry_multiplicity
 _atom_site_fract_x
 _atom_site_fract_y
 _atom_site_fract_z
 _atom_site_occupancy
  Mn  Mn0  1  0.50460817  0.35123266  -0.00000000  1
  Mn  Mn1  1  0.00460817  0.64876734  0.50000000  1
  Si  Si2  1  0.00080965  0.66442862  -0.00000000  1
  Si  Si3  1  0.50080965  0.33557138  0.50000000  1
  Ag  Ag4  1  0.51656589  0.82408403  0.75058753  1
  Ag  Ag5  1  0.01656589  0.17591597  0.74941247  1
  Ag  Ag6  1  0.01656589  0.17591597  0.25058753  1
  Ag  Ag7  1  0.51656589  0.82408403  0.24941247  1
  Te  Te8  1  0.87536779  0.35850081  -0.00000000  1
  Te  Te9  1  0.37536779  0.64149919  0.50000000  1
  Te  Te10  1  0.89502646  0.82740550  0.76068886  1
  Te  Te11  1  0.39502646  0.17259450  0.73931114  1
  Te  Te12  1  0.39502646  0.17259450  0.26068886  1
  Te  Te13  1  0.89502646  0.82740550  0.23931114  1
  Te  Te14  1  0.34852968  0.66703808  -0.00000000  1
  Te  Te15  1  0.84852968  0.33296192  0.50000000  1
