# generated using pymatgen
data_Na2CrH5C4O11
_symmetry_space_group_name_H-M   'P 1'
_cell_length_a   8.94934911
_cell_length_b   9.77470915
_cell_length_c   12.90736367
_cell_angle_alpha   103.30534696
_cell_angle_beta   90.00000000
_cell_angle_gamma   90.00000000
_symmetry_Int_Tables_number   1
_chemical_formula_structural   Na2CrH5C4O11
_chemical_formula_sum   'Na8 Cr4 H20 C16 O44'
_cell_volume   1098.79311544
_cell_formula_units_Z   4
loop_
 _symmetry_equiv_pos_site_id
 _symmetry_equiv_pos_as_xyz
  1  'x, y, z'
loop_
 _atom_site_type_symbol
 _atom_site_label
 _atom_site_symmetry_multiplicity
 _atom_site_fract_x
 _atom_site_fract_y
 _atom_site_fract_z
 _atom_site_occupancy
  Na  Na0  1  0.16603388  0.86487313  0.98798349  1
  Na  Na1  1  0.83396612  0.13512687  0.01201651  1
  Na  Na2  1  0.66603388  0.13512687  0.51201651  1
  Na  Na3  1  0.33396612  0.86487313  0.48798349  1
  Na  Na4  1  0.65020137  0.35359529  0.79062199  1
  Na  Na5  1  0.34979863  0.64640471  0.20937801  1
  Na  Na6  1  0.15020137  0.64640471  0.70937801  1
  Na  Na7  1  0.84979863  0.35359529  0.29062199  1
  Cr  Cr8  1  0.94110277  0.89658375  0.56284971  1
  Cr  Cr9  1  0.05889723  0.10341625  0.43715029  1
  Cr  Cr10  1  0.44110277  0.10341625  0.93715029  1
  Cr  Cr11  1  0.55889723  0.89658375  0.06284971  1
  H  H12  1  0.65805546  0.43993074  0.57820132  1
  H  H13  1  0.34194454  0.56006926  0.42179868  1
  H  H14  1  0.15805546  0.56006926  0.92179868  1
  H  H15  1  0.84194454  0.43993074  0.07820132  1
  H  H16  1  0.99137934  0.59571944  0.90613460  1
  H  H17  1  0.00862066  0.40428056  0.09386540  1
  H  H18  1  0.49137934  0.40428056  0.59386540  1
  H  H19  1  0.50862066  0.59571944  0.40613460  1
  H  H20  1  0.64329967  0.90611574  0.87423351  1
  H  H21  1  0.35670033  0.09388426  0.12576649  1
  H  H22  1  0.14329967  0.09388426  0.62576649  1
  H  H23  1  0.85670033  0.90611574  0.37423351  1
  H  H24  1  0.72924527  0.72747519  0.70231858  1
  H  H25  1  0.27075473  0.27252481  0.29768142  1
  H  H26  1  0.22924527  0.27252481  0.79768142  1
  H  H27  1  0.77075473  0.72747519  0.20231858  1
  H  H28  1  0.55978093  0.74139801  0.71907981  1
  H  H29  1  0.44021907  0.25860199  0.28092019  1
  H  H30  1  0.05978093  0.25860199  0.78092019  1
  H  H31  1  0.94021907  0.74139801  0.21907981  1
  C  C32  1  0.51621234  0.62564005  0.93506457  1
  C  C33  1  0.48378766  0.37435995  0.06493543  1
  C  C34  1  0.01621234  0.37435995  0.56493543  1
  C  C35  1  0.98378766  0.62564005  0.43506457  1
  C  C36  1  0.35890104  0.92654137  0.74289744  1
  C  C37  1  0.64109896  0.07345863  0.25710256  1
  C  C38  1  0.85890104  0.07345863  0.75710256  1
  C  C39  1  0.14109896  0.92654137  0.24289744  1
  C  C40  1  0.94641257  0.94965665  0.78691666  1
  C  C41  1  0.05358743  0.05034335  0.21308334  1
  C  C42  1  0.44641257  0.05034335  0.71308334  1
  C  C43  1  0.55358743  0.94965665  0.28691666  1
  C  C44  1  0.68486896  0.63630806  0.96615423  1
  C  C45  1  0.31513104  0.36369194  0.03384577  1
  C  C46  1  0.18486896  0.36369194  0.53384577  1
  C  C47  1  0.81513104  0.63630806  0.46615423  1
  O  O48  1  0.98948672  0.85238142  0.70575050  1
  O  O49  1  0.01051328  0.14761858  0.29424950  1
  O  O50  1  0.48948672  0.14761858  0.79424950  1
  O  O51  1  0.51051328  0.85238142  0.20575050  1
  O  O52  1  0.77197858  0.53848618  0.92709484  1
  O  O53  1  0.22802142  0.46151382  0.07290516  1
  O  O54  1  0.27197858  0.46151382  0.57290516  1
  O  O55  1  0.72802142  0.53848618  0.42709484  1
  O  O56  1  0.96567445  0.48208778  0.62526951  1
  O  O57  1  0.03432555  0.51791222  0.37473049  1
  O  O58  1  0.46567445  0.51791222  0.87473049  1
  O  O59  1  0.53432555  0.48208778  0.12526951  1
  O  O60  1  0.33162882  0.81810014  0.67334659  1
  O  O61  1  0.66837118  0.18189986  0.32665341  1
  O  O62  1  0.83162882  0.18189986  0.82665341  1
  O  O63  1  0.16837118  0.81810014  0.17334659  1
  O  O64  1  0.59423795  0.37676385  0.60726234  1
  O  O65  1  0.40576205  0.62323615  0.39273766  1
  O  O66  1  0.09423795  0.62323615  0.89273766  1
  O  O67  1  0.90576205  0.37676385  0.10726234  1
  O  O68  1  0.61876148  0.97778009  0.93928686  1
  O  O69  1  0.38123852  0.02221991  0.06071314  1
  O  O70  1  0.11876148  0.02221991  0.56071314  1
  O  O71  1  0.88123852  0.97778009  0.43928686  1
  O  O72  1  0.43838366  0.73585049  0.97890542  1
  O  O73  1  0.56161634  0.26414951  0.02109458  1
  O  O74  1  0.93838366  0.26414951  0.52109458  1
  O  O75  1  0.06161634  0.73585049  0.47890542  1
  O  O76  1  0.77779267  0.75039982  0.53437903  1
  O  O77  1  0.22220733  0.24960018  0.46562097  1
  O  O78  1  0.27779267  0.24960018  0.96562097  1
  O  O79  1  0.72220733  0.75039982  0.03437903  1
  O  O80  1  0.32278324  0.94661508  0.84223256  1
  O  O81  1  0.67721676  0.05338492  0.15776744  1
  O  O82  1  0.82278324  0.05338492  0.65776744  1
  O  O83  1  0.17721676  0.94661508  0.34223256  1
  O  O84  1  0.96921508  0.95040971  0.88162174  1
  O  O85  1  0.03078492  0.04959029  0.11837826  1
  O  O86  1  0.46921508  0.04959029  0.61837826  1
  O  O87  1  0.53078492  0.95040971  0.38162174  1
  O  O88  1  0.65365994  0.74838051  0.75840847  1
  O  O89  1  0.34634006  0.25161949  0.24159153  1
  O  O90  1  0.15365994  0.25161949  0.74159153  1
  O  O91  1  0.84634006  0.74838051  0.25840847  1
