# generated using pymatgen
data_Mg3Cu2(PO4)3
_symmetry_space_group_name_H-M   'P 1'
_cell_length_a   6.47906564
_cell_length_b   8.65918590
_cell_length_c   8.65918590
_cell_angle_alpha   93.87557820
_cell_angle_beta   108.37850138
_cell_angle_gamma   108.37850138
_symmetry_Int_Tables_number   1
_chemical_formula_structural   Mg3Cu2(PO4)3
_chemical_formula_sum   'Mg6 Cu4 P6 O24'
_cell_volume   429.92792501
_cell_formula_units_Z   2
loop_
 _symmetry_equiv_pos_site_id
 _symmetry_equiv_pos_as_xyz
  1  'x, y, z'
loop_
 _atom_site_type_symbol
 _atom_site_label
 _atom_site_symmetry_multiplicity
 _atom_site_fract_x
 _atom_site_fract_y
 _atom_site_fract_z
 _atom_site_occupancy
  Mg  Mg0  1  0.75000000  0.22961094  0.77038906  1
  Mg  Mg1  1  0.25000000  0.77038906  0.22961094  1
  Mg  Mg2  1  0.63046446  0.55801538  0.87340848  1
  Mg  Mg3  1  0.36953554  0.44198462  0.12659152  1
  Mg  Mg4  1  0.86953554  0.12659152  0.44198462  1
  Mg  Mg5  1  0.13046446  0.87340848  0.55801538  1
  Cu  Cu6  1  0.00000000  0.00000000  0.00000000  1
  Cu  Cu7  1  0.50000000  0.00000000  0.00000000  1
  Cu  Cu8  1  0.75000000  0.50262956  0.49737044  1
  Cu  Cu9  1  0.25000000  0.49737044  0.50262956  1
  P  P10  1  0.75000000  0.80045099  0.19954901  1
  P  P11  1  0.25000000  0.19954901  0.80045099  1
  P  P12  1  0.87298983  0.38191161  0.16310788  1
  P  P13  1  0.12701017  0.61808839  0.83689212  1
  P  P14  1  0.62701017  0.83689212  0.61808839  1
  P  P15  1  0.37298983  0.16310788  0.38191161  1
  O  O16  1  0.77418925  0.78090310  0.02492050  1
  O  O17  1  0.22581075  0.21909690  0.97507950  1
  O  O18  1  0.72581075  0.97507950  0.21909690  1
  O  O19  1  0.27418925  0.02492050  0.78090310  1
  O  O20  1  0.68389907  0.45718060  0.11155446  1
  O  O21  1  0.31610093  0.54281940  0.88844554  1
  O  O22  1  0.81610093  0.88844554  0.54281940  1
  O  O23  1  0.18389907  0.11155446  0.45718060  1
  O  O24  1  0.79914992  0.21933790  0.03593984  1
  O  O25  1  0.20085008  0.78066210  0.96406016  1
  O  O26  1  0.70085008  0.96406016  0.78066210  1
  O  O27  1  0.29914992  0.03593984  0.21933790  1
  O  O28  1  0.89184775  0.49263985  0.83188880  1
  O  O29  1  0.10815225  0.50736015  0.16811120  1
  O  O30  1  0.60815225  0.16811120  0.50736015  1
  O  O31  1  0.39184775  0.83188880  0.49263985  1
  O  O32  1  0.57612992  0.65224200  0.65084531  1
  O  O33  1  0.42387008  0.34775800  0.34915469  1
  O  O34  1  0.92387008  0.34915469  0.34775800  1
  O  O35  1  0.07612992  0.65084531  0.65224200  1
  O  O36  1  0.52998246  0.68478296  0.22202861  1
  O  O37  1  0.47001754  0.31521704  0.77797139  1
  O  O38  1  0.97001754  0.77797139  0.31521704  1
  O  O39  1  0.02998246  0.22202861  0.68478296  1
