# generated using pymatgen
data_BaMg6Al
_symmetry_space_group_name_H-M   'P 1'
_cell_length_a   7.75608127
_cell_length_b   6.24135146
_cell_length_c   4.97847172
_cell_angle_alpha   90.00000000
_cell_angle_beta   90.00000000
_cell_angle_gamma   113.72531428
_symmetry_Int_Tables_number   1
_chemical_formula_structural   BaMg6Al
_chemical_formula_sum   'Ba1 Mg6 Al1'
_cell_volume   220.63186083
_cell_formula_units_Z   1
loop_
 _symmetry_equiv_pos_site_id
 _symmetry_equiv_pos_as_xyz
  1  'x, y, z'
loop_
 _atom_site_type_symbol
 _atom_site_label
 _atom_site_symmetry_multiplicity
 _atom_site_fract_x
 _atom_site_fract_y
 _atom_site_fract_z
 _atom_site_occupancy
  Ba  Ba0  1  0.08962971  0.79481385  0.25000000  1
  Mg  Mg1  1  0.62756619  0.30311814  0.25000000  1
  Mg  Mg2  1  0.62756619  0.82444705  0.25000000  1
  Mg  Mg3  1  0.35729451  0.18152135  0.75000000  1
  Mg  Mg4  1  0.35729451  0.67577417  0.75000000  1
  Mg  Mg5  1  0.91113602  0.20556851  0.75000000  1
  Mg  Mg6  1  0.74745631  0.62372866  0.75000000  1
  Al  Al7  1  0.28205656  0.39102828  0.25000000  1
