# generated using pymatgen
data_FeAs2Pb2O9
_symmetry_space_group_name_H-M   'P 1'
_cell_length_a   6.01419818
_cell_length_b   8.10518174
_cell_length_c   9.03406135
_cell_angle_alpha   113.32375611
_cell_angle_beta   90.00000000
_cell_angle_gamma   90.00000000
_symmetry_Int_Tables_number   1
_chemical_formula_structural   FeAs2Pb2O9
_chemical_formula_sum   'Fe2 As4 Pb4 O18'
_cell_volume   404.38937968
_cell_formula_units_Z   2
loop_
 _symmetry_equiv_pos_site_id
 _symmetry_equiv_pos_as_xyz
  1  'x, y, z'
loop_
 _atom_site_type_symbol
 _atom_site_label
 _atom_site_symmetry_multiplicity
 _atom_site_fract_x
 _atom_site_fract_y
 _atom_site_fract_z
 _atom_site_occupancy
  Fe  Fe0  1  -0.00000000  0.00000000  0.00000000  1
  Fe  Fe1  1  0.50000000  0.00000000  0.00000000  1
  As  As2  1  0.75000000  0.97265297  0.66254971  1
  As  As3  1  0.25000000  0.02734703  0.33745029  1
  As  As4  1  0.75000000  0.56767007  0.82800069  1
  As  As5  1  0.25000000  0.43232993  0.17199931  1
  Pb  Pb6  1  0.75000000  0.69505439  0.24637404  1
  Pb  Pb7  1  0.25000000  0.30494561  0.75362596  1
  Pb  Pb8  1  0.75000000  0.29510854  0.38622786  1
  Pb  Pb9  1  0.25000000  0.70489146  0.61377214  1
  O  O10  1  0.75000000  0.74852597  0.53988072  1
  O  O11  1  0.25000000  0.25147403  0.46011928  1
  O  O12  1  0.75000000  0.47282276  0.96540184  1
  O  O13  1  0.25000000  0.52717724  0.03459816  1
  O  O14  1  0.75000000  0.80403282  0.93125369  1
  O  O15  1  0.25000000  0.19596718  0.06874631  1
  O  O16  1  0.75000000  0.15131905  0.07429791  1
  O  O17  1  0.25000000  0.84868095  0.92570209  1
  O  O18  1  0.75000000  0.11249890  0.56542335  1
  O  O19  1  0.25000000  0.88750110  0.43457665  1
  O  O20  1  0.98259147  0.50729075  0.70605579  1
  O  O21  1  0.01740853  0.49270925  0.29394421  1
  O  O22  1  0.48259147  0.49270925  0.29394421  1
  O  O23  1  0.51740853  0.50729075  0.70605579  1
  O  O24  1  0.49041074  0.99001637  0.21818346  1
  O  O25  1  0.50958926  0.00998363  0.78181654  1
  O  O26  1  0.99041074  0.00998363  0.78181654  1
  O  O27  1  0.00958926  0.99001637  0.21818346  1
