# generated using pymatgen
data_La2ZrCuO6
_symmetry_space_group_name_H-M   'P 1'
_cell_length_a   7.90386951
_cell_length_b   7.92240626
_cell_length_c   8.69172224
_cell_angle_alpha   90.00000000
_cell_angle_beta   92.14764662
_cell_angle_gamma   90.00000000
_symmetry_Int_Tables_number   1
_chemical_formula_structural   La2ZrCuO6
_chemical_formula_sum   'La8 Zr4 Cu4 O24'
_cell_volume   543.87305573
_cell_formula_units_Z   4
loop_
 _symmetry_equiv_pos_site_id
 _symmetry_equiv_pos_as_xyz
  1  'x, y, z'
loop_
 _atom_site_type_symbol
 _atom_site_label
 _atom_site_symmetry_multiplicity
 _atom_site_fract_x
 _atom_site_fract_y
 _atom_site_fract_z
 _atom_site_occupancy
  La  La0  1  0.71513220  0.25000000  0.72853789  1
  La  La1  1  0.28486780  0.75000000  0.27146211  1
  La  La2  1  0.20341841  0.25000000  0.74073348  1
  La  La3  1  0.79658159  0.75000000  0.25926652  1
  La  La4  1  0.71674463  0.25000000  0.29421870  1
  La  La5  1  0.28325537  0.75000000  0.70578130  1
  La  La6  1  0.23095683  0.25000000  0.30686509  1
  La  La7  1  0.76904317  0.75000000  0.69313491  1
  Zr  Zr8  1  0.50000000  -0.00000000  0.00000000  1
  Zr  Zr9  1  0.50000000  0.50000000  0.00000000  1
  Zr  Zr10  1  0.00000000  -0.00000000  0.00000000  1
  Zr  Zr11  1  0.00000000  0.50000000  0.00000000  1
  Cu  Cu12  1  0.50000000  0.00000000  0.50000000  1
  Cu  Cu13  1  0.50000000  0.50000000  0.50000000  1
  Cu  Cu14  1  0.00000000  0.00000000  0.50000000  1
  Cu  Cu15  1  0.00000000  0.50000000  0.50000000  1
  O  O16  1  0.97133130  0.25000000  0.46847094  1
  O  O17  1  0.02866870  0.75000000  0.53152906  1
  O  O18  1  0.47079447  0.25000000  0.91196324  1
  O  O19  1  0.52920553  0.75000000  0.08803676  1
  O  O20  1  0.24947902  0.03186175  0.54689262  1
  O  O21  1  0.75052098  0.96813825  0.45310738  1
  O  O22  1  0.75052098  0.53186175  0.45310738  1
  O  O23  1  0.24947902  0.46813825  0.54689262  1
  O  O24  1  0.52791150  0.25000000  0.51077443  1
  O  O25  1  0.47208850  0.75000000  0.48922557  1
  O  O26  1  0.05788113  0.55678753  0.23223438  1
  O  O27  1  0.94211887  0.44321247  0.76776562  1
  O  O28  1  0.94211887  0.05678753  0.76776562  1
  O  O29  1  0.05788113  0.94321247  0.23223438  1
  O  O30  1  0.43377063  0.05318678  0.22717324  1
  O  O31  1  0.56622937  0.94681322  0.77282676  1
  O  O32  1  0.56622937  0.55318678  0.77282676  1
  O  O33  1  0.43377063  0.44681322  0.22717324  1
  O  O34  1  0.08570264  0.25000000  0.03634239  1
  O  O35  1  0.91429736  0.75000000  0.96365761  1
  O  O36  1  0.75189589  0.05351743  0.07706986  1
  O  O37  1  0.24810411  0.94648257  0.92293014  1
  O  O38  1  0.24810411  0.55351743  0.92293014  1
  O  O39  1  0.75189589  0.44648257  0.07706986  1
