# generated using pymatgen
data_BaCoH2C3ClO8
_symmetry_space_group_name_H-M   'P 1'
_cell_length_a   8.21159368
_cell_length_b   9.81062500
_cell_length_c   12.30181650
_cell_angle_alpha   102.61388468
_cell_angle_beta   70.50313195
_cell_angle_gamma   90.00000000
_symmetry_Int_Tables_number   1
_chemical_formula_structural   BaCoH2C3ClO8
_chemical_formula_sum   'Ba4 Co4 H8 C12 Cl4 O32'
_cell_volume   908.80375247
_cell_formula_units_Z   4
loop_
 _symmetry_equiv_pos_site_id
 _symmetry_equiv_pos_as_xyz
  1  'x, y, z'
loop_
 _atom_site_type_symbol
 _atom_site_label
 _atom_site_symmetry_multiplicity
 _atom_site_fract_x
 _atom_site_fract_y
 _atom_site_fract_z
 _atom_site_occupancy
  Ba  Ba0  1  0.71153961  0.76067323  0.20341491  1
  Ba  Ba1  1  0.91495452  0.73932677  0.79658509  1
  Ba  Ba2  1  0.28846039  0.23932677  0.79658509  1
  Ba  Ba3  1  0.08504548  0.26067323  0.20341491  1
  Co  Co4  1  0.50693280  0.40853661  0.28975580  1
  Co  Co5  1  0.79668861  0.09146339  0.71024420  1
  Co  Co6  1  0.49306720  0.59146339  0.71024420  1
  Co  Co7  1  0.20331139  0.90853661  0.28975580  1
  H  H8  1  0.52568482  0.83033489  0.01608739  1
  H  H9  1  0.54177222  0.66966511  0.98391261  1
  H  H10  1  0.47431518  0.16966511  0.98391261  1
  H  H11  1  0.45822778  0.33033489  0.01608739  1
  H  H12  1  0.10342565  0.67158341  0.97153192  1
  H  H13  1  0.07495756  0.82841659  0.02846808  1
  H  H14  1  0.89657435  0.32841659  0.02846808  1
  H  H15  1  0.92504244  0.17158341  0.97153192  1
  C  C16  1  0.49125231  0.10925382  0.25490527  1
  C  C17  1  0.74615759  0.39074618  0.74509473  1
  C  C18  1  0.50874769  0.89074618  0.74509473  1
  C  C19  1  0.25384241  0.60925382  0.25490527  1
  C  C20  1  0.61332738  0.65445941  0.45296839  1
  C  C21  1  0.06629577  0.84554059  0.54703161  1
  C  C22  1  0.38667262  0.34554059  0.54703161  1
  C  C23  1  0.93370423  0.15445941  0.45296839  1
  C  C24  1  0.68296388  0.13678771  0.23815646  1
  C  C25  1  0.92112034  0.36321229  0.76184354  1
  C  C26  1  0.31703612  0.86321229  0.76184354  1
  C  C27  1  0.07887966  0.63678771  0.23815646  1
  Cl  Cl28  1  0.65357527  0.44523296  0.08458147  1
  Cl  Cl29  1  0.73815674  0.05476704  0.91541853  1
  Cl  Cl30  1  0.34642473  0.55476704  0.91541853  1
  Cl  Cl31  1  0.26184326  0.94523296  0.08458147  1
  O  O32  1  0.71367183  0.26645033  0.25523583  1
  O  O33  1  0.96890766  0.23354967  0.74476417  1
  O  O34  1  0.28632817  0.73354967  0.74476417  1
  O  O35  1  0.03109234  0.76645033  0.25523583  1
  O  O36  1  0.79620313  0.03673247  0.20715647  1
  O  O37  1  0.00335960  0.46326753  0.79284353  1
  O  O38  1  0.20379687  0.96326753  0.79284353  1
  O  O39  1  0.99664040  0.53673247  0.20715647  1
  O  O40  1  0.62007037  0.59540078  0.53393161  1
  O  O41  1  0.15400198  0.90459922  0.46606839  1
  O  O42  1  0.37992963  0.40459922  0.46606839  1
  O  O43  1  0.84599802  0.09540078  0.53393161  1
  O  O44  1  0.60969037  0.75000000  0.00000000  1
  O  O45  1  0.39030963  0.25000000  0.00000000  1
  O  O46  1  0.01163435  0.75000000  0.00000000  1
  O  O47  1  0.98836565  0.25000000  0.00000000  1
  O  O48  1  0.44560965  0.98817716  0.26702442  1
  O  O49  1  0.71263407  0.51182284  0.73297558  1
  O  O50  1  0.55439035  0.01182284  0.73297558  1
  O  O51  1  0.28736593  0.48817716  0.26702442  1
  O  O52  1  0.39812728  0.21103408  0.25304379  1
  O  O53  1  0.65117107  0.28896592  0.74695621  1
  O  O54  1  0.60187272  0.78896592  0.74695621  1
  O  O55  1  0.34882893  0.71103408  0.25304379  1
  O  O56  1  0.59628184  0.57859861  0.35552536  1
  O  O57  1  0.95180720  0.92140139  0.64447464  1
  O  O58  1  0.40371816  0.42140139  0.64447464  1
  O  O59  1  0.04819280  0.07859861  0.35552536  1
  O  O60  1  0.63173921  0.78349284  0.45651036  1
  O  O61  1  0.08824957  0.71650716  0.54348964  1
  O  O62  1  0.36826079  0.21650716  0.54348964  1
  O  O63  1  0.91175043  0.28349284  0.45651036  1
