# generated using pymatgen
data_ErGaO3
_symmetry_space_group_name_H-M   'P 1'
_cell_length_a   5.57494925
_cell_length_b   5.26975424
_cell_length_c   7.61208805
_cell_angle_alpha   90.00000000
_cell_angle_beta   90.00000000
_cell_angle_gamma   90.00000000
_symmetry_Int_Tables_number   1
_chemical_formula_structural   ErGaO3
_chemical_formula_sum   'Er4 Ga4 O12'
_cell_volume   223.63258474
_cell_formula_units_Z   4
loop_
 _symmetry_equiv_pos_site_id
 _symmetry_equiv_pos_as_xyz
  1  'x, y, z'
loop_
 _atom_site_type_symbol
 _atom_site_label
 _atom_site_symmetry_multiplicity
 _atom_site_fract_x
 _atom_site_fract_y
 _atom_site_fract_z
 _atom_site_occupancy
  Er  Er0  1  0.56849363  0.98078057  0.75000000  1
  Er  Er1  1  0.43150637  0.01921943  0.25000000  1
  Er  Er2  1  0.93150637  0.48078057  0.25000000  1
  Er  Er3  1  0.06849363  0.51921943  0.75000000  1
  Ga  Ga4  1  -0.00000000  -0.00000000  -0.00000000  1
  Ga  Ga5  1  0.50000000  0.50000000  -0.00000000  1
  Ga  Ga6  1  -0.00000000  -0.00000000  0.50000000  1
  Ga  Ga7  1  0.50000000  0.50000000  0.50000000  1
  O  O8  1  0.80544204  0.69295741  0.94146218  1
  O  O9  1  0.19455796  0.30704259  0.05853782  1
  O  O10  1  0.69455796  0.19295741  0.05853782  1
  O  O11  1  0.19455796  0.30704259  0.44146218  1
  O  O12  1  0.30544204  0.80704259  0.94146218  1
  O  O13  1  0.80544204  0.69295741  0.55853782  1
  O  O14  1  0.30544204  0.80704259  0.55853782  1
  O  O15  1  0.69455796  0.19295741  0.44146218  1
  O  O16  1  0.45876408  0.38529807  0.75000000  1
  O  O17  1  0.54123592  0.61470193  0.25000000  1
  O  O18  1  0.04123592  0.88529807  0.25000000  1
  O  O19  1  0.95876408  0.11470193  0.75000000  1
