# generated using pymatgen
data_Np(IO3)2
_symmetry_space_group_name_H-M   'P 1'
_cell_length_a   5.26737000
_cell_length_b   12.97554271
_cell_length_c   12.97554271
_cell_angle_alpha   90.00000000
_cell_angle_beta   90.00000000
_cell_angle_gamma   90.00000000
_symmetry_Int_Tables_number   1
_chemical_formula_structural   Np(IO3)2
_chemical_formula_sum   'Np4 I8 O24'
_cell_volume   886.83921524
_cell_formula_units_Z   4
loop_
 _symmetry_equiv_pos_site_id
 _symmetry_equiv_pos_as_xyz
  1  'x, y, z'
loop_
 _atom_site_type_symbol
 _atom_site_label
 _atom_site_symmetry_multiplicity
 _atom_site_fract_x
 _atom_site_fract_y
 _atom_site_fract_z
 _atom_site_occupancy
  Np  Np0  1  0.25000000  0.25000000  0.25000000  1
  Np  Np1  1  0.25000000  0.75000000  0.75000000  1
  Np  Np2  1  0.75000000  0.25000000  0.75000000  1
  Np  Np3  1  0.75000000  0.75000000  0.25000000  1
  I  I4  1  0.24609548  0.02094513  0.76355230  1
  I  I5  1  0.24609548  0.97905487  0.23644770  1
  I  I6  1  0.74609548  0.73644770  0.52094513  1
  I  I7  1  0.25390452  0.47905487  0.73644770  1
  I  I8  1  0.74609548  0.26355230  0.47905487  1
  I  I9  1  0.25390452  0.52094513  0.26355230  1
  I  I10  1  0.75390452  0.76355230  0.97905487  1
  I  I11  1  0.75390452  0.23644770  0.02094513  1
  O  O12  1  0.49771449  0.61550499  0.21667984  1
  O  O13  1  0.49771449  0.38449501  0.78332016  1
  O  O14  1  0.99771449  0.28332016  0.11550499  1
  O  O15  1  0.00228551  0.88449501  0.28332016  1
  O  O16  1  0.99771449  0.71667984  0.88449501  1
  O  O17  1  0.00228551  0.11550499  0.71667984  1
  O  O18  1  0.50228551  0.21667984  0.38449501  1
  O  O19  1  0.50228551  0.78332016  0.61550499  1
  O  O20  1  0.48342944  0.17872258  0.16520842  1
  O  O21  1  0.48342944  0.82127742  0.83479158  1
  O  O22  1  0.98342944  0.33479158  0.67872258  1
  O  O23  1  0.01657056  0.32127742  0.33479158  1
  O  O24  1  0.98342944  0.66520842  0.32127742  1
  O  O25  1  0.01657056  0.67872258  0.66520842  1
  O  O26  1  0.51657056  0.16520842  0.82127742  1
  O  O27  1  0.51657056  0.83479158  0.17872258  1
  O  O28  1  0.06216508  0.10315193  0.27741488  1
  O  O29  1  0.06216508  0.89684807  0.72258512  1
  O  O30  1  0.56216508  0.22258512  0.60315193  1
  O  O31  1  0.43783492  0.39684807  0.22258512  1
  O  O32  1  0.56216508  0.77741488  0.39684807  1
  O  O33  1  0.43783492  0.60315193  0.77741488  1
  O  O34  1  0.93783492  0.27741488  0.89684807  1
  O  O35  1  0.93783492  0.72258512  0.10315193  1
