# generated using pymatgen
data_KYbP4(H2O3)6
_symmetry_space_group_name_H-M   'P 1'
_cell_length_a   7.67516082
_cell_length_b   7.67516082
_cell_length_c   15.25671516
_cell_angle_alpha   90.37088613
_cell_angle_beta   90.37088613
_cell_angle_gamma   111.15082588
_symmetry_Int_Tables_number   1
_chemical_formula_structural   KYbP4(H2O3)6
_chemical_formula_sum   'K2 Yb2 P8 H24 O36'
_cell_volume   838.14410537
_cell_formula_units_Z   2
loop_
 _symmetry_equiv_pos_site_id
 _symmetry_equiv_pos_as_xyz
  1  'x, y, z'
loop_
 _atom_site_type_symbol
 _atom_site_label
 _atom_site_symmetry_multiplicity
 _atom_site_fract_x
 _atom_site_fract_y
 _atom_site_fract_z
 _atom_site_occupancy
  K  K0  1  0.52357913  0.47642087  0.75000000  1
  K  K1  1  0.47642087  0.52357913  0.25000000  1
  Yb  Yb2  1  0.88485745  0.11514255  0.75000000  1
  Yb  Yb3  1  0.11514255  0.88485745  0.25000000  1
  P  P4  1  0.20650575  0.03197269  0.91414788  1
  P  P5  1  0.79349425  0.96802731  0.08585212  1
  P  P6  1  0.96802731  0.79349425  0.58585212  1
  P  P7  1  0.03197269  0.20650575  0.41414788  1
  P  P8  1  0.75851851  0.82055517  0.42347909  1
  P  P9  1  0.24148149  0.17944483  0.57652091  1
  P  P10  1  0.17944483  0.24148149  0.07652091  1
  P  P11  1  0.82055517  0.75851851  0.92347909  1
  H  H12  1  0.45678370  0.95256384  0.76514895  1
  H  H13  1  0.54321630  0.04743616  0.23485105  1
  H  H14  1  0.04743616  0.54321630  0.73485105  1
  H  H15  1  0.95256384  0.45678370  0.26514895  1
  H  H16  1  0.48619214  0.84786900  0.67839165  1
  H  H17  1  0.51380786  0.15213100  0.32160835  1
  H  H18  1  0.15213100  0.51380786  0.82160835  1
  H  H19  1  0.84786900  0.48619214  0.17839165  1
  H  H20  1  0.36652247  0.74401866  0.89293878  1
  H  H21  1  0.63347753  0.25598134  0.10706122  1
  H  H22  1  0.25598134  0.63347753  0.60706122  1
  H  H23  1  0.74401866  0.36652247  0.39293878  1
  H  H24  1  0.31633777  0.55750628  0.94713738  1
  H  H25  1  0.68366223  0.44249372  0.05286262  1
  H  H26  1  0.44249372  0.68366223  0.55286262  1
  H  H27  1  0.55750628  0.31633777  0.44713738  1
  H  H28  1  0.59763797  0.13534596  0.88163649  1
  H  H29  1  0.40236203  0.86465404  0.11836351  1
  H  H30  1  0.86465404  0.40236203  0.61836351  1
  H  H31  1  0.13534596  0.59763797  0.38163649  1
  H  H32  1  0.66428357  0.23830014  0.61345928  1
  H  H33  1  0.33571643  0.76169986  0.38654072  1
  H  H34  1  0.76169986  0.33571643  0.88654072  1
  H  H35  1  0.23830014  0.66428357  0.11345928  1
  O  O36  1  0.36566808  0.97352859  0.88638308  1
  O  O37  1  0.63433192  0.02647141  0.11361692  1
  O  O38  1  0.02647141  0.63433192  0.61361692  1
  O  O39  1  0.97352859  0.36566808  0.38638308  1
  O  O40  1  0.34572699  0.60919622  0.88769722  1
  O  O41  1  0.65427301  0.39080378  0.11230278  1
  O  O42  1  0.39080378  0.65427301  0.61230278  1
  O  O43  1  0.60919622  0.34572699  0.38769722  1
  O  O44  1  0.84860501  0.04104868  0.44942939  1
  O  O45  1  0.15139499  0.95895132  0.55057061  1
  O  O46  1  0.95895132  0.15139499  0.05057061  1
  O  O47  1  0.04104868  0.84860501  0.94942939  1
  O  O48  1  0.72521596  0.84990167  0.99614162  1
  O  O49  1  0.27478404  0.15009833  0.00385838  1
  O  O50  1  0.15009833  0.27478404  0.50385838  1
  O  O51  1  0.84990167  0.72521596  0.49614162  1
  O  O52  1  0.72301429  0.21033938  0.85971035  1
  O  O53  1  0.27698571  0.78966062  0.14028965  1
  O  O54  1  0.78966062  0.27698571  0.64028965  1
  O  O55  1  0.21033938  0.72301429  0.35971035  1
  O  O56  1  0.44743634  0.24453994  0.55998295  1
  O  O57  1  0.55256366  0.75546006  0.44001705  1
  O  O58  1  0.75546006  0.55256366  0.94001705  1
  O  O59  1  0.24453994  0.44743634  0.05998295  1
  O  O60  1  0.85879187  0.86187604  0.64945489  1
  O  O61  1  0.14120813  0.13812396  0.35054511  1
  O  O62  1  0.13812396  0.14120813  0.85054511  1
  O  O63  1  0.86187604  0.85879187  0.14945489  1
  O  O64  1  0.54536410  0.95772304  0.71837186  1
  O  O65  1  0.45463590  0.04227696  0.28162814  1
  O  O66  1  0.04227696  0.45463590  0.78162814  1
  O  O67  1  0.95772304  0.54536410  0.21837186  1
  O  O68  1  0.78609042  0.82568442  0.83532802  1
  O  O69  1  0.21390958  0.17431558  0.16467198  1
  O  O70  1  0.17431558  0.21390958  0.66467198  1
  O  O71  1  0.82568442  0.78609042  0.33532802  1
