# generated using pymatgen
data_K2PbCl5
_symmetry_space_group_name_H-M   'P 1'
_cell_length_a   8.18978369
_cell_length_b   8.87211382
_cell_length_c   12.86296590
_cell_angle_alpha   90.00000000
_cell_angle_beta   90.00000000
_cell_angle_gamma   90.00000000
_symmetry_Int_Tables_number   1
_chemical_formula_structural   K2PbCl5
_chemical_formula_sum   'K8 Pb4 Cl20'
_cell_volume   934.63201709
_cell_formula_units_Z   4
loop_
 _symmetry_equiv_pos_site_id
 _symmetry_equiv_pos_as_xyz
  1  'x, y, z'
loop_
 _atom_site_type_symbol
 _atom_site_label
 _atom_site_symmetry_multiplicity
 _atom_site_fract_x
 _atom_site_fract_y
 _atom_site_fract_z
 _atom_site_occupancy
  K  K0  1  0.95379689  0.00047545  0.67225177  1
  K  K1  1  0.04620311  0.99952455  0.32774823  1
  K  K2  1  0.45379689  0.99952455  0.82774823  1
  K  K3  1  0.04620311  0.50047545  0.32774823  1
  K  K4  1  0.54620311  0.00047545  0.17225177  1
  K  K5  1  0.95379689  0.49952455  0.67225177  1
  K  K6  1  0.54620311  0.49952455  0.17225177  1
  K  K7  1  0.45379689  0.50047545  0.82774823  1
  Pb  Pb8  1  0.92990837  0.75000000  0.99706832  1
  Pb  Pb9  1  0.07009163  0.25000000  0.00293168  1
  Pb  Pb10  1  0.42990837  0.25000000  0.50293168  1
  Pb  Pb11  1  0.57009163  0.75000000  0.49706832  1
  Cl  Cl12  1  0.57790645  0.75000000  0.98673052  1
  Cl  Cl13  1  0.42209355  0.25000000  0.01326948  1
  Cl  Cl14  1  0.07790645  0.25000000  0.51326948  1
  Cl  Cl15  1  0.92209355  0.75000000  0.48673052  1
  Cl  Cl16  1  0.83576599  0.45827727  0.91838005  1
  Cl  Cl17  1  0.16423401  0.54172273  0.08161995  1
  Cl  Cl18  1  0.33576599  0.54172273  0.58161995  1
  Cl  Cl19  1  0.16423401  0.95827727  0.08161995  1
  Cl  Cl20  1  0.66423401  0.45827727  0.41838005  1
  Cl  Cl21  1  0.83576599  0.04172273  0.91838005  1
  Cl  Cl22  1  0.66423401  0.04172273  0.41838005  1
  Cl  Cl23  1  0.33576599  0.95827727  0.58161995  1
  Cl  Cl24  1  0.66758694  0.75000000  0.70270240  1
  Cl  Cl25  1  0.33241306  0.25000000  0.29729760  1
  Cl  Cl26  1  0.16758694  0.25000000  0.79729760  1
  Cl  Cl27  1  0.83241306  0.75000000  0.20270240  1
  Cl  Cl28  1  0.13182291  0.75000000  0.82471613  1
  Cl  Cl29  1  0.86817709  0.25000000  0.17528387  1
  Cl  Cl30  1  0.63182291  0.25000000  0.67528387  1
  Cl  Cl31  1  0.36817709  0.75000000  0.32471613  1
