# generated using pymatgen
data_CaCeAlFe2Si3O13
_symmetry_space_group_name_H-M   'P 1'
_cell_length_a   5.85701426
_cell_length_b   9.01372553
_cell_length_c   10.36072888
_cell_angle_alpha   116.76052309
_cell_angle_beta   90.00000000
_cell_angle_gamma   90.00000000
_symmetry_Int_Tables_number   1
_chemical_formula_structural   CaCeAlFe2Si3O13
_chemical_formula_sum   'Ca2 Ce2 Al2 Fe4 Si6 O26'
_cell_volume   488.39580518
_cell_formula_units_Z   2
loop_
 _symmetry_equiv_pos_site_id
 _symmetry_equiv_pos_as_xyz
  1  'x, y, z'
loop_
 _atom_site_type_symbol
 _atom_site_label
 _atom_site_symmetry_multiplicity
 _atom_site_fract_x
 _atom_site_fract_y
 _atom_site_fract_z
 _atom_site_occupancy
  Ca  Ca0  1  0.75000000  0.23047603  0.85042293  1
  Ca  Ca1  1  0.25000000  0.76952397  0.14957707  1
  Ce  Ce2  1  0.75000000  0.36863818  0.56166885  1
  Ce  Ce3  1  0.25000000  0.63136182  0.43833115  1
  Al  Al4  1  0.00000000  0.00000000  0.50000000  1
  Al  Al5  1  0.50000000  0.00000000  0.50000000  1
  Fe  Fe6  1  0.75000000  0.30490940  0.22674467  1
  Fe  Fe7  1  0.25000000  0.69509060  0.77325533  1
  Fe  Fe8  1  -0.00000000  0.00000000  -0.00000000  1
  Fe  Fe9  1  0.50000000  0.00000000  -0.00000000  1
  Si  Si10  1  0.75000000  0.65167541  0.95418498  1
  Si  Si11  1  0.25000000  0.34832459  0.04581502  1
  Si  Si12  1  0.75000000  0.80405425  0.66656580  1
  Si  Si13  1  0.25000000  0.19594575  0.33343420  1
  Si  Si14  1  0.75000000  0.68543209  0.26731222  1
  Si  Si15  1  0.25000000  0.31456791  0.73268778  1
  O  O16  1  0.75000000  0.59554868  0.08727622  1
  O  O17  1  0.25000000  0.40445132  0.91272378  1
  O  O18  1  0.98838109  0.75361996  0.96633809  1
  O  O19  1  0.01161891  0.24638004  0.03366191  1
  O  O20  1  0.48838109  0.24638004  0.03366191  1
  O  O21  1  0.51161891  0.75361996  0.96633809  1
  O  O22  1  0.75000000  0.92158480  0.58211890  1
  O  O23  1  0.25000000  0.07841520  0.41788110  1
  O  O24  1  0.75000000  0.06108667  0.13403643  1
  O  O25  1  0.25000000  0.93891333  0.86596357  1
  O  O26  1  0.75000000  0.47858966  0.80400005  1
  O  O27  1  0.25000000  0.52141034  0.19599995  1
  O  O28  1  0.75000000  0.54806070  0.32606497  1
  O  O29  1  0.25000000  0.45193930  0.67393503  1
  O  O30  1  0.97911181  0.80152921  0.32590522  1
  O  O31  1  0.02088819  0.19847079  0.67409478  1
  O  O32  1  0.47911181  0.19847079  0.67409478  1
  O  O33  1  0.52088819  0.80152921  0.32590522  1
  O  O34  1  0.75000000  0.10351431  0.45432992  1
  O  O35  1  0.25000000  0.89648569  0.54567008  1
  O  O36  1  0.75000000  0.94323393  0.83954942  1
  O  O37  1  0.25000000  0.05676607  0.16045058  1
  O  O38  1  0.97231651  0.67720730  0.62257766  1
  O  O39  1  0.02768349  0.32279270  0.37742234  1
  O  O40  1  0.47231651  0.32279270  0.37742234  1
  O  O41  1  0.52768349  0.67720730  0.62257766  1
