# generated using pymatgen
data_Co3P
_symmetry_space_group_name_H-M   'P 1'
_cell_length_a   4.37077874
_cell_length_b   6.65084524
_cell_length_c   6.65084524
_cell_angle_alpha   83.80167943
_cell_angle_beta   70.81689167
_cell_angle_gamma   70.81689167
_symmetry_Int_Tables_number   1
_chemical_formula_structural   Co3P
_chemical_formula_sum   'Co12 P4'
_cell_volume   172.46138180
_cell_formula_units_Z   4
loop_
 _symmetry_equiv_pos_site_id
 _symmetry_equiv_pos_as_xyz
  1  'x, y, z'
loop_
 _atom_site_type_symbol
 _atom_site_label
 _atom_site_symmetry_multiplicity
 _atom_site_fract_x
 _atom_site_fract_y
 _atom_site_fract_z
 _atom_site_occupancy
  Co  Co0  1  0.57968013  0.95045782  0.38653556  1
  Co  Co1  1  0.91667351  0.04954218  0.61346444  1
  Co  Co2  1  0.03378431  0.38653556  0.04954218  1
  Co  Co3  1  0.46986204  0.61346444  0.95045782  1
  Co  Co4  1  0.16549768  0.32959278  0.39706204  1
  Co  Co5  1  0.89215249  0.67040722  0.60293796  1
  Co  Co6  1  0.43744028  0.39706204  0.67040722  1
  Co  Co7  1  0.50490955  0.60293796  0.32959278  1
  Co  Co8  1  0.34817202  0.02514169  0.81359043  1
  Co  Co9  1  0.18690414  0.97485831  0.18640957  1
  Co  Co10  1  0.83823755  0.81359043  0.97485831  1
  Co  Co11  1  0.62668629  0.18640957  0.02514169  1
  P  P12  1  0.30947919  0.75559731  0.66169580  1
  P  P13  1  0.72677231  0.24440269  0.33830420  1
  P  P14  1  0.02882500  0.66169580  0.24440269  1
  P  P15  1  0.93492349  0.33830420  0.75559731  1
