# generated using pymatgen
data_CsNaMo3O10
_symmetry_space_group_name_H-M   'P 1'
_cell_length_a   7.68381228
_cell_length_b   7.94592647
_cell_length_c   19.33895480
_cell_angle_alpha   90.00000000
_cell_angle_beta   90.00000000
_cell_angle_gamma   90.00000000
_symmetry_Int_Tables_number   1
_chemical_formula_structural   CsNaMo3O10
_chemical_formula_sum   'Cs4 Na4 Mo12 O40'
_cell_volume   1180.74002815
_cell_formula_units_Z   4
loop_
 _symmetry_equiv_pos_site_id
 _symmetry_equiv_pos_as_xyz
  1  'x, y, z'
loop_
 _atom_site_type_symbol
 _atom_site_label
 _atom_site_symmetry_multiplicity
 _atom_site_fract_x
 _atom_site_fract_y
 _atom_site_fract_z
 _atom_site_occupancy
  Cs  Cs0  1  0.75000000  0.58958205  0.72648543  1
  Cs  Cs1  1  0.25000000  0.41041795  0.27351457  1
  Cs  Cs2  1  0.25000000  0.91041795  0.22648543  1
  Cs  Cs3  1  0.75000000  0.08958205  0.77351457  1
  Na  Na4  1  0.75000000  0.68472125  0.44550500  1
  Na  Na5  1  0.25000000  0.31527875  0.55449500  1
  Na  Na6  1  0.25000000  0.81527875  0.94550500  1
  Na  Na7  1  0.75000000  0.18472125  0.05449500  1
  Mo  Mo8  1  0.49660143  0.90480722  0.58774391  1
  Mo  Mo9  1  0.50339857  0.09519278  0.41225609  1
  Mo  Mo10  1  0.50339857  0.59519278  0.08774391  1
  Mo  Mo11  1  0.99660143  0.09519278  0.41225609  1
  Mo  Mo12  1  0.49660143  0.40480722  0.91225609  1
  Mo  Mo13  1  0.00339857  0.90480722  0.58774391  1
  Mo  Mo14  1  0.00339857  0.40480722  0.91225609  1
  Mo  Mo15  1  0.99660143  0.59519278  0.08774391  1
  Mo  Mo16  1  0.75000000  0.73646218  0.95475010  1
  Mo  Mo17  1  0.25000000  0.26353782  0.04524990  1
  Mo  Mo18  1  0.25000000  0.76353782  0.45475010  1
  Mo  Mo19  1  0.75000000  0.23646218  0.54524990  1
  O  O20  1  0.75000000  0.59325264  0.05896997  1
  O  O21  1  0.25000000  0.40674736  0.94103003  1
  O  O22  1  0.25000000  0.90674736  0.55896997  1
  O  O23  1  0.75000000  0.09325264  0.44103003  1
  O  O24  1  0.75000000  0.78459396  0.86628923  1
  O  O25  1  0.25000000  0.21540604  0.13371077  1
  O  O26  1  0.25000000  0.71540604  0.36628923  1
  O  O27  1  0.75000000  0.28459396  0.63371077  1
  O  O28  1  0.98881307  0.65704143  0.96966244  1
  O  O29  1  0.01118693  0.34295857  0.03033756  1
  O  O30  1  0.01118693  0.84295857  0.46966244  1
  O  O31  1  0.48881307  0.34295857  0.03033756  1
  O  O32  1  0.98881307  0.15704143  0.53033756  1
  O  O33  1  0.51118693  0.65704143  0.96966244  1
  O  O34  1  0.51118693  0.15704143  0.53033756  1
  O  O35  1  0.48881307  0.84295857  0.46966244  1
  O  O36  1  0.75000000  0.93042509  0.99666492  1
  O  O37  1  0.25000000  0.06957491  0.00333508  1
  O  O38  1  0.25000000  0.56957491  0.49666492  1
  O  O39  1  0.75000000  0.43042509  0.50333508  1
  O  O40  1  0.46559088  0.00309262  0.66723839  1
  O  O41  1  0.53440912  0.99690738  0.33276161  1
  O  O42  1  0.53440912  0.49690738  0.16723839  1
  O  O43  1  0.96559088  0.99690738  0.33276161  1
  O  O44  1  0.46559088  0.50309262  0.83276161  1
  O  O45  1  0.03440912  0.00309262  0.66723839  1
  O  O46  1  0.03440912  0.50309262  0.83276161  1
  O  O47  1  0.96559088  0.49690738  0.16723839  1
  O  O48  1  0.75000000  0.94866856  0.57503373  1
  O  O49  1  0.25000000  0.05133144  0.42496627  1
  O  O50  1  0.25000000  0.55133144  0.07503373  1
  O  O51  1  0.75000000  0.44866856  0.92496627  1
  O  O52  1  0.98237912  0.69310456  0.60883153  1
  O  O53  1  0.01762088  0.30689544  0.39116847  1
  O  O54  1  0.01762088  0.80689544  0.10883153  1
  O  O55  1  0.48237912  0.30689544  0.39116847  1
  O  O56  1  0.98237912  0.19310456  0.89116847  1
  O  O57  1  0.51762088  0.69310456  0.60883153  1
  O  O58  1  0.51762088  0.19310456  0.89116847  1
  O  O59  1  0.48237912  0.80689544  0.10883153  1
