# generated using pymatgen
data_Ca3Ga3Ge3O14
_symmetry_space_group_name_H-M   'P 1'
_cell_length_a   5.03768272
_cell_length_b   8.23594015
_cell_length_c   8.23594015
_cell_angle_alpha   120.00000278
_cell_angle_beta   90.00000000
_cell_angle_gamma   90.00000000
_symmetry_Int_Tables_number   1
_chemical_formula_structural   Ca3Ga3Ge3O14
_chemical_formula_sum   'Ca3 Ga3 Ge3 O14'
_cell_volume   295.92918263
_cell_formula_units_Z   1
loop_
 _symmetry_equiv_pos_site_id
 _symmetry_equiv_pos_as_xyz
  1  'x, y, z'
loop_
 _atom_site_type_symbol
 _atom_site_label
 _atom_site_symmetry_multiplicity
 _atom_site_fract_x
 _atom_site_fract_y
 _atom_site_fract_z
 _atom_site_occupancy
  Ca  Ca0  1  -0.00000000  0.42231542  0.42231542  1
  Ca  Ca1  1  -0.00000000  1.00000000  0.57768458  1
  Ca  Ca2  1  -0.00000000  0.57768458  1.00000000  1
  Ga  Ga3  1  0.50000000  0.75773175  0.75773175  1
  Ga  Ga4  1  0.50000000  0.00000000  0.24226825  1
  Ga  Ga5  1  0.50000000  0.24226825  0.00000000  1
  Ge  Ge6  1  0.45946978  0.66666700  0.33333300  1
  Ge  Ge7  1  0.54053022  0.33333300  0.66666700  1
  Ge  Ge8  1  -0.00000000  0.00000000  0.00000000  1
  O  O9  1  0.69635738  0.53559889  0.68298445  1
  O  O10  1  0.69635738  0.14738556  0.46440111  1
  O  O11  1  0.30364262  0.85261444  0.31701555  1
  O  O12  1  0.69635738  0.31701555  0.85261444  1
  O  O13  1  0.30364262  0.68298445  0.53559889  1
  O  O14  1  0.30364262  0.46440111  0.14738556  1
  O  O15  1  0.77088470  0.86338902  0.07817213  1
  O  O16  1  0.77088470  0.21478312  0.13661098  1
  O  O17  1  0.22911530  0.78521688  0.92182787  1
  O  O18  1  0.77088470  0.92182787  0.78521688  1
  O  O19  1  0.22911530  0.07817213  0.86338902  1
  O  O20  1  0.22911530  0.13661098  0.21478312  1
  O  O21  1  0.80351343  0.66666700  0.33333300  1
  O  O22  1  0.19648657  0.33333300  0.66666700  1
