# generated using pymatgen
data_AlH16C2S2NO14
_symmetry_space_group_name_H-M   'P 1'
_cell_length_a   6.53265673
_cell_length_b   10.56929013
_cell_length_c   11.61521303
_cell_angle_alpha   90.00000000
_cell_angle_beta   99.42211580
_cell_angle_gamma   90.00000000
_symmetry_Int_Tables_number   1
_chemical_formula_structural   AlH16C2S2NO14
_chemical_formula_sum   'Al2 H32 C4 S4 N2 O28'
_cell_volume   791.15924732
_cell_formula_units_Z   2
loop_
 _symmetry_equiv_pos_site_id
 _symmetry_equiv_pos_as_xyz
  1  'x, y, z'
loop_
 _atom_site_type_symbol
 _atom_site_label
 _atom_site_symmetry_multiplicity
 _atom_site_fract_x
 _atom_site_fract_y
 _atom_site_fract_z
 _atom_site_occupancy
  Al  Al0  1  0.49410331  0.00570961  0.00092725  1
  Al  Al1  1  0.99410331  0.49429039  0.50092725  1
  H  H2  1  0.19020008  0.98607509  0.11951331  1
  H  H3  1  0.69020008  0.51392491  0.61951331  1
  H  H4  1  0.79877430  0.01920308  0.88447777  1
  H  H5  1  0.29877430  0.48079692  0.38447777  1
  H  H6  1  0.31315544  0.15013391  0.82860532  1
  H  H7  1  0.81315544  0.34986609  0.32860532  1
  H  H8  1  0.67431966  0.86402784  0.17394579  1
  H  H9  1  0.17431966  0.63597216  0.67394579  1
  H  H10  1  0.16435462  0.02940568  0.84837690  1
  H  H11  1  0.66435462  0.47059432  0.34837690  1
  H  H12  1  0.83066111  0.97856048  0.15146038  1
  H  H13  1  0.33066111  0.52143952  0.65146038  1
  H  H14  1  0.74987060  0.95119369  0.52720635  1
  H  H15  1  0.24987060  0.54880631  0.02720635  1
  H  H16  1  0.37159217  0.07982424  0.60593732  1
  H  H17  1  0.87159217  0.42017576  0.10593732  1
  H  H18  1  0.28712661  0.84681355  0.09865534  1
  H  H19  1  0.78712661  0.65318645  0.59865534  1
  H  H20  1  0.70558906  0.16113257  0.89853130  1
  H  H21  1  0.20558906  0.33886743  0.39853130  1
  H  H22  1  0.35667852  0.81568413  0.86551888  1
  H  H23  1  0.85667852  0.68431587  0.36551888  1
  H  H24  1  0.62283345  0.18861929  0.14133010  1
  H  H25  1  0.12283345  0.31138071  0.64133010  1
  H  H26  1  0.34799955  0.87361835  0.40515645  1
  H  H27  1  0.84799955  0.62638165  0.90515645  1
  H  H28  1  0.66677798  0.08647022  0.42349670  1
  H  H29  1  0.16677798  0.41352978  0.92349670  1
  H  H30  1  0.61071971  0.81194320  0.88922496  1
  H  H31  1  0.11071971  0.68805680  0.38922496  1
  H  H32  1  0.36648532  0.19876442  0.10801031  1
  H  H33  1  0.86648532  0.30123558  0.60801031  1
  C  C34  1  0.44596785  0.03387343  0.53957392  1
  C  C35  1  0.94596785  0.46612657  0.03957392  1
  C  C36  1  0.62990790  0.01506499  0.48453076  1
  C  C37  1  0.12990790  0.48493501  0.98453076  1
  S  S38  1  0.43451887  0.68920492  0.26815823  1
  S  S39  1  0.93451887  0.81079508  0.76815823  1
  S  S40  1  0.55678305  0.31381716  0.73096706  1
  S  S41  1  0.05678305  0.18618284  0.23096706  1
  N  N42  1  0.41648503  0.95669028  0.45642809  1
  N  N43  1  0.91648503  0.54330972  0.95642809  1
  O  O44  1  0.45204311  0.55236641  0.29867305  1
  O  O45  1  0.95204311  0.94763359  0.79867305  1
  O  O46  1  0.53930581  0.45320179  0.70420847  1
  O  O47  1  0.03930581  0.04679821  0.20420847  1
  O  O48  1  0.48427123  0.85061663  0.91435520  1
  O  O49  1  0.98427123  0.64938337  0.41435520  1
  O  O50  1  0.49729635  0.16028556  0.08609028  1
  O  O51  1  0.99729635  0.33971444  0.58609028  1
  O  O52  1  0.28860365  0.07997174  0.88312673  1
  O  O53  1  0.78860365  0.42002826  0.38312673  1
  O  O54  1  0.70114610  0.92993808  0.11715336  1
  O  O55  1  0.20114610  0.57006192  0.61715336  1
  O  O56  1  0.31090308  0.75198073  0.35272111  1
  O  O57  1  0.81090308  0.74801927  0.85272111  1
  O  O58  1  0.65370366  0.24896757  0.64038235  1
  O  O59  1  0.15370366  0.25103243  0.14038235  1
  O  O60  1  0.32173211  0.70594634  0.14817295  1
  O  O61  1  0.82173211  0.79405366  0.64817295  1
  O  O62  1  0.68106054  0.29648064  0.84865832  1
  O  O63  1  0.18106054  0.20351936  0.34865832  1
  O  O64  1  0.27467810  0.93705817  0.06952176  1
  O  O65  1  0.77467810  0.56294183  0.56952176  1
  O  O66  1  0.71503335  0.07098799  0.93148561  1
  O  O67  1  0.21503335  0.42901201  0.43148561  1
  O  O68  1  0.64377418  0.74905103  0.28106593  1
  O  O69  1  0.14377418  0.75094897  0.78106593  1
  O  O70  1  0.34124458  0.26101061  0.72985235  1
  O  O71  1  0.84124458  0.23898939  0.22985235  1
