# generated using pymatgen
data_Ba2YCoCu2O7
_symmetry_space_group_name_H-M   'P 1'
_cell_length_a   3.86535751
_cell_length_b   3.91781004
_cell_length_c   11.82624300
_cell_angle_alpha   90.00000000
_cell_angle_beta   90.00000000
_cell_angle_gamma   90.00000000
_symmetry_Int_Tables_number   1
_chemical_formula_structural   Ba2YCoCu2O7
_chemical_formula_sum   'Ba2 Y1 Co1 Cu2 O7'
_cell_volume   179.09350731
_cell_formula_units_Z   1
loop_
 _symmetry_equiv_pos_site_id
 _symmetry_equiv_pos_as_xyz
  1  'x, y, z'
loop_
 _atom_site_type_symbol
 _atom_site_label
 _atom_site_symmetry_multiplicity
 _atom_site_fract_x
 _atom_site_fract_y
 _atom_site_fract_z
 _atom_site_occupancy
  Ba  Ba0  1  0.50000000  0.50000000  0.18386593  1
  Ba  Ba1  1  0.50000000  0.50000000  0.81613407  1
  Y  Y2  1  0.50000000  0.50000000  0.50000000  1
  Co  Co3  1  0.00000000  0.00000000  -0.00000000  1
  Cu  Cu4  1  -0.00000000  0.00000000  0.35912527  1
  Cu  Cu5  1  0.00000000  0.00000000  0.64087473  1
  O  O6  1  0.50000000  -0.00000000  0.37754041  1
  O  O7  1  0.50000000  0.00000000  0.62245959  1
  O  O8  1  0.00000000  0.00000000  0.15221919  1
  O  O9  1  -0.00000000  0.00000000  0.84778081  1
  O  O10  1  0.00000000  0.50000000  0.37786272  1
  O  O11  1  -0.00000000  0.50000000  0.62213728  1
  O  O12  1  -0.00000000  0.50000000  -0.00000000  1
