# generated using pymatgen
data_Ca3NbO6
_symmetry_space_group_name_H-M   'P 1'
_cell_length_a   5.68724303
_cell_length_b   5.94214056
_cell_length_c   8.14161755
_cell_angle_alpha   90.00000000
_cell_angle_beta   89.53251931
_cell_angle_gamma   90.00000000
_symmetry_Int_Tables_number   1
_chemical_formula_structural   Ca3NbO6
_chemical_formula_sum   'Ca6 Nb2 O12'
_cell_volume   275.13190141
_cell_formula_units_Z   2
loop_
 _symmetry_equiv_pos_site_id
 _symmetry_equiv_pos_as_xyz
  1  'x, y, z'
loop_
 _atom_site_type_symbol
 _atom_site_label
 _atom_site_symmetry_multiplicity
 _atom_site_fract_x
 _atom_site_fract_y
 _atom_site_fract_z
 _atom_site_occupancy
  Ca  Ca0  1  0.01617256  0.44218614  0.25817010  1
  Ca  Ca1  1  0.98382744  0.55781386  0.74182990  1
  Ca  Ca2  1  0.48382744  0.94218614  0.24182990  1
  Ca  Ca3  1  0.51617256  0.05781386  0.75817010  1
  Ca  Ca4  1  0.00000000  0.00000000  0.50000000  1
  Ca  Ca5  1  0.50000000  0.50000000  -0.00000000  1
  Nb  Nb6  1  0.00000000  -0.00000000  -0.00000000  1
  Nb  Nb7  1  0.50000000  0.50000000  0.50000000  1
  O  O8  1  0.87726029  0.05858368  0.22992572  1
  O  O9  1  0.12273971  0.94141632  0.77007428  1
  O  O10  1  0.62273971  0.55858368  0.27007428  1
  O  O11  1  0.37726029  0.44141632  0.72992572  1
  O  O12  1  0.16999042  0.71584869  0.07438888  1
  O  O13  1  0.83000958  0.28415131  0.92561112  1
  O  O14  1  0.33000958  0.21584869  0.42561112  1
  O  O15  1  0.66999042  0.78415131  0.57438888  1
  O  O16  1  0.29022761  0.17715592  0.05570468  1
  O  O17  1  0.70977239  0.82284408  0.94429532  1
  O  O18  1  0.20977239  0.67715592  0.44429532  1
  O  O19  1  0.79022761  0.32284408  0.55570468  1
