# generated using pymatgen
data_Eu5Ga3
_symmetry_space_group_name_H-M   'P 1'
_cell_length_a   6.93185630
_cell_length_b   9.28511352
_cell_length_c   9.28511352
_cell_angle_alpha   120.37362936
_cell_angle_beta   91.30790738
_cell_angle_gamma   91.30790738
_symmetry_Int_Tables_number   1
_chemical_formula_structural   Eu5Ga3
_chemical_formula_sum   'Eu10 Ga6'
_cell_volume   515.04954877
_cell_formula_units_Z   2
loop_
 _symmetry_equiv_pos_site_id
 _symmetry_equiv_pos_as_xyz
  1  'x, y, z'
loop_
 _atom_site_type_symbol
 _atom_site_label
 _atom_site_symmetry_multiplicity
 _atom_site_fract_x
 _atom_site_fract_y
 _atom_site_fract_z
 _atom_site_occupancy
  Eu  Eu0  1  0.50000000  0.85507571  0.14492429  1
  Eu  Eu1  1  0.50000000  0.14492429  0.85507571  1
  Eu  Eu2  1  -0.00000000  0.81596150  0.18403850  1
  Eu  Eu3  1  -0.00000000  0.18403850  0.81596150  1
  Eu  Eu4  1  0.73911924  0.50704762  0.75669981  1
  Eu  Eu5  1  0.26088076  0.49295238  0.24330019  1
  Eu  Eu6  1  0.26088076  0.24330019  0.49295238  1
  Eu  Eu7  1  0.73911924  0.75669981  0.50704762  1
  Eu  Eu8  1  0.76991741  0.26126011  0.26126011  1
  Eu  Eu9  1  0.23008259  0.73873989  0.73873989  1
  Ga  Ga10  1  0.83036756  0.91561728  0.91561728  1
  Ga  Ga11  1  0.16963244  0.08438272  0.08438272  1
  Ga  Ga12  1  0.69672332  0.50253930  0.09635536  1
  Ga  Ga13  1  0.30327668  0.49746070  0.90364464  1
  Ga  Ga14  1  0.30327668  0.90364464  0.49746070  1
  Ga  Ga15  1  0.69672332  0.09635536  0.50253930  1
