# generated using pymatgen
data_Yb6Mn25(Cl3O10)4
_symmetry_space_group_name_H-M   'P 1'
_cell_length_a   9.70674041
_cell_length_b   13.70894213
_cell_length_c   9.70674041
_cell_angle_alpha   90.00000000
_cell_angle_beta   90.00000000
_cell_angle_gamma   90.00000000
_symmetry_Int_Tables_number   1
_chemical_formula_structural   Yb6Mn25(Cl3O10)4
_chemical_formula_sum   'Yb6 Mn25 Cl12 O40'
_cell_volume   1291.66762441
_cell_formula_units_Z   1
loop_
 _symmetry_equiv_pos_site_id
 _symmetry_equiv_pos_as_xyz
  1  'x, y, z'
loop_
 _atom_site_type_symbol
 _atom_site_label
 _atom_site_symmetry_multiplicity
 _atom_site_fract_x
 _atom_site_fract_y
 _atom_site_fract_z
 _atom_site_occupancy
  Yb  Yb0  1  -0.00000000  -0.00000000  -0.00000000  1
  Yb  Yb1  1  0.50000000  0.50000000  0.50000000  1
  Yb  Yb2  1  0.50000000  0.25029818  -0.00000000  1
  Yb  Yb3  1  -0.00000000  0.74970182  0.50000000  1
  Yb  Yb4  1  0.50000000  0.74970182  -0.00000000  1
  Yb  Yb5  1  -0.00000000  0.25029818  0.50000000  1
  Mn  Mn6  1  0.65103617  -0.00000000  0.00000000  1
  Mn  Mn7  1  0.14892069  0.50000000  0.50000000  1
  Mn  Mn8  1  0.82225093  0.17244425  0.17774907  1
  Mn  Mn9  1  0.32750549  0.67724968  0.67249451  1
  Mn  Mn10  1  0.82225093  0.17244425  0.82225093  1
  Mn  Mn11  1  0.32750549  0.67724968  0.32750549  1
  Mn  Mn12  1  0.50000000  0.50000000  0.85107931  1
  Mn  Mn13  1  0.00000000  -0.00000000  0.34896383  1
  Mn  Mn14  1  0.32750549  0.32275032  0.67249451  1
  Mn  Mn15  1  0.82225093  0.82755575  0.17774907  1
  Mn  Mn16  1  0.67249451  0.32275032  0.67249451  1
  Mn  Mn17  1  0.17774907  0.82755575  0.17774907  1
  Mn  Mn18  1  0.50000000  0.50000000  0.14892069  1
  Mn  Mn19  1  -0.00000000  -0.00000000  0.65103617  1
  Mn  Mn20  1  0.67249451  0.32275032  0.32750549  1
  Mn  Mn21  1  0.17774907  0.82755575  0.82225093  1
  Mn  Mn22  1  0.32750549  0.32275032  0.32750549  1
  Mn  Mn23  1  0.82225093  0.82755575  0.82225093  1
  Mn  Mn24  1  0.34896383  -0.00000000  -0.00000000  1
  Mn  Mn25  1  0.85107931  0.50000000  0.50000000  1
  Mn  Mn26  1  0.67249451  0.67724968  0.32750549  1
  Mn  Mn27  1  0.17774907  0.17244425  0.82225093  1
  Mn  Mn28  1  0.67249451  0.67724968  0.67249451  1
  Mn  Mn29  1  0.17774907  0.17244425  0.17774907  1
  Mn  Mn30  1  -0.00000000  0.50000000  -0.00000000  1
  Cl  Cl31  1  -0.00000000  0.30519142  -0.00000000  1
  Cl  Cl32  1  0.50000000  0.78190547  0.50000000  1
  Cl  Cl33  1  0.19814770  0.50000000  0.19814770  1
  Cl  Cl34  1  0.71872559  -0.00000000  0.71872559  1
  Cl  Cl35  1  0.19814770  0.50000000  0.80185230  1
  Cl  Cl36  1  0.71872559  -0.00000000  0.28127441  1
  Cl  Cl37  1  -0.00000000  0.69480858  -0.00000000  1
  Cl  Cl38  1  0.50000000  0.21809453  0.50000000  1
  Cl  Cl39  1  0.80185230  0.50000000  0.80185230  1
  Cl  Cl40  1  0.28127441  -0.00000000  0.28127441  1
  Cl  Cl41  1  0.80185230  0.50000000  0.19814770  1
  Cl  Cl42  1  0.28127441  -0.00000000  0.71872559  1
  O  O43  1  0.50000000  0.08739993  -0.00000000  1
  O  O44  1  -0.00000000  0.58775120  0.50000000  1
  O  O45  1  0.66099435  0.24895618  0.16394077  1
  O  O46  1  0.16394077  0.75104382  0.66099435  1
  O  O47  1  0.66099435  0.24895618  0.83605923  1
  O  O48  1  0.16394077  0.75104382  0.33900565  1
  O  O49  1  0.50000000  0.41224880  -0.00000000  1
  O  O50  1  -0.00000000  0.91260007  0.50000000  1
  O  O51  1  0.33900565  0.24895618  0.83605923  1
  O  O52  1  0.83605923  0.75104382  0.33900565  1
  O  O53  1  0.33900565  0.24895618  0.16394077  1
  O  O54  1  0.83605923  0.75104382  0.66099435  1
  O  O55  1  0.50000000  0.91260007  -0.00000000  1
  O  O56  1  -0.00000000  0.41224880  0.50000000  1
  O  O57  1  0.33900565  0.75104382  0.83605923  1
  O  O58  1  0.83605923  0.24895618  0.33900565  1
  O  O59  1  0.33900565  0.75104382  0.16394077  1
  O  O60  1  0.83605923  0.24895618  0.66099435  1
  O  O61  1  0.50000000  0.58775120  -0.00000000  1
  O  O62  1  -0.00000000  0.08739993  0.50000000  1
  O  O63  1  0.66099435  0.75104382  0.16394077  1
  O  O64  1  0.16394077  0.24895618  0.66099435  1
  O  O65  1  0.66099435  0.75104382  0.83605923  1
  O  O66  1  0.16394077  0.24895618  0.33900565  1
  O  O67  1  0.79689460  0.10353286  0.00000000  1
  O  O68  1  0.29501314  0.60082150  0.50000000  1
  O  O69  1  0.50000000  0.39917850  0.70498686  1
  O  O70  1  -0.00000000  0.89646714  0.20310540  1
  O  O71  1  0.50000000  0.39917850  0.29501314  1
  O  O72  1  0.00000000  0.89646714  0.79689460  1
  O  O73  1  0.20310540  0.10353286  -0.00000000  1
  O  O74  1  0.70498686  0.60082150  0.50000000  1
  O  O75  1  0.20310540  0.89646714  -0.00000000  1
  O  O76  1  0.70498686  0.39917850  0.50000000  1
  O  O77  1  0.50000000  0.60082150  0.29501314  1
  O  O78  1  0.00000000  0.10353286  0.79689460  1
  O  O79  1  0.50000000  0.60082150  0.70498686  1
  O  O80  1  -0.00000000  0.10353286  0.20310540  1
  O  O81  1  0.79689460  0.89646714  0.00000000  1
  O  O82  1  0.29501314  0.39917850  0.50000000  1
