# generated using pymatgen
data_ZrNi5(BO5)2
_symmetry_space_group_name_H-M   'P 1'
_cell_length_a   3.14338427
_cell_length_b   9.35306827
_cell_length_c   12.49964810
_cell_angle_alpha   90.00000000
_cell_angle_beta   90.00000000
_cell_angle_gamma   90.00000000
_symmetry_Int_Tables_number   1
_chemical_formula_structural   ZrNi5(BO5)2
_chemical_formula_sum   'Zr2 Ni10 B4 O20'
_cell_volume   367.49324999
_cell_formula_units_Z   2
loop_
 _symmetry_equiv_pos_site_id
 _symmetry_equiv_pos_as_xyz
  1  'x, y, z'
loop_
 _atom_site_type_symbol
 _atom_site_label
 _atom_site_symmetry_multiplicity
 _atom_site_fract_x
 _atom_site_fract_y
 _atom_site_fract_z
 _atom_site_occupancy
  Zr  Zr0  1  0.00000000  0.26114426  0.61625084  1
  Zr  Zr1  1  -0.00000000  0.23885574  0.11625084  1
  Ni  Ni2  1  0.50000000  0.51834555  0.21977581  1
  Ni  Ni3  1  0.50000000  0.51249132  0.78567788  1
  Ni  Ni4  1  0.50000000  0.98750868  0.28567788  1
  Ni  Ni5  1  0.50000000  0.98165445  0.71977581  1
  Ni  Ni6  1  0.50000000  0.51636968  0.49604760  1
  Ni  Ni7  1  0.50000000  0.98363032  0.99604760  1
  Ni  Ni8  1  0.00000000  0.98364661  0.49544026  1
  Ni  Ni9  1  -0.00000000  0.51635339  0.99544026  1
  Ni  Ni10  1  -0.00000000  0.73700283  0.38398266  1
  Ni  Ni11  1  0.00000000  0.76299717  0.88398266  1
  B  B12  1  0.00000000  0.77825653  0.14028192  1
  B  B13  1  0.00000000  0.22568258  0.86015091  1
  B  B14  1  0.00000000  0.27431742  0.36015091  1
  B  B15  1  0.00000000  0.72174347  0.64028192  1
  O  O16  1  -0.00000000  0.62788619  0.14084900  1
  O  O17  1  0.00000000  0.37269319  0.85615175  1
  O  O18  1  0.00000000  0.12730681  0.35615175  1
  O  O19  1  -0.00000000  0.87211381  0.64084900  1
  O  O20  1  0.00000000  0.64743183  0.54390542  1
  O  O21  1  0.00000000  0.34925870  0.45692423  1
  O  O22  1  -0.00000000  0.15074130  0.95692423  1
  O  O23  1  -0.00000000  0.85256817  0.04390542  1
  O  O24  1  0.50000000  0.60813151  0.35690186  1
  O  O25  1  0.50000000  0.39951786  0.64545432  1
  O  O26  1  0.50000000  0.10048214  0.14545432  1
  O  O27  1  0.50000000  0.89186849  0.85690186  1
  O  O28  1  0.00000000  0.85134078  0.23673159  1
  O  O29  1  0.00000000  0.14671465  0.76467872  1
  O  O30  1  -0.00000000  0.35328535  0.26467872  1
  O  O31  1  0.00000000  0.64865922  0.73673159  1
  O  O32  1  0.50000000  0.88966902  0.42412715  1
  O  O33  1  0.50000000  0.11664914  0.57666807  1
  O  O34  1  0.50000000  0.38335086  0.07666807  1
  O  O35  1  0.50000000  0.61033098  0.92412715  1
