# generated using pymatgen
data_Zn2Bi6Ru8O27
_symmetry_space_group_name_H-M   'P 1'
_cell_length_a   7.27945566
_cell_length_b   10.31825858
_cell_length_c   7.27945566
_cell_angle_alpha   90.47005043
_cell_angle_beta   90.05619864
_cell_angle_gamma   89.52994957
_symmetry_Int_Tables_number   1
_chemical_formula_structural   Zn2Bi6Ru8O27
_chemical_formula_sum   'Zn2 Bi6 Ru8 O27'
_cell_volume   546.73239355
_cell_formula_units_Z   1
loop_
 _symmetry_equiv_pos_site_id
 _symmetry_equiv_pos_as_xyz
  1  'x, y, z'
loop_
 _atom_site_type_symbol
 _atom_site_label
 _atom_site_symmetry_multiplicity
 _atom_site_fract_x
 _atom_site_fract_y
 _atom_site_fract_z
 _atom_site_occupancy
  Zn  Zn0  1  0.80984400  0.24850878  0.75389148  1
  Zn  Zn1  1  0.00389148  0.00149122  0.55984400  1
  Bi  Bi2  1  0.24152651  0.76175732  0.25068229  1
  Bi  Bi3  1  0.76155271  0.24400813  0.26282247  1
  Bi  Bi4  1  0.24317735  0.75536615  0.74650133  1
  Bi  Bi5  1  0.50068229  0.48824268  0.99152651  1
  Bi  Bi6  1  0.99650133  0.49463385  0.99317735  1
  Bi  Bi7  1  0.51282247  0.00599187  0.51155271  1
  Ru  Ru8  1  0.25021583  0.24968227  0.24938942  1
  Ru  Ru9  1  0.74757566  0.74977050  0.74799800  1
  Ru  Ru10  1  0.74840473  0.75007665  0.25070518  1
  Ru  Ru11  1  0.25343313  0.25221566  0.74542963  1
  Ru  Ru12  1  0.49938942  0.00031773  0.00021583  1
  Ru  Ru13  1  0.99799800  0.50022950  0.49757566  1
  Ru  Ru14  1  0.99542963  0.99778434  0.00343313  1
  Ru  Ru15  1  0.50070518  0.49992335  0.49840473  1
  O  O16  1  0.24927808  0.91468792  0.99755044  1
  O  O17  1  0.75026796  0.41332381  0.49661034  1
  O  O18  1  0.24755044  0.33531208  0.99927808  1
  O  O19  1  0.74661034  0.83667619  0.50026796  1
  O  O20  1  0.55493013  0.62500000  0.30493013  1
  O  O21  1  0.03379142  0.12500000  0.78379142  1
  O  O22  1  0.95327293  0.62500000  0.70327293  1
  O  O23  1  0.44683507  0.12500000  0.19683507  1
  O  O24  1  0.55256110  0.62336329  0.70020351  1
  O  O25  1  0.04398892  0.13244356  0.18962602  1
  O  O26  1  0.95020351  0.62663671  0.30256110  1
  O  O27  1  0.43962602  0.11755644  0.79398892  1
  O  O28  1  0.74682901  0.06080804  0.01054783  1
  O  O29  1  0.24848455  0.57083473  0.49679018  1
  O  O30  1  0.74679018  0.67916527  -0.00151545  1
  O  O31  1  0.26054783  0.18919196  0.49682901  1
  O  O32  1  0.44431550  0.38180312  0.70972832  1
  O  O33  1  0.95972832  0.86819688  0.19431550  1
  O  O34  1  0.03493621  0.37384114  0.28898756  1
  O  O35  1  0.53898756  0.87615886  0.78493621  1
  O  O36  1  0.45923270  0.37399673  0.28814749  1
  O  O37  1  0.95937180  0.87432794  0.78990264  1
  O  O38  1  0.03990264  0.37567206  0.70937180  1
  O  O39  1  0.53814749  0.87600327  0.20923270  1
  O  O40  1  0.75168491  0.34163469  0.99059474  1
  O  O41  1  0.24059474  0.90836531  0.50168491  1
  O  O42  1  0.24838093  0.62500000  0.99838093  1
