# generated using pymatgen
data_Y6Ga17Pt5
_symmetry_space_group_name_H-M   'P 1'
_cell_length_a   4.34125162
_cell_length_b   8.11900200
_cell_length_c   15.94531067
_cell_angle_alpha   102.65456924
_cell_angle_beta   97.82393517
_cell_angle_gamma   105.50671819
_symmetry_Int_Tables_number   1
_chemical_formula_structural   Y6Ga17Pt5
_chemical_formula_sum   'Y6 Ga17 Pt5'
_cell_volume   516.95105185
_cell_formula_units_Z   1
loop_
 _symmetry_equiv_pos_site_id
 _symmetry_equiv_pos_as_xyz
  1  'x, y, z'
loop_
 _atom_site_type_symbol
 _atom_site_label
 _atom_site_symmetry_multiplicity
 _atom_site_fract_x
 _atom_site_fract_y
 _atom_site_fract_z
 _atom_site_occupancy
  Y  Y0  1  0.49815827  0.24837502  0.74794152  1
  Y  Y1  1  0.50184173  0.75162498  0.25205848  1
  Y  Y2  1  0.79879855  0.69737240  0.90022470  1
  Y  Y3  1  0.80908671  0.21507609  0.40309734  1
  Y  Y4  1  0.19091329  0.78492391  0.59690266  1
  Y  Y5  1  0.20120145  0.30262760  0.09977530  1
  Ga  Ga6  1  0.64012159  0.31931978  0.96092341  1
  Ga  Ga7  1  0.63221785  0.80514128  0.45929443  1
  Ga  Ga8  1  0.36778215  0.19485872  0.54070557  1
  Ga  Ga9  1  0.35987841  0.68068022  0.03907659  1
  Ga  Ga10  1  0.63106822  0.58870007  0.67343638  1
  Ga  Ga11  1  0.63841740  0.09865929  0.17817551  1
  Ga  Ga12  1  0.36158260  0.90134071  0.82182449  1
  Ga  Ga13  1  0.36893178  0.41129993  0.32656362  1
  Ga  Ga14  1  0.83674287  0.06984263  0.60364311  1
  Ga  Ga15  1  0.84700921  0.58640566  0.10761276  1
  Ga  Ga16  1  0.15299079  0.41359434  0.89238724  1
  Ga  Ga17  1  0.16325713  0.93015737  0.39635689  1
  Ga  Ga18  1  0.84022260  0.94307608  0.73736912  1
  Ga  Ga19  1  0.84151096  0.44872089  0.23430103  1
  Ga  Ga20  1  0.15848904  0.55127911  0.76569897  1
  Ga  Ga21  1  0.15977740  0.05692392  0.26263088  1
  Ga  Ga22  1  0.50000000  -0.00000000  -0.00000000  1
  Pt  Pt23  1  0.99842486  0.39443437  0.60241535  1
  Pt  Pt24  1  0.00133728  0.90838335  0.09429121  1
  Pt  Pt25  1  0.99866272  0.09161665  0.90570879  1
  Pt  Pt26  1  0.00157514  0.60556563  0.39758465  1
  Pt  Pt27  1  0.50000000  0.50000000  0.50000000  1
