# generated using pymatgen
data_Zr4MoC5
_symmetry_space_group_name_H-M   'P 1'
_cell_length_a   3.28975565
_cell_length_b   3.28975565
_cell_length_c   13.51724510
_cell_angle_alpha   90.00000000
_cell_angle_beta   96.98949474
_cell_angle_gamma   120.00000000
_symmetry_Int_Tables_number   1
_chemical_formula_structural   Zr4MoC5
_chemical_formula_sum   'Zr4 Mo1 C5'
_cell_volume   125.43418545
_cell_formula_units_Z   1
loop_
 _symmetry_equiv_pos_site_id
 _symmetry_equiv_pos_as_xyz
  1  'x, y, z'
loop_
 _atom_site_type_symbol
 _atom_site_label
 _atom_site_symmetry_multiplicity
 _atom_site_fract_x
 _atom_site_fract_y
 _atom_site_fract_z
 _atom_site_occupancy
  Zr  Zr0  1  0.19490703  0.09745351  0.29236054  1
  Zr  Zr1  1  0.99843258  0.49921629  0.49764888  1
  Zr  Zr2  1  0.80156742  0.90078371  0.70235112  1
  Zr  Zr3  1  0.60509297  0.30254649  0.90763946  1
  Mo  Mo4  1  0.40000000  0.70000000  0.10000000  1
  C  C5  1  0.20359092  0.60179546  0.80538637  1
  C  C6  1  0.40000000  0.20000000  0.60000000  1
  C  C7  1  0.59640908  0.79820454  0.39461363  1
  C  C8  1  0.00763668  0.00381834  0.01145502  1
  C  C9  1  0.79236332  0.39618166  0.18854498  1
