# generated using pymatgen
data_Ti(CrSi3)2
_symmetry_space_group_name_H-M   'P 1'
_cell_length_a   4.58396579
_cell_length_b   4.54096156
_cell_length_c   6.34965128
_cell_angle_alpha   90.00000000
_cell_angle_beta   90.00000000
_cell_angle_gamma   120.31376762
_symmetry_Int_Tables_number   1
_chemical_formula_structural   Ti(CrSi3)2
_chemical_formula_sum   'Ti1 Cr2 Si6'
_cell_volume   114.10058625
_cell_formula_units_Z   1
loop_
 _symmetry_equiv_pos_site_id
 _symmetry_equiv_pos_as_xyz
  1  'x, y, z'
loop_
 _atom_site_type_symbol
 _atom_site_label
 _atom_site_symmetry_multiplicity
 _atom_site_fract_x
 _atom_site_fract_y
 _atom_site_fract_z
 _atom_site_occupancy
  Ti  Ti0  1  0.50000000  0.00000000  0.16666700  1
  Cr  Cr1  1  0.50000000  0.50000000  0.49988921  1
  Cr  Cr2  1  0.00000000  0.50000000  0.83344379  1
  Si  Si3  1  0.83873613  0.67747227  0.16666700  1
  Si  Si4  1  0.84211969  0.16981068  0.50353245  1
  Si  Si5  1  0.32769099  0.16981068  0.82980055  1
  Si  Si6  1  0.16126387  0.32252773  0.16666700  1
  Si  Si7  1  0.15788031  0.83018932  0.50353245  1
  Si  Si8  1  0.67230901  0.83018932  0.82980055  1
