# generated using pymatgen
data_TiNb2ZnO8
_symmetry_space_group_name_H-M   'P 1'
_cell_length_a   4.74141831
_cell_length_b   5.03271089
_cell_length_c   5.80209267
_cell_angle_alpha   90.00000000
_cell_angle_beta   90.00000000
_cell_angle_gamma   88.51745669
_symmetry_Int_Tables_number   1
_chemical_formula_structural   TiNb2ZnO8
_chemical_formula_sum   'Ti1 Nb2 Zn1 O8'
_cell_volume   138.40427766
_cell_formula_units_Z   1
loop_
 _symmetry_equiv_pos_site_id
 _symmetry_equiv_pos_as_xyz
  1  'x, y, z'
loop_
 _atom_site_type_symbol
 _atom_site_label
 _atom_site_symmetry_multiplicity
 _atom_site_fract_x
 _atom_site_fract_y
 _atom_site_fract_z
 _atom_site_occupancy
  Ti  Ti0  1  0.50000000  0.25000000  0.83202454  1
  Nb  Nb1  1  0.50000000  0.75000000  0.18820618  1
  Nb  Nb2  1  -0.00000000  0.75000000  0.68349460  1
  Zn  Zn3  1  -0.00000000  0.25000000  0.30895263  1
  O  O4  1  0.70896845  0.06669178  0.09997379  1
  O  O5  1  0.77443892  0.59260009  0.38789873  1
  O  O6  1  0.22556108  0.90739991  0.38789873  1
  O  O7  1  0.29103155  0.43330822  0.09997379  1
  O  O8  1  0.26470057  0.92931216  0.87777306  1
  O  O9  1  0.24125636  0.42694313  0.62801544  1
  O  O10  1  0.75874364  0.07305687  0.62801544  1
  O  O11  1  0.73529943  0.57068784  0.87777306  1
