# generated using pymatgen
data_Tl5BrCl4
_symmetry_space_group_name_H-M   'P 1'
_cell_length_a   3.93641836
_cell_length_b   5.56706905
_cell_length_c   14.17504087
_cell_angle_alpha   78.67530892
_cell_angle_beta   90.00000000
_cell_angle_gamma   90.00000000
_symmetry_Int_Tables_number   1
_chemical_formula_structural   Tl5BrCl4
_chemical_formula_sum   'Tl5 Br1 Cl4'
_cell_volume   304.58823099
_cell_formula_units_Z   1
loop_
 _symmetry_equiv_pos_site_id
 _symmetry_equiv_pos_as_xyz
  1  'x, y, z'
loop_
 _atom_site_type_symbol
 _atom_site_label
 _atom_site_symmetry_multiplicity
 _atom_site_fract_x
 _atom_site_fract_y
 _atom_site_fract_z
 _atom_site_occupancy
  Tl  Tl0  1  -0.00000000  0.20001019  0.59997963  1
  Tl  Tl1  1  -0.00000000  0.60190025  0.79619951  1
  Tl  Tl2  1  -0.00000000  -0.00000000  0.00000000  1
  Tl  Tl3  1  0.00000000  0.39809975  0.20380049  1
  Tl  Tl4  1  -0.00000000  0.79998981  0.40002037  1
  Br  Br5  1  0.50000000  0.50000000  0.00000000  1
  Cl  Cl6  1  0.50000000  0.89957813  0.20084374  1
  Cl  Cl7  1  0.50000000  0.29968280  0.40063441  1
  Cl  Cl8  1  0.50000000  0.70031720  0.59936559  1
  Cl  Cl9  1  0.50000000  0.10042187  0.79915626  1
