# generated using pymatgen
data_VGaMo3S8
_symmetry_space_group_name_H-M   'P 1'
_cell_length_a   6.87531285
_cell_length_b   6.87531285
_cell_length_c   6.97760424
_cell_angle_alpha   90.00000000
_cell_angle_beta   60.48377411
_cell_angle_gamma   120.00000000
_symmetry_Int_Tables_number   1
_chemical_formula_structural   VGaMo3S8
_chemical_formula_sum   'V1 Ga1 Mo3 S8'
_cell_volume   234.91650344
_cell_formula_units_Z   1
loop_
 _symmetry_equiv_pos_site_id
 _symmetry_equiv_pos_as_xyz
  1  'x, y, z'
loop_
 _atom_site_type_symbol
 _atom_site_label
 _atom_site_symmetry_multiplicity
 _atom_site_fract_x
 _atom_site_fract_y
 _atom_site_fract_z
 _atom_site_occupancy
  V  V0  1  0.78872075  0.39436038  0.81691887  1
  Ga  Ga1  1  0.00205681  0.00102841  0.99691478  1
  Mo  Mo2  1  0.20651826  0.40117229  0.39230946  1
  Mo  Mo3  1  0.20651826  0.80534597  0.39230946  1
  Mo  Mo4  1  0.80234457  0.40117229  0.39230946  1
  S  S5  1  0.27158327  0.13579164  0.59262509  1
  S  S6  1  0.72921976  0.13770560  0.13307464  1
  S  S7  1  0.72921976  0.59151416  0.13307464  1
  S  S8  1  0.27541120  0.13770560  0.13307464  1
  S  S9  1  0.27085665  0.63542832  0.09371503  1
  S  S10  1  0.73260023  0.62617512  0.64122465  1
  S  S11  1  0.73260023  0.10642511  0.64122465  1
  S  S12  1  0.25235024  0.62617512  0.64122465  1
