# generated using pymatgen
data_TlCu3Te2
_symmetry_space_group_name_H-M   'P 1'
_cell_length_a   8.57050346
_cell_length_b   8.57107206
_cell_length_c   14.44559958
_cell_angle_alpha   90.00000000
_cell_angle_beta   89.92597548
_cell_angle_gamma   90.00000000
_symmetry_Int_Tables_number   1
_chemical_formula_structural   TlCu3Te2
_chemical_formula_sum   'Tl8 Cu24 Te16'
_cell_volume   1061.14978670
_cell_formula_units_Z   8
loop_
 _symmetry_equiv_pos_site_id
 _symmetry_equiv_pos_as_xyz
  1  'x, y, z'
loop_
 _atom_site_type_symbol
 _atom_site_label
 _atom_site_symmetry_multiplicity
 _atom_site_fract_x
 _atom_site_fract_y
 _atom_site_fract_z
 _atom_site_occupancy
  Tl  Tl0  1  0.24864635  0.24837406  0.99875942  1
  Tl  Tl1  1  0.74864635  0.75162594  0.49875942  1
  Tl  Tl2  1  0.74931221  0.75372951  0.99873270  1
  Tl  Tl3  1  0.24931221  0.24627049  0.49873270  1
  Tl  Tl4  1  0.24731376  0.24585916  0.75127672  1
  Tl  Tl5  1  0.74731376  0.75414084  0.25127672  1
  Tl  Tl6  1  0.75362288  0.75359783  0.75133885  1
  Tl  Tl7  1  0.25362288  0.24640217  0.25133885  1
  Cu  Cu8  1  0.86726139  0.13059678  0.57552780  1
  Cu  Cu9  1  0.36726139  0.86940322  0.07552780  1
  Cu  Cu10  1  0.13236605  0.63479142  0.07598355  1
  Cu  Cu11  1  0.63236605  0.36520858  0.57598355  1
  Cu  Cu12  1  0.13591644  0.87265677  0.42709672  1
  Cu  Cu13  1  0.63591644  0.12734323  0.92709672  1
  Cu  Cu14  1  0.87099878  0.36217915  0.92163263  1
  Cu  Cu15  1  0.37099878  0.63782085  0.42163263  1
  Cu  Cu16  1  0.62516982  0.37641646  0.03307189  1
  Cu  Cu17  1  0.12516982  0.62358354  0.53307189  1
  Cu  Cu18  1  0.37531977  0.87336086  0.53284012  1
  Cu  Cu19  1  0.87531977  0.12663914  0.03284012  1
  Cu  Cu20  1  0.37378824  0.62692807  0.96802749  1
  Cu  Cu21  1  0.87378824  0.37307193  0.46802749  1
  Cu  Cu22  1  0.62601351  0.12515638  0.46171551  1
  Cu  Cu23  1  0.12601351  0.87484362  0.96171551  1
  Cu  Cu24  1  0.75100447  0.24685480  0.75214882  1
  Cu  Cu25  1  0.25100447  0.75314520  0.25214882  1
  Cu  Cu26  1  0.87569644  0.37542418  0.29509179  1
  Cu  Cu27  1  0.37569644  0.62457582  0.79509179  1
  Cu  Cu28  1  0.85832222  0.12138377  0.20721304  1
  Cu  Cu29  1  0.35832222  0.87861623  0.70721304  1
  Cu  Cu30  1  0.12108026  0.64116325  0.70770310  1
  Cu  Cu31  1  0.62108026  0.35883675  0.20770310  1
  Te  Te32  1  0.41609289  0.58326560  0.61629886  1
  Te  Te33  1  0.91609289  0.41673440  0.11629886  1
  Te  Te34  1  0.58558673  0.08602687  0.11813112  1
  Te  Te35  1  0.08558673  0.91397313  0.61813112  1
  Te  Te36  1  0.58055715  0.41294228  0.38331223  1
  Te  Te37  1  0.08055715  0.58705772  0.88331223  1
  Te  Te38  1  0.41268118  0.91842946  0.88189726  1
  Te  Te39  1  0.91268118  0.08157054  0.38189726  1
  Te  Te40  1  0.57673254  0.42361555  0.85952582  1
  Te  Te41  1  0.07673254  0.57638445  0.35952582  1
  Te  Te42  1  0.43263239  0.93192719  0.35919112  1
  Te  Te43  1  0.93263239  0.06807281  0.85919112  1
  Te  Te44  1  0.42522902  0.57682950  0.14137819  1
  Te  Te45  1  0.92522902  0.42317050  0.64137819  1
  Te  Te46  1  0.57665550  0.07446137  0.64010524  1
  Te  Te47  1  0.07665550  0.92553863  0.14010524  1
