# generated using pymatgen
data_V20As11
_symmetry_space_group_name_H-M   'P 1'
_cell_length_a   4.85446791
_cell_length_b   7.09201565
_cell_length_c   13.36044192
_cell_angle_alpha   90.00000000
_cell_angle_beta   90.00000000
_cell_angle_gamma   110.01394345
_symmetry_Int_Tables_number   1
_chemical_formula_structural   V20As11
_chemical_formula_sum   'V20 As11'
_cell_volume   432.19474054
_cell_formula_units_Z   1
loop_
 _symmetry_equiv_pos_site_id
 _symmetry_equiv_pos_as_xyz
  1  'x, y, z'
loop_
 _atom_site_type_symbol
 _atom_site_label
 _atom_site_symmetry_multiplicity
 _atom_site_fract_x
 _atom_site_fract_y
 _atom_site_fract_z
 _atom_site_occupancy
  V  V0  1  0.50154235  0.50141443  0.24733730  1
  V  V1  1  0.00012793  0.49858557  0.75266270  1
  V  V2  1  0.99845765  0.49858557  0.24733730  1
  V  V3  1  0.49987207  0.50141443  0.75266270  1
  V  V4  1  0.92935984  0.85030118  0.34708897  1
  V  V5  1  0.40965369  0.85010991  0.85220983  1
  V  V6  1  0.55954378  0.14989009  0.14779017  1
  V  V7  1  0.07905866  0.14969882  0.65291103  1
  V  V8  1  0.16288119  0.29556668  0.07303610  1
  V  V9  1  0.65137552  0.30543189  0.57605213  1
  V  V10  1  0.34594362  0.69456811  0.42394787  1
  V  V11  1  0.86731451  0.70443332  0.92696390  1
  V  V12  1  0.33711881  0.70443332  0.07303610  1
  V  V13  1  0.84862448  0.69456811  0.57605213  1
  V  V14  1  0.15405638  0.30543189  0.42394787  1
  V  V15  1  0.63268549  0.29556668  0.92696390  1
  V  V16  1  0.57064016  0.14969882  0.34708897  1
  V  V17  1  0.09034631  0.14989009  0.85220983  1
  V  V18  1  0.94045622  0.85010991  0.14779017  1
  V  V19  1  0.42094134  0.85030118  0.65291103  1
  As  As20  1  0.75000000  0.50000000  0.08305989  1
  As  As21  1  0.25000000  0.50000000  0.58629950  1
  As  As22  1  0.75000000  0.50000000  0.41370050  1
  As  As23  1  0.25000000  0.50000000  0.91694011  1
  As  As24  1  0.41293481  0.83052842  0.24749417  1
  As  As25  1  0.91759361  0.83052842  0.75250583  1
  As  As26  1  0.08706519  0.16947158  0.24749417  1
  As  As27  1  0.58240639  0.16947158  0.75250583  1
  As  As28  1  0.75000000  -0.00000000  0.50000000  1
  As  As29  1  0.75000000  -0.00000000  -0.00000000  1
  As  As30  1  0.25000000  -0.00000000  0.50000000  1
