# generated using pymatgen
data_Li9Mn2Co5O16
_symmetry_space_group_name_H-M   'P 1'
_cell_length_a   2.96755261
_cell_length_b   5.05730793
_cell_length_c   19.44601141
_cell_angle_alpha   93.84940904
_cell_angle_beta   82.88538297
_cell_angle_gamma   91.79360261
_symmetry_Int_Tables_number   1
_chemical_formula_structural   Li9Mn2Co5O16
_chemical_formula_sum   'Li9 Mn2 Co5 O16'
_cell_volume   288.86409066
_cell_formula_units_Z   1
loop_
 _symmetry_equiv_pos_site_id
 _symmetry_equiv_pos_as_xyz
  1  'x, y, z'
loop_
 _atom_site_type_symbol
 _atom_site_label
 _atom_site_symmetry_multiplicity
 _atom_site_fract_x
 _atom_site_fract_y
 _atom_site_fract_z
 _atom_site_occupancy
  Li  Li0  1  0.86911864  0.36660251  0.13099412  1
  Li  Li1  1  0.14002327  0.62444686  0.37130722  1
  Li  Li2  1  0.37947262  0.87140902  0.62328552  1
  Li  Li3  1  0.62577121  0.12320216  0.87458152  1
  Li  Li4  1  0.35589049  0.87837050  0.13245710  1
  Li  Li5  1  0.62403573  0.13509007  0.37113737  1
  Li  Li6  1  0.87938993  0.37583472  0.62159866  1
  Li  Li7  1  0.12436632  0.62791795  0.87482364  1
  Li  Li8  1  0.25004599  0.24920115  0.25027028  1
  Mn  Mn9  1  0.99710477  -0.00053688  0.00186820  1
  Mn  Mn10  1  0.25100461  0.24992760  0.74907424  1
  Co  Co11  1  0.50243540  0.50041888  0.49830774  1
  Co  Co12  1  0.75080991  0.75004962  0.74926511  1
  Co  Co13  1  0.49710926  0.49997542  0.00149963  1
  Co  Co14  1  0.74986799  0.74842115  0.25096362  1
  Co  Co15  1  0.00262152  0.00033661  0.49853792  1
  O  O16  1  0.40037757  0.18428921  0.06163100  1
  O  O17  1  0.69310414  0.47801444  0.30552999  1
  O  O18  1  0.90378205  0.68836259  0.55603606  1
  O  O19  1  0.20064336  0.94245511  0.80675150  1
  O  O20  1  0.93395423  0.68016122  0.05667480  1
  O  O21  1  0.21275031  0.91599326  0.30456481  1
  O  O22  1  0.44976621  0.19657319  0.55444664  1
  O  O23  1  0.65113627  0.44733227  0.80888352  1
  O  O24  1  0.28814099  0.58327054  0.19632109  1
  O  O25  1  0.55159190  0.80720598  0.44410511  1
  O  O26  1  0.85059025  0.05228294  0.69032380  1
  O  O27  1  0.06546787  0.31483625  0.94445034  1
  O  O28  1  0.80756222  0.02187087  0.19516541  1
  O  O29  1  0.09861680  0.31082033  0.44056518  1
  O  O30  1  0.29839453  0.55908280  0.69276631  1
  O  O31  1  0.59505366  0.81678166  0.94181255  1
