# generated using pymatgen
data_TaSiGe
_symmetry_space_group_name_H-M   'P 1'
_cell_length_a   4.91063114
_cell_length_b   4.91063114
_cell_length_c   6.70063852
_cell_angle_alpha   90.00000000
_cell_angle_beta   90.00000000
_cell_angle_gamma   120.00000297
_symmetry_Int_Tables_number   1
_chemical_formula_structural   TaSiGe
_chemical_formula_sum   'Ta3 Si3 Ge3'
_cell_volume   139.93341579
_cell_formula_units_Z   3
loop_
 _symmetry_equiv_pos_site_id
 _symmetry_equiv_pos_as_xyz
  1  'x, y, z'
loop_
 _atom_site_type_symbol
 _atom_site_label
 _atom_site_symmetry_multiplicity
 _atom_site_fract_x
 _atom_site_fract_y
 _atom_site_fract_z
 _atom_site_occupancy
  Ta  Ta0  1  0.49814243  0.99628485  0.16666700  1
  Ta  Ta1  1  0.49814243  0.50185757  0.50000000  1
  Ta  Ta2  1  0.00371515  0.50185757  0.83333300  1
  Si  Si3  1  0.16230034  0.32460069  0.16666700  1
  Si  Si4  1  0.16230034  0.83769966  0.50000000  1
  Si  Si5  1  0.67539931  0.83769966  0.83333300  1
  Ge  Ge6  1  0.83851164  0.67702328  0.16666700  1
  Ge  Ge7  1  0.83851164  0.16148836  0.50000000  1
  Ge  Ge8  1  0.32297672  0.16148836  0.83333300  1
