# generated using pymatgen
data_SrV2(AsO5)2
_symmetry_space_group_name_H-M   'P 1'
_cell_length_a   4.74524957
_cell_length_b   13.11386268
_cell_length_c   13.16440675
_cell_angle_alpha   91.41651265
_cell_angle_beta   100.38317531
_cell_angle_gamma   79.57635882
_symmetry_Int_Tables_number   1
_chemical_formula_structural   SrV2(AsO5)2
_chemical_formula_sum   'Sr4 V8 As8 O40'
_cell_volume   792.46273981
_cell_formula_units_Z   4
loop_
 _symmetry_equiv_pos_site_id
 _symmetry_equiv_pos_as_xyz
  1  'x, y, z'
loop_
 _atom_site_type_symbol
 _atom_site_label
 _atom_site_symmetry_multiplicity
 _atom_site_fract_x
 _atom_site_fract_y
 _atom_site_fract_z
 _atom_site_occupancy
  Sr  Sr0  1  0.87400044  0.25050332  0.74919809  1
  Sr  Sr1  1  0.12469433  0.75050332  0.24919809  1
  Sr  Sr2  1  0.68177572  0.76022723  0.74771905  1
  Sr  Sr3  1  0.80571609  0.26022723  0.24771905  1
  V  V4  1  0.42135388  0.12768726  0.52399058  1
  V  V5  1  0.52416737  0.37243329  0.97425369  1
  V  V6  1  0.89781248  0.52622115  0.37255255  1
  V  V7  1  0.54913417  0.97630759  0.12786096  1
  V  V8  1  0.57765304  0.87243329  0.47425369  1
  V  V9  1  0.47494944  0.62768726  0.02399058  1
  V  V10  1  0.10241921  0.47630759  0.62786096  1
  V  V11  1  0.44851893  0.02622115  0.87255255  1
  As  As12  1  0.89558197  0.52106768  0.86296531  1
  As  As13  1  0.05191396  0.97767108  0.63773579  1
  As  As14  1  0.03646784  0.86248107  0.98024556  1
  As  As15  1  0.41332721  0.63617579  0.52050967  1
  As  As16  1  0.10815074  0.47767108  0.13773579  1
  As  As17  1  0.94631566  0.02106768  0.36296531  1
  As  As18  1  0.97100666  0.13617579  0.02050967  1
  As  As19  1  0.58129665  0.36248107  0.48024556  1
  O  O20  1  0.90758398  0.55806394  0.73908550  1
  O  O21  1  0.23990968  0.94100868  0.75981229  1
  O  O22  1  0.16597002  0.73909918  0.94331012  1
  O  O23  1  0.46912153  0.75986506  0.55562558  1
  O  O24  1  0.07889394  0.44100868  0.25981229  1
  O  O25  1  0.77343758  0.05806394  0.23908550  1
  O  O26  1  0.82663898  0.25986506  0.05562558  1
  O  O27  1  0.53824092  0.23909918  0.44331012  1
  O  O28  1  0.33884173  0.38831536  0.70048826  1
  O  O29  1  0.52872024  0.11229753  0.79945107  1
  O  O30  1  0.63887469  0.69996833  0.11057559  1
  O  O31  1  0.72931717  0.79969477  0.38858547  1
  O  O32  1  0.65843330  0.61229753  0.29945107  1
  O  O33  1  0.47333118  0.88831536  0.20048826  1
  O  O34  1  0.35957354  0.29969477  0.88858547  1
  O  O35  1  0.27173257  0.19996833  0.61057559  1
  O  O36  1  0.78331326  0.40557389  0.87013447  1
  O  O37  1  0.81812153  0.09405747  0.63029033  1
  O  O38  1  0.91291449  0.87053891  0.09471228  1
  O  O39  1  0.18835461  0.63071762  0.40468247  1
  O  O40  1  0.21811133  0.59405747  0.13029033  1
  O  O41  1  0.18124732  0.90557389  0.37013447  1
  O  O42  1  0.08561024  0.13071762  0.90468247  1
  O  O43  1  0.81125888  0.37053891  0.59471228  1
  O  O44  1  0.66447449  0.62895936  0.89733202  1
  O  O45  1  0.88238862  0.87230997  0.60450042  1
  O  O46  1  0.76427940  0.90031258  0.87473629  1
  O  O47  1  0.29136578  0.60161782  0.62772804  1
  O  O48  1  0.34980183  0.37230997  0.10450042  1
  O  O49  1  0.10389817  0.12895936  0.39733202  1
  O  O50  1  0.23474444  0.10161782  0.12772804  1
  O  O51  1  0.71014432  0.40031258  0.37473629  1
  O  O52  1  0.68134993  0.01171337  0.43697750  1
  O  O53  1  0.76031203  0.48727123  0.06249340  1
  O  O54  1  0.24346140  0.43749659  0.48842616  1
  O  O55  1  0.69209498  0.06374289  0.01142146  1
  O  O56  1  0.31491014  0.98727123  0.56249340  1
  O  O57  1  0.24391420  0.51171337  0.93697750  1
  O  O58  1  0.75558359  0.56374289  0.51142146  1
  O  O59  1  0.30746818  0.93749659  0.98842616  1
