# generated using pymatgen
data_Ta2BiO6F
_symmetry_space_group_name_H-M   'P 1'
_cell_length_a   7.44999928
_cell_length_b   7.57023936
_cell_length_c   7.36339577
_cell_angle_alpha   90.00000000
_cell_angle_beta   60.38380045
_cell_angle_gamma   120.53534574
_symmetry_Int_Tables_number   1
_chemical_formula_structural   Ta2BiO6F
_chemical_formula_sum   'Ta4 Bi2 O12 F2'
_cell_volume   292.95654193
_cell_formula_units_Z   2
loop_
 _symmetry_equiv_pos_site_id
 _symmetry_equiv_pos_as_xyz
  1  'x, y, z'
loop_
 _atom_site_type_symbol
 _atom_site_label
 _atom_site_symmetry_multiplicity
 _atom_site_fract_x
 _atom_site_fract_y
 _atom_site_fract_z
 _atom_site_occupancy
  Ta  Ta0  1  0.50000000  0.00000000  0.50000000  1
  Ta  Ta1  1  0.50000000  0.50000000  0.50000000  1
  Ta  Ta2  1  -0.00000000  0.50000000  -0.00000000  1
  Ta  Ta3  1  -0.00000000  0.50000000  0.50000000  1
  Bi  Bi4  1  0.50000000  0.50000000  -0.00000000  1
  Bi  Bi5  1  0.50000000  0.00000000  -0.00000000  1
  O  O6  1  0.60537838  0.80268919  0.44731081  1
  O  O7  1  0.85126269  0.42563135  0.82436865  1
  O  O8  1  0.25883483  0.81540448  0.82319171  1
  O  O9  1  0.25883483  0.44343035  0.41797347  1
  O  O10  1  0.25883483  0.44343035  0.82319171  1
  O  O11  1  0.25883483  0.81540448  0.41797347  1
  O  O12  1  0.39462162  0.19731081  0.55268919  1
  O  O13  1  0.14873731  0.57436865  0.17563135  1
  O  O14  1  0.74116517  0.18459552  0.17680829  1
  O  O15  1  0.74116517  0.55656965  0.58202653  1
  O  O16  1  0.74116517  0.55656965  0.17680829  1
  O  O17  1  0.74116517  0.18459552  0.58202653  1
  F  F18  1  0.26678961  0.13339481  0.11660519  1
  F  F19  1  0.73321039  0.86660519  0.88339481  1
