# generated using pymatgen
data_Te2MoWSe2
_symmetry_space_group_name_H-M   'P 1'
_cell_length_a   3.44003665
_cell_length_b   3.44003665
_cell_length_c   14.57671550
_cell_angle_alpha   89.99797817
_cell_angle_beta   90.00202183
_cell_angle_gamma   119.99979168
_symmetry_Int_Tables_number   1
_chemical_formula_structural   Te2MoWSe2
_chemical_formula_sum   'Te2 Mo1 W1 Se2'
_cell_volume   149.38856630
_cell_formula_units_Z   1
loop_
 _symmetry_equiv_pos_site_id
 _symmetry_equiv_pos_as_xyz
  1  'x, y, z'
loop_
 _atom_site_type_symbol
 _atom_site_label
 _atom_site_symmetry_multiplicity
 _atom_site_fract_x
 _atom_site_fract_y
 _atom_site_fract_z
 _atom_site_occupancy
  Te  Te0  1  0.33330576  0.66669424  0.62908092  1
  Te  Te1  1  0.66669767  0.33330233  0.37135545  1
  Mo  Mo2  1  0.66665560  0.33334440  0.75723905  1
  W  W3  1  0.33333955  0.66666045  0.24279477  1
  Se  Se4  1  0.66667273  0.33332727  0.13123663  1
  Se  Se5  1  0.33332869  0.66667131  0.86829317  1
