# generated using pymatgen
data_Sr3LaTa3O12
_symmetry_space_group_name_H-M   'P 1'
_cell_length_a   5.68712121
_cell_length_b   5.68712062
_cell_length_c   9.73969675
_cell_angle_alpha   90.00000000
_cell_angle_beta   73.02492098
_cell_angle_gamma   119.99999658
_symmetry_Int_Tables_number   1
_chemical_formula_structural   Sr3LaTa3O12
_chemical_formula_sum   'Sr3 La1 Ta3 O12'
_cell_volume   256.84044886
_cell_formula_units_Z   1
loop_
 _symmetry_equiv_pos_site_id
 _symmetry_equiv_pos_as_xyz
  1  'x, y, z'
loop_
 _atom_site_type_symbol
 _atom_site_label
 _atom_site_symmetry_multiplicity
 _atom_site_fract_x
 _atom_site_fract_y
 _atom_site_fract_z
 _atom_site_occupancy
  Sr  Sr0  1  0.72331095  0.86165548  0.41503357  1
  Sr  Sr1  1  0.57283703  0.28641852  0.14074445  1
  Sr  Sr2  1  0.42808201  0.71404101  0.85787698  1
  La  La3  1  0.28801625  0.14400813  0.56797562  1
  Ta  Ta4  1  0.84604757  0.42302379  0.73092864  1
  Ta  Ta5  1  0.15393695  0.57696847  0.26909458  1
  Ta  Ta6  1  -0.00026989  -0.00013495  0.00040484  1
  O  O7  1  0.41453662  0.20729339  0.87862631  1
  O  O8  1  0.91413046  0.70683707  0.87862631  1
  O  O9  1  0.91408030  0.20724323  0.87862631  1
  O  O10  1  0.58148583  0.79071397  0.12425614  1
  O  O11  1  0.08497199  0.29425803  0.12425614  1
  O  O12  1  0.08502989  0.79077187  0.12425614  1
  O  O13  1  0.25030028  0.62521639  0.63244268  1
  O  O14  1  0.74247343  0.11725704  0.63244268  1
  O  O15  1  0.74234093  0.62508389  0.63244268  1
  O  O16  1  0.74522284  0.37256948  0.37065530  1
  O  O17  1  0.25669133  0.88412185  0.37065530  1
  O  O18  1  0.25677522  0.37265336  0.37065530  1
