# generated using pymatgen
data_SrLaGaO4
_symmetry_space_group_name_H-M   'P 1'
_cell_length_a   3.89986678
_cell_length_b   3.89986678
_cell_length_c   6.87261241
_cell_angle_alpha   73.51733676
_cell_angle_beta   73.51733676
_cell_angle_gamma   90.00000000
_symmetry_Int_Tables_number   1
_chemical_formula_structural   SrLaGaO4
_chemical_formula_sum   'Sr1 La1 Ga1 O4'
_cell_volume   95.74197433
_cell_formula_units_Z   1
loop_
 _symmetry_equiv_pos_site_id
 _symmetry_equiv_pos_as_xyz
  1  'x, y, z'
loop_
 _atom_site_type_symbol
 _atom_site_label
 _atom_site_symmetry_multiplicity
 _atom_site_fract_x
 _atom_site_fract_y
 _atom_site_fract_z
 _atom_site_occupancy
  Sr  Sr0  1  0.35823644  0.35823644  0.28352711  1
  La  La1  1  0.64208022  0.64208022  0.71583957  1
  Ga  Ga2  1  0.99540977  0.99540977  0.00918046  1
  O  O3  1  0.50508651  0.00508651  0.98982698  1
  O  O4  1  0.00508651  0.50508651  0.98982698  1
  O  O5  1  0.16492444  0.16492444  0.67015111  1
  O  O6  1  0.82917610  0.82917610  0.34164780  1
