# generated using pymatgen
data_TbFeNi4
_symmetry_space_group_name_H-M   'P 1'
_cell_length_a   3.92482570
_cell_length_b   4.94651720
_cell_length_c   4.93987012
_cell_angle_alpha   120.01779309
_cell_angle_beta   90.00000000
_cell_angle_gamma   90.00000000
_symmetry_Int_Tables_number   1
_chemical_formula_structural   TbFeNi4
_chemical_formula_sum   'Tb1 Fe1 Ni4'
_cell_volume   83.04015779
_cell_formula_units_Z   1
loop_
 _symmetry_equiv_pos_site_id
 _symmetry_equiv_pos_as_xyz
  1  'x, y, z'
loop_
 _atom_site_type_symbol
 _atom_site_label
 _atom_site_symmetry_multiplicity
 _atom_site_fract_x
 _atom_site_fract_y
 _atom_site_fract_z
 _atom_site_occupancy
  Tb  Tb0  1  -0.00000000  -0.00000197  0.99998986  1
  Fe  Fe1  1  -0.00000000  0.33328525  0.66672938  1
  Ni  Ni2  1  -0.00000000  0.66663380  0.33327698  1
  Ni  Ni3  1  0.50000000  0.50037432  0.00073854  1
  Ni  Ni4  1  0.50000000  0.50035541  0.49964487  1
  Ni  Ni5  1  0.50000000  0.99925318  0.49962036  1
