# generated using pymatgen
data_Ta6Mn2Zn3O20
_symmetry_space_group_name_H-M   'P 1'
_cell_length_a   7.23988084
_cell_length_b   7.74530624
_cell_length_c   7.28407208
_cell_angle_alpha   104.33629414
_cell_angle_beta   86.14591495
_cell_angle_gamma   104.02499053
_symmetry_Int_Tables_number   1
_chemical_formula_structural   Ta6Mn2Zn3O20
_chemical_formula_sum   'Ta6 Mn2 Zn3 O20'
_cell_volume   383.92724731
_cell_formula_units_Z   1
loop_
 _symmetry_equiv_pos_site_id
 _symmetry_equiv_pos_as_xyz
  1  'x, y, z'
loop_
 _atom_site_type_symbol
 _atom_site_label
 _atom_site_symmetry_multiplicity
 _atom_site_fract_x
 _atom_site_fract_y
 _atom_site_fract_z
 _atom_site_occupancy
  Ta  Ta0  1  0.65877878  0.61791134  0.14293221  1
  Ta  Ta1  1  0.16642963  0.61486639  0.63347242  1
  Ta  Ta2  1  0.84632774  0.37559897  0.33250086  1
  Ta  Ta3  1  0.36071793  0.38290561  0.82835330  1
  Ta  Ta4  1  0.50686595  0.00138845  0.49780200  1
  Ta  Ta5  1  0.02742138  0.00171894  0.98002374  1
  Mn  Mn6  1  0.18621468  0.76160000  0.19243994  1
  Mn  Mn7  1  0.71119088  0.75800100  0.66207437  1
  Zn  Zn8  1  0.83740851  0.25000055  0.77885874  1
  Zn  Zn9  1  0.30437688  0.23464859  0.30975613  1
  Zn  Zn10  1  0.59100494  0.00317748  0.01336091  1
  O  O11  1  0.24917092  0.20547808  0.97929129  1
  O  O12  1  0.74426499  0.20120405  0.49103602  1
  O  O13  1  0.63996078  0.79772564  0.38275115  1
  O  O14  1  0.14399890  0.79535769  0.87491714  1
  O  O15  1  0.89183180  0.58161940  0.57615649  1
  O  O16  1  0.38912225  0.58635856  0.07518302  1
  O  O17  1  0.58848355  0.40942956  0.28804964  1
  O  O18  1  0.10022403  0.41565945  0.78360822  1
  O  O19  1  0.55517242  0.99629484  0.75204615  1
  O  O20  1  0.07520500  0.00562076  0.23670012  1
  O  O21  1  0.92416065  0.01248345  0.74594497  1
  O  O22  1  0.44142092  0.00483432  0.23598326  1
  O  O23  1  0.63283285  0.40853794  0.89284356  1
  O  O24  1  0.12647738  0.41046822  0.38888532  1
  O  O25  1  0.91280630  0.58144636  0.18792104  1
  O  O26  1  0.42364614  0.58784634  0.68607539  1
  O  O27  1  0.26746170  0.80005760  0.48940063  1
  O  O28  1  0.75503929  0.80588992  0.99546716  1
  O  O29  1  0.84830442  0.19044956  0.09545207  1
  O  O30  1  0.36602839  0.20142095  0.58756274  1
