# generated using pymatgen
data_Nd2Si3
_symmetry_space_group_name_H-M   'P 1'
_cell_length_a   3.94432686
_cell_length_b   4.21201013
_cell_length_c   7.64371249
_cell_angle_alpha   74.00692150
_cell_angle_beta   75.04791356
_cell_angle_gamma   90.00000000
_symmetry_Int_Tables_number   1
_chemical_formula_structural   Nd2Si3
_chemical_formula_sum   'Nd2 Si3'
_cell_volume   117.59485975
_cell_formula_units_Z   1
loop_
 _symmetry_equiv_pos_site_id
 _symmetry_equiv_pos_as_xyz
  1  'x, y, z'
loop_
 _atom_site_type_symbol
 _atom_site_label
 _atom_site_symmetry_multiplicity
 _atom_site_fract_x
 _atom_site_fract_y
 _atom_site_fract_z
 _atom_site_occupancy
  Nd  Nd0  1  0.87345315  0.62345315  0.75309369  1
  Nd  Nd1  1  0.12688989  0.37688989  0.24622022  1
  Si  Si2  1  0.53607047  0.78607047  0.42785905  1
  Si  Si3  1  0.29812706  0.04812706  0.90374588  1
  Si  Si4  1  0.70145942  0.95145942  0.09708116  1
