# generated using pymatgen
data_Sr2Pr2MnCuO8
_symmetry_space_group_name_H-M   'P 1'
_cell_length_a   3.86390392
_cell_length_b   3.86390392
_cell_length_c   12.58814931
_cell_angle_alpha   90.00000000
_cell_angle_beta   90.00000000
_cell_angle_gamma   90.00000000
_symmetry_Int_Tables_number   1
_chemical_formula_structural   Sr2Pr2MnCuO8
_chemical_formula_sum   'Sr2 Pr2 Mn1 Cu1 O8'
_cell_volume   187.93796626
_cell_formula_units_Z   1
loop_
 _symmetry_equiv_pos_site_id
 _symmetry_equiv_pos_as_xyz
  1  'x, y, z'
loop_
 _atom_site_type_symbol
 _atom_site_label
 _atom_site_symmetry_multiplicity
 _atom_site_fract_x
 _atom_site_fract_y
 _atom_site_fract_z
 _atom_site_occupancy
  Sr  Sr0  1  0.00000000  0.00000000  0.64156630  1
  Sr  Sr1  1  -0.00000000  -0.00000000  0.35843370  1
  Pr  Pr2  1  0.50000000  0.50000000  0.13946192  1
  Pr  Pr3  1  0.50000000  0.50000000  0.86053808  1
  Mn  Mn4  1  0.50000000  0.50000000  0.50000000  1
  Cu  Cu5  1  -0.00000000  -0.00000000  -0.00000000  1
  O  O6  1  0.50000000  0.50000000  0.32034666  1
  O  O7  1  0.00000000  0.00000000  0.83884074  1
  O  O8  1  -0.00000000  -0.00000000  0.16115926  1
  O  O9  1  0.50000000  0.50000000  0.67965334  1
  O  O10  1  0.00000000  0.50000000  0.50000000  1
  O  O11  1  0.50000000  0.00000000  -0.00000000  1
  O  O12  1  0.00000000  0.50000000  -0.00000000  1
  O  O13  1  0.50000000  0.00000000  0.50000000  1
