# generated using pymatgen
data_Sn3Mo15Se19
_symmetry_space_group_name_H-M   'P 1'
_cell_length_a   9.93498423
_cell_length_b   9.91257545
_cell_length_c   19.67306002
_cell_angle_alpha   90.00000000
_cell_angle_beta   90.00000000
_cell_angle_gamma   120.27466496
_symmetry_Int_Tables_number   1
_chemical_formula_structural   Sn3Mo15Se19
_chemical_formula_sum   'Sn6 Mo30 Se38'
_cell_volume   1673.19890301
_cell_formula_units_Z   2
loop_
 _symmetry_equiv_pos_site_id
 _symmetry_equiv_pos_as_xyz
  1  'x, y, z'
loop_
 _atom_site_type_symbol
 _atom_site_label
 _atom_site_symmetry_multiplicity
 _atom_site_fract_x
 _atom_site_fract_y
 _atom_site_fract_z
 _atom_site_occupancy
  Sn  Sn0  1  0.66436884  0.31409296  0.60728661  1
  Sn  Sn1  1  0.33563116  0.68590704  0.10728661  1
  Sn  Sn2  1  0.33563116  0.68590704  0.39271339  1
  Sn  Sn3  1  0.66436884  0.31409296  0.89271339  1
  Sn  Sn4  1  0.82580397  0.78865802  0.75000000  1
  Sn  Sn5  1  0.17419603  0.21134198  0.25000000  1
  Mo  Mo6  1  0.18635686  0.68231268  0.63503292  1
  Mo  Mo7  1  0.31230599  0.50128122  0.63526010  1
  Mo  Mo8  1  0.49453160  0.81364572  0.63485336  1
  Mo  Mo9  1  0.81364314  0.31768732  0.13503292  1
  Mo  Mo10  1  0.68769401  0.49871878  0.13526010  1
  Mo  Mo11  1  0.50546840  0.18635428  0.13485336  1
  Mo  Mo12  1  0.81364314  0.31768732  0.36496708  1
  Mo  Mo13  1  0.68769401  0.49871878  0.36473990  1
  Mo  Mo14  1  0.50546840  0.18635428  0.36514664  1
  Mo  Mo15  1  0.18635686  0.68231268  0.86496708  1
  Mo  Mo16  1  0.31230599  0.50128122  0.86473990  1
  Mo  Mo17  1  0.49453160  0.81364572  0.86514664  1
  Mo  Mo18  1  0.15102748  0.98512720  0.55688541  1
  Mo  Mo19  1  0.01439092  0.16672574  0.55641742  1
  Mo  Mo20  1  0.84204550  0.85634021  0.55655683  1
  Mo  Mo21  1  0.84897252  0.01487280  0.05688541  1
  Mo  Mo22  1  0.98560908  0.83327426  0.05641742  1
  Mo  Mo23  1  0.15795450  0.14365979  0.05655683  1
  Mo  Mo24  1  0.84897252  0.01487280  0.44311459  1
  Mo  Mo25  1  0.98560908  0.83327426  0.44358258  1
  Mo  Mo26  1  0.15795450  0.14365979  0.44344317  1
  Mo  Mo27  1  0.15102748  0.98512720  0.94311459  1
  Mo  Mo28  1  0.01439092  0.16672574  0.94358258  1
  Mo  Mo29  1  0.84204550  0.85634021  0.94344317  1
  Mo  Mo30  1  0.35122217  0.83366103  0.75000000  1
  Mo  Mo31  1  0.16946738  0.51193091  0.75000000  1
  Mo  Mo32  1  0.48801863  0.65244301  0.75000000  1
  Mo  Mo33  1  0.64877783  0.16633897  0.25000000  1
  Mo  Mo34  1  0.83053262  0.48806909  0.25000000  1
  Mo  Mo35  1  0.51198137  0.34755699  0.25000000  1
  Se  Se36  1  0.05042825  0.69087057  0.75000000  1
  Se  Se37  1  0.30964763  0.35183390  0.75000000  1
  Se  Se38  1  0.64997357  0.96200495  0.75000000  1
  Se  Se39  1  0.94957175  0.30912943  0.25000000  1
  Se  Se40  1  0.69035237  0.64816610  0.25000000  1
  Se  Se41  1  0.35002643  0.03799505  0.25000000  1
  Se  Se42  1  0.02205156  0.02083880  0.66046751  1
  Se  Se43  1  0.97794844  0.97916120  0.16046751  1
  Se  Se44  1  0.97794844  0.97916120  0.33953249  1
  Se  Se45  1  0.02205156  0.02083880  0.83953249  1
  Se  Se46  1  0.37741922  0.99746169  0.64156269  1
  Se  Se47  1  0.00386013  0.37821418  0.64162382  1
  Se  Se48  1  0.61164677  0.62229952  0.63362677  1
  Se  Se49  1  0.62258078  0.00253831  0.14156269  1
  Se  Se50  1  0.99613987  0.62178582  0.14162382  1
  Se  Se51  1  0.38835323  0.37770048  0.13362677  1
  Se  Se52  1  0.62258078  0.00253831  0.35843731  1
  Se  Se53  1  0.99613987  0.62178582  0.35837618  1
  Se  Se54  1  0.38835323  0.37770048  0.36637323  1
  Se  Se55  1  0.37741922  0.99746169  0.85843731  1
  Se  Se56  1  0.00386013  0.37821418  0.85837618  1
  Se  Se57  1  0.61164677  0.62229952  0.86637323  1
  Se  Se58  1  0.96539525  0.67859545  0.55305898  1
  Se  Se59  1  0.32119088  0.28587009  0.55136542  1
  Se  Se60  1  0.71263812  0.03740242  0.55132967  1
  Se  Se61  1  0.03460475  0.32140455  0.05305898  1
  Se  Se62  1  0.67880912  0.71412991  0.05136542  1
  Se  Se63  1  0.28736188  0.96259758  0.05132967  1
  Se  Se64  1  0.03460475  0.32140455  0.44694102  1
  Se  Se65  1  0.67880912  0.71412991  0.44863458  1
  Se  Se66  1  0.28736188  0.96259758  0.44867033  1
  Se  Se67  1  0.96539525  0.67859545  0.94694102  1
  Se  Se68  1  0.32119088  0.28587009  0.94863458  1
  Se  Se69  1  0.71263812  0.03740242  0.94867033  1
  Se  Se70  1  0.66799873  0.33406777  0.03241498  1
  Se  Se71  1  0.33200127  0.66593223  0.53241498  1
  Se  Se72  1  0.33200127  0.66593223  0.96758502  1
  Se  Se73  1  0.66799873  0.33406777  0.46758502  1
