# generated using pymatgen
data_Sr3TiNb4O15
_symmetry_space_group_name_H-M   'P 1'
_cell_length_a   4.00969508
_cell_length_b   12.61685519
_cell_length_c   12.64955207
_cell_angle_alpha   90.00000000
_cell_angle_beta   89.80389592
_cell_angle_gamma   90.00000000
_symmetry_Int_Tables_number   1
_chemical_formula_structural   Sr3TiNb4O15
_chemical_formula_sum   'Sr6 Ti2 Nb8 O30'
_cell_volume   639.93382950
_cell_formula_units_Z   2
loop_
 _symmetry_equiv_pos_site_id
 _symmetry_equiv_pos_as_xyz
  1  'x, y, z'
loop_
 _atom_site_type_symbol
 _atom_site_label
 _atom_site_symmetry_multiplicity
 _atom_site_fract_x
 _atom_site_fract_y
 _atom_site_fract_z
 _atom_site_occupancy
  Sr  Sr0  1  0.23248836  0.50633373  0.49958736  1
  Sr  Sr1  1  0.23248836  0.99366627  0.99958736  1
  Sr  Sr2  1  0.23947192  0.64655354  0.80079169  1
  Sr  Sr3  1  0.24815487  0.38346209  0.21787968  1
  Sr  Sr4  1  0.23947192  0.85344646  0.30079169  1
  Sr  Sr5  1  0.24815487  0.11653791  0.71787968  1
  Ti  Ti6  1  0.77275914  0.58824784  0.29527409  1
  Ti  Ti7  1  0.77275914  0.91175216  0.79527409  1
  Nb  Nb8  1  0.71900769  0.41749111  0.71442362  1
  Nb  Nb9  1  0.71900769  0.08250889  0.21442362  1
  Nb  Nb10  1  0.75106995  0.29275644  0.42650630  1
  Nb  Nb11  1  0.71904694  0.71513022  0.57708683  1
  Nb  Nb12  1  0.75106995  0.20724356  0.92650630  1
  Nb  Nb13  1  0.71904694  0.78486978  0.07708683  1
  Nb  Nb14  1  0.77059106  0.49972687  0.00610663  1
  Nb  Nb15  1  0.77059106  0.00027313  0.50610663  1
  O  O16  1  0.22029629  0.57428627  0.29777078  1
  O  O17  1  0.23138700  0.42719300  0.69894764  1
  O  O18  1  0.22029629  0.92571373  0.79777078  1
  O  O19  1  0.23138700  0.07280700  0.19894764  1
  O  O20  1  0.72924716  0.63085305  0.43965728  1
  O  O21  1  0.72821435  0.37438022  0.55611921  1
  O  O22  1  0.72924716  0.86914695  0.93965728  1
  O  O23  1  0.72821435  0.12561978  0.05611921  1
  O  O24  1  0.73846383  0.84061324  0.48584385  1
  O  O25  1  0.72247242  0.15767580  0.50144110  1
  O  O26  1  0.73846383  0.65938676  0.98584385  1
  O  O27  1  0.72247242  0.34232420  0.00144110  1
  O  O28  1  0.23023912  0.30063846  0.41065683  1
  O  O29  1  0.23663245  0.70486185  0.58694487  1
  O  O30  1  0.23023912  0.19936154  0.91065683  1
  O  O31  1  0.23663245  0.79513815  0.08694487  1
  O  O32  1  0.72791256  0.43219445  0.34841439  1
  O  O33  1  0.74119403  0.57009917  0.64210403  1
  O  O34  1  0.72791256  0.06780555  0.84841439  1
  O  O35  1  0.74119403  0.92990083  0.14210403  1
  O  O36  1  0.72980847  0.50377973  0.15647199  1
  O  O37  1  0.72078812  0.50602372  0.83947818  1
  O  O38  1  0.72980847  0.99622027  0.65647199  1
  O  O39  1  0.72078812  0.99397628  0.33947818  1
  O  O40  1  0.73628116  0.77345621  0.72819430  1
  O  O41  1  0.73000836  0.22404231  0.27092125  1
  O  O42  1  0.73628116  0.72654379  0.22819430  1
  O  O43  1  0.73000836  0.27595769  0.77092125  1
  O  O44  1  0.23546473  0.49984585  0.99937811  1
  O  O45  1  0.23546473  0.00015415  0.49937811  1
