# generated using pymatgen
data_Pr2Si3
_symmetry_space_group_name_H-M   'P 1'
_cell_length_a   4.25274922
_cell_length_b   3.96839714
_cell_length_c   7.70629307
_cell_angle_alpha   75.07955399
_cell_angle_beta   73.98273720
_cell_angle_gamma   90.00000000
_symmetry_Int_Tables_number   1
_chemical_formula_structural   Pr2Si3
_chemical_formula_sum   'Pr2 Si3'
_cell_volume   120.43843586
_cell_formula_units_Z   1
loop_
 _symmetry_equiv_pos_site_id
 _symmetry_equiv_pos_as_xyz
  1  'x, y, z'
loop_
 _atom_site_type_symbol
 _atom_site_label
 _atom_site_symmetry_multiplicity
 _atom_site_fract_x
 _atom_site_fract_y
 _atom_site_fract_z
 _atom_site_occupancy
  Pr  Pr0  1  0.37639898  0.62639898  0.24720205  1
  Pr  Pr1  1  0.62335392  0.37335392  0.75329217  1
  Si  Si2  1  0.21283397  0.96283397  0.57433205  1
  Si  Si3  1  0.95299100  0.20299100  0.09401800  1
  Si  Si4  1  0.04842213  0.79842213  0.90315573  1
