# generated using pymatgen
data_Sr4Y2Fe2Cu4O15
_symmetry_space_group_name_H-M   'P 1'
_cell_length_a   5.47528696
_cell_length_b   5.47528696
_cell_length_c   11.98039299
_cell_angle_alpha   76.63498583
_cell_angle_beta   76.63498583
_cell_angle_gamma   89.33715379
_symmetry_Int_Tables_number   1
_chemical_formula_structural   Sr4Y2Fe2Cu4O15
_chemical_formula_sum   'Sr4 Y2 Fe2 Cu4 O15'
_cell_volume   339.63422510
_cell_formula_units_Z   1
loop_
 _symmetry_equiv_pos_site_id
 _symmetry_equiv_pos_as_xyz
  1  'x, y, z'
loop_
 _atom_site_type_symbol
 _atom_site_label
 _atom_site_symmetry_multiplicity
 _atom_site_fract_x
 _atom_site_fract_y
 _atom_site_fract_z
 _atom_site_occupancy
  Sr  Sr0  1  0.09615812  0.59615812  0.82047384  1
  Sr  Sr1  1  0.58336804  0.08336804  0.82047384  1
  Sr  Sr2  1  0.40384188  0.90384188  0.17952616  1
  Sr  Sr3  1  0.91663196  0.41663196  0.17952616  1
  Y  Y4  1  0.25000000  0.75000000  0.50000000  1
  Y  Y5  1  0.75000000  0.25000000  0.50000000  1
  Fe  Fe6  1  0.00686810  0.99313190  0.00000000  1
  Fe  Fe7  1  0.49313190  0.50686810  -0.00000000  1
  Cu  Cu8  1  0.67792336  0.67214263  0.64993400  1
  Cu  Cu9  1  0.17214263  0.17792336  0.64993400  1
  Cu  Cu10  1  0.82207664  0.82785737  0.35006600  1
  Cu  Cu11  1  0.32785737  0.32207664  0.35006600  1
  O  O12  1  0.43027485  0.93027485  0.63945030  1
  O  O13  1  0.94295561  0.44295561  0.61408877  1
  O  O14  1  0.93585049  0.93585049  0.62829902  1
  O  O15  1  0.43585049  0.43585049  0.62829902  1
  O  O16  1  0.55704439  0.05704439  0.38591123  1
  O  O17  1  0.06972515  0.56972515  0.36054970  1
  O  O18  1  0.06414951  0.06414951  0.37170098  1
  O  O19  1  0.56414951  0.56414951  0.37170098  1
  O  O20  1  0.03891169  0.12449704  0.83659127  1
  O  O21  1  0.62449704  0.53891169  0.83659127  1
  O  O22  1  0.46108831  0.37550296  0.16340873  1
  O  O23  1  0.87550296  0.96108831  0.16340873  1
  O  O24  1  0.75000000  0.75000000  0.00000000  1
  O  O25  1  0.25000000  0.25000000  0.00000000  1
  O  O26  1  0.25000000  0.75000000  0.00000000  1
