# generated using pymatgen
data_Sr2GdCu2RuO8
_symmetry_space_group_name_H-M   'P 1'
_cell_length_a   3.89371238
_cell_length_b   3.89371238
_cell_length_c   11.57097900
_cell_angle_alpha   90.11089396
_cell_angle_beta   89.88910604
_cell_angle_gamma   90.12685406
_symmetry_Int_Tables_number   1
_chemical_formula_structural   Sr2GdCu2RuO8
_chemical_formula_sum   'Sr2 Gd1 Cu2 Ru1 O8'
_cell_volume   175.42648142
_cell_formula_units_Z   1
loop_
 _symmetry_equiv_pos_site_id
 _symmetry_equiv_pos_as_xyz
  1  'x, y, z'
loop_
 _atom_site_type_symbol
 _atom_site_label
 _atom_site_symmetry_multiplicity
 _atom_site_fract_x
 _atom_site_fract_y
 _atom_site_fract_z
 _atom_site_occupancy
  Sr  Sr0  1  0.49969212  0.50066333  0.68928557  1
  Sr  Sr1  1  0.50066333  0.49969212  0.31071443  1
  Gd  Gd2  1  0.50018839  0.50018839  -0.00000000  1
  Cu  Cu3  1  0.99974274  0.00030659  0.85686531  1
  Cu  Cu4  1  0.00030659  0.99974274  0.14313469  1
  Ru  Ru5  1  0.98191929  0.98191929  0.50000000  1
  O  O6  1  0.49965149  0.99949766  0.87238462  1
  O  O7  1  0.00008203  0.50059818  0.87257659  1
  O  O8  1  0.50059818  0.00008203  0.12742341  1
  O  O9  1  0.99949766  0.49965149  0.12761538  1
  O  O10  1  0.99809757  0.00510143  0.66876771  1
  O  O11  1  0.00510143  0.99809757  0.33123229  1
  O  O12  1  0.48243439  0.95702480  0.50132868  1
  O  O13  1  0.95702480  0.48243439  0.49867132  1
