# generated using pymatgen
data_NdFeNi4
_symmetry_space_group_name_H-M   'P 1'
_cell_length_a   3.95233152
_cell_length_b   4.99506311
_cell_length_c   4.99637392
_cell_angle_alpha   59.99749566
_cell_angle_beta   90.00000000
_cell_angle_gamma   90.00000000
_symmetry_Int_Tables_number   1
_chemical_formula_structural   NdFeNi4
_chemical_formula_sum   'Nd1 Fe1 Ni4'
_cell_volume   85.42184554
_cell_formula_units_Z   1
loop_
 _symmetry_equiv_pos_site_id
 _symmetry_equiv_pos_as_xyz
  1  'x, y, z'
loop_
 _atom_site_type_symbol
 _atom_site_label
 _atom_site_symmetry_multiplicity
 _atom_site_fract_x
 _atom_site_fract_y
 _atom_site_fract_z
 _atom_site_occupancy
  Nd  Nd0  1  -0.00000000  0.99999337  0.00001972  1
  Fe  Fe1  1  0.00000000  0.33331142  0.33337652  1
  Ni  Ni2  1  0.00000000  0.66659471  0.66669089  1
  Ni  Ni3  1  0.50000000  0.50022534  0.50022303  1
  Ni  Ni4  1  0.50000000  0.50023078  0.99955080  1
  Ni  Ni5  1  0.50000000  0.99954438  0.50023904  1
