# generated using pymatgen
data_Mn5Si2Ge
_symmetry_space_group_name_H-M   'P 1'
_cell_length_a   4.85411512
_cell_length_b   6.97161053
_cell_length_c   6.97287995
_cell_angle_alpha   120.02336700
_cell_angle_beta   90.00562838
_cell_angle_gamma   90.02229260
_symmetry_Int_Tables_number   1
_chemical_formula_structural   Mn5Si2Ge
_chemical_formula_sum   'Mn10 Si4 Ge2'
_cell_volume   204.30718645
_cell_formula_units_Z   2
loop_
 _symmetry_equiv_pos_site_id
 _symmetry_equiv_pos_as_xyz
  1  'x, y, z'
loop_
 _atom_site_type_symbol
 _atom_site_label
 _atom_site_symmetry_multiplicity
 _atom_site_fract_x
 _atom_site_fract_y
 _atom_site_fract_z
 _atom_site_occupancy
  Mn  Mn0  1  0.49636156  0.32912303  0.66611559  1
  Mn  Mn1  1  0.49628300  0.67092353  0.33698982  1
  Mn  Mn2  1  0.00362802  0.67085920  0.33697358  1
  Mn  Mn3  1  0.00370040  0.32909911  0.66614122  1
  Mn  Mn4  1  0.75000774  0.23927071  0.99254635  1
  Mn  Mn5  1  0.75005804  0.76069785  0.75334560  1
  Mn  Mn6  1  0.74990200  -0.00000030  0.25118685  1
  Mn  Mn7  1  0.24998893  0.75591634  0.00118380  1
  Mn  Mn8  1  0.25002271  0.24406625  0.24533881  1
  Mn  Mn9  1  0.25004809  0.00001329  0.75136752  1
  Si  Si10  1  0.75001455  0.00000546  0.60101276  1
  Si  Si11  1  0.25001901  0.39465776  0.00102716  1
  Si  Si12  1  0.25001283  0.60543124  0.60655595  1
  Si  Si13  1  0.24991863  -0.00004480  0.39621175  1
  Ge  Ge14  1  0.75001415  0.60415900  0.99902855  1
  Ge  Ge15  1  0.75002034  0.39582233  0.39497471  1
