# generated using pymatgen
data_Na2MnCoNiO6
_symmetry_space_group_name_H-M   'P 1'
_cell_length_a   2.92107448
_cell_length_b   7.17350265
_cell_length_c   6.63987333
_cell_angle_alpha   68.88322968
_cell_angle_beta   89.60490822
_cell_angle_gamma   77.94975174
_symmetry_Int_Tables_number   1
_chemical_formula_structural   Na2MnCoNiO6
_chemical_formula_sum   'Na2 Mn1 Co1 Ni1 O6'
_cell_volume   126.57464857
_cell_formula_units_Z   1
loop_
 _symmetry_equiv_pos_site_id
 _symmetry_equiv_pos_as_xyz
  1  'x, y, z'
loop_
 _atom_site_type_symbol
 _atom_site_label
 _atom_site_symmetry_multiplicity
 _atom_site_fract_x
 _atom_site_fract_y
 _atom_site_fract_z
 _atom_site_occupancy
  Na  Na0  1  0.55831604  0.90587297  0.61166981  1
  Na  Na1  1  0.77312162  0.42319991  0.06065341  1
  Mn  Mn2  1  0.66664367  0.67001403  0.33634379  1
  Co  Co3  1  0.33899886  0.32617258  0.66036937  1
  Ni  Ni4  1  0.99826158  0.00099305  0.00565809  1
  O  O5  1  0.60148916  0.80829192  0.02263858  1
  O  O6  1  0.93205180  0.14113888  0.66409959  1
  O  O7  1  0.25864230  0.48865007  0.32135788  1
  O  O8  1  0.73367088  0.53105015  0.64698284  1
  O  O9  1  0.07648541  0.84714701  0.34779998  1
  O  O10  1  0.39565169  0.19080244  0.98909367  1
