# generated using pymatgen
data_Na2Fe3SbO8
_symmetry_space_group_name_H-M   'P 1'
_cell_length_a   3.05788957
_cell_length_b   9.47307234
_cell_length_c   10.97631626
_cell_angle_alpha   90.00000000
_cell_angle_beta   90.00000000
_cell_angle_gamma   90.00000000
_symmetry_Int_Tables_number   1
_chemical_formula_structural   Na2Fe3SbO8
_chemical_formula_sum   'Na4 Fe6 Sb2 O16'
_cell_volume   317.95763883
_cell_formula_units_Z   2
loop_
 _symmetry_equiv_pos_site_id
 _symmetry_equiv_pos_as_xyz
  1  'x, y, z'
loop_
 _atom_site_type_symbol
 _atom_site_label
 _atom_site_symmetry_multiplicity
 _atom_site_fract_x
 _atom_site_fract_y
 _atom_site_fract_z
 _atom_site_occupancy
  Na  Na0  1  0.25000000  0.26756680  0.84610517  1
  Na  Na1  1  0.25000000  0.75407854  0.64248489  1
  Na  Na2  1  0.75000000  0.74592146  0.14248489  1
  Na  Na3  1  0.75000000  0.23243320  0.34610517  1
  Fe  Fe4  1  0.25000000  0.93083158  0.40079133  1
  Fe  Fe5  1  0.25000000  0.41547413  0.09988017  1
  Fe  Fe6  1  0.75000000  0.08452587  0.59988017  1
  Fe  Fe7  1  0.75000000  0.56916842  0.90079133  1
  Fe  Fe8  1  0.25000000  0.43066523  0.62560824  1
  Fe  Fe9  1  0.75000000  0.06933477  0.12560824  1
  Sb  Sb10  1  0.25000000  0.94389901  0.88643055  1
  Sb  Sb11  1  0.75000000  0.55610099  0.38643055  1
  O  O12  1  0.25000000  0.02067634  0.71907696  1
  O  O13  1  0.25000000  0.53052890  0.78246187  1
  O  O14  1  0.75000000  0.96947110  0.28246187  1
  O  O15  1  0.75000000  0.47932366  0.21907696  1
  O  O16  1  0.25000000  0.92309870  0.06587870  1
  O  O17  1  0.25000000  0.41802818  0.42475814  1
  O  O18  1  0.75000000  0.08197182  0.92475814  1
  O  O19  1  0.75000000  0.57690130  0.56587870  1
  O  O20  1  0.25000000  0.69363216  0.34865936  1
  O  O21  1  0.25000000  0.20236567  0.15645347  1
  O  O22  1  0.75000000  0.29763433  0.65645347  1
  O  O23  1  0.75000000  0.80636784  0.84865936  1
  O  O24  1  0.25000000  0.61266153  0.01714755  1
  O  O25  1  0.25000000  0.12035206  0.48426361  1
  O  O26  1  0.75000000  0.37964794  0.98426361  1
  O  O27  1  0.75000000  0.88733847  0.51714755  1
