# generated using pymatgen
data_Nb6Te8Pb
_symmetry_space_group_name_H-M   'P 1'
_cell_length_a   3.67436462
_cell_length_b   10.77843944
_cell_length_c   10.77662075
_cell_angle_alpha   60.04359002
_cell_angle_beta   90.00013462
_cell_angle_gamma   89.99936292
_symmetry_Int_Tables_number   1
_chemical_formula_structural   Nb6Te8Pb
_chemical_formula_sum   'Nb6 Te8 Pb1'
_cell_volume   369.77875915
_cell_formula_units_Z   1
loop_
 _symmetry_equiv_pos_site_id
 _symmetry_equiv_pos_as_xyz
  1  'x, y, z'
loop_
 _atom_site_type_symbol
 _atom_site_label
 _atom_site_symmetry_multiplicity
 _atom_site_fract_x
 _atom_site_fract_y
 _atom_site_fract_z
 _atom_site_occupancy
  Nb  Nb0  1  0.74915871  0.38696728  0.51070645  1
  Nb  Nb1  1  0.74912428  0.10239293  0.38690732  1
  Nb  Nb2  1  0.74914951  0.51065328  0.10234079  1
  Nb  Nb3  1  0.25084129  0.61303272  0.48929355  1
  Nb  Nb4  1  0.25087572  0.89760707  0.61309268  1
  Nb  Nb5  1  0.25085049  0.48934672  0.89765921  1
  Te  Te6  1  0.75229213  0.06165847  0.66722223  1
  Te  Te7  1  0.75226228  0.27122116  0.06159183  1
  Te  Te8  1  0.75233026  0.66720301  0.27119165  1
  Te  Te9  1  0.24770787  0.93834153  0.33277777  1
  Te  Te10  1  0.24773772  0.72877884  0.93840817  1
  Te  Te11  1  0.24766974  0.33279699  0.72880835  1
  Te  Te12  1  0.74998988  0.66664846  0.66668227  1
  Te  Te13  1  0.25001012  0.33335154  0.33331773  1
  Pb  Pb14  1  0.50000000  -0.00000000  -0.00000000  1
