# generated using pymatgen
data_Nb3(IrSe5)2
_symmetry_space_group_name_H-M   'P 1'
_cell_length_a   5.79806316
_cell_length_b   7.75886396
_cell_length_c   9.25785596
_cell_angle_alpha   66.35788798
_cell_angle_beta   73.09313848
_cell_angle_gamma   90.18652480
_symmetry_Int_Tables_number   1
_chemical_formula_structural   Nb3(IrSe5)2
_chemical_formula_sum   'Nb3 Ir2 Se10'
_cell_volume   361.60142109
_cell_formula_units_Z   1
loop_
 _symmetry_equiv_pos_site_id
 _symmetry_equiv_pos_as_xyz
  1  'x, y, z'
loop_
 _atom_site_type_symbol
 _atom_site_label
 _atom_site_symmetry_multiplicity
 _atom_site_fract_x
 _atom_site_fract_y
 _atom_site_fract_z
 _atom_site_occupancy
  Nb  Nb0  1  0.56441631  0.15712796  0.84829227  1
  Nb  Nb1  1  0.40000000  0.80000000  0.20000000  1
  Nb  Nb2  1  0.23558369  0.44287204  0.55170773  1
  Ir  Ir3  1  0.01211070  0.00697052  0.99295636  1
  Ir  Ir4  1  0.78788930  0.59302948  0.40704364  1
  Se  Se5  1  0.63058424  0.14102187  0.11081962  1
  Se  Se6  1  0.43477701  0.76391146  0.49255050  1
  Se  Se7  1  0.21037798  0.34306464  0.88287989  1
  Se  Se8  1  0.00328480  0.93308245  0.29052719  1
  Se  Se9  1  0.81061171  0.52044884  0.69323567  1
  Se  Se10  1  0.79671520  0.66691755  0.10947281  1
  Se  Se11  1  0.58962202  0.25693536  0.51712011  1
  Se  Se12  1  0.36522299  0.83608854  0.90744950  1
  Se  Se13  1  0.16941576  0.45897813  0.28918038  1
  Se  Se14  1  0.98938829  0.07955116  0.70676433  1
