# generated using pymatgen
data_Sc2O3
_symmetry_space_group_name_H-M   'P 1'
_cell_length_a   3.38968005
_cell_length_b   3.38968004
_cell_length_c   5.66601461
_cell_angle_alpha   90.00000000
_cell_angle_beta   90.00000000
_cell_angle_gamma   119.99999996
_symmetry_Int_Tables_number   1
_chemical_formula_structural   Sc2O3
_chemical_formula_sum   'Sc2 O3'
_cell_volume   56.38008623
_cell_formula_units_Z   1
loop_
 _symmetry_equiv_pos_site_id
 _symmetry_equiv_pos_as_xyz
  1  'x, y, z'
loop_
 _atom_site_type_symbol
 _atom_site_label
 _atom_site_symmetry_multiplicity
 _atom_site_fract_x
 _atom_site_fract_y
 _atom_site_fract_z
 _atom_site_occupancy
  O  O0  1  0.66666667  0.33333333  0.35203857  1
  O  O1  1  0.33333333  0.66666667  0.64796143  1
  O  O2  1  0.00000000  0.00000000  0.00000000  1
  Sc  Sc3  1  0.66666667  0.33333333  0.75116747  1
  Sc  Sc4  1  0.33333333  0.66666667  0.24883253  1
