# generated using pymatgen
data_Nd5S9
_symmetry_space_group_name_H-M   'P 1'
_cell_length_a   5.52640405
_cell_length_b   9.92942013
_cell_length_c   12.13416057
_cell_angle_alpha   81.91821090
_cell_angle_beta   76.83707495
_cell_angle_gamma   90.00000000
_symmetry_Int_Tables_number   1
_chemical_formula_structural   Nd5S9
_chemical_formula_sum   'Nd10 S18'
_cell_volume   641.56228923
_cell_formula_units_Z   2
loop_
 _symmetry_equiv_pos_site_id
 _symmetry_equiv_pos_as_xyz
  1  'x, y, z'
loop_
 _atom_site_type_symbol
 _atom_site_label
 _atom_site_symmetry_multiplicity
 _atom_site_fract_x
 _atom_site_fract_y
 _atom_site_fract_z
 _atom_site_occupancy
  Nd  Nd0  1  0.55529606  0.33523277  0.38521516  1
  Nd  Nd1  1  0.35009066  0.94804706  0.79869701  1
  Nd  Nd2  1  0.15581803  0.52835125  0.19022447  1
  Nd  Nd3  1  0.94379511  0.14133102  0.58923161  1
  Nd  Nd4  1  0.76777533  0.73207890  0.99285912  1
  Nd  Nd5  1  0.13302672  0.05866898  0.21076839  1
  Nd  Nd6  1  0.94604249  0.67164875  0.60977553  1
  Nd  Nd7  1  0.74878767  0.25195294  0.00130299  1
  Nd  Nd8  1  0.54051122  0.86476723  0.41478484  1
  Nd  Nd9  1  0.36063445  0.46792110  0.80714088  1
  S  S10  1  0.02530665  0.92109590  0.44732955  1
  S  S11  1  0.42370472  0.72533036  0.64982446  1
  S  S12  1  0.61852092  0.11311857  0.24739059  1
  S  S13  1  0.84250255  0.52220307  0.84088380  1
  S  S14  1  0.22586912  0.31402784  0.04476923  1
  S  S15  1  0.46591150  0.08688143  0.55260941  1
  S  S16  1  0.87063835  0.88597216  0.75523077  1
  S  S17  1  0.07263619  0.27890410  0.35267045  1
  S  S18  1  0.28338635  0.67779693  0.95911620  1
  S  S19  1  0.67352918  0.47466964  0.15017554  1
  S  S20  1  0.29987124  0.60000000  0.40000000  1
  S  S21  1  0.71130037  0.42653778  0.57451885  1
  S  S22  1  0.88581922  0.77346222  0.22548115  1
  S  S23  1  0.11353122  0.22417896  0.77732025  1
  S  S24  1  0.49085147  0.97582104  0.02267975  1
  S  S25  1  0.99280668  0.98817009  0.01059806  1
  S  S26  1  0.79863178  0.60000000  0.40000000  1
  S  S27  1  0.60340475  0.21182991  0.78940194  1
