# generated using pymatgen
data_Na4Mg11AlSi12(HO10)4
_symmetry_space_group_name_H-M   'P 1'
_cell_length_a   8.92488241
_cell_length_b   9.77769008
_cell_length_c   10.50303458
_cell_angle_alpha   115.12031682
_cell_angle_beta   96.97242790
_cell_angle_gamma   65.07189083
_symmetry_Int_Tables_number   1
_chemical_formula_structural   Na4Mg11AlSi12(HO10)4
_chemical_formula_sum   'Na4 Mg11 Al1 Si12 H4 O40'
_cell_volume   750.69468426
_cell_formula_units_Z   1
loop_
 _symmetry_equiv_pos_site_id
 _symmetry_equiv_pos_as_xyz
  1  'x, y, z'
loop_
 _atom_site_type_symbol
 _atom_site_label
 _atom_site_symmetry_multiplicity
 _atom_site_fract_x
 _atom_site_fract_y
 _atom_site_fract_z
 _atom_site_occupancy
  Na  Na0  1  0.60761077  0.63633512  0.42591677  1
  Na  Na1  1  0.39209430  0.36647483  0.57780042  1
  Na  Na2  1  0.63505340  0.60913148  0.94788600  1
  Na  Na3  1  0.36750487  0.39036177  0.04947207  1
  Mg  Mg4  1  0.94727792  0.94587954  0.84654980  1
  Mg  Mg5  1  0.04919257  0.05164260  0.15170111  1
  Mg  Mg6  1  0.81842875  0.85280343  0.53544725  1
  Mg  Mg7  1  0.17759821  0.14961846  0.46705269  1
  Mg  Mg8  1  0.93525770  0.93984061  0.34659714  1
  Mg  Mg9  1  0.06426524  0.05814764  0.65297512  1
  Mg  Mg10  1  0.85021592  0.81572039  0.05104519  1
  Mg  Mg11  1  0.15181510  0.17962709  0.94555535  1
  Mg  Mg12  1  0.50139680  0.99716640  0.99641213  1
  Mg  Mg13  1  0.99571936  0.50157893  0.50353382  1
  Mg  Mg14  1  0.72834472  0.72741362  0.73901780  1
  Al  Al15  1  0.27033545  0.27130969  0.26022770  1
  Si  Si16  1  0.65410266  0.23071060  0.25090886  1
  Si  Si17  1  0.33978702  0.76968135  0.75038563  1
  Si  Si18  1  0.77562141  0.33751251  0.06173980  1
  Si  Si19  1  0.22526720  0.66076794  0.93842097  1
  Si  Si20  1  0.76342745  0.33557677  0.54891691  1
  Si  Si21  1  0.23800836  0.65877829  0.44673680  1
  Si  Si22  1  0.55451217  0.95171981  0.29816709  1
  Si  Si23  1  0.44444101  0.05083690  0.69911210  1
  Si  Si24  1  0.95585876  0.55775786  0.20774439  1
  Si  Si25  1  0.04617026  0.44116353  0.79601861  1
  Si  Si26  1  0.66783224  0.23298788  0.75581415  1
  Si  Si27  1  0.33169131  0.76858462  0.24361983  1
  H  H28  1  0.66363792  0.05426260  0.91455223  1
  H  H29  1  0.33335793  0.95687853  0.09086421  1
  H  H30  1  0.95590083  0.33349773  0.30463835  1
  H  H31  1  0.05597616  0.66469032  0.69394497  1
  O  O32  1  0.73251317  0.94625731  0.91775470  1
  O  O33  1  0.26766765  0.06853182  0.09117080  1
  O  O34  1  0.66639152  0.36085335  0.69029354  1
  O  O35  1  0.33564075  0.63901182  0.30868729  1
  O  O36  1  0.82694624  0.06128701  0.20845175  1
  O  O37  1  0.16870427  0.94031097  0.79225496  1
  O  O38  1  0.94170986  0.16529915  0.01329503  1
  O  O39  1  0.05956014  0.83362660  0.98719563  1
  O  O40  1  0.93527935  0.16572336  0.51042184  1
  O  O41  1  0.06608550  0.82830490  0.48689298  1
  O  O42  1  0.81532018  0.49877023  0.10055025  1
  O  O43  1  0.19122116  0.49674024  0.90023812  1
  O  O44  1  0.94695296  0.73063087  0.67059891  1
  O  O45  1  0.06713268  0.26952916  0.32783303  1
  O  O46  1  0.60931578  0.88592786  0.13025402  1
  O  O47  1  0.39126759  0.11557917  0.86821473  1
  O  O48  1  0.96681487  0.70842413  0.18558730  1
  O  O49  1  0.03671372  0.28725928  0.81435723  1
  O  O50  1  0.68479918  0.36249686  0.20354061  1
  O  O51  1  0.30803254  0.63474084  0.79249111  1
  O  O52  1  0.78224740  0.50126336  0.56821096  1
  O  O53  1  0.22726757  0.48279518  0.41704625  1
  O  O54  1  0.87350975  0.61139949  0.86142780  1
  O  O55  1  0.13348188  0.38364042  0.14943073  1
  O  O56  1  0.50446550  0.78320741  0.82757079  1
  O  O57  1  0.47933401  0.22498751  0.18232522  1
  O  O58  1  0.88727072  0.60991689  0.36830306  1
  O  O59  1  0.11367501  0.39020960  0.63436413  1
  O  O60  1  0.49491582  0.80822071  0.29923331  1
  O  O61  1  0.50156574  0.19897223  0.70290705  1
  O  O62  1  0.83676129  0.06391814  0.71155995  1
  O  O63  1  0.16182903  0.93731677  0.28796826  1
  O  O64  1  0.62772245  0.31522171  0.42460034  1
  O  O65  1  0.36744639  0.68042909  0.57571767  1
  O  O66  1  0.64589197  0.33550026  0.93250058  1
  O  O67  1  0.35592387  0.66374404  0.06724631  1
  O  O68  1  0.61342763  0.87678066  0.63325296  1
  O  O69  1  0.38147411  0.13117608  0.35763571  1
  O  O70  1  0.70505231  0.96131320  0.40156792  1
  O  O71  1  0.29096464  0.04222351  0.59827190  1
