# generated using pymatgen
data_Mn5Fe5C4
_symmetry_space_group_name_H-M   'P 1'
_cell_length_a   4.48220541
_cell_length_b   4.99945557
_cell_length_c   6.23565893
_cell_angle_alpha   97.11234795
_cell_angle_beta   68.98879126
_cell_angle_gamma   89.89569601
_symmetry_Int_Tables_number   1
_chemical_formula_structural   Mn5Fe5C4
_chemical_formula_sum   'Mn5 Fe5 C4'
_cell_volume   129.27664692
_cell_formula_units_Z   1
loop_
 _symmetry_equiv_pos_site_id
 _symmetry_equiv_pos_as_xyz
  1  'x, y, z'
loop_
 _atom_site_type_symbol
 _atom_site_label
 _atom_site_symmetry_multiplicity
 _atom_site_fract_x
 _atom_site_fract_y
 _atom_site_fract_z
 _atom_site_occupancy
  Mn  Mn0  1  0.63314203  0.69084914  0.56896593  1
  Mn  Mn1  1  0.80364579  0.19324175  0.56773227  1
  Mn  Mn2  1  0.37226149  0.30859344  0.43165165  1
  Mn  Mn3  1  0.43301180  0.74865806  0.99890219  1
  Mn  Mn4  1  0.56766528  0.24892463  0.99882203  1
  Fe  Fe5  1  0.81402237  0.91892068  0.20189218  1
  Fe  Fe6  1  0.01246531  0.58016980  0.80024560  1
  Fe  Fe7  1  0.18267526  0.08069191  0.80226591  1
  Fe  Fe8  1  0.98412985  0.41978606  0.19972978  1
  Fe  Fe9  1  0.20194398  0.80864931  0.42877090  1
  C  C10  1  0.57311305  0.57744487  0.22269446  1
  C  C11  1  0.79472045  0.92294019  0.77767224  1
  C  C12  1  0.42508824  0.42337172  0.77663106  1
  C  C13  1  0.20211511  0.07775845  0.22402381  1
