# generated using pymatgen
data_Mn2In2CuPd3
_symmetry_space_group_name_H-M   'P 1'
_cell_length_a   4.49459929
_cell_length_b   4.49459929
_cell_length_c   7.83467614
_cell_angle_alpha   73.33113080
_cell_angle_beta   90.00000000
_cell_angle_gamma   119.99999995
_symmetry_Int_Tables_number   1
_chemical_formula_structural   Mn2In2CuPd3
_chemical_formula_sum   'Mn2 In2 Cu1 Pd3'
_cell_volume   129.33054371
_cell_formula_units_Z   1
loop_
 _symmetry_equiv_pos_site_id
 _symmetry_equiv_pos_as_xyz
  1  'x, y, z'
loop_
 _atom_site_type_symbol
 _atom_site_label
 _atom_site_symmetry_multiplicity
 _atom_site_fract_x
 _atom_site_fract_y
 _atom_site_fract_z
 _atom_site_occupancy
  Mn  Mn0  1  0.25072638  0.50145275  0.24782087  1
  Mn  Mn1  1  0.74936147  0.49872295  0.75191558  1
  In  In2  1  0.99904190  0.99808380  0.00287429  1
  In  In3  1  0.50084448  0.00168897  0.49746655  1
  Cu  Cu4  1  0.62511230  0.25022460  0.12466309  1
  Pd  Pd5  1  0.12488949  0.24977899  0.62533152  1
  Pd  Pd6  1  0.87514589  0.75029178  0.37456233  1
  Pd  Pd7  1  0.37487808  0.74975616  0.87536577  1
