# generated using pymatgen
data_Mn3Fe3Ge2
_symmetry_space_group_name_H-M   'P 1'
_cell_length_a   4.13829713
_cell_length_b   5.17710015
_cell_length_c   5.17710015
_cell_angle_alpha   119.99839969
_cell_angle_beta   90.00000000
_cell_angle_gamma   90.00000000
_symmetry_Int_Tables_number   1
_chemical_formula_structural   Mn3Fe3Ge2
_chemical_formula_sum   'Mn3 Fe3 Ge2'
_cell_volume   96.05775624
_cell_formula_units_Z   1
loop_
 _symmetry_equiv_pos_site_id
 _symmetry_equiv_pos_as_xyz
  1  'x, y, z'
loop_
 _atom_site_type_symbol
 _atom_site_label
 _atom_site_symmetry_multiplicity
 _atom_site_fract_x
 _atom_site_fract_y
 _atom_site_fract_z
 _atom_site_occupancy
  Mn  Mn0  1  0.25000000  0.83996651  0.68000405  1
  Mn  Mn1  1  0.25000000  0.83999701  0.16000299  1
  Mn  Mn2  1  0.25000000  0.31999595  0.16003349  1
  Fe  Fe3  1  0.75000000  0.16042224  0.32078688  1
  Fe  Fe4  1  0.75000000  0.16042669  0.83957331  1
  Fe  Fe5  1  0.75000000  0.67921312  0.83957776  1
  Ge  Ge6  1  0.75000000  0.66666427  0.33333573  1
  Ge  Ge7  1  0.25000000  0.33331421  0.66668579  1
