# generated using pymatgen
data_Li2Fe2P2O9F
_symmetry_space_group_name_H-M   'P 1'
_cell_length_a   5.22675762
_cell_length_b   5.37754618
_cell_length_c   7.18428565
_cell_angle_alpha   106.51946634
_cell_angle_beta   107.31228850
_cell_angle_gamma   98.61339908
_symmetry_Int_Tables_number   1
_chemical_formula_structural   Li2Fe2P2O9F
_chemical_formula_sum   'Li2 Fe2 P2 O9 F1'
_cell_volume   178.66173288
_cell_formula_units_Z   1
loop_
 _symmetry_equiv_pos_site_id
 _symmetry_equiv_pos_as_xyz
  1  'x, y, z'
loop_
 _atom_site_type_symbol
 _atom_site_label
 _atom_site_symmetry_multiplicity
 _atom_site_fract_x
 _atom_site_fract_y
 _atom_site_fract_z
 _atom_site_occupancy
  Li  Li0  1  0.73478174  0.38097340  0.28994000  1
  Li  Li1  1  0.26695644  0.61966760  0.70918710  1
  Fe  Fe2  1  0.99362289  0.00160920  0.01004023  1
  Fe  Fe3  1  0.99652518  0.00345925  0.49023258  1
  P  P4  1  0.32309078  0.64279511  0.25861966  1
  P  P5  1  0.67792853  0.35674404  0.74190633  1
  O  O6  1  0.62796192  0.75745329  0.41281904  1
  O  O7  1  0.37567914  0.24141815  0.58668338  1
  O  O8  1  0.12378421  0.66602152  0.38372328  1
  O  O9  1  0.88393087  0.33771488  0.62086600  1
  O  O10  1  0.30844413  0.34312567  0.15169042  1
  O  O11  1  0.68939401  0.65621292  0.84534232  1
  O  O12  1  0.25351706  0.78365430  0.09802452  1
  O  O13  1  0.74323710  0.21349213  0.90086369  1
  O  O14  1  0.88827988  0.06394499  0.23859293  1
  F  F15  1  0.11286612  0.93171357  0.76146850  1
