# generated using pymatgen
data_La3SiN3O2
_symmetry_space_group_name_H-M   'P 1'
_cell_length_a   6.82709729
_cell_length_b   6.82709729
_cell_length_c   7.41288000
_cell_angle_alpha   62.05498190
_cell_angle_beta   62.05498190
_cell_angle_gamma   88.98774203
_symmetry_Int_Tables_number   1
_chemical_formula_structural   La3SiN3O2
_chemical_formula_sum   'La6 Si2 N6 O4'
_cell_volume   260.44817717
_cell_formula_units_Z   2
loop_
 _symmetry_equiv_pos_site_id
 _symmetry_equiv_pos_as_xyz
  1  'x, y, z'
loop_
 _atom_site_type_symbol
 _atom_site_label
 _atom_site_symmetry_multiplicity
 _atom_site_fract_x
 _atom_site_fract_y
 _atom_site_fract_z
 _atom_site_occupancy
  La  La0  1  0.32269461  0.17730539  -0.00000000  1
  La  La1  1  0.66901862  0.83098138  0.00000000  1
  La  La2  1  0.18117398  0.67777381  1.00000000  1
  La  La3  1  0.82222619  0.31882602  0.00000000  1
  La  La4  1  0.24385025  0.25614975  0.50000000  1
  La  La5  1  0.74385025  0.75614975  0.50000000  1
  Si  Si6  1  0.75144896  0.24412767  0.50442338  1
  Si  Si7  1  0.25587233  0.74855104  0.49557662  1
  N  N8  1  0.99044809  0.20785142  0.30170049  1
  N  N9  1  0.48969591  0.98917706  0.30277163  1
  N  N10  1  0.20805131  0.70753246  0.30277163  1
  N  N11  1  0.29214858  0.50955191  0.69829951  1
  N  N12  1  0.51082294  0.01030409  0.69722837  1
  N  N13  1  0.79246754  0.29194869  0.69722837  1
  O  O14  1  0.50848669  0.50757861  1.00000000  1
  O  O15  1  0.99242139  0.99151331  0.00000000  1
  O  O16  1  0.70947616  0.48415379  0.30637005  1
  O  O17  1  0.01584621  0.79052384  0.69362995  1
