# generated using pymatgen
data_LiCNO
_symmetry_space_group_name_H-M   'P 1'
_cell_length_a   3.28797735
_cell_length_b   3.28797654
_cell_length_c   5.12647620
_cell_angle_alpha   71.29558812
_cell_angle_beta   108.70441474
_cell_angle_gamma   120.00000189
_symmetry_Int_Tables_number   1
_chemical_formula_structural   LiCNO
_chemical_formula_sum   'Li1 C1 N1 O1'
_cell_volume   44.58435351
_cell_formula_units_Z   1
loop_
 _symmetry_equiv_pos_site_id
 _symmetry_equiv_pos_as_xyz
  1  'x, y, z'
loop_
 _atom_site_type_symbol
 _atom_site_label
 _atom_site_symmetry_multiplicity
 _atom_site_fract_x
 _atom_site_fract_y
 _atom_site_fract_z
 _atom_site_occupancy
  Li  Li0  1  0.99474078  0.00525922  0.98422235  1
  C  C1  1  0.50253810  0.49746190  0.50761430  1
  N  N2  1  0.58603993  0.41396007  0.75811978  1
  O  O3  1  0.41668119  0.58331881  0.25004357  1
