# generated using pymatgen
data_Na4CO4
_symmetry_space_group_name_H-M   'P 1'
_cell_length_a   5.48892783
_cell_length_b   5.34100678
_cell_length_c   5.31107070
_cell_angle_alpha   120.18663219
_cell_angle_beta   113.06837165
_cell_angle_gamma   90.00000749
_symmetry_Int_Tables_number   1
_chemical_formula_structural   Na4CO4
_chemical_formula_sum   'Na4 C1 O4'
_cell_volume   119.96528712
_cell_formula_units_Z   1
loop_
 _symmetry_equiv_pos_site_id
 _symmetry_equiv_pos_as_xyz
  1  'x, y, z'
loop_
 _atom_site_type_symbol
 _atom_site_label
 _atom_site_symmetry_multiplicity
 _atom_site_fract_x
 _atom_site_fract_y
 _atom_site_fract_z
 _atom_site_occupancy
  Na  Na0  1  0.46765208  0.74592677  0.68174873  1
  Na  Na1  1  0.53234792  0.06417804  0.31825127  1
  Na  Na2  1  0.89155950  0.48908852  0.26650674  1
  Na  Na3  1  0.10844050  0.22258178  0.73349326  1
  C  C4  1  0.00000000  0.77545261  0.00000000  1
  O  O5  1  0.11186885  0.84333955  0.83508863  1
  O  O6  1  0.88813115  0.00825093  0.16491137  1
  O  O7  1  0.21184690  0.73196108  0.23027934  1
  O  O8  1  0.78815310  0.50168174  0.76972066  1
