# generated using pymatgen
data_Hf4USi4
_symmetry_space_group_name_H-M   'P 1'
_cell_length_a   7.16844693
_cell_length_b   7.16844693
_cell_length_c   13.07887215
_cell_angle_alpha   90.00000000
_cell_angle_beta   90.00000000
_cell_angle_gamma   90.00000000
_symmetry_Int_Tables_number   1
_chemical_formula_structural   Hf4USi4
_chemical_formula_sum   'Hf16 U4 Si16'
_cell_volume   672.07918215
_cell_formula_units_Z   4
loop_
 _symmetry_equiv_pos_site_id
 _symmetry_equiv_pos_as_xyz
  1  'x, y, z'
loop_
 _atom_site_type_symbol
 _atom_site_label
 _atom_site_symmetry_multiplicity
 _atom_site_fract_x
 _atom_site_fract_y
 _atom_site_fract_z
 _atom_site_occupancy
  Hf  Hf0  1  0.64770622  0.50217614  0.37322769  1
  Hf  Hf1  1  0.35229378  0.49782386  0.87322769  1
  Hf  Hf2  1  0.00217614  0.85229378  0.12322769  1
  Hf  Hf3  1  -0.00217614  0.14770622  0.62322769  1
  Hf  Hf4  1  0.50401555  0.35173613  0.12599116  1
  Hf  Hf5  1  0.49598445  0.64826387  0.62599116  1
  Hf  Hf6  1  0.85173613  0.99598445  0.87599116  1
  Hf  Hf7  1  0.14826387  0.00401555  0.37599116  1
  Hf  Hf8  1  0.67605713  0.32524297  0.75156352  1
  Hf  Hf9  1  0.32394287  0.67475703  0.25156352  1
  Hf  Hf10  1  0.82524297  0.82394287  0.50156352  1
  Hf  Hf11  1  0.17475703  0.17605713  0.00156352  1
  Hf  Hf12  1  0.65098358  0.00005904  0.28549846  1
  Hf  Hf13  1  0.34901642  -0.00005904  0.78549846  1
  Hf  Hf14  1  0.50005904  0.84901642  0.03549846  1
  Hf  Hf15  1  0.49994096  0.15098358  0.53549846  1
  U  U16  1  0.99633354  0.34852773  0.21528375  1
  U  U17  1  0.00366646  0.65147227  0.71528375  1
  U  U18  1  0.84852773  0.50366646  0.96528375  1
  U  U19  1  0.15147227  0.49633354  0.46528375  1
  Si  Si20  1  0.85012103  0.20000663  0.42952094  1
  Si  Si21  1  0.14987897  0.79999337  0.92952094  1
  Si  Si22  1  0.70000663  0.64987897  0.17952094  1
  Si  Si23  1  0.29999337  0.35012103  0.67952094  1
  Si  Si24  1  0.79134451  0.13630432  0.06956203  1
  Si  Si25  1  0.20865549  0.86369568  0.56956203  1
  Si  Si26  1  0.63630432  0.70865549  0.81956203  1
  Si  Si27  1  0.36369568  0.29134451  0.31956203  1
  Si  Si28  1  0.79096815  0.44807731  0.56361551  1
  Si  Si29  1  0.20903185  0.55192269  0.06361551  1
  Si  Si30  1  0.94807731  0.70903185  0.31361551  1
  Si  Si31  1  0.05192269  0.29096815  0.81361551  1
  Si  Si32  1  0.54632276  0.19691153  0.93573695  1
  Si  Si33  1  0.45367724  0.80308847  0.43573695  1
  Si  Si34  1  0.69691153  0.95367724  0.68573695  1
  Si  Si35  1  0.30308847  0.04632276  0.18573695  1
