# generated using pymatgen
data_KBa(Fe2Se3)2
_symmetry_space_group_name_H-M   'P 1'
_cell_length_a   5.46133808
_cell_length_b   9.21492857
_cell_length_c   12.18637399
_cell_angle_alpha   90.00000000
_cell_angle_beta   90.00000000
_cell_angle_gamma   90.00000000
_symmetry_Int_Tables_number   1
_chemical_formula_structural   KBa(Fe2Se3)2
_chemical_formula_sum   'K2 Ba2 Fe8 Se12'
_cell_volume   613.28951130
_cell_formula_units_Z   2
loop_
 _symmetry_equiv_pos_site_id
 _symmetry_equiv_pos_as_xyz
  1  'x, y, z'
loop_
 _atom_site_type_symbol
 _atom_site_label
 _atom_site_symmetry_multiplicity
 _atom_site_fract_x
 _atom_site_fract_y
 _atom_site_fract_z
 _atom_site_occupancy
  K  K0  1  0.25000000  0.00129034  0.67253087  1
  K  K1  1  0.25000000  0.49870966  0.17253087  1
  Ba  Ba2  1  0.75000000  0.00201046  0.32616694  1
  Ba  Ba3  1  0.75000000  0.49798954  0.82616694  1
  Fe  Fe4  1  0.99834195  0.13963671  0.99755307  1
  Fe  Fe5  1  0.50165805  0.36036329  0.49755307  1
  Fe  Fe6  1  0.50450838  0.86060138  0.00203415  1
  Fe  Fe7  1  0.99549162  0.63939862  0.50203415  1
  Fe  Fe8  1  0.99549162  0.86060138  0.00203415  1
  Fe  Fe9  1  0.50450838  0.63939862  0.50203415  1
  Fe  Fe10  1  0.50165805  0.13963671  0.99755307  1
  Fe  Fe11  1  0.99834195  0.36036329  0.49755307  1
  Se  Se12  1  0.25000000  0.70642851  0.88997513  1
  Se  Se13  1  0.25000000  0.79357149  0.38997513  1
  Se  Se14  1  0.75000000  0.28911314  0.11179732  1
  Se  Se15  1  0.75000000  0.21088686  0.61179732  1
  Se  Se16  1  0.25000000  0.28066109  0.87552075  1
  Se  Se17  1  0.25000000  0.21933891  0.37552075  1
  Se  Se18  1  0.75000000  0.72512704  0.12598767  1
  Se  Se19  1  0.75000000  0.77487296  0.62598767  1
  Se  Se20  1  0.25000000  0.00196183  0.12898695  1
  Se  Se21  1  0.25000000  0.49803817  0.62898695  1
  Se  Se22  1  0.75000000  0.99813239  0.86985994  1
  Se  Se23  1  0.75000000  0.50186761  0.36985994  1
