# generated using pymatgen
data_La5Dy3(CuO4)4
_symmetry_space_group_name_H-M   'P 1'
_cell_length_a   3.86827208
_cell_length_b   3.86827208
_cell_length_c   24.99576315
_cell_angle_alpha   90.00000000
_cell_angle_beta   90.00000000
_cell_angle_gamma   90.00000000
_symmetry_Int_Tables_number   1
_chemical_formula_structural   La5Dy3(CuO4)4
_chemical_formula_sum   'La5 Dy3 Cu4 O16'
_cell_volume   374.02482390
_cell_formula_units_Z   1
loop_
 _symmetry_equiv_pos_site_id
 _symmetry_equiv_pos_as_xyz
  1  'x, y, z'
loop_
 _atom_site_type_symbol
 _atom_site_label
 _atom_site_symmetry_multiplicity
 _atom_site_fract_x
 _atom_site_fract_y
 _atom_site_fract_z
 _atom_site_occupancy
  La  La0  1  -0.00000000  0.50000000  0.19401949  1
  La  La1  1  0.00000000  0.50000000  0.69089231  1
  La  La2  1  0.50000000  0.00000000  0.30985530  1
  La  La3  1  0.50000000  -0.00000000  0.80706324  1
  La  La4  1  -0.00000000  0.50000000  0.04743961  1
  Dy  Dy5  1  0.00000000  0.50000000  0.54634474  1
  Dy  Dy6  1  0.50000000  0.00000000  0.45399599  1
  Dy  Dy7  1  0.50000000  0.00000000  0.94943056  1
  Cu  Cu8  1  0.50000000  -0.00000000  0.12495327  1
  Cu  Cu9  1  0.50000000  -0.00000000  0.61979214  1
  Cu  Cu10  1  0.00000000  0.50000000  0.38055396  1
  Cu  Cu11  1  -0.00000000  0.50000000  0.87847306  1
  O  O12  1  0.50000000  0.00000000  0.21813675  1
  O  O13  1  0.50000000  0.00000000  0.71514548  1
  O  O14  1  0.00000000  0.50000000  0.28592121  1
  O  O15  1  0.00000000  0.50000000  0.78283218  1
  O  O16  1  0.50000000  0.50000000  0.99471893  1
  O  O17  1  0.50000000  0.50000000  0.50017622  1
  O  O18  1  0.00000000  0.00000000  0.99471893  1
  O  O19  1  -0.00000000  0.00000000  0.50017622  1
  O  O20  1  0.50000000  0.50000000  0.12394794  1
  O  O21  1  0.50000000  0.50000000  0.61889946  1
  O  O22  1  -0.00000000  0.00000000  0.38155324  1
  O  O23  1  -0.00000000  0.00000000  0.87827956  1
  O  O24  1  0.50000000  0.50000000  0.38155324  1
  O  O25  1  0.50000000  0.50000000  0.87827956  1
  O  O26  1  -0.00000000  0.00000000  0.12394794  1
  O  O27  1  0.00000000  0.00000000  0.61889946  1
