# generated using pymatgen
data_GaCuTe2
_symmetry_space_group_name_H-M   'P 1'
_cell_length_a   4.32563750
_cell_length_b   4.32563751
_cell_length_c   7.44070614
_cell_angle_alpha   73.10170212
_cell_angle_beta   90.00000000
_cell_angle_gamma   120.00000005
_symmetry_Int_Tables_number   1
_chemical_formula_structural   GaCuTe2
_chemical_formula_sum   'Ga1 Cu1 Te2'
_cell_volume   113.57723329
_cell_formula_units_Z   1
loop_
 _symmetry_equiv_pos_site_id
 _symmetry_equiv_pos_as_xyz
  1  'x, y, z'
loop_
 _atom_site_type_symbol
 _atom_site_label
 _atom_site_symmetry_multiplicity
 _atom_site_fract_x
 _atom_site_fract_y
 _atom_site_fract_z
 _atom_site_occupancy
  Ga  Ga0  1  0.49302717  0.98605434  0.52091849  1
  Cu  Cu1  1  0.00595785  0.01191569  0.98212646  1
  Te  Te2  1  0.88170897  0.76341794  0.35487309  1
  Te  Te3  1  0.36930601  0.73861203  0.89208196  1
