# generated using pymatgen
data_K2(TaSe2)3
_symmetry_space_group_name_H-M   'P 1'
_cell_length_a   3.57289210
_cell_length_b   3.57291706
_cell_length_c   49.29596278
_cell_angle_alpha   90.00000000
_cell_angle_beta   90.00000000
_cell_angle_gamma   59.99975995
_symmetry_Int_Tables_number   1
_chemical_formula_structural   K2(TaSe2)3
_chemical_formula_sum   'K4 Ta6 Se12'
_cell_volume   544.98402160
_cell_formula_units_Z   2
loop_
 _symmetry_equiv_pos_site_id
 _symmetry_equiv_pos_as_xyz
  1  'x, y, z'
loop_
 _atom_site_type_symbol
 _atom_site_label
 _atom_site_symmetry_multiplicity
 _atom_site_fract_x
 _atom_site_fract_y
 _atom_site_fract_z
 _atom_site_occupancy
  K  K0  1  0.66663062  0.66668469  0.16655687  1
  K  K1  1  0.66663062  0.66668469  0.50011013  1
  K  K2  1  0.66664353  0.66667823  0.83333300  1
  K  K3  1  0.33339694  0.33330153  0.33333300  1
  Ta  Ta4  1  0.33336285  0.33331858  0.08357291  1
  Ta  Ta5  1  0.33335539  0.33332230  0.41673998  1
  Ta  Ta6  1  0.33336091  0.33331955  0.75022952  1
  Ta  Ta7  1  0.33335539  0.33332230  0.24992702  1
  Ta  Ta8  1  0.33336285  0.33331858  0.58309309  1
  Ta  Ta9  1  0.33336091  0.33331955  0.91643748  1
  Se  Se10  1  0.00001580  0.99999210  0.05073519  1
  Se  Se11  1  0.00001734  0.99999133  0.38349043  1
  Se  Se12  1  0.00001095  0.99999453  0.71733968  1
  Se  Se13  1  0.00001734  0.99999133  0.28317657  1
  Se  Se14  1  0.00001580  0.99999210  0.61593181  1
  Se  Se15  1  0.00001095  0.99999453  0.94932632  1
  Se  Se16  1  0.00000684  0.99999658  0.11694900  1
  Se  Se17  1  0.00000969  0.99999515  0.44996622  1
  Se  Se18  1  0.00000938  0.99999531  0.78356822  1
  Se  Se19  1  0.00000969  0.99999515  0.21669978  1
  Se  Se20  1  0.00000684  0.99999658  0.54971800  1
  Se  Se21  1  0.00000938  0.99999531  0.88309878  1
