# generated using pymatgen
data_HfAlIr
_symmetry_space_group_name_H-M   'P 1'
_cell_length_a   5.32297637
_cell_length_b   5.32298249
_cell_length_c   8.22219194
_cell_angle_alpha   90.00000000
_cell_angle_beta   90.00000000
_cell_angle_gamma   60.46762416
_symmetry_Int_Tables_number   1
_chemical_formula_structural   HfAlIr
_chemical_formula_sum   'Hf4 Al4 Ir4'
_cell_volume   202.70059699
_cell_formula_units_Z   4
loop_
 _symmetry_equiv_pos_site_id
 _symmetry_equiv_pos_as_xyz
  1  'x, y, z'
loop_
 _atom_site_type_symbol
 _atom_site_label
 _atom_site_symmetry_multiplicity
 _atom_site_fract_x
 _atom_site_fract_y
 _atom_site_fract_z
 _atom_site_occupancy
  Hf  Hf0  1  0.33469165  0.33469090  0.54001070  1
  Hf  Hf1  1  0.67106856  0.67106827  0.42854518  1
  Hf  Hf2  1  0.67106856  0.67106827  0.07145482  1
  Hf  Hf3  1  0.33469165  0.33469090  0.95998930  1
  Al  Al4  1  0.99452865  0.99452744  0.49550285  1
  Al  Al5  1  0.99452865  0.99452744  0.00449715  1
  Al  Al6  1  0.82740679  0.34435903  0.75000000  1
  Al  Al7  1  0.34435274  0.82738628  0.75000000  1
  Ir  Ir8  1  0.82896904  0.82898298  0.75000000  1
  Ir  Ir9  1  0.16936383  0.66259169  0.25000000  1
  Ir  Ir10  1  0.66259074  0.16936767  0.25000000  1
  Ir  Ir11  1  0.16673913  0.16673912  0.25000000  1
