# generated using pymatgen
data_KMg3AlSi3O11F
_symmetry_space_group_name_H-M   'P 1'
_cell_length_a   5.40597561
_cell_length_b   5.40597561
_cell_length_c   21.03317953
_cell_angle_alpha   82.75734010
_cell_angle_beta   82.75734010
_cell_angle_gamma   59.64033727
_symmetry_Int_Tables_number   1
_chemical_formula_structural   KMg3AlSi3O11F
_chemical_formula_sum   'K2 Mg6 Al2 Si6 O22 F2'
_cell_volume   524.76393838
_cell_formula_units_Z   2
loop_
 _symmetry_equiv_pos_site_id
 _symmetry_equiv_pos_as_xyz
  1  'x, y, z'
loop_
 _atom_site_type_symbol
 _atom_site_label
 _atom_site_symmetry_multiplicity
 _atom_site_fract_x
 _atom_site_fract_y
 _atom_site_fract_z
 _atom_site_occupancy
  K  K0  1  0.41170829  0.74263038  0.76870113  1
  K  K1  1  0.24263038  0.91170829  0.26870113  1
  Mg  Mg2  1  0.67070759  0.66754160  0.99865806  1
  Mg  Mg3  1  0.16754160  0.17070759  0.49865806  1
  Mg  Mg4  1  0.83529057  0.83466068  0.49938476  1
  Mg  Mg5  1  0.33466068  0.33529057  0.99938476  1
  Mg  Mg6  1  0.50297917  0.49112496  0.49965101  1
  Mg  Mg7  1  0.99112496  0.00297917  0.99965101  1
  Al  Al8  1  0.05073741  0.37062432  0.86650890  1
  Al  Al9  1  0.87062432  0.55073741  0.36650890  1
  Si  Si10  1  0.54269544  0.21701056  0.36392040  1
  Si  Si11  1  0.71701056  0.04269544  0.86392040  1
  Si  Si12  1  0.79115259  0.11945750  0.63274298  1
  Si  Si13  1  0.61945750  0.29115259  0.13274298  1
  Si  Si14  1  0.12566788  0.45272859  0.63268136  1
  Si  Si15  1  0.95272859  0.62566788  0.13268136  1
  O  O16  1  0.77834418  0.94912237  0.16146053  1
  O  O17  1  0.44912237  0.27834418  0.66146053  1
  O  O18  1  0.89146307  0.20801124  0.83479620  1
  O  O19  1  0.70801124  0.39146307  0.33479620  1
  O  O20  1  0.95084652  0.27615473  0.65974922  1
  O  O21  1  0.77615473  0.45084652  0.15974922  1
  O  O22  1  0.88304404  0.72706792  0.83629023  1
  O  O23  1  0.22706792  0.38304404  0.33629023  1
  O  O24  1  0.51813867  0.19176423  0.44426025  1
  O  O25  1  0.69176423  0.01813867  0.94426025  1
  O  O26  1  0.81739865  0.14190138  0.55455029  1
  O  O27  1  0.64190138  0.31739865  0.05455029  1
  O  O28  1  0.15736716  0.47554490  0.55448249  1
  O  O29  1  0.97554490  0.65736716  0.05448249  1
  O  O30  1  0.71638131  0.90431697  0.33492231  1
  O  O31  1  0.40431697  0.21638131  0.83492231  1
  O  O32  1  0.94735221  0.77668847  0.66112667  1
  O  O33  1  0.27668847  0.44735221  0.16112667  1
  O  O34  1  0.84497739  0.51949284  0.45186065  1
  O  O35  1  0.01949284  0.34497739  0.95186065  1
  O  O36  1  0.31285739  0.99280658  0.04373549  1
  O  O37  1  0.49280658  0.81285739  0.54373549  1
  F  F38  1  0.17386391  0.85004434  0.45301706  1
  F  F39  1  0.35004434  0.67386391  0.95301706  1
