# generated using pymatgen
data_GaFeNiO4
_symmetry_space_group_name_H-M   'P 1'
_cell_length_a   5.95896083
_cell_length_b   5.96349441
_cell_length_c   5.98372139
_cell_angle_alpha   90.00000000
_cell_angle_beta   59.86245236
_cell_angle_gamma   120.02517029
_symmetry_Int_Tables_number   1
_chemical_formula_structural   GaFeNiO4
_chemical_formula_sum   'Ga2 Fe2 Ni2 O8'
_cell_volume   149.98769905
_cell_formula_units_Z   2
loop_
 _symmetry_equiv_pos_site_id
 _symmetry_equiv_pos_as_xyz
  1  'x, y, z'
loop_
 _atom_site_type_symbol
 _atom_site_label
 _atom_site_symmetry_multiplicity
 _atom_site_fract_x
 _atom_site_fract_y
 _atom_site_fract_z
 _atom_site_occupancy
  Ga  Ga0  1  0.00000000  0.50000000  -0.00000000  1
  Ga  Ga1  1  0.00000000  0.50000000  0.50000000  1
  Fe  Fe2  1  0.25652087  0.12826043  0.12173957  1
  Fe  Fe3  1  0.74347913  0.87173957  0.87826043  1
  Ni  Ni4  1  0.50000000  0.00000000  0.50000000  1
  Ni  Ni5  1  0.50000000  0.50000000  0.50000000  1
  O  O6  1  0.99411219  0.72756024  0.25294390  1
  O  O7  1  0.99411219  0.26655195  0.25294390  1
  O  O8  1  0.52498061  0.26249031  0.72917398  1
  O  O9  1  0.52498061  0.26249031  0.24584540  1
  O  O10  1  0.00588781  0.27243976  0.74705610  1
  O  O11  1  0.00588781  0.73344805  0.74705610  1
  O  O12  1  0.47501939  0.73750969  0.27082602  1
  O  O13  1  0.47501939  0.73750969  0.75415460  1
