# generated using pymatgen
data_Er2MnGe4
_symmetry_space_group_name_H-M   'P 1'
_cell_length_a   4.20966837
_cell_length_b   4.23083798
_cell_length_c   7.96540406
_cell_angle_alpha   74.59882933
_cell_angle_beta   90.00000000
_cell_angle_gamma   90.00000000
_symmetry_Int_Tables_number   1
_chemical_formula_structural   Er2MnGe4
_chemical_formula_sum   'Er2 Mn1 Ge4'
_cell_volume   136.77277493
_cell_formula_units_Z   1
loop_
 _symmetry_equiv_pos_site_id
 _symmetry_equiv_pos_as_xyz
  1  'x, y, z'
loop_
 _atom_site_type_symbol
 _atom_site_label
 _atom_site_symmetry_multiplicity
 _atom_site_fract_x
 _atom_site_fract_y
 _atom_site_fract_z
 _atom_site_occupancy
  Er  Er0  1  0.25000000  0.89785231  0.20429537  1
  Er  Er1  1  0.75000000  0.10148837  0.79702327  1
  Mn  Mn2  1  0.25000000  0.69776691  0.60446618  1
  Ge  Ge3  1  0.25000000  0.54658131  0.90683738  1
  Ge  Ge4  1  0.75000000  0.43604773  0.12790455  1
  Ge  Ge5  1  0.25000000  0.25992110  0.48015781  1
  Ge  Ge6  1  0.75000000  0.75534228  0.48931544  1
