# generated using pymatgen
data_CsMn(PO3)6
_symmetry_space_group_name_H-M   'P 1'
_cell_length_a   5.33204026
_cell_length_b   9.39813041
_cell_length_c   9.22265946
_cell_angle_alpha   88.80216835
_cell_angle_beta   71.71067379
_cell_angle_gamma   75.29597869
_symmetry_Int_Tables_number   1
_chemical_formula_structural   CsMn(PO3)6
_chemical_formula_sum   'Cs1 Mn1 P6 O18'
_cell_volume   423.57172185
_cell_formula_units_Z   1
loop_
 _symmetry_equiv_pos_site_id
 _symmetry_equiv_pos_as_xyz
  1  'x, y, z'
loop_
 _atom_site_type_symbol
 _atom_site_label
 _atom_site_symmetry_multiplicity
 _atom_site_fract_x
 _atom_site_fract_y
 _atom_site_fract_z
 _atom_site_occupancy
  Cs  Cs0  1  -0.00000000  -0.00000000  -0.00000000  1
  Mn  Mn1  1  0.50000000  0.50000000  -0.00000000  1
  P  P2  1  0.07614246  0.54257138  0.78433728  1
  P  P3  1  0.07083332  0.77063485  0.55400590  1
  P  P4  1  0.92385754  0.45742862  0.21566272  1
  P  P5  1  0.92916668  0.22936515  0.44599410  1
  P  P6  1  0.48936587  0.25558643  0.76096851  1
  P  P7  1  0.51063413  0.74441357  0.23903149  1
  O  O8  1  0.44681676  0.10640262  0.76658769  1
  O  O9  1  0.45711148  0.68777874  0.10051108  1
  O  O10  1  0.55318324  0.89359738  0.23341231  1
  O  O11  1  0.54288852  0.31222126  0.89948892  1
  O  O12  1  0.17307485  0.61669228  0.62356808  1
  O  O13  1  0.82692515  0.38330772  0.37643192  1
  O  O14  1  0.17210785  0.60261482  0.90058859  1
  O  O15  1  0.11059273  0.90036744  0.62998558  1
  O  O16  1  0.82789215  0.39738518  0.09941141  1
  O  O17  1  0.88940727  0.09963256  0.37001442  1
  O  O18  1  0.23936687  0.37454267  0.72731345  1
  O  O19  1  0.25484882  0.72669525  0.38244826  1
  O  O20  1  0.76063313  0.62545733  0.27268655  1
  O  O21  1  0.74515118  0.27330475  0.61755174  1
  O  O22  1  0.77490985  0.55246118  0.81961495  1
  O  O23  1  0.77085836  0.80341305  0.56867705  1
  O  O24  1  0.22509015  0.44753882  0.18038505  1
  O  O25  1  0.22914164  0.19658695  0.43132295  1
