# generated using pymatgen
data_FeNiMo3N
_symmetry_space_group_name_H-M   'P 1'
_cell_length_a   6.65324642
_cell_length_b   6.65324642
_cell_length_c   6.65324642
_cell_angle_alpha   90.00000000
_cell_angle_beta   90.00000000
_cell_angle_gamma   90.00000000
_symmetry_Int_Tables_number   1
_chemical_formula_structural   FeNiMo3N
_chemical_formula_sum   'Fe4 Ni4 Mo12 N4'
_cell_volume   294.51052972
_cell_formula_units_Z   4
loop_
 _symmetry_equiv_pos_site_id
 _symmetry_equiv_pos_as_xyz
  1  'x, y, z'
loop_
 _atom_site_type_symbol
 _atom_site_label
 _atom_site_symmetry_multiplicity
 _atom_site_fract_x
 _atom_site_fract_y
 _atom_site_fract_z
 _atom_site_occupancy
  Fe  Fe0  1  0.82168790  0.32168790  0.17831210  1
  Fe  Fe1  1  0.17831210  0.82168790  0.32168790  1
  Fe  Fe2  1  0.32168790  0.17831210  0.82168790  1
  Fe  Fe3  1  0.67831210  0.67831210  0.67831210  1
  Ni  Ni4  1  0.43473231  0.93473231  0.56526769  1
  Ni  Ni5  1  0.93473231  0.56526769  0.43473231  1
  Ni  Ni6  1  0.56526769  0.43473231  0.93473231  1
  Ni  Ni7  1  0.06526769  0.06526769  0.06526769  1
  Mo  Mo8  1  0.95330787  0.37182935  0.80248188  1
  Mo  Mo9  1  0.04669213  0.87182935  0.69751812  1
  Mo  Mo10  1  0.45330787  0.12817065  0.19751812  1
  Mo  Mo11  1  0.54669213  0.62817065  0.30248188  1
  Mo  Mo12  1  0.37182935  0.80248188  0.95330787  1
  Mo  Mo13  1  0.87182935  0.69751812  0.04669213  1
  Mo  Mo14  1  0.12817065  0.19751812  0.45330787  1
  Mo  Mo15  1  0.62817065  0.30248188  0.54669213  1
  Mo  Mo16  1  0.80248188  0.95330787  0.37182935  1
  Mo  Mo17  1  0.69751812  0.04669213  0.87182935  1
  Mo  Mo18  1  0.19751812  0.45330787  0.12817065  1
  Mo  Mo19  1  0.30248188  0.54669213  0.62817065  1
  N  N20  1  0.12531029  0.62531029  0.87468971  1
  N  N21  1  0.87468971  0.12531029  0.62531029  1
  N  N22  1  0.62531029  0.87468971  0.12531029  1
  N  N23  1  0.37468971  0.37468971  0.37468971  1
