# generated using pymatgen
data_DyMn4(CrGe3)2
_symmetry_space_group_name_H-M   'P 1'
_cell_length_a   5.15909094
_cell_length_b   5.15275654
_cell_length_c   8.21046473
_cell_angle_alpha   89.99892451
_cell_angle_beta   89.99997707
_cell_angle_gamma   59.64410913
_symmetry_Int_Tables_number   1
_chemical_formula_structural   DyMn4(CrGe3)2
_chemical_formula_sum   'Dy1 Mn4 Cr2 Ge6'
_cell_volume   188.33997870
_cell_formula_units_Z   1
loop_
 _symmetry_equiv_pos_site_id
 _symmetry_equiv_pos_as_xyz
  1  'x, y, z'
loop_
 _atom_site_type_symbol
 _atom_site_label
 _atom_site_symmetry_multiplicity
 _atom_site_fract_x
 _atom_site_fract_y
 _atom_site_fract_z
 _atom_site_occupancy
  Dy  Dy0  1  0.99998524  0.00000519  0.99986267  1
  Mn  Mn1  1  0.49998713  0.49999417  0.25090635  1
  Mn  Mn2  1  0.49998814  0.00001373  0.74914364  1
  Mn  Mn3  1  0.99997790  0.50002075  0.74910377  1
  Mn  Mn4  1  0.50001401  0.49996251  0.74984599  1
  Cr  Cr5  1  0.49998978  0.00000341  0.25007812  1
  Cr  Cr6  1  0.99996807  0.50000886  0.25012879  1
  Ge  Ge7  1  0.66561138  0.66631289  0.50162008  1
  Ge  Ge8  1  0.33432725  0.33369831  0.50163337  1
  Ge  Ge9  1  0.66598162  0.66666985  0.99880739  1
  Ge  Ge10  1  0.33396958  0.33332881  0.99882471  1
  Ge  Ge11  1  -0.00000176  0.99999631  0.34577531  1
  Ge  Ge12  1  0.00000165  0.99998521  0.65426981  1
