# generated using pymatgen
data_Er4Cu5P7
_symmetry_space_group_name_H-M   'P 1'
_cell_length_a   5.25908673
_cell_length_b   5.25908673
_cell_length_c   10.25137214
_cell_angle_alpha   75.13713059
_cell_angle_beta   75.13713059
_cell_angle_gamma   90.00000000
_symmetry_Int_Tables_number   1
_chemical_formula_structural   Er4Cu5P7
_chemical_formula_sum   'Er4 Cu5 P7'
_cell_volume   264.21945158
_cell_formula_units_Z   1
loop_
 _symmetry_equiv_pos_site_id
 _symmetry_equiv_pos_as_xyz
  1  'x, y, z'
loop_
 _atom_site_type_symbol
 _atom_site_label
 _atom_site_symmetry_multiplicity
 _atom_site_fract_x
 _atom_site_fract_y
 _atom_site_fract_z
 _atom_site_occupancy
  Er  Er0  1  0.10540666  0.35540666  0.76934234  1
  Er  Er1  1  0.62525100  0.87525100  0.76934234  1
  Er  Er2  1  0.39459334  0.12474900  0.23065766  1
  Er  Er3  1  0.87474900  0.64459334  0.23065766  1
  Cu  Cu4  1  0.50032606  0.75032606  0.49934788  1
  Cu  Cu5  1  0.99967394  0.24967394  0.50065212  1
  Cu  Cu6  1  0.00000000  0.75000000  0.50000000  1
  Cu  Cu7  1  0.50000000  0.25000000  0.50000000  1
  Cu  Cu8  1  0.25000000  0.50000000  -0.00000000  1
  P  P9  1  0.32519258  0.57519258  0.34026921  1
  P  P10  1  0.83453821  0.08453821  0.34026921  1
  P  P11  1  0.17480742  0.91546179  0.65973079  1
  P  P12  1  0.66546179  0.42480742  0.65973079  1
  P  P13  1  0.75000000  0.00000000  0.00000000  1
  P  P14  1  0.75000000  0.50000000  -0.00000000  1
  P  P15  1  0.25000000  0.00000000  -0.00000000  1
