# generated using pymatgen
data_Co5Te6
_symmetry_space_group_name_H-M   'P 1'
_cell_length_a   6.61311443
_cell_length_b   6.61345385
_cell_length_c   6.61350084
_cell_angle_alpha   61.35716979
_cell_angle_beta   61.35582928
_cell_angle_gamma   61.36057347
_symmetry_Int_Tables_number   1
_chemical_formula_structural   Co5Te6
_chemical_formula_sum   'Co5 Te6'
_cell_volume   210.76731418
_cell_formula_units_Z   1
loop_
 _symmetry_equiv_pos_site_id
 _symmetry_equiv_pos_as_xyz
  1  'x, y, z'
loop_
 _atom_site_type_symbol
 _atom_site_label
 _atom_site_symmetry_multiplicity
 _atom_site_fract_x
 _atom_site_fract_y
 _atom_site_fract_z
 _atom_site_occupancy
  Co  Co0  1  0.99553866  0.99557352  0.99555173  1
  Co  Co1  1  0.33331440  0.33331619  0.33331634  1
  Co  Co2  1  0.67114097  0.67111551  0.67113425  1
  Co  Co3  1  0.16616603  0.16615025  0.16616810  1
  Co  Co4  1  0.50045577  0.50047155  0.50045831  1
  Te  Te5  1  0.41077699  0.08187711  0.75046772  1
  Te  Te6  1  0.75049958  0.41079350  0.08184569  1
  Te  Te7  1  0.08187100  0.75048468  0.41075603  1
  Te  Te8  1  0.25564167  0.58497287  0.91631022  1
  Te  Te9  1  0.58497907  0.91629093  0.25566117  1
  Te  Te10  1  0.91628286  0.25562089  0.58499744  1
