# generated using pymatgen
data_Mg6ZrAl
_symmetry_space_group_name_H-M   'P 1'
_cell_length_a   6.39213865
_cell_length_b   6.10683413
_cell_length_c   5.03681267
_cell_angle_alpha   90.00000000
_cell_angle_beta   90.00000000
_cell_angle_gamma   118.53420056
_symmetry_Int_Tables_number   1
_chemical_formula_structural   Mg6ZrAl
_chemical_formula_sum   'Mg6 Zr1 Al1'
_cell_volume   172.73317716
_cell_formula_units_Z   1
loop_
 _symmetry_equiv_pos_site_id
 _symmetry_equiv_pos_as_xyz
  1  'x, y, z'
loop_
 _atom_site_type_symbol
 _atom_site_label
 _atom_site_symmetry_multiplicity
 _atom_site_fract_x
 _atom_site_fract_y
 _atom_site_fract_z
 _atom_site_occupancy
  Mg  Mg0  1  0.66006116  0.33073579  0.25000000  1
  Mg  Mg1  1  0.66006116  0.82932437  0.25000000  1
  Mg  Mg2  1  0.33527057  0.16601005  0.75000000  1
  Mg  Mg3  1  0.33527057  0.66926152  0.75000000  1
  Mg  Mg4  1  0.84636391  0.17318245  0.75000000  1
  Mg  Mg5  1  0.84053229  0.67026665  0.75000000  1
  Zr  Zr6  1  0.15529209  0.82764555  0.25000000  1
  Al  Al7  1  0.16714826  0.33357363  0.25000000  1
