# generated using pymatgen
data_CeCo3Cu2
_symmetry_space_group_name_H-M   'P 1'
_cell_length_a   4.02063127
_cell_length_b   4.94428081
_cell_length_c   4.94499819
_cell_angle_alpha   119.99521258
_cell_angle_beta   90.00000000
_cell_angle_gamma   90.00000000
_symmetry_Int_Tables_number   1
_chemical_formula_structural   CeCo3Cu2
_chemical_formula_sum   'Ce1 Co3 Cu2'
_cell_volume   85.13636273
_cell_formula_units_Z   1
loop_
 _symmetry_equiv_pos_site_id
 _symmetry_equiv_pos_as_xyz
  1  'x, y, z'
loop_
 _atom_site_type_symbol
 _atom_site_label
 _atom_site_symmetry_multiplicity
 _atom_site_fract_x
 _atom_site_fract_y
 _atom_site_fract_z
 _atom_site_occupancy
  Ce  Ce0  1  0.00000000  0.99996021  -0.00000000  1
  Co  Co1  1  0.50000000  0.49999577  -0.00000000  1
  Co  Co2  1  0.50000000  0.49998995  0.50000720  1
  Co  Co3  1  0.50000000  0.99998275  0.49999280  1
  Cu  Cu4  1  0.00000000  0.33341011  0.66684890  1
  Cu  Cu5  1  -0.00000000  0.66656121  0.33315110  1
