# generated using pymatgen
data_Cu3(BO3)2
_symmetry_space_group_name_H-M   'P 1'
_cell_length_a   8.59992362
_cell_length_b   9.30717019
_cell_length_c   18.14657043
_cell_angle_alpha   94.81830950
_cell_angle_beta   90.00000000
_cell_angle_gamma   90.00000000
_symmetry_Int_Tables_number   1
_chemical_formula_structural   Cu3(BO3)2
_chemical_formula_sum   'Cu36 B24 O72'
_cell_volume   1447.33586110
_cell_formula_units_Z   12
loop_
 _symmetry_equiv_pos_site_id
 _symmetry_equiv_pos_as_xyz
  1  'x, y, z'
loop_
 _atom_site_type_symbol
 _atom_site_label
 _atom_site_symmetry_multiplicity
 _atom_site_fract_x
 _atom_site_fract_y
 _atom_site_fract_z
 _atom_site_occupancy
  Cu  Cu0  1  0.78825820  0.14347350  0.09305415  1
  Cu  Cu1  1  0.28825820  0.35652650  0.90694585  1
  Cu  Cu2  1  0.20999874  0.84198441  0.90346851  1
  Cu  Cu3  1  0.70999874  0.65801559  0.09653149  1
  Cu  Cu4  1  0.48860845  0.33270124  0.44140582  1
  Cu  Cu5  1  0.98860845  0.16729876  0.55859418  1
  Cu  Cu6  1  0.51148864  0.66728772  0.55850933  1
  Cu  Cu7  1  0.01148864  0.83271228  0.44149067  1
  Cu  Cu8  1  0.24587836  0.78054579  0.26109037  1
  Cu  Cu9  1  0.74587836  0.71945421  0.73890963  1
  Cu  Cu10  1  0.75414514  0.21946029  0.73893763  1
  Cu  Cu11  1  0.25414514  0.28053971  0.26106237  1
  Cu  Cu12  1  0.90550917  0.75603518  0.25385084  1
  Cu  Cu13  1  0.40550917  0.74396482  0.74614916  1
  Cu  Cu14  1  0.09439581  0.24414709  0.74646262  1
  Cu  Cu15  1  0.59439581  0.25585291  0.25353738  1
  Cu  Cu16  1  0.17705825  0.15433011  0.05224706  1
  Cu  Cu17  1  0.67705825  0.34566989  0.94775294  1
  Cu  Cu18  1  0.82303479  0.83535641  0.94309704  1
  Cu  Cu19  1  0.32303479  0.66464359  0.05690296  1
  Cu  Cu20  1  0.10224787  0.41419191  0.43577625  1
  Cu  Cu21  1  0.60224787  0.08580809  0.56422375  1
  Cu  Cu22  1  0.89782760  0.58595044  0.56433122  1
  Cu  Cu23  1  0.39782760  0.91404956  0.43566878  1
  Cu  Cu24  1  0.41963749  0.02529163  0.14852291  1
  Cu  Cu25  1  0.91963749  0.47470837  0.85147709  1
  Cu  Cu26  1  0.58062604  0.97119983  0.85084465  1
  Cu  Cu27  1  0.08062604  0.52880017  0.14915535  1
  Cu  Cu28  1  0.57585785  0.77355726  0.26847869  1
  Cu  Cu29  1  0.07585785  0.72644274  0.73152131  1
  Cu  Cu30  1  0.42411341  0.22639271  0.73166965  1
  Cu  Cu31  1  0.92411341  0.27360729  0.26833035  1
  Cu  Cu32  1  0.73803415  0.49762979  0.36406114  1
  Cu  Cu33  1  0.23803415  0.00237021  0.63593886  1
  Cu  Cu34  1  0.26164511  0.50149601  0.63520743  1
  Cu  Cu35  1  0.76164511  0.99850399  0.36479257  1
  B  B36  1  0.80934536  0.27560228  0.47720759  1
  B  B37  1  0.30934536  0.22439772  0.52279241  1
  B  B38  1  0.19084728  0.72438862  0.52267788  1
  B  B39  1  0.69084728  0.77561138  0.47732212  1
  B  B40  1  0.75838944  0.01240901  0.20713425  1
  B  B41  1  0.25838944  0.48759099  0.79286575  1
  B  B42  1  0.24177844  0.98824062  0.79411330  1
  B  B43  1  0.74177844  0.51175938  0.20588670  1
  B  B44  1  0.06024781  0.98337627  0.17183114  1
  B  B45  1  0.56024781  0.51662373  0.82816886  1
  B  B46  1  0.93974374  0.01579847  0.82792936  1
  B  B47  1  0.43974374  0.48420153  0.17207064  1
  B  B48  1  0.08582140  0.52494985  0.31238213  1
  B  B49  1  0.58582140  0.97505015  0.68761787  1
  B  B50  1  0.91423155  0.47506168  0.68757933  1
  B  B51  1  0.41423155  0.02493832  0.31242067  1
  B  B52  1  0.99628881  0.28838344  0.98227568  1
  B  B53  1  0.49628881  0.21161656  0.01772432  1
  B  B54  1  0.00152627  0.69748863  0.01254548  1
  B  B55  1  0.50152627  0.80251137  0.98745452  1
  B  B56  1  0.38397035  0.55833739  0.34910159  1
  B  B57  1  0.88397035  0.94166261  0.65089841  1
  B  B58  1  0.61607817  0.44165088  0.65079104  1
  B  B59  1  0.11607817  0.05834912  0.34920896  1
  O  O60  1  0.91026026  0.04080032  0.16515929  1
  O  O61  1  0.41026026  0.45919968  0.83484071  1
  O  O62  1  0.08977650  0.95978190  0.83582355  1
  O  O63  1  0.58977650  0.54021810  0.16417645  1
  O  O64  1  0.07529197  0.67396701  0.30121360  1
  O  O65  1  0.57529197  0.82603299  0.69878640  1
  O  O66  1  0.92486922  0.32587785  0.69848211  1
  O  O67  1  0.42486922  0.17412215  0.30151789  1
  O  O68  1  0.18538553  0.04045726  0.13703727  1
  O  O69  1  0.68538553  0.45954274  0.86296273  1
  O  O70  1  0.81437892  0.95719568  0.86189338  1
  O  O71  1  0.31437892  0.54280432  0.13810662  1
  O  O72  1  0.74010323  0.86261448  0.21741109  1
  O  O73  1  0.24010323  0.63738552  0.78258891  1
  O  O74  1  0.26006815  0.13753174  0.78285469  1
  O  O75  1  0.76006815  0.36246826  0.21714531  1
  O  O76  1  0.64012248  0.06821079  0.15854089  1
  O  O77  1  0.14012248  0.43178921  0.84145911  1
  O  O78  1  0.35903628  0.93320028  0.84341419  1
  O  O79  1  0.85903628  0.56679972  0.15658581  1
  O  O80  1  0.95632196  0.32884889  0.49795875  1
  O  O81  1  0.45632196  0.17115111  0.50204125  1
  O  O82  1  0.04386314  0.67115050  0.50209238  1
  O  O83  1  0.54386314  0.82884950  0.49790762  1
  O  O84  1  0.78005975  0.15521231  0.51563768  1
  O  O85  1  0.28005975  0.34478769  0.48436232  1
  O  O86  1  0.22007017  0.84467437  0.48425583  1
  O  O87  1  0.72007017  0.65532563  0.51574417  1
  O  O88  1  0.76123976  0.11232832  0.27818274  1
  O  O89  1  0.26123976  0.38767168  0.72181726  1
  O  O90  1  0.23913041  0.88802902  0.72283422  1
  O  O91  1  0.73913041  0.61197098  0.27716578  1
  O  O92  1  0.50712743  0.49897887  0.38367417  1
  O  O93  1  0.00712743  0.00102113  0.61632583  1
  O  O94  1  0.49289236  0.50097451  0.61619823  1
  O  O95  1  0.99289236  0.99902549  0.38380177  1
  O  O96  1  0.96404227  0.46854542  0.35951286  1
  O  O97  1  0.46404227  0.03145458  0.64048714  1
  O  O98  1  0.03607690  0.53181348  0.64050594  1
  O  O99  1  0.53607690  0.96818652  0.35949406  1
  O  O100  1  0.07503308  0.86999550  0.21418737  1
  O  O101  1  0.57503308  0.63000450  0.78581263  1
  O  O102  1  0.92491023  0.13003499  0.78604907  1
  O  O103  1  0.42491023  0.36996501  0.21395093  1
  O  O104  1  0.89880245  0.36971604  0.94442147  1
  O  O105  1  0.39880245  0.13028396  0.05557853  1
  O  O106  1  0.10117319  0.62428467  0.05368730  1
  O  O107  1  0.60117319  0.87571533  0.94631270  1
  O  O108  1  0.71299862  0.33217522  0.42820830  1
  O  O109  1  0.21299862  0.16782478  0.57179170  1
  O  O110  1  0.28721805  0.66759308  0.57163449  1
  O  O111  1  0.78721805  0.83240692  0.42836551  1
  O  O112  1  0.40289075  0.67475044  0.30863055  1
  O  O113  1  0.90289075  0.82524956  0.69136945  1
  O  O114  1  0.59710653  0.32515637  0.69127858  1
  O  O115  1  0.09710653  0.17484363  0.30872142  1
  O  O116  1  0.15485018  0.27211599  0.97051819  1
  O  O117  1  0.65485018  0.22788401  0.02948181  1
  O  O118  1  0.84733390  0.73171631  0.02969451  1
  O  O119  1  0.34733390  0.76828369  0.97030549  1
  O  O120  1  0.23492328  0.49861074  0.35607179  1
  O  O121  1  0.73492328  0.00138926  0.64392821  1
  O  O122  1  0.76513889  0.50125952  0.64377848  1
  O  O123  1  0.26513889  0.99874048  0.35622152  1
  O  O124  1  0.08979348  0.42547977  0.24070312  1
  O  O125  1  0.58979348  0.07452023  0.75929688  1
  O  O126  1  0.90973427  0.57475069  0.75906603  1
  O  O127  1  0.40973427  0.92524931  0.24093397  1
  O  O128  1  0.96226740  0.20345605  0.04015285  1
  O  O129  1  0.46226740  0.29654395  0.95984715  1
  O  O130  1  0.03217533  0.75472972  0.94505828  1
  O  O131  1  0.53217533  0.74527028  0.05494172  1
