# generated using pymatgen
data_CrMoAs2
_symmetry_space_group_name_H-M   'P 1'
_cell_length_a   3.40642339
_cell_length_b   5.90464162
_cell_length_c   6.36410709
_cell_angle_alpha   90.00000000
_cell_angle_beta   90.00000000
_cell_angle_gamma   90.00000000
_symmetry_Int_Tables_number   1
_chemical_formula_structural   CrMoAs2
_chemical_formula_sum   'Cr2 Mo2 As4'
_cell_volume   128.00580011
_cell_formula_units_Z   2
loop_
 _symmetry_equiv_pos_site_id
 _symmetry_equiv_pos_as_xyz
  1  'x, y, z'
loop_
 _atom_site_type_symbol
 _atom_site_label
 _atom_site_symmetry_multiplicity
 _atom_site_fract_x
 _atom_site_fract_y
 _atom_site_fract_z
 _atom_site_occupancy
  Cr  Cr0  1  0.25000000  0.50520677  0.31328750  1
  Cr  Cr1  1  0.25000000  0.00520677  0.18671250  1
  Mo  Mo2  1  0.75000000  0.49524377  0.69368584  1
  Mo  Mo3  1  0.75000000  0.99524377  0.80631416  1
  As  As4  1  0.75000000  0.30568195  0.08172392  1
  As  As5  1  0.75000000  0.80568195  0.41827608  1
  As  As6  1  0.25000000  0.69386751  0.93760273  1
  As  As7  1  0.25000000  0.19386751  0.56239727  1
