# generated using pymatgen
data_Cr10Co4CuSe20
_symmetry_space_group_name_H-M   'P 1'
_cell_length_a   3.66361154
_cell_length_b   6.36525759
_cell_length_c   27.97968049
_cell_angle_alpha   95.10066662
_cell_angle_beta   93.75378954
_cell_angle_gamma   90.00000000
_symmetry_Int_Tables_number   1
_chemical_formula_structural   Cr10Co4CuSe20
_chemical_formula_sum   'Cr10 Co4 Cu1 Se20'
_cell_volume   648.49220479
_cell_formula_units_Z   1
loop_
 _symmetry_equiv_pos_site_id
 _symmetry_equiv_pos_as_xyz
  1  'x, y, z'
loop_
 _atom_site_type_symbol
 _atom_site_label
 _atom_site_symmetry_multiplicity
 _atom_site_fract_x
 _atom_site_fract_y
 _atom_site_fract_z
 _atom_site_occupancy
  Cr  Cr0  1  0.54799108  0.52621825  0.09598216  1
  Cr  Cr1  1  0.14803637  0.12646612  0.29607274  1
  Cr  Cr2  1  0.74798723  0.72650309  0.49597446  1
  Cr  Cr3  1  0.34778042  0.32797081  0.69556085  1
  Cr  Cr4  1  0.94853382  0.92743091  0.89706763  1
  Cr  Cr5  1  0.05201277  0.07349691  0.10402554  1
  Cr  Cr6  1  0.65196363  0.67353388  0.30392726  1
  Cr  Cr7  1  0.25200892  0.27378175  0.50401784  1
  Cr  Cr8  1  0.85146618  0.87256909  0.70293237  1
  Cr  Cr9  1  0.45221958  0.47202919  0.90443915  1
  Co  Co10  1  0.99990644  0.00099754  0.99981288  1
  Co  Co11  1  0.59999811  0.59990483  0.19999622  1
  Co  Co12  1  0.20000189  0.20009517  0.40000378  1
  Co  Co13  1  0.80009356  0.79900246  0.60018712  1
  Cu  Cu14  1  0.40000000  0.40000000  0.80000000  1
  Se  Se15  1  0.57705309  0.24843597  0.15410617  1
  Se  Se16  1  0.17707792  0.84848152  0.35415584  1
  Se  Se17  1  0.77705523  0.44867727  0.55411046  1
  Se  Se18  1  0.37619064  0.04076908  0.75238128  1
  Se  Se19  1  0.97725754  0.64876434  0.95451508  1
  Se  Se20  1  0.02294477  0.35132273  0.04588954  1
  Se  Se21  1  0.62292208  0.95151848  0.24584416  1
  Se  Se22  1  0.22294691  0.55156403  0.44589383  1
  Se  Se23  1  0.82274246  0.15123566  0.64548492  1
  Se  Se24  1  0.42380936  0.75923092  0.84761872  1
  Se  Se25  1  0.52557058  0.87089402  0.05114116  1
  Se  Se26  1  0.12556330  0.47049710  0.25112660  1
  Se  Se27  1  0.72556912  0.07081809  0.45113824  1
  Se  Se28  1  0.32460611  0.67099768  0.64921223  1
  Se  Se29  1  0.92818313  0.26614334  0.85636626  1
  Se  Se30  1  0.07443088  0.72918191  0.14886176  1
  Se  Se31  1  0.67443670  0.32950290  0.34887340  1
  Se  Se32  1  0.27442942  0.92910598  0.54885884  1
  Se  Se33  1  0.87181687  0.53385666  0.74363374  1
  Se  Se34  1  0.47539389  0.12900232  0.95078777  1
