# generated using pymatgen
data_Ce4Sm
_symmetry_space_group_name_H-M   'P 1'
_cell_length_a   3.39086020
_cell_length_b   3.39086020
_cell_length_c   14.03056928
_cell_angle_alpha   83.05951446
_cell_angle_beta   90.00000000
_cell_angle_gamma   120.00000000
_symmetry_Int_Tables_number   1
_chemical_formula_structural   Ce4Sm
_chemical_formula_sum   'Ce4 Sm1'
_cell_volume   138.34272158
_cell_formula_units_Z   1
loop_
 _symmetry_equiv_pos_site_id
 _symmetry_equiv_pos_as_xyz
  1  'x, y, z'
loop_
 _atom_site_type_symbol
 _atom_site_label
 _atom_site_symmetry_multiplicity
 _atom_site_fract_x
 _atom_site_fract_y
 _atom_site_fract_z
 _atom_site_occupancy
  Ce  Ce0  1  0.59690436  0.19380872  0.20928692  1
  Ce  Ce1  1  0.19932421  0.39864842  0.40202738  1
  Ce  Ce2  1  0.80067579  0.60135158  0.59797262  1
  Ce  Ce3  1  0.40309564  0.80619128  0.79071308  1
  Sm  Sm4  1  -0.00000000  -0.00000000  0.00000000  1
