# generated using pymatgen
data_EuMgAl11O19
_symmetry_space_group_name_H-M   'P 1'
_cell_length_a   5.67286573
_cell_length_b   5.67349153
_cell_length_c   22.46383534
_cell_angle_alpha   89.99999998
_cell_angle_beta   89.97407906
_cell_angle_gamma   59.99634833
_symmetry_Int_Tables_number   1
_chemical_formula_structural   EuMgAl11O19
_chemical_formula_sum   'Eu2 Mg2 Al22 O38'
_cell_volume   626.11111450
_cell_formula_units_Z   2
loop_
 _symmetry_equiv_pos_site_id
 _symmetry_equiv_pos_as_xyz
  1  'x, y, z'
loop_
 _atom_site_type_symbol
 _atom_site_label
 _atom_site_symmetry_multiplicity
 _atom_site_fract_x
 _atom_site_fract_y
 _atom_site_fract_z
 _atom_site_occupancy
  Eu  Eu0  1  0.33456598  0.33271701  0.26063279  1
  Eu  Eu1  1  0.66543402  0.66728299  0.73936721  1
  Mg  Mg2  1  0.33394825  0.33302587  0.52519080  1
  Mg  Mg3  1  0.66605175  0.66697413  0.47480920  1
  Al  Al4  1  0.16562692  0.66790863  0.39311987  1
  Al  Al5  1  0.66730650  0.16634675  0.39318894  1
  Al  Al6  1  0.16562692  0.16646445  0.39311987  1
  Al  Al7  1  0.83437308  0.33209137  0.60688013  1
  Al  Al8  1  0.33269350  0.83365325  0.60681106  1
  Al  Al9  1  0.83437308  0.83353555  0.60688013  1
  Al  Al10  1  0.83174518  0.33514967  0.89074573  1
  Al  Al11  1  0.33409874  0.83295063  0.89062175  1
  Al  Al12  1  0.83174518  0.83310515  0.89074573  1
  Al  Al13  1  0.16825482  0.66485033  0.10925427  1
  Al  Al14  1  0.66590126  0.16704937  0.10937825  1
  Al  Al15  1  0.16825482  0.16689485  0.10925427  1
  Al  Al16  1  0.33347221  0.33326390  0.68724317  1
  Al  Al17  1  0.66652779  0.66673610  0.31275683  1
  Al  Al18  1  0.66677615  0.66661192  0.19697714  1
  Al  Al19  1  0.33322385  0.33338808  0.80302286  1
  Al  Al20  1  0.99995823  0.00002088  0.74504790  1
  Al  Al21  1  0.00004177  0.99997912  0.25495210  1
  Al  Al22  1  0.00000000  -0.00000000  0.50000000  1
  Al  Al23  1  0.00000000  -0.00000000  0.00000000  1
  Al  Al24  1  0.66805984  0.66597008  0.07486132  1
  Al  Al25  1  0.33194016  0.33402992  0.92513868  1
  O  O26  1  0.14857570  0.70365963  0.55603967  1
  O  O27  1  0.70446789  0.14776606  0.55610789  1
  O  O28  1  0.14857570  0.14776468  0.55603967  1
  O  O29  1  0.85142430  0.29634037  0.44396033  1
  O  O30  1  0.29553211  0.85223394  0.44389211  1
  O  O31  1  0.85142430  0.85223532  0.44396033  1
  O  O32  1  0.84839468  0.30408566  0.05607025  1
  O  O33  1  0.30585210  0.84707395  0.05608795  1
  O  O34  1  0.84839468  0.84751967  0.05607025  1
  O  O35  1  0.15160532  0.69591434  0.94392975  1
  O  O36  1  0.69414790  0.15292605  0.94391205  1
  O  O37  1  0.15160532  0.15248033  0.94392975  1
  O  O38  1  0.00056290  0.99971855  0.65483747  1
  O  O39  1  0.99943710  0.00028145  0.34516253  1
  O  O40  1  0.00077670  0.99961165  0.15350286  1
  O  O41  1  0.99922330  0.00038835  0.84649714  1
  O  O42  1  0.50629872  0.98775550  0.65262844  1
  O  O43  1  0.98767831  0.50616084  0.65280800  1
  O  O44  1  0.50629872  0.50594577  0.65262844  1
  O  O45  1  0.49370128  0.01224450  0.34737156  1
  O  O46  1  0.01232169  0.49383916  0.34719200  1
  O  O47  1  0.49370128  0.49405423  0.34737156  1
  O  O48  1  0.50974259  0.98117698  0.14888359  1
  O  O49  1  0.98037964  0.50981018  0.14850221  1
  O  O50  1  0.50974259  0.50908043  0.14888359  1
  O  O51  1  0.49025741  0.01882302  0.85111641  1
  O  O52  1  0.01962036  0.49018982  0.85149779  1
  O  O53  1  0.49025741  0.49091957  0.85111641  1
  O  O54  1  0.33265779  0.33367111  0.43715295  1
  O  O55  1  0.66734221  0.66632889  0.56284705  1
  O  O56  1  0.66575144  0.66712428  0.93142637  1
  O  O57  1  0.33424856  0.33287572  0.06857363  1
  O  O58  1  0.18239600  0.63580785  0.74861451  1
  O  O59  1  0.63571483  0.18214258  0.74851340  1
  O  O60  1  0.18239600  0.18179615  0.74861451  1
  O  O61  1  0.81760400  0.36419215  0.25138549  1
  O  O62  1  0.36428517  0.81785742  0.25148660  1
  O  O63  1  0.81760400  0.81820385  0.25138549  1
