# generated using pymatgen
data_Cr2FeSeS3
_symmetry_space_group_name_H-M   'P 1'
_cell_length_a   3.37833487
_cell_length_b   5.86412623
_cell_length_c   6.41449195
_cell_angle_alpha   115.97298467
_cell_angle_beta   74.73189164
_cell_angle_gamma   90.00000000
_symmetry_Int_Tables_number   1
_chemical_formula_structural   Cr2FeSeS3
_chemical_formula_sum   'Cr2 Fe1 Se1 S3'
_cell_volume   109.23158681
_cell_formula_units_Z   1
loop_
 _symmetry_equiv_pos_site_id
 _symmetry_equiv_pos_as_xyz
  1  'x, y, z'
loop_
 _atom_site_type_symbol
 _atom_site_label
 _atom_site_symmetry_multiplicity
 _atom_site_fract_x
 _atom_site_fract_y
 _atom_site_fract_z
 _atom_site_occupancy
  Cr  Cr0  1  0.25782618  0.68493412  0.48434764  1
  Cr  Cr1  1  0.73393467  0.31914153  0.53213065  1
  Fe  Fe2  1  0.01024639  0.99914762  0.97950722  1
  Se  Se3  1  0.36406050  0.97674745  0.27187901  1
  S  S4  1  0.64063764  0.01783351  0.71872472  1
  S  S5  1  0.10699532  0.56375781  0.78600935  1
  S  S6  1  0.88629930  0.43843796  0.22740140  1
