# generated using pymatgen
data_TlTe
_symmetry_space_group_name_H-M   'P 1'
_cell_length_a   6.22299223
_cell_length_b   9.83209908
_cell_length_c   9.83209908
_cell_angle_alpha   84.25225717
_cell_angle_beta   71.55084029
_cell_angle_gamma   71.55084033
_symmetry_Int_Tables_number   1
_chemical_formula_structural   TlTe
_chemical_formula_sum   'Tl8 Te8'
_cell_volume   541.33040456
_cell_formula_units_Z   8
loop_
 _symmetry_equiv_pos_site_id
 _symmetry_equiv_pos_as_xyz
  1  'x, y, z'
loop_
 _atom_site_type_symbol
 _atom_site_label
 _atom_site_symmetry_multiplicity
 _atom_site_fract_x
 _atom_site_fract_y
 _atom_site_fract_z
 _atom_site_occupancy
  Te  Te0  1  0.75000000  0.00000000  0.00000000  1
  Te  Te1  1  0.25000000  0.00000000  0.00000000  1
  Te  Te2  1  0.75000000  0.50000000  0.50000000  1
  Te  Te3  1  0.25000000  0.50000000  0.50000000  1
  Te  Te4  1  0.83797527  0.50000000  0.82404947  1
  Te  Te5  1  0.66202473  0.17595053  0.50000000  1
  Te  Te6  1  0.33797527  0.82404947  0.50000000  1
  Te  Te7  1  0.16202473  0.50000000  0.17595053  1
  Tl  Tl8  1  0.58284450  0.69313019  0.14118081  1
  Tl  Tl9  1  0.41715550  0.30686981  0.85881919  1
  Tl  Tl10  1  0.72402531  0.85881919  0.69313019  1
  Tl  Tl11  1  0.27597469  0.14118081  0.30686981  1
  Tl  Tl12  1  0.91715550  0.85881919  0.30686981  1
  Tl  Tl13  1  0.22402531  0.69313019  0.85881919  1
  Tl  Tl14  1  0.77597469  0.30686981  0.14118081  1
  Tl  Tl15  1  0.08284450  0.14118081  0.69313019  1
