# generated using pymatgen
data_BaTi2Fe4O11
_symmetry_space_group_name_H-M   'P 1'
_cell_length_a   5.97892103
_cell_length_b   5.97887055
_cell_length_c   13.33402537
_cell_angle_alpha   89.87239248
_cell_angle_beta   90.12814343
_cell_angle_gamma   59.98054378
_symmetry_Int_Tables_number   1
_chemical_formula_structural   BaTi2Fe4O11
_chemical_formula_sum   'Ba2 Ti4 Fe8 O22'
_cell_volume   412.70940764
_cell_formula_units_Z   2
loop_
 _symmetry_equiv_pos_site_id
 _symmetry_equiv_pos_as_xyz
  1  'x, y, z'
loop_
 _atom_site_type_symbol
 _atom_site_label
 _atom_site_symmetry_multiplicity
 _atom_site_fract_x
 _atom_site_fract_y
 _atom_site_fract_z
 _atom_site_occupancy
  Ba  Ba0  1  0.33378786  0.33378275  0.75000213  1
  Ba  Ba1  1  0.66621214  0.66621725  0.24999787  1
  Ti  Ti2  1  0.50000000  -0.00000000  0.50000000  1
  Ti  Ti3  1  0.00000000  0.50000000  0.00000000  1
  Ti  Ti4  1  0.33288926  0.33287477  0.24998752  1
  Ti  Ti5  1  0.66711074  0.66712523  0.75001248  1
  Fe  Fe6  1  0.00173737  0.99663138  0.64083961  1
  Fe  Fe7  1  0.99826263  0.00336862  0.35916039  1
  Fe  Fe8  1  0.00338554  0.99825506  0.14084902  1
  Fe  Fe9  1  0.99661446  0.00174494  0.85915098  1
  Fe  Fe10  1  0.00000000  0.50000000  0.50000000  1
  Fe  Fe11  1  0.50000000  0.50000000  0.50000000  1
  Fe  Fe12  1  0.50000000  -0.00000000  0.00000000  1
  Fe  Fe13  1  0.50000000  0.50000000  0.00000000  1
  O  O14  1  0.32381482  0.33813048  0.08826655  1
  O  O15  1  0.67618518  0.66186952  0.91173345  1
  O  O16  1  0.66185901  0.67619008  0.58826131  1
  O  O17  1  0.33814099  0.32380992  0.41173869  1
  O  O18  1  0.17441369  0.65165671  0.58004209  1
  O  O19  1  0.65133288  0.16588182  0.57990988  1
  O  O20  1  0.18302484  0.16557773  0.57995007  1
  O  O21  1  0.82558631  0.34834329  0.41995791  1
  O  O22  1  0.34866712  0.83411818  0.42009012  1
  O  O23  1  0.81697516  0.83442227  0.42004993  1
  O  O24  1  0.83412367  0.34866144  0.07991311  1
  O  O25  1  0.34834148  0.82558486  0.08004398  1
  O  O26  1  0.83442963  0.81697250  0.07995280  1
  O  O27  1  0.16587633  0.65133856  0.92008689  1
  O  O28  1  0.65165852  0.17441514  0.91995602  1
  O  O29  1  0.16557037  0.18302750  0.92004720  1
  O  O30  1  0.84502249  0.31061526  0.74836943  1
  O  O31  1  0.31060869  0.84503450  0.75162743  1
  O  O32  1  0.84546026  0.84547808  0.74999859  1
  O  O33  1  0.15497751  0.68938474  0.25163057  1
  O  O34  1  0.68939131  0.15496550  0.24837257  1
  O  O35  1  0.15453974  0.15452192  0.25000141  1
