# generated using pymatgen
data_Ca2Pr2MnNiO8
_symmetry_space_group_name_H-M   'P 1'
_cell_length_a   5.41048513
_cell_length_b   5.44967562
_cell_length_c   6.65747153
_cell_angle_alpha   90.01388889
_cell_angle_beta   66.02444055
_cell_angle_gamma   90.00000000
_symmetry_Int_Tables_number   1
_chemical_formula_structural   Ca2Pr2MnNiO8
_chemical_formula_sum   'Ca2 Pr2 Mn1 Ni1 O8'
_cell_volume   179.36130682
_cell_formula_units_Z   1
loop_
 _symmetry_equiv_pos_site_id
 _symmetry_equiv_pos_as_xyz
  1  'x, y, z'
loop_
 _atom_site_type_symbol
 _atom_site_label
 _atom_site_symmetry_multiplicity
 _atom_site_fract_x
 _atom_site_fract_y
 _atom_site_fract_z
 _atom_site_occupancy
  Ca  Ca0  1  0.14400155  0.49445444  0.71199689  1
  Ca  Ca1  1  0.35670629  0.98748312  0.28658742  1
  Pr  Pr2  1  0.63780000  0.00969296  0.72439999  1
  Pr  Pr3  1  0.86191677  0.50375876  0.27616645  1
  Mn  Mn4  1  0.00158710  0.00065165  0.99682581  1
  Ni  Ni5  1  0.49835880  0.50117457  0.00328240  1
  O  O6  1  0.25044604  0.75819270  0.99135006  1
  O  O7  1  0.24220494  0.24297705  0.00757297  1
  O  O8  1  0.75022208  0.24297705  0.00757297  1
  O  O9  1  0.75820390  0.75819270  0.99135006  1
  O  O10  1  0.32711604  0.51930800  0.34576792  1
  O  O11  1  0.83298830  0.98786251  0.33402340  1
  O  O12  1  0.67386451  0.47945034  0.65227097  1
  O  O13  1  0.16458366  0.01382414  0.67083268  1
