# generated using pymatgen
data_BaSrSi4
_symmetry_space_group_name_H-M   'P 1'
_cell_length_a   6.63728126
_cell_length_b   8.95659622
_cell_length_c   11.35300483
_cell_angle_alpha   90.00000000
_cell_angle_beta   90.00000000
_cell_angle_gamma   90.00000000
_symmetry_Int_Tables_number   1
_chemical_formula_structural   BaSrSi4
_chemical_formula_sum   'Ba4 Sr4 Si16'
_cell_volume   674.90716705
_cell_formula_units_Z   4
loop_
 _symmetry_equiv_pos_site_id
 _symmetry_equiv_pos_as_xyz
  1  'x, y, z'
loop_
 _atom_site_type_symbol
 _atom_site_label
 _atom_site_symmetry_multiplicity
 _atom_site_fract_x
 _atom_site_fract_y
 _atom_site_fract_z
 _atom_site_occupancy
  Ba  Ba0  1  0.75000000  0.48250160  0.19086406  1
  Ba  Ba1  1  0.75000000  0.98250160  0.30913594  1
  Ba  Ba2  1  0.25000000  0.51749840  0.80913594  1
  Ba  Ba3  1  0.25000000  0.01749840  0.69086406  1
  Sr  Sr4  1  0.75000000  0.65095714  0.59323350  1
  Sr  Sr5  1  0.75000000  0.15095714  0.90676650  1
  Sr  Sr6  1  0.25000000  0.34904286  0.40676650  1
  Sr  Sr7  1  0.25000000  0.84904286  0.09323350  1
  Si  Si8  1  0.75000000  0.30072363  0.46335484  1
  Si  Si9  1  0.75000000  0.80072363  0.03664516  1
  Si  Si10  1  0.25000000  0.69927637  0.53664516  1
  Si  Si11  1  0.25000000  0.19927637  0.96335484  1
  Si  Si12  1  0.75000000  0.08337021  0.59460019  1
  Si  Si13  1  0.75000000  0.58337021  0.90539981  1
  Si  Si14  1  0.25000000  0.91662979  0.40539981  1
  Si  Si15  1  0.25000000  0.41662979  0.09460019  1
  Si  Si16  1  0.93140967  0.30942826  0.64658239  1
  Si  Si17  1  0.56859033  0.80942826  0.85341761  1
  Si  Si18  1  0.43140967  0.69057174  0.35341761  1
  Si  Si19  1  0.06859033  0.19057174  0.14658239  1
  Si  Si20  1  0.06859033  0.69057174  0.35341761  1
  Si  Si21  1  0.43140967  0.19057174  0.14658239  1
  Si  Si22  1  0.56859033  0.30942826  0.64658239  1
  Si  Si23  1  0.93140967  0.80942826  0.85341761  1
