# generated using pymatgen
data_Ce6MnSb15
_symmetry_space_group_name_H-M   'P 1'
_cell_length_a   4.54914757
_cell_length_b   12.15014602
_cell_length_c   12.15014602
_cell_angle_alpha   79.70937620
_cell_angle_beta   100.76486046
_cell_angle_gamma   79.23513954
_symmetry_Int_Tables_number   1
_chemical_formula_structural   Ce6MnSb15
_chemical_formula_sum   'Ce6 Mn1 Sb15'
_cell_volume   632.08168469
_cell_formula_units_Z   1
loop_
 _symmetry_equiv_pos_site_id
 _symmetry_equiv_pos_as_xyz
  1  'x, y, z'
loop_
 _atom_site_type_symbol
 _atom_site_label
 _atom_site_symmetry_multiplicity
 _atom_site_fract_x
 _atom_site_fract_y
 _atom_site_fract_z
 _atom_site_occupancy
  Ce  Ce0  1  0.92398345  0.67288830  0.67717045  1
  Ce  Ce1  1  0.92398345  0.32282955  0.32711170  1
  Ce  Ce2  1  0.06291684  0.73061793  0.00743818  1
  Ce  Ce3  1  0.78493437  0.27093204  0.98884564  1
  Ce  Ce4  1  0.78493437  0.01115436  0.72906796  1
  Ce  Ce5  1  0.06291684  0.99256182  0.26938207  1
  Mn  Mn6  1  0.19609144  0.72871419  0.27128581  1
  Sb  Sb7  1  0.58228331  0.83825647  0.16174353  1
  Sb  Sb8  1  0.26882310  0.15713657  0.84286343  1
  Sb  Sb9  1  0.28359328  0.51892191  0.24378433  1
  Sb  Sb10  1  0.56394783  0.46366611  0.75006466  1
  Sb  Sb11  1  0.56394783  0.24993534  0.53633389  1
  Sb  Sb12  1  0.28359328  0.75621567  0.48107809  1
  Sb  Sb13  1  0.82035557  0.60368994  0.39631006  1
  Sb  Sb14  1  0.02191489  0.39890121  0.60109879  1
  Sb  Sb15  1  0.13700931  0.48620377  0.91711207  1
  Sb  Sb16  1  0.70440358  0.51196021  0.07814836  1
  Sb  Sb17  1  0.70440358  0.92185164  0.48803979  1
  Sb  Sb18  1  0.13700931  0.08288793  0.51379623  1
  Sb  Sb19  1  0.42260014  0.80356424  0.80177185  1
  Sb  Sb20  1  0.42260014  0.19822815  0.19643576  1
  Sb  Sb21  1  0.96615407  0.00378266  0.99621734  1
