# generated using pymatgen
data_Al2ZnSe4
_symmetry_space_group_name_H-M   'P 1'
_cell_length_a   3.86988608
_cell_length_b   6.98723599
_cell_length_c   6.51716793
_cell_angle_alpha   89.66905426
_cell_angle_beta   90.00012898
_cell_angle_gamma   89.99906968
_symmetry_Int_Tables_number   1
_chemical_formula_structural   Al2ZnSe4
_chemical_formula_sum   'Al2 Zn1 Se4'
_cell_volume   176.22002510
_cell_formula_units_Z   1
loop_
 _symmetry_equiv_pos_site_id
 _symmetry_equiv_pos_as_xyz
  1  'x, y, z'
loop_
 _atom_site_type_symbol
 _atom_site_label
 _atom_site_symmetry_multiplicity
 _atom_site_fract_x
 _atom_site_fract_y
 _atom_site_fract_z
 _atom_site_occupancy
  Al  Al0  1  0.49998964  0.83024036  0.47888462  1
  Al  Al1  1  0.50000228  0.15127228  0.02841479  1
  Zn  Zn2  1  0.99999386  0.34406229  0.48876132  1
  Se  Se3  1  0.99998188  0.35039735  0.10955861  1
  Se  Se4  1  0.49998733  0.82960386  0.12052764  1
  Se  Se5  1  0.49999805  0.15670786  0.63731219  1
  Se  Se6  1  0.99999695  0.67106600  0.63654083  1
