# generated using pymatgen
data_Ba2Sr2Y2Cu6O13
_symmetry_space_group_name_H-M   'P 1'
_cell_length_a   5.46917820
_cell_length_b   5.46917820
_cell_length_c   12.40091268
_cell_angle_alpha   76.95836481
_cell_angle_beta   76.95836481
_cell_angle_gamma   88.66335672
_symmetry_Int_Tables_number   1
_chemical_formula_structural   Ba2Sr2Y2Cu6O13
_chemical_formula_sum   'Ba2 Sr2 Y2 Cu6 O13'
_cell_volume   351.89739176
_cell_formula_units_Z   1
loop_
 _symmetry_equiv_pos_site_id
 _symmetry_equiv_pos_as_xyz
  1  'x, y, z'
loop_
 _atom_site_type_symbol
 _atom_site_label
 _atom_site_symmetry_multiplicity
 _atom_site_fract_x
 _atom_site_fract_y
 _atom_site_fract_z
 _atom_site_occupancy
  Ba  Ba0  1  0.60198812  0.08569107  0.81232081  1
  Ba  Ba1  1  0.08569107  0.60198812  0.81232081  1
  Sr  Sr2  1  0.89627425  0.40872675  0.19499900  1
  Sr  Sr3  1  0.40872675  0.89627425  0.19499900  1
  Y  Y4  1  0.25095104  0.75158272  0.49746624  1
  Y  Y5  1  0.75158272  0.25095104  0.49746624  1
  Cu  Cu6  1  0.18203456  0.18203456  0.63872435  1
  Cu  Cu7  1  0.67924109  0.67924109  0.63872435  1
  Cu  Cu8  1  0.32152016  0.32152016  0.35387351  1
  Cu  Cu9  1  0.82460634  0.82460634  0.35387351  1
  Cu  Cu10  1  0.50277029  0.50277029  0.00478735  1
  Cu  Cu11  1  0.99244236  0.99244236  0.00478735  1
  O  O12  1  0.09771501  0.09771501  0.84979286  1
  O  O13  1  0.55249213  0.55249213  0.84979286  1
  O  O14  1  0.39214919  0.39214919  0.15866112  1
  O  O15  1  0.94918969  0.94918969  0.15866112  1
  O  O16  1  0.93883719  0.93883719  0.62232563  1
  O  O17  1  0.44095577  0.44095577  0.61808845  1
  O  O18  1  0.44092477  0.94092477  0.61815047  1
  O  O19  1  0.94092477  0.44092477  0.61815047  1
  O  O20  1  0.06291208  0.06291208  0.37417585  1
  O  O21  1  0.56666074  0.56666074  0.36667852  1
  O  O22  1  0.56297156  0.06297156  0.37405688  1
  O  O23  1  0.06297156  0.56297156  0.37405688  1
  O  O24  1  0.74346680  0.74346680  0.01306639  1
