# generated using pymatgen
data_Ba4LaTiNb3O15
_symmetry_space_group_name_H-M   'P 1'
_cell_length_a   5.81575567
_cell_length_b   5.81578461
_cell_length_c   11.69400120
_cell_angle_alpha   90.00000000
_cell_angle_beta   89.99710660
_cell_angle_gamma   120.00017081
_symmetry_Int_Tables_number   1
_chemical_formula_structural   Ba4LaTiNb3O15
_chemical_formula_sum   'Ba4 La1 Ti1 Nb3 O15'
_cell_volume   342.53699505
_cell_formula_units_Z   1
loop_
 _symmetry_equiv_pos_site_id
 _symmetry_equiv_pos_as_xyz
  1  'x, y, z'
loop_
 _atom_site_type_symbol
 _atom_site_label
 _atom_site_symmetry_multiplicity
 _atom_site_fract_x
 _atom_site_fract_y
 _atom_site_fract_z
 _atom_site_occupancy
  Ba  Ba0  1  0.33332365  0.66666182  0.79115315  1
  Ba  Ba1  1  0.66666116  0.33333058  0.20364500  1
  Ba  Ba2  1  0.33329220  0.66664610  0.41661021  1
  Ba  Ba3  1  0.00000684  0.00000342  0.99887582  1
  La  La4  1  0.66648544  0.33324272  0.55101678  1
  Ti  Ti5  1  0.66665317  0.33332658  0.88404457  1
  Nb  Nb6  1  0.33332914  0.66666457  0.09711717  1
  Nb  Nb7  1  0.99995421  0.99997711  0.31849608  1
  Nb  Nb8  1  0.99999173  0.99999586  0.68140316  1
  O  O9  1  0.66937868  0.83468934  0.60688993  1
  O  O10  1  0.16542004  0.83476742  0.60689681  1
  O  O11  1  0.16542004  0.33065261  0.60689681  1
  O  O12  1  0.33418708  0.16709354  0.40070217  1
  O  O13  1  0.83288339  0.16708873  0.40071246  1
  O  O14  1  0.83288339  0.66579466  0.40071246  1
  O  O15  1  0.66578410  0.83289205  0.20330465  1
  O  O16  1  0.16712898  0.83288447  0.20330776  1
  O  O17  1  0.16712898  0.33424451  0.20330776  1
  O  O18  1  0.34248400  0.17124200  0.80478189  1
  O  O19  1  0.82877807  0.17123670  0.80477351  1
  O  O20  1  0.82877807  0.65754137  0.80477351  1
  O  O21  1  0.49851668  0.50150516  0.00352476  1
  O  O22  1  0.49851668  0.99701152  0.00352476  1
  O  O23  1  0.00301429  0.50150715  0.00352882  1
