# generated using pymatgen
data_Cs2NaCr(CN)6
_symmetry_space_group_name_H-M   'P 1'
_cell_length_a   7.69762509
_cell_length_b   8.02868099
_cell_length_c   11.11708091
_cell_angle_alpha   90.00000000
_cell_angle_beta   90.12522976
_cell_angle_gamma   90.00000000
_symmetry_Int_Tables_number   1
_chemical_formula_structural   Cs2NaCr(CN)6
_chemical_formula_sum   'Cs4 Na2 Cr2 C12 N12'
_cell_volume   687.05370565
_cell_formula_units_Z   2
loop_
 _symmetry_equiv_pos_site_id
 _symmetry_equiv_pos_as_xyz
  1  'x, y, z'
loop_
 _atom_site_type_symbol
 _atom_site_label
 _atom_site_symmetry_multiplicity
 _atom_site_fract_x
 _atom_site_fract_y
 _atom_site_fract_z
 _atom_site_occupancy
  C  C0  1  0.78426046  0.14407299  0.02513725  1
  C  C1  1  0.28426046  0.35592701  0.52513725  1
  C  C2  1  0.21573954  0.85592701  0.97486275  1
  C  C3  1  0.71573954  0.64407299  0.47486275  1
  C  C4  1  0.64352474  0.28987453  0.47034448  1
  C  C5  1  0.85647526  0.78987453  0.02965552  1
  C  C6  1  0.35647526  0.71012547  0.52965552  1
  C  C7  1  0.14352474  0.21012547  0.97034448  1
  C  C8  1  0.05374023  0.01258769  0.17955432  1
  C  C9  1  0.44625977  0.51258769  0.32044568  1
  C  C10  1  0.94625977  0.98741231  0.82044568  1
  C  C11  1  0.55374023  0.48741231  0.67955432  1
  N  N12  1  0.08407096  0.02204299  0.28307439  1
  N  N13  1  0.41592904  0.52204299  0.21692561  1
  N  N14  1  0.91592904  0.97795701  0.71692561  1
  N  N15  1  0.58407096  0.47795701  0.78307439  1
  N  N16  1  0.72648586  0.16936277  0.45234551  1
  N  N17  1  0.22648586  0.33063723  0.95234551  1
  N  N18  1  0.27351414  0.83063723  0.54765449  1
  N  N19  1  0.77351414  0.66936277  0.04765449  1
  N  N20  1  0.66119716  0.22851484  0.03985578  1
  N  N21  1  0.83880284  0.72851484  0.46014422  1
  N  N22  1  0.33880284  0.77148516  0.96014422  1
  N  N23  1  0.16119716  0.27148516  0.53985578  1
  Na  Na24  1  0.00000000  0.00000000  0.50000000  1
  Na  Na25  1  0.50000000  0.50000000  0.00000000  1
  Cr  Cr26  1  0.00000000  0.00000000  0.00000000  1
  Cr  Cr27  1  0.50000000  0.50000000  0.50000000  1
  Cs  Cs28  1  0.01387864  0.55547240  0.75034327  1
  Cs  Cs29  1  0.48612136  0.05547240  0.74965673  1
  Cs  Cs30  1  0.98612136  0.44452760  0.24965673  1
  Cs  Cs31  1  0.51387864  0.94452760  0.25034327  1
