# generated using pymatgen
data_BaLaCoIrO6
_symmetry_space_group_name_H-M   'P 1'
_cell_length_a   5.70906521
_cell_length_b   5.69645333
_cell_length_c   5.73841322
_cell_angle_alpha   60.60049138
_cell_angle_beta   59.69844224
_cell_angle_gamma   59.64340880
_symmetry_Int_Tables_number   1
_chemical_formula_structural   BaLaCoIrO6
_chemical_formula_sum   'Ba1 La1 Co1 Ir1 O6'
_cell_volume   131.88035956
_cell_formula_units_Z   1
loop_
 _symmetry_equiv_pos_site_id
 _symmetry_equiv_pos_as_xyz
  1  'x, y, z'
loop_
 _atom_site_type_symbol
 _atom_site_label
 _atom_site_symmetry_multiplicity
 _atom_site_fract_x
 _atom_site_fract_y
 _atom_site_fract_z
 _atom_site_occupancy
  Ba  Ba0  1  0.24946214  0.75250387  0.74959140  1
  La  La1  1  0.75263173  0.26292567  0.23646741  1
  Co  Co2  1  0.99710248  0.50541818  0.50142672  1
  Ir  Ir3  1  0.49965021  0.99823350  0.00200072  1
  O  O4  1  0.24410425  0.20015667  0.29152708  1
  O  O5  1  0.74875632  0.84558295  0.66467916  1
  O  O6  1  0.21364326  0.26967903  0.79950365  1
  O  O7  1  0.76463980  0.69817145  0.22346190  1
  O  O8  1  0.30601932  0.70641875  0.21094370  1
  O  O9  1  0.72399048  0.26090992  0.82039826  1
