# generated using pymatgen
data_Ba3Co2WO9
_symmetry_space_group_name_H-M   'P 1'
_cell_length_a   5.87964363
_cell_length_b   5.86637799
_cell_length_c   14.27138653
_cell_angle_alpha   90.00000000
_cell_angle_beta   90.00000000
_cell_angle_gamma   60.07461130
_symmetry_Int_Tables_number   1
_chemical_formula_structural   Ba3Co2WO9
_chemical_formula_sum   'Ba6 Co4 W2 O18'
_cell_volume   426.62261446
_cell_formula_units_Z   2
loop_
 _symmetry_equiv_pos_site_id
 _symmetry_equiv_pos_as_xyz
  1  'x, y, z'
loop_
 _atom_site_type_symbol
 _atom_site_label
 _atom_site_symmetry_multiplicity
 _atom_site_fract_x
 _atom_site_fract_y
 _atom_site_fract_z
 _atom_site_occupancy
  Ba  Ba0  1  0.33146876  0.33426562  0.59109610  1
  Ba  Ba1  1  0.66792989  0.66603505  0.39859253  1
  Ba  Ba2  1  0.66853124  0.66573438  0.09109610  1
  Ba  Ba3  1  0.33207011  0.33396495  0.89859253  1
  Ba  Ba4  1  0.99918875  0.00040563  0.75336350  1
  Ba  Ba5  1  0.00081125  0.99959437  0.25336350  1
  Co  Co6  1  0.99857246  0.00071377  0.49926360  1
  Co  Co7  1  0.00142754  0.99928623  0.99926360  1
  Co  Co8  1  0.33336006  0.33331997  0.36182662  1
  Co  Co9  1  0.66663994  0.66668003  0.86182662  1
  W  W10  1  0.66542891  0.66728554  0.65893834  1
  W  W11  1  0.33457109  0.33271446  0.15893834  1
  O  O12  1  0.17046555  0.65894057  0.41623668  1
  O  O13  1  0.65931665  0.17034167  0.41548620  1
  O  O14  1  0.17046555  0.17059387  0.41623668  1
  O  O15  1  0.82688157  0.34680308  0.58434475  1
  O  O16  1  0.34639912  0.82680044  0.58472640  1
  O  O17  1  0.82688157  0.82631535  0.58434475  1
  O  O18  1  0.82953445  0.34105943  0.91623668  1
  O  O19  1  0.34068335  0.82965833  0.91548620  1
  O  O20  1  0.82953445  0.82940613  0.91623668  1
  O  O21  1  0.17311843  0.65319692  0.08434475  1
  O  O22  1  0.65360088  0.17319956  0.08472640  1
  O  O23  1  0.17311843  0.17368465  0.08434475  1
  O  O24  1  0.51432112  0.97141686  0.74499839  1
  O  O25  1  0.96925683  0.51537159  0.74554707  1
  O  O26  1  0.51432112  0.51426203  0.74499839  1
  O  O27  1  0.48567888  0.02858314  0.24499839  1
  O  O28  1  0.03074317  0.48462841  0.24554707  1
  O  O29  1  0.48567888  0.48573797  0.24499839  1
