# generated using pymatgen
data_Ba8Cu4Hg4O17
_symmetry_space_group_name_H-M   'P 1'
_cell_length_a   7.74922714
_cell_length_b   10.42436402
_cell_length_c   8.66662946
_cell_angle_alpha   109.41421957
_cell_angle_beta   63.44042658
_cell_angle_gamma   90.00176253
_symmetry_Int_Tables_number   1
_chemical_formula_structural   Ba8Cu4Hg4O17
_chemical_formula_sum   'Ba8 Cu4 Hg4 O17'
_cell_volume   581.37521667
_cell_formula_units_Z   1
loop_
 _symmetry_equiv_pos_site_id
 _symmetry_equiv_pos_as_xyz
  1  'x, y, z'
loop_
 _atom_site_type_symbol
 _atom_site_label
 _atom_site_symmetry_multiplicity
 _atom_site_fract_x
 _atom_site_fract_y
 _atom_site_fract_z
 _atom_site_occupancy
  Ba  Ba0  1  0.44830350  0.70643332  0.60339412  1
  Ba  Ba1  1  0.94481584  0.72091904  0.61036535  1
  Ba  Ba2  1  0.19799687  0.70838400  0.10402592  1
  Ba  Ba3  1  0.69813959  0.70699968  0.10370054  1
  Ba  Ba4  1  0.55200313  0.29161600  0.39597408  1
  Ba  Ba5  1  0.05186041  0.29300032  0.39629946  1
  Ba  Ba6  1  0.30169650  0.29356668  0.89660588  1
  Ba  Ba7  1  0.80518416  0.27908096  0.88963465  1
  Cu  Cu8  1  0.62687052  0.49999927  0.75000082  1
  Cu  Cu9  1  0.12312948  0.50000073  0.74999918  1
  Cu  Cu10  1  0.37500000  0.50000000  0.25000000  1
  Cu  Cu11  1  0.87500000  0.50000000  0.25000000  1
  Hg  Hg12  1  0.75373171  0.00000189  0.50746642  1
  Hg  Hg13  1  0.23882119  0.00000206  0.50745662  1
  Hg  Hg14  1  0.51117881  -0.00000206  0.99254338  1
  Hg  Hg15  1  0.99626829  -0.00000189  0.99253358  1
  O  O16  1  0.54674814  0.78863815  0.89793097  1
  O  O17  1  0.05531599  0.78865069  0.89793158  1
  O  O18  1  0.30901624  0.78864700  0.39072693  1
  O  O19  1  0.80025572  0.78865901  0.39073666  1
  O  O20  1  0.69468401  0.21134931  0.60206842  1
  O  O21  1  0.20325186  0.21136185  0.60206903  1
  O  O22  1  0.44098376  0.21135300  0.10927307  1
  O  O23  1  0.94974428  0.21134099  0.10926334  1
  O  O24  1  0.74782378  0.49933970  0.49959615  1
  O  O25  1  0.25258139  0.49933985  0.49959609  1
  O  O26  1  0.49741861  0.50066015  0.00040391  1
  O  O27  1  0.00217622  0.50066030  0.00040385  1
  O  O28  1  0.37500000  0.50000000  0.75000000  1
  O  O29  1  0.87500000  0.50000000  0.75000000  1
  O  O30  1  0.12595498  0.49911098  0.24808455  1
  O  O31  1  0.62404502  0.50088902  0.25191545  1
  O  O32  1  0.87500000  0.00000000  0.75000000  1
