# generated using pymatgen
data_Ba3La2Ti2Nb2O15
_symmetry_space_group_name_H-M   'P 1'
_cell_length_a   5.72455400
_cell_length_b   5.72454944
_cell_length_c   11.75964049
_cell_angle_alpha   89.99980697
_cell_angle_beta   90.00135927
_cell_angle_gamma   120.00006215
_symmetry_Int_Tables_number   1
_chemical_formula_structural   Ba3La2Ti2Nb2O15
_chemical_formula_sum   'Ba3 La2 Ti2 Nb2 O15'
_cell_volume   333.73931569
_cell_formula_units_Z   1
loop_
 _symmetry_equiv_pos_site_id
 _symmetry_equiv_pos_as_xyz
  1  'x, y, z'
loop_
 _atom_site_type_symbol
 _atom_site_label
 _atom_site_symmetry_multiplicity
 _atom_site_fract_x
 _atom_site_fract_y
 _atom_site_fract_z
 _atom_site_occupancy
  Ba  Ba0  1  0.33332824  0.66666263  0.42389487  1
  Ba  Ba1  1  0.66667176  0.33333737  0.57610513  1
  Ba  Ba2  1  0.00000000  0.00000000  0.00000000  1
  La  La3  1  0.33339588  0.66671414  0.78719752  1
  La  La4  1  0.66660412  0.33328586  0.21280248  1
  Ti  Ti5  1  0.33332400  0.66666281  0.09659399  1
  Ti  Ti6  1  0.66667600  0.33333719  0.90340601  1
  Nb  Nb7  1  0.00001522  0.00001077  0.69470139  1
  Nb  Nb8  1  0.99998478  0.99998923  0.30529861  1
  O  O9  1  0.65662095  0.82830966  0.62129084  1
  O  O10  1  0.17168915  0.82830927  0.62128989  1
  O  O11  1  0.17169069  0.34338597  0.62129337  1
  O  O12  1  0.34337905  0.17169034  0.37870916  1
  O  O13  1  0.82831085  0.17169073  0.37871011  1
  O  O14  1  0.82830931  0.65661403  0.37870663  1
  O  O15  1  0.66160100  0.83080388  0.19137200  1
  O  O16  1  0.16923874  0.83081502  0.19137427  1
  O  O17  1  0.16924515  0.33842825  0.19137511  1
  O  O18  1  0.33839900  0.16919612  0.80862800  1
  O  O19  1  0.83076126  0.16918498  0.80862573  1
  O  O20  1  0.83075485  0.66157175  0.80862489  1
  O  O21  1  0.50000000  0.50000000  0.00000000  1
  O  O22  1  0.50000000  0.00000000  0.00000000  1
  O  O23  1  0.00000000  0.50000000  0.00000000  1
