# generated using pymatgen
data_Ca3MgFe2(CO3)6
_symmetry_space_group_name_H-M   'P 1'
_cell_length_a   4.89479939
_cell_length_b   4.89479916
_cell_length_c   16.20628920
_cell_angle_alpha   90.00000000
_cell_angle_beta   90.00000000
_cell_angle_gamma   119.99999848
_symmetry_Int_Tables_number   1
_chemical_formula_structural   Ca3MgFe2(CO3)6
_chemical_formula_sum   'Ca3 Mg1 Fe2 C6 O18'
_cell_volume   336.26680477
_cell_formula_units_Z   1
loop_
 _symmetry_equiv_pos_site_id
 _symmetry_equiv_pos_as_xyz
  1  'x, y, z'
loop_
 _atom_site_type_symbol
 _atom_site_label
 _atom_site_symmetry_multiplicity
 _atom_site_fract_x
 _atom_site_fract_y
 _atom_site_fract_z
 _atom_site_occupancy
  Ca  Ca0  1  0.33333300  0.66666700  0.66666700  1
  Ca  Ca1  1  0.00000000  0.00000000  0.00019629  1
  Ca  Ca2  1  0.66666700  0.33333300  0.33313671  1
  Mg  Mg3  1  0.33333300  0.66666700  0.16666700  1
  Fe  Fe4  1  0.00000000  0.00000000  0.50001449  1
  Fe  Fe5  1  0.66666700  0.33333300  0.83331851  1
  C  C6  1  0.00000000  0.00000000  0.75627163  1
  C  C7  1  0.66666700  0.33333300  0.09000019  1
  C  C8  1  0.33333300  0.66666700  0.42294528  1
  C  C9  1  0.33333300  0.66666700  0.91038872  1
  C  C10  1  0.00000000  0.00000000  0.24333281  1
  C  C11  1  0.66666700  0.33333300  0.57706137  1
  O  O12  1  0.41827849  0.36489803  0.08909350  1
  O  O13  1  0.08196304  0.69285835  0.42176156  1
  O  O14  1  0.74872784  0.02633715  0.75508579  1
  O  O15  1  0.94662055  0.58172151  0.08909350  1
  O  O16  1  0.61089431  0.91803596  0.42176156  1
  O  O17  1  0.27760931  0.25127216  0.75508579  1
  O  O18  1  0.63510097  0.05337945  0.08909350  1
  O  O19  1  0.30714165  0.38910469  0.42176156  1
  O  O20  1  0.97366285  0.72239069  0.75508579  1
  O  O21  1  0.24838851  0.96843497  0.24423950  1
  O  O22  1  0.91793916  0.30699585  0.57824721  1
  O  O23  1  0.58470296  0.64047565  0.91157244  1
  O  O24  1  0.72004645  0.75161149  0.24423950  1
  O  O25  1  0.38905769  0.08206084  0.57824721  1
  O  O26  1  0.05577169  0.41529704  0.91157244  1
  O  O27  1  0.03156503  0.27995355  0.24423950  1
  O  O28  1  0.69300415  0.61094231  0.57824721  1
  O  O29  1  0.35952435  0.94422831  0.91157244  1
