# generated using pymatgen
data_Sr2CuSi2O7
_symmetry_space_group_name_H-M   'P 1'
_cell_length_a   5.11143595
_cell_length_b   8.20647500
_cell_length_c   8.20647500
_cell_angle_alpha   90.00000000
_cell_angle_beta   90.00000000
_cell_angle_gamma   90.00000000
_symmetry_Int_Tables_number   1
_chemical_formula_structural   Sr2CuSi2O7
_chemical_formula_sum   'Sr4 Si4 Cu2 O14'
_cell_volume   344.23595096
_cell_formula_units_Z   2
loop_
 _symmetry_equiv_pos_site_id
 _symmetry_equiv_pos_as_xyz
  1  'x, y, z'
loop_
 _atom_site_type_symbol
 _atom_site_label
 _atom_site_symmetry_multiplicity
 _atom_site_fract_x
 _atom_site_fract_y
 _atom_site_fract_z
 _atom_site_occupancy
  O  O0  1  0.67960500  0.69326048  0.58147786  1
  O  O1  1  0.67960500  0.30673952  0.41852214  1
  O  O2  1  0.32039500  0.41852214  0.69326048  1
  O  O3  1  0.32039500  0.58147786  0.30673952  1
  O  O4  1  0.67960500  0.91852214  0.80673952  1
  O  O5  1  0.32039500  0.80673952  0.08147786  1
  O  O6  1  0.32039500  0.19326048  0.91852214  1
  O  O7  1  0.67960500  0.08147786  0.19326048  1
  O  O8  1  0.22050298  0.86499948  0.63500052  1
  O  O9  1  0.77949702  0.63500052  0.13500052  1
  O  O10  1  0.65254168  0.00000000  0.50000000  1
  O  O11  1  0.34745832  0.50000000  0.00000000  1
  O  O12  1  0.22050298  0.13500052  0.36499948  1
  O  O13  1  0.77949702  0.36499948  0.86499948  1
  Si  Si14  1  0.53652923  0.86377741  0.63622259  1
  Si  Si15  1  0.46347077  0.63622259  0.13622259  1
  Si  Si16  1  0.46347077  0.36377741  0.86377741  1
  Si  Si17  1  0.53652923  0.13622259  0.36377741  1
  Cu  Cu18  1  0.50000000  0.50000000  0.50000000  1
  Cu  Cu19  1  0.50000000  0.00000000  0.00000000  1
  Sr  Sr20  1  0.99115411  0.66653419  0.83346581  1
  Sr  Sr21  1  0.00884589  0.83346581  0.33346581  1
  Sr  Sr22  1  0.00884589  0.16653419  0.66653419  1
  Sr  Sr23  1  0.99115411  0.33346581  0.16653419  1
