# generated using pymatgen
data_Ag2SnBiS4
_symmetry_space_group_name_H-M   'P 1'
_cell_length_a   5.57273488
_cell_length_b   5.57273488
_cell_length_c   6.89745924
_cell_angle_alpha   66.17339432
_cell_angle_beta   66.17339432
_cell_angle_gamma   90.00000000
_symmetry_Int_Tables_number   1
_chemical_formula_structural   Ag2SnBiS4
_chemical_formula_sum   'Ag2 Sn1 Bi1 S4'
_cell_volume   175.80539387
_cell_formula_units_Z   1
loop_
 _symmetry_equiv_pos_site_id
 _symmetry_equiv_pos_as_xyz
  1  'x, y, z'
loop_
 _atom_site_type_symbol
 _atom_site_label
 _atom_site_symmetry_multiplicity
 _atom_site_fract_x
 _atom_site_fract_y
 _atom_site_fract_z
 _atom_site_occupancy
  Ag  Ag0  1  0.50000000  0.50000000  0.00000000  1
  Ag  Ag1  1  0.75000000  0.25000000  0.50000000  1
  Sn  Sn2  1  -0.00000000  0.00000000  0.00000000  1
  Bi  Bi3  1  0.25000000  0.75000000  0.50000000  1
  S  S4  1  0.50106669  0.00106669  0.99786662  1
  S  S5  1  0.75348053  0.75348053  0.49303894  1
  S  S6  1  0.99893331  0.49893331  0.00213338  1
  S  S7  1  0.24651947  0.24651947  0.50696106  1
