# generated using pymatgen
data_SrZn2
_symmetry_space_group_name_H-M   'P 1'
_cell_length_a   5.93674095
_cell_length_b   5.93674095
_cell_length_c   9.07090679
_cell_angle_alpha   90.00000000
_cell_angle_beta   90.00000000
_cell_angle_gamma   119.99999995
_symmetry_Int_Tables_number   1
_chemical_formula_structural   SrZn2
_chemical_formula_sum   'Sr4 Zn8'
_cell_volume   276.87104117
_cell_formula_units_Z   4
loop_
 _symmetry_equiv_pos_site_id
 _symmetry_equiv_pos_as_xyz
  1  'x, y, z'
loop_
 _atom_site_type_symbol
 _atom_site_label
 _atom_site_symmetry_multiplicity
 _atom_site_fract_x
 _atom_site_fract_y
 _atom_site_fract_z
 _atom_site_occupancy
  Zn  Zn0  1  0.15703383  0.31406766  0.75000000  1
  Zn  Zn1  1  0.84296617  0.15703383  0.25000000  1
  Zn  Zn2  1  0.31406766  0.15703383  0.25000000  1
  Zn  Zn3  1  0.68593234  0.84296617  0.75000000  1
  Zn  Zn4  1  0.00000000  0.00000000  0.00000000  1
  Zn  Zn5  1  0.00000000  0.00000000  0.50000000  1
  Zn  Zn6  1  0.84296617  0.68593234  0.25000000  1
  Zn  Zn7  1  0.15703383  0.84296617  0.75000000  1
  Sr  Sr8  1  0.33333333  0.66666667  0.44701184  1
  Sr  Sr9  1  0.66666667  0.33333333  0.94701184  1
  Sr  Sr10  1  0.66666667  0.33333333  0.55298816  1
  Sr  Sr11  1  0.33333333  0.66666667  0.05298816  1
