# generated using pymatgen
data_Ba3Ga4Sb5
_symmetry_space_group_name_H-M   'P 1'
_cell_length_a   4.49331134
_cell_length_b   13.53705584
_cell_length_c   25.68597673
_cell_angle_alpha   90.00000000
_cell_angle_beta   90.00000000
_cell_angle_gamma   90.00000000
_symmetry_Int_Tables_number   1
_chemical_formula_structural   Ba3Ga4Sb5
_chemical_formula_sum   'Ba12 Ga16 Sb20'
_cell_volume   1562.38052515
_cell_formula_units_Z   4
loop_
 _symmetry_equiv_pos_site_id
 _symmetry_equiv_pos_as_xyz
  1  'x, y, z'
loop_
 _atom_site_type_symbol
 _atom_site_label
 _atom_site_symmetry_multiplicity
 _atom_site_fract_x
 _atom_site_fract_y
 _atom_site_fract_z
 _atom_site_occupancy
  Ba  Ba0  1  0.75000000  0.32088760  0.00366290  1
  Ba  Ba1  1  0.75000000  0.82883471  0.49142899  1
  Ba  Ba2  1  0.25000000  0.67116529  0.99142899  1
  Ba  Ba3  1  0.25000000  0.17911240  0.50366290  1
  Ba  Ba4  1  0.25000000  0.52266758  0.38060950  1
  Ba  Ba5  1  0.25000000  0.01251213  0.11497588  1
  Ba  Ba6  1  0.75000000  0.48748787  0.61497588  1
  Ba  Ba7  1  0.75000000  0.97733242  0.88060950  1
  Ba  Ba8  1  0.75000000  0.36112257  0.22200153  1
  Ba  Ba9  1  0.75000000  0.85242343  0.28200814  1
  Ba  Ba10  1  0.25000000  0.64757657  0.78200814  1
  Ba  Ba11  1  0.25000000  0.13887743  0.72200153  1
  Ga  Ga12  1  0.25000000  0.59657776  0.22428938  1
  Ga  Ga13  1  0.25000000  0.09708815  0.27871264  1
  Ga  Ga14  1  0.75000000  0.40291185  0.77871264  1
  Ga  Ga15  1  0.75000000  0.90342224  0.72428938  1
  Ga  Ga16  1  0.75000000  0.25965769  0.38421225  1
  Ga  Ga17  1  0.75000000  0.74637795  0.11513909  1
  Ga  Ga18  1  0.25000000  0.75362205  0.61513909  1
  Ga  Ga19  1  0.25000000  0.24034231  0.88421225  1
  Ga  Ga20  1  0.25000000  0.50254747  0.13734189  1
  Ga  Ga21  1  0.25000000  0.99192277  0.36499060  1
  Ga  Ga22  1  0.75000000  0.50807723  0.86499060  1
  Ga  Ga23  1  0.75000000  0.99745253  0.63734189  1
  Ga  Ga24  1  0.75000000  0.18392012  0.11639592  1
  Ga  Ga25  1  0.25000000  0.31607988  0.61639592  1
  Ga  Ga26  1  0.25000000  0.91402702  0.97162636  1
  Ga  Ga27  1  0.75000000  0.58597298  0.47162636  1
  Sb  Sb28  1  0.75000000  0.08721640  0.21678696  1
  Sb  Sb29  1  0.75000000  0.59213648  0.28390202  1
  Sb  Sb30  1  0.25000000  0.90786352  0.78390202  1
  Sb  Sb31  1  0.25000000  0.41278360  0.71678696  1
  Sb  Sb32  1  0.75000000  0.55375972  0.08239017  1
  Sb  Sb33  1  0.75000000  0.06152305  0.41486758  1
  Sb  Sb34  1  0.25000000  0.43847695  0.91486758  1
  Sb  Sb35  1  0.25000000  0.94624028  0.58239017  1
  Sb  Sb36  1  0.25000000  0.30212450  0.11537544  1
  Sb  Sb37  1  0.25000000  0.79446446  0.38548696  1
  Sb  Sb38  1  0.75000000  0.70553554  0.88548696  1
  Sb  Sb39  1  0.75000000  0.19787550  0.61537544  1
  Sb  Sb40  1  0.75000000  0.37719280  0.47125370  1
  Sb  Sb41  1  0.75000000  0.88364598  0.03574010  1
  Sb  Sb42  1  0.25000000  0.61635402  0.53574010  1
  Sb  Sb43  1  0.25000000  0.12280720  0.97125370  1
  Sb  Sb44  1  0.25000000  0.27947927  0.32311276  1
  Sb  Sb45  1  0.25000000  0.77530609  0.17554923  1
  Sb  Sb46  1  0.75000000  0.72469391  0.67554923  1
  Sb  Sb47  1  0.75000000  0.22052073  0.82311276  1
