# generated using pymatgen
data_Na2GeF6
_symmetry_space_group_name_H-M   'P 1'
_cell_length_a   9.56393084
_cell_length_b   9.56393084
_cell_length_c   4.67316882
_cell_angle_alpha   90.00000000
_cell_angle_beta   90.00000000
_cell_angle_gamma   119.99999999
_symmetry_Int_Tables_number   1
_chemical_formula_structural   Na2GeF6
_chemical_formula_sum   'Na6 Ge3 F18'
_cell_volume   370.18170897
_cell_formula_units_Z   3
loop_
 _symmetry_equiv_pos_site_id
 _symmetry_equiv_pos_as_xyz
  1  'x, y, z'
loop_
 _atom_site_type_symbol
 _atom_site_label
 _atom_site_symmetry_multiplicity
 _atom_site_fract_x
 _atom_site_fract_y
 _atom_site_fract_z
 _atom_site_occupancy
  F  F0  1  0.57524171  0.42475829  0.72482280  1
  F  F1  1  0.57524171  0.15048343  0.72482280  1
  F  F2  1  0.84951657  0.42475829  0.72482280  1
  F  F3  1  0.15048343  0.57524171  0.27517720  1
  F  F4  1  0.42475829  0.84951657  0.27517720  1
  F  F5  1  0.42475829  0.57524171  0.27517720  1
  F  F6  1  0.75805245  0.24194755  0.27654443  1
  F  F7  1  0.75805245  0.51610489  0.27654443  1
  F  F8  1  0.48389511  0.24194755  0.27654443  1
  F  F9  1  0.09302986  0.90697014  0.21414411  1
  F  F10  1  0.09302986  0.18605971  0.21414411  1
  F  F11  1  0.81394029  0.90697014  0.21414411  1
  F  F12  1  0.18605971  0.09302986  0.78585589  1
  F  F13  1  0.90697014  0.81394029  0.78585589  1
  F  F14  1  0.90697014  0.09302986  0.78585589  1
  F  F15  1  0.24194755  0.75805245  0.72345557  1
  F  F16  1  0.24194755  0.48389511  0.72345557  1
  F  F17  1  0.51610489  0.75805245  0.72345557  1
  Na  Na18  1  0.34281507  0.34281507  0.00000000  1
  Na  Na19  1  0.00000000  0.65718493  0.00000000  1
  Na  Na20  1  0.65718493  0.00000000  0.00000000  1
  Na  Na21  1  0.65718493  0.65718493  0.00000000  1
  Na  Na22  1  0.00000000  0.34281507  0.00000000  1
  Na  Na23  1  0.34281507  0.00000000  0.00000000  1
  Ge  Ge24  1  0.66666667  0.33333333  0.49968940  1
  Ge  Ge25  1  0.33333333  0.66666667  0.50031060  1
  Ge  Ge26  1  0.00000000  0.00000000  0.00000000  1
