# generated using pymatgen
data_Sm(NiGe)3
_symmetry_space_group_name_H-M   'P 1'
_cell_length_a   4.15314794
_cell_length_b   4.15314794
_cell_length_c   12.91701915
_cell_angle_alpha   99.25116476
_cell_angle_beta   99.25116475
_cell_angle_gamma   89.99999999
_symmetry_Int_Tables_number   1
_chemical_formula_structural   Sm(NiGe)3
_chemical_formula_sum   'Sm2 Ni6 Ge6'
_cell_volume   216.96638031
_cell_formula_units_Z   2
loop_
 _symmetry_equiv_pos_site_id
 _symmetry_equiv_pos_as_xyz
  1  'x, y, z'
loop_
 _atom_site_type_symbol
 _atom_site_label
 _atom_site_symmetry_multiplicity
 _atom_site_fract_x
 _atom_site_fract_y
 _atom_site_fract_z
 _atom_site_occupancy
  Ni  Ni0  1  0.79684492  0.79684492  0.59368984  1
  Ni  Ni1  1  0.20315508  0.20315508  0.40631016  1
  Ni  Ni2  1  0.55440166  0.05440166  0.10880333  1
  Ni  Ni3  1  0.05440166  0.55440166  0.10880333  1
  Ni  Ni4  1  0.44559834  0.94559834  0.89119667  1
  Ni  Ni5  1  0.94559834  0.44559834  0.89119667  1
  Ge  Ge6  1  0.00000000  0.00000000  0.00000000  1
  Ge  Ge7  1  0.50000000  0.50000000  0.00000000  1
  Ge  Ge8  1  0.11057156  0.11057156  0.22114312  1
  Ge  Ge9  1  0.88942844  0.88942844  0.77885688  1
  Ge  Ge10  1  0.75000000  0.25000000  0.50000000  1
  Ge  Ge11  1  0.25000000  0.75000000  0.50000000  1
  Sm  Sm12  1  0.65303486  0.65303486  0.30606972  1
  Sm  Sm13  1  0.34696514  0.34696514  0.69393028  1
