# generated using pymatgen
data_In2Si2O7
_symmetry_space_group_name_H-M   'P 1'
_cell_length_a   6.75065580
_cell_length_b   6.75065581
_cell_length_c   6.75065581
_cell_angle_alpha   60.00000004
_cell_angle_beta   60.00000002
_cell_angle_gamma   60.00000006
_symmetry_Int_Tables_number   1
_chemical_formula_structural   In2Si2O7
_chemical_formula_sum   'In4 Si4 O14'
_cell_volume   217.53187273
_cell_formula_units_Z   2
loop_
 _symmetry_equiv_pos_site_id
 _symmetry_equiv_pos_as_xyz
  1  'x, y, z'
loop_
 _atom_site_type_symbol
 _atom_site_label
 _atom_site_symmetry_multiplicity
 _atom_site_fract_x
 _atom_site_fract_y
 _atom_site_fract_z
 _atom_site_occupancy
  O  O0  1  0.42892457  0.82107543  0.82107543  1
  O  O1  1  0.17892457  0.57107543  0.57107543  1
  O  O2  1  0.82107543  0.42892457  0.82107543  1
  O  O3  1  0.82107543  0.82107543  0.42892457  1
  O  O4  1  0.42892457  0.42892457  0.82107543  1
  O  O5  1  0.42892457  0.82107543  0.42892457  1
  O  O6  1  0.17892457  0.57107543  0.17892457  1
  O  O7  1  0.57107543  0.17892457  0.57107543  1
  O  O8  1  0.12500000  0.12500000  0.12500000  1
  O  O9  1  0.87500000  0.87500000  0.87500000  1
  O  O10  1  0.82107543  0.42892457  0.42892457  1
  O  O11  1  0.57107543  0.57107543  0.17892457  1
  O  O12  1  0.17892457  0.17892457  0.57107543  1
  O  O13  1  0.57107543  0.17892457  0.17892457  1
  Si  Si14  1  0.50000000  0.00000000  0.50000000  1
  Si  Si15  1  0.00000000  0.50000000  0.50000000  1
  Si  Si16  1  0.50000000  0.50000000  0.00000000  1
  Si  Si17  1  0.50000000  0.50000000  0.50000000  1
  In  In18  1  0.00000000  0.50000000  0.00000000  1
  In  In19  1  0.50000000  0.00000000  0.00000000  1
  In  In20  1  0.00000000  0.00000000  0.50000000  1
  In  In21  1  0.00000000  0.00000000  0.00000000  1
