# generated using pymatgen
data_PbS2O3
_symmetry_space_group_name_H-M   'P 1'
_cell_length_a   7.07700167
_cell_length_b   7.32207013
_cell_length_c   16.43508488
_cell_angle_alpha   90.00000000
_cell_angle_beta   90.00000000
_cell_angle_gamma   90.00000000
_symmetry_Int_Tables_number   1
_chemical_formula_structural   PbS2O3
_chemical_formula_sum   'Pb8 S16 O24'
_cell_volume   851.63820055
_cell_formula_units_Z   8
loop_
 _symmetry_equiv_pos_site_id
 _symmetry_equiv_pos_as_xyz
  1  'x, y, z'
loop_
 _atom_site_type_symbol
 _atom_site_label
 _atom_site_symmetry_multiplicity
 _atom_site_fract_x
 _atom_site_fract_y
 _atom_site_fract_z
 _atom_site_occupancy
  O  O0  1  0.56574494  0.16713592  0.87074318  1
  O  O1  1  0.06574494  0.83286408  0.62925682  1
  O  O2  1  0.93425506  0.66713592  0.12925682  1
  O  O3  1  0.43425506  0.33286408  0.37074318  1
  O  O4  1  0.43425506  0.83286408  0.12925682  1
  O  O5  1  0.93425506  0.16713592  0.37074318  1
  O  O6  1  0.06574494  0.33286408  0.87074318  1
  O  O7  1  0.56574494  0.66713592  0.62925682  1
  O  O8  1  0.53958565  0.85763717  0.92338716  1
  O  O9  1  0.03958565  0.14236283  0.57661284  1
  O  O10  1  0.96041435  0.35763717  0.07661284  1
  O  O11  1  0.46041435  0.64236283  0.42338716  1
  O  O12  1  0.46041435  0.14236283  0.07661284  1
  O  O13  1  0.96041435  0.85763717  0.42338716  1
  O  O14  1  0.03958565  0.64236283  0.92338716  1
  O  O15  1  0.53958565  0.35763717  0.57661284  1
  O  O16  1  0.82592380  0.03636279  0.95224513  1
  O  O17  1  0.32592380  0.96363721  0.54775487  1
  O  O18  1  0.67407620  0.53636279  0.04775487  1
  O  O19  1  0.82592380  0.53636279  0.54775487  1
  O  O20  1  0.17407620  0.96363721  0.04775487  1
  O  O21  1  0.67407620  0.03636279  0.45224513  1
  O  O22  1  0.32592380  0.46363721  0.95224513  1
  O  O23  1  0.17407620  0.46363721  0.45224513  1
  S  S24  1  0.32900392  0.99917751  0.10684894  1
  S  S25  1  0.30397182  0.10772535  0.70830019  1
  S  S26  1  0.69602818  0.39227465  0.20830019  1
  S  S27  1  0.19602818  0.60772535  0.29169981  1
  S  S28  1  0.19602818  0.10772535  0.20830019  1
  S  S29  1  0.69602818  0.89227465  0.29169981  1
  S  S30  1  0.30397182  0.60772535  0.79169981  1
  S  S31  1  0.80397182  0.39227465  0.70830019  1
  S  S32  1  0.67099608  0.00082249  0.89315106  1
  S  S33  1  0.17099608  0.99917751  0.60684894  1
  S  S34  1  0.82900392  0.50082249  0.10684894  1
  S  S35  1  0.32900392  0.49917751  0.39315106  1
  S  S36  1  0.67099608  0.50082249  0.60684894  1
  S  S37  1  0.82900392  0.00082249  0.39315106  1
  S  S38  1  0.17099608  0.49917751  0.89315106  1
  S  S39  1  0.80397182  0.89227465  0.79169981  1
  Pb  Pb40  1  0.65446639  0.52845639  0.87696854  1
  Pb  Pb41  1  0.15446639  0.47154361  0.62303146  1
  Pb  Pb42  1  0.84553361  0.02845639  0.12303146  1
  Pb  Pb43  1  0.34553361  0.97154361  0.37696854  1
  Pb  Pb44  1  0.34553361  0.47154361  0.12303146  1
  Pb  Pb45  1  0.84553361  0.52845639  0.37696854  1
  Pb  Pb46  1  0.15446639  0.97154361  0.87696854  1
  Pb  Pb47  1  0.65446639  0.02845639  0.62303146  1
