# generated using pymatgen
data_KCoO2
_symmetry_space_group_name_H-M   'P 1'
_cell_length_a   5.52814901
_cell_length_b   5.52814901
_cell_length_c   5.52814900
_cell_angle_alpha   96.22140580
_cell_angle_beta   116.47546959
_cell_angle_gamma   116.47546952
_symmetry_Int_Tables_number   1
_chemical_formula_structural   KCoO2
_chemical_formula_sum   'K2 Co2 O4'
_cell_volume   125.02631632
_cell_formula_units_Z   2
loop_
 _symmetry_equiv_pos_site_id
 _symmetry_equiv_pos_as_xyz
  1  'x, y, z'
loop_
 _atom_site_type_symbol
 _atom_site_label
 _atom_site_symmetry_multiplicity
 _atom_site_fract_x
 _atom_site_fract_y
 _atom_site_fract_z
 _atom_site_occupancy
  O  O0  1  0.11959745  0.37500054  0.99459634  1
  O  O1  1  0.38040334  0.00540301  0.12500063  1
  O  O2  1  0.61959667  0.74459559  0.62500062  1
  O  O3  1  0.88040290  0.87499939  0.25540253  1
  K  K4  1  0.49999951  0.24999957  0.74999919  1
  K  K5  1  0.99999899  0.49999915  0.49999860  1
  Co  Co6  1  0.50000135  0.75000079  0.25000038  1
  Co  Co7  1  0.00000000  0.00000000  0.00000000  1
