# generated using pymatgen
data_LaMnGe
_symmetry_space_group_name_H-M   'P 1'
_cell_length_a   4.37578595
_cell_length_b   4.37578595
_cell_length_c   7.10035016
_cell_angle_alpha   90.00000000
_cell_angle_beta   90.00000000
_cell_angle_gamma   90.00000000
_symmetry_Int_Tables_number   1
_chemical_formula_structural   LaMnGe
_chemical_formula_sum   'La2 Mn2 Ge2'
_cell_volume   135.95397372
_cell_formula_units_Z   2
loop_
 _symmetry_equiv_pos_site_id
 _symmetry_equiv_pos_as_xyz
  1  'x, y, z'
loop_
 _atom_site_type_symbol
 _atom_site_label
 _atom_site_symmetry_multiplicity
 _atom_site_fract_x
 _atom_site_fract_y
 _atom_site_fract_z
 _atom_site_occupancy
  Mn  Mn0  1  0.25000000  0.75000000  0.00000000  1
  Mn  Mn1  1  0.75000000  0.25000000  0.00000000  1
  Ge  Ge2  1  0.25000000  0.25000000  0.20036324  1
  Ge  Ge3  1  0.75000000  0.75000000  0.79963676  1
  La  La4  1  0.75000000  0.75000000  0.32370397  1
  La  La5  1  0.25000000  0.25000000  0.67629603  1
