# generated using pymatgen
data_Ho2C3
_symmetry_space_group_name_H-M   'P 1'
_cell_length_a   7.09219748
_cell_length_b   7.09219748
_cell_length_c   7.09219748
_cell_angle_alpha   109.47122067
_cell_angle_beta   109.47122066
_cell_angle_gamma   109.47122059
_symmetry_Int_Tables_number   1
_chemical_formula_structural   Ho2C3
_chemical_formula_sum   'Ho8 C12'
_cell_volume   274.61266874
_cell_formula_units_Z   4
loop_
 _symmetry_equiv_pos_site_id
 _symmetry_equiv_pos_as_xyz
  1  'x, y, z'
loop_
 _atom_site_type_symbol
 _atom_site_label
 _atom_site_symmetry_multiplicity
 _atom_site_fract_x
 _atom_site_fract_y
 _atom_site_fract_z
 _atom_site_occupancy
  C  C0  1  0.25000000  0.54313609  0.29313609  1
  C  C1  1  0.45686391  0.25000000  0.70686391  1
  C  C2  1  0.04313609  0.75000000  0.79313609  1
  C  C3  1  0.79313609  0.04313609  0.75000000  1
  C  C4  1  0.70686391  0.45686391  0.25000000  1
  C  C5  1  0.25000000  0.70686391  0.45686391  1
  C  C6  1  0.95686391  0.20686391  0.75000000  1
  C  C7  1  0.20686391  0.75000000  0.95686391  1
  C  C8  1  0.54313609  0.29313609  0.25000000  1
  C  C9  1  0.29313609  0.25000000  0.54313609  1
  C  C10  1  0.75000000  0.95686391  0.20686391  1
  C  C11  1  0.75000000  0.79313609  0.04313609  1
  Ho  Ho12  1  0.10089792  0.10089792  0.10089792  1
  Ho  Ho13  1  0.89910208  0.50000000  0.00000000  1
  Ho  Ho14  1  0.00000000  0.89910208  0.50000000  1
  Ho  Ho15  1  0.50000000  0.00000000  0.89910208  1
  Ho  Ho16  1  0.00000000  0.39910208  0.50000000  1
  Ho  Ho17  1  0.50000000  0.00000000  0.39910208  1
  Ho  Ho18  1  0.39910208  0.50000000  0.00000000  1
  Ho  Ho19  1  0.60089792  0.60089792  0.60089792  1
