# generated using pymatgen
data_B9H11C2
_symmetry_space_group_name_H-M   'P 1'
_cell_length_a   7.22261153
_cell_length_b   11.26214476
_cell_length_c   22.63239336
_cell_angle_alpha   94.25075360
_cell_angle_beta   90.00000000
_cell_angle_gamma   108.70277070
_symmetry_Int_Tables_number   1
_chemical_formula_structural   B9H11C2
_chemical_formula_sum   'B72 H88 C16'
_cell_volume   1738.40640489
_cell_formula_units_Z   8
loop_
 _symmetry_equiv_pos_site_id
 _symmetry_equiv_pos_as_xyz
  1  'x, y, z'
loop_
 _atom_site_type_symbol
 _atom_site_label
 _atom_site_symmetry_multiplicity
 _atom_site_fract_x
 _atom_site_fract_y
 _atom_site_fract_z
 _atom_site_occupancy
  H  H0  1  0.45084249  0.58782013  0.19740491  1
  H  H1  1  0.18255234  0.12111666  0.29801094  1
  H  H2  1  0.06143568  0.87888334  0.20198906  1
  H  H3  1  0.79486697  0.62140402  0.63490098  1
  H  H4  1  0.17346295  0.37859598  0.86509902  1
  H  H5  1  0.20513303  0.37859598  0.36509902  1
  H  H6  1  0.82653705  0.62140402  0.13490098  1
  H  H7  1  0.14590484  0.63526828  0.56282893  1
  H  H8  1  0.51063656  0.36473172  0.93717107  1
  H  H9  1  0.85409516  0.36473172  0.43717107  1
  H  H10  1  0.48936344  0.63526828  0.06282893  1
  H  H11  1  0.39902916  0.88388240  0.56035758  1
  H  H12  1  0.51514676  0.11611760  0.93964242  1
  H  H13  1  0.60097084  0.11611760  0.43964242  1
  H  H14  1  0.48485324  0.88388240  0.06035758  1
  H  H15  1  0.56622970  0.98608414  0.65624103  1
  H  H16  1  0.58014556  0.01391586  0.84375897  1
  H  H17  1  0.43377030  0.01391586  0.34375897  1
  H  H18  1  0.41985444  0.98608414  0.15624103  1
  H  H19  1  0.53753110  0.61352752  0.74126661  1
  H  H20  1  0.92400358  0.38647248  0.75873339  1
  H  H21  1  0.46246890  0.38647248  0.25873339  1
  H  H22  1  0.07599642  0.61352752  0.24126661  1
  H  H23  1  0.13697763  0.58782013  0.69740491  1
  H  H24  1  0.54915751  0.41217987  0.80259509  1
  H  H25  1  0.86302237  0.41217987  0.30259509  1
  H  H26  1  0.81744766  0.87888334  0.70198906  1
  H  H27  1  0.15080011  0.85777600  0.66861911  1
  H  H28  1  0.29302410  0.14222400  0.83138089  1
  H  H29  1  0.84919989  0.14222400  0.33138089  1
  H  H30  1  0.70697590  0.85777600  0.16861911  1
  H  H31  1  0.45061862  0.85217097  0.75683379  1
  H  H32  1  0.59844765  0.14782903  0.74316621  1
  H  H33  1  0.54938138  0.14782903  0.24316621  1
  H  H34  1  0.40155235  0.85217097  0.25683379  1
  H  H35  1  0.49151515  0.12059163  0.58504702  1
  H  H36  1  0.37092352  0.87940837  0.91495298  1
  H  H37  1  0.50848485  0.87940837  0.41495298  1
  H  H38  1  0.62907648  0.12059163  0.08504702  1
  H  H39  1  0.24511838  0.12833828  0.69898052  1
  H  H40  1  0.11678010  0.87166172  0.80101948  1
  H  H41  1  0.75488162  0.87166172  0.30101948  1
  H  H42  1  0.88321990  0.12833828  0.19898052  1
  H  H43  1  0.04392338  0.99610937  0.57884947  1
  H  H44  1  0.04781400  0.00389063  0.92115053  1
  H  H45  1  0.95607662  0.00389063  0.42115053  1
  H  H46  1  0.95218600  0.99610937  0.07884947  1
  H  H47  1  0.25274700  0.15803431  0.47998607  1
  H  H48  1  0.09471269  0.84196569  0.02001393  1
  H  H49  1  0.74725300  0.84196569  0.52001393  1
  H  H50  1  0.90528731  0.15803431  0.97998607  1
  H  H51  1  0.58526547  0.37993338  0.53784825  1
  H  H52  1  0.20533209  0.62006662  0.96215175  1
  H  H53  1  0.41473453  0.62006662  0.46215175  1
  H  H54  1  0.79466791  0.37993338  0.03784825  1
  H  H55  1  0.56980731  0.35709773  0.67422228  1
  H  H56  1  0.21270957  0.64290227  0.82577772  1
  H  H57  1  0.43019269  0.64290227  0.32577772  1
  H  H58  1  0.78729043  0.35709773  0.17422228  1
  H  H59  1  0.87421568  0.17125061  0.66241117  1
  H  H60  1  0.70296507  0.82874939  0.83758883  1
  H  H61  1  0.12578432  0.82874939  0.33758883  1
  H  H62  1  0.29703493  0.17125061  0.16241117  1
  H  H63  1  0.86559063  0.18940231  0.53063608  1
  H  H64  1  0.73863837  0.78215519  0.62337838  1
  H  H65  1  0.95648318  0.21784481  0.87662162  1
  H  H66  1  0.26136163  0.21784481  0.37662162  1
  H  H67  1  0.04351682  0.78215519  0.12337838  1
  H  H68  1  0.55097609  0.63393198  0.59051195  1
  H  H69  1  0.91704411  0.36606802  0.90948805  1
  H  H70  1  0.44902391  0.36606802  0.40948805  1
  H  H71  1  0.08295589  0.63393198  0.09051195  1
  H  H72  1  0.67618833  0.81059769  0.96936392  1
  H  H73  1  0.13440937  0.81059769  0.46936392  1
  H  H74  1  0.32381167  0.18940231  0.03063608  1
  H  H75  1  0.18899694  0.41809377  0.50581823  1
  H  H76  1  0.77090317  0.58190623  0.99418177  1
  H  H77  1  0.81100306  0.58190623  0.49418177  1
  H  H78  1  0.22909683  0.41809377  0.00581823  1
  H  H79  1  0.19151248  0.36647925  0.70362158  1
  H  H80  1  0.40678702  0.39911979  0.11496311  1
  H  H81  1  0.00766723  0.60088021  0.38503689  1
  H  H82  1  0.59321298  0.60088021  0.88503689  1
  H  H83  1  0.99233277  0.39911979  0.61496311  1
  H  H84  1  0.17496677  0.36647925  0.20362158  1
  H  H85  1  0.80848752  0.63352075  0.29637842  1
  H  H86  1  0.82503323  0.63352075  0.79637842  1
  H  H87  1  0.93856432  0.12111666  0.79801094  1
  B  B88  1  0.82873280  0.41621176  0.87098492  1
  B  B89  1  0.58747896  0.41621176  0.37098492  1
  B  B90  1  0.17126720  0.58378824  0.12901508  1
  B  B91  1  0.27308286  0.68813041  0.59844998  1
  B  B92  1  0.58495245  0.31186959  0.90155002  1
  B  B93  1  0.72691714  0.31186959  0.40155002  1
  B  B94  1  0.41504755  0.68813041  0.09844998  1
  B  B95  1  0.51600385  0.66421720  0.69841340  1
  B  B96  1  0.85178665  0.33578280  0.80158660  1
  B  B97  1  0.48399615  0.33578280  0.30158660  1
  B  B98  1  0.14821335  0.66421720  0.19841340  1
  B  B99  1  0.27450045  0.65743533  0.67433560  1
  B  B100  1  0.61706513  0.34256467  0.82566440  1
  B  B101  1  0.72549955  0.34256467  0.32566440  1
  B  B102  1  0.38293487  0.65743533  0.17433560  1
  B  B103  1  0.26699960  0.80581255  0.65673220  1
  B  B104  1  0.46118705  0.19418745  0.84326780  1
  B  B105  1  0.73300040  0.19418745  0.34326780  1
  B  B106  1  0.53881295  0.80581255  0.15673220  1
  B  B107  1  0.44222968  0.80010256  0.70868215  1
  B  B108  1  0.64212712  0.19989744  0.79131785  1
  B  B109  1  0.55777032  0.19989744  0.29131785  1
  B  B110  1  0.35787288  0.80010256  0.20868215  1
  B  B111  1  0.38076197  0.17976341  0.59005023  1
  B  B112  1  0.20099856  0.82023659  0.90994977  1
  B  B113  1  0.61923803  0.82023659  0.40994977  1
  B  B114  1  0.79900144  0.17976341  0.09005023  1
  B  B115  1  0.24117393  0.17838669  0.65474386  1
  B  B116  1  0.06278724  0.82161331  0.84525614  1
  B  B117  1  0.75882607  0.82161331  0.34525614  1
  B  B118  1  0.93721276  0.17838669  0.15474386  1
  B  B119  1  0.12151500  0.10692799  0.58626016  1
  B  B120  1  0.01458702  0.89307201  0.91373984  1
  B  B121  1  0.87848500  0.89307201  0.41373984  1
  B  B122  1  0.98541298  0.10692799  0.08626016  1
  B  B123  1  0.24331682  0.20195594  0.52914518  1
  B  B124  1  0.04136089  0.79804406  0.97085482  1
  B  B125  1  0.75668318  0.79804406  0.47085482  1
  B  B126  1  0.95863911  0.20195594  0.02914518  1
  B  B127  1  0.43717525  0.33153177  0.56252207  1
  B  B128  1  0.10564348  0.66846823  0.93747793  1
  B  B129  1  0.56282475  0.66846823  0.43747793  1
  B  B130  1  0.89435652  0.33153177  0.06252207  1
  B  B131  1  0.43518804  0.31658233  0.63997286  1
  B  B132  1  0.11860572  0.68341767  0.86002714  1
  B  B133  1  0.56481196  0.68341767  0.36002714  1
  B  B134  1  0.88139428  0.31658233  0.13997286  1
  B  B135  1  0.01711255  0.19847790  0.63368262  1
  B  B136  1  0.81863465  0.80152210  0.86631738  1
  B  B137  1  0.98288745  0.80152210  0.36631738  1
  B  B138  1  0.18136535  0.19847790  0.13368262  1
  B  B139  1  0.01872766  0.21398456  0.55619946  1
  B  B140  1  0.80474310  0.78601544  0.94380054  1
  B  B141  1  0.98127234  0.78601544  0.44380054  1
  B  B142  1  0.19525690  0.21398456  0.05619946  1
  B  B143  1  0.21302621  0.35212094  0.54171789  1
  B  B144  1  0.86090527  0.64787906  0.95828211  1
  B  B145  1  0.78697379  0.64787906  0.45828211  1
  B  B146  1  0.13909473  0.35212094  0.04171789  1
  B  B147  1  0.33510755  0.42650824  0.60999434  1
  B  B148  1  0.90859931  0.57349176  0.89000566  1
  B  B149  1  0.66489245  0.57349176  0.39000566  1
  B  B150  1  0.09140069  0.42650824  0.10999434  1
  B  B151  1  0.99979942  0.66550612  0.13914924  1
  B  B152  1  0.33429330  0.33449388  0.36085076  1
  B  B153  1  0.00020058  0.33449388  0.86085076  1
  B  B154  1  0.66570670  0.66550612  0.63914924  1
  B  B155  1  0.13755877  0.81186405  0.17585279  1
  B  B156  1  0.32569472  0.18813595  0.32414721  1
  B  B157  1  0.86244123  0.18813595  0.82414721  1
  B  B158  1  0.41252104  0.58378824  0.62901508  1
  B  B159  1  0.67430528  0.81186405  0.67585279  1
  C  C160  1  0.40438535  0.82335734  0.59532175  1
  C  C161  1  0.58102801  0.17664266  0.90467825  1
  C  C162  1  0.59561465  0.17664266  0.40467825  1
  C  C163  1  0.41897199  0.82335734  0.09532175  1
  C  C164  1  0.51154591  0.88377429  0.65025950  1
  C  C165  1  0.62777162  0.11622571  0.84974050  1
  C  C166  1  0.48845409  0.11622571  0.34974050  1
  C  C167  1  0.37222838  0.88377429  0.15025950  1
  C  C168  1  0.21358266  0.32283646  0.66082540  1
  C  C169  1  0.89074620  0.67716354  0.83917460  1
  C  C170  1  0.78641734  0.67716354  0.33917460  1
  C  C171  1  0.10925380  0.32283646  0.16082540  1
  C  C172  1  0.08781864  0.34290651  0.60518681  1
  C  C173  1  0.74491213  0.65709349  0.89481319  1
  C  C174  1  0.91218136  0.65709349  0.39481319  1
  C  C175  1  0.25508787  0.34290651  0.10518681  1
