# generated using pymatgen
data_Cr4As3
_symmetry_space_group_name_H-M   'P 1'
_cell_length_a   3.57248755
_cell_length_b   6.75026020
_cell_length_c   9.32520299
_cell_angle_alpha   103.15065044
_cell_angle_beta   90.00000000
_cell_angle_gamma   105.34429001
_symmetry_Int_Tables_number   1
_chemical_formula_structural   Cr4As3
_chemical_formula_sum   'Cr8 As6'
_cell_volume   210.74146989
_cell_formula_units_Z   2
loop_
 _symmetry_equiv_pos_site_id
 _symmetry_equiv_pos_as_xyz
  1  'x, y, z'
loop_
 _atom_site_type_symbol
 _atom_site_label
 _atom_site_symmetry_multiplicity
 _atom_site_fract_x
 _atom_site_fract_y
 _atom_site_fract_z
 _atom_site_occupancy
  Cr  Cr0  1  0.00446896  0.00893891  0.99994105  1
  Cr  Cr1  1  0.65272685  0.30545469  0.44602402  1
  Cr  Cr2  1  0.35775513  0.71551026  0.55228861  1
  Cr  Cr3  1  0.22252089  0.44504279  0.16570331  1
  Cr  Cr4  1  0.78702018  0.57404037  0.83287290  1
  Cr  Cr5  1  0.43843735  0.87687471  0.29696521  1
  Cr  Cr6  1  0.57148835  0.14297671  0.70064463  1
  Cr  Cr7  1  0.00517759  0.01035418  0.49959797  1
  As  As8  1  0.06706946  0.13413992  0.27089188  1
  As  As9  1  0.94311850  0.88623700  0.72840023  1
  As  As10  1  0.36558374  0.73116647  0.01973505  1
  As  As11  1  0.64320477  0.28640854  0.97853973  1
  As  As12  1  0.81604478  0.63208956  0.34988387  1
  As  As13  1  0.19438345  0.38876690  0.64851254  1
