# generated using pymatgen
data_Li3MnPCO7
_symmetry_space_group_name_H-M   'P 1'
_cell_length_a   5.00708166
_cell_length_b   6.58497117
_cell_length_c   8.62497777
_cell_angle_alpha   90.00000000
_cell_angle_beta   84.25841808
_cell_angle_gamma   90.00000000
_symmetry_Int_Tables_number   1
_chemical_formula_structural   Li3MnPCO7
_chemical_formula_sum   'Li6 Mn2 P2 C2 O14'
_cell_volume   282.95169277
_cell_formula_units_Z   2
loop_
 _symmetry_equiv_pos_site_id
 _symmetry_equiv_pos_as_xyz
  1  'x, y, z'
loop_
 _atom_site_type_symbol
 _atom_site_label
 _atom_site_symmetry_multiplicity
 _atom_site_fract_x
 _atom_site_fract_y
 _atom_site_fract_z
 _atom_site_occupancy
  Li  Li0  1  0.73764149  0.97879637  0.73311471  1
  Li  Li1  1  0.26235851  0.02120363  0.26688529  1
  Li  Li2  1  0.78392483  0.25000000  0.10460013  1
  Li  Li3  1  0.21607517  0.75000000  0.89539987  1
  Li  Li4  1  0.26235851  0.47879637  0.26688529  1
  Li  Li5  1  0.73764149  0.52120363  0.73311471  1
  C  C6  1  0.68782222  0.75000000  0.03749455  1
  C  C7  1  0.31217778  0.25000000  0.96250545  1
  O  O8  1  0.49692162  0.25000000  0.84380128  1
  O  O9  1  0.93663231  0.75000000  0.06429003  1
  O  O10  1  0.18325479  0.75000000  0.42326413  1
  O  O11  1  0.50307838  0.75000000  0.15619872  1
  O  O12  1  0.15653665  0.56566427  0.69007812  1
  O  O13  1  0.81674521  0.25000000  0.57673587  1
  O  O14  1  0.15653665  0.93433573  0.69007812  1
  O  O15  1  0.84346335  0.43433573  0.30992188  1
  O  O16  1  0.84346335  0.06566427  0.30992188  1
  O  O17  1  0.41796995  0.25000000  0.42098313  1
  O  O18  1  0.61692434  0.75000000  0.89612835  1
  O  O19  1  0.38307566  0.25000000  0.10387165  1
  O  O20  1  0.58203005  0.75000000  0.57901687  1
  O  O21  1  0.06336769  0.25000000  0.93570997  1
  P  P22  1  0.73199771  0.25000000  0.40936806  1
  P  P23  1  0.26800229  0.75000000  0.59063194  1
  Mn  Mn24  1  0.77928041  0.75000000  0.34345030  1
  Mn  Mn25  1  0.22071959  0.25000000  0.65654970  1
