# generated using pymatgen
data_LuMnO3
_symmetry_space_group_name_H-M   'P 1'
_cell_length_a   5.24204629
_cell_length_b   5.77808719
_cell_length_c   7.43592441
_cell_angle_alpha   90.00000000
_cell_angle_beta   90.00000000
_cell_angle_gamma   90.00000000
_symmetry_Int_Tables_number   1
_chemical_formula_structural   LuMnO3
_chemical_formula_sum   'Lu4 Mn4 O12'
_cell_volume   225.22671830
_cell_formula_units_Z   4
loop_
 _symmetry_equiv_pos_site_id
 _symmetry_equiv_pos_as_xyz
  1  'x, y, z'
loop_
 _atom_site_type_symbol
 _atom_site_label
 _atom_site_symmetry_multiplicity
 _atom_site_fract_x
 _atom_site_fract_y
 _atom_site_fract_z
 _atom_site_occupancy
  O  O0  1  0.69641693  0.32771339  0.43809782  1
  O  O1  1  0.19641606  0.17228721  0.56190186  1
  O  O2  1  0.80358376  0.82771399  0.06190135  1
  O  O3  1  0.30358289  0.67228605  0.93809833  1
  O  O4  1  0.30358289  0.67228605  0.56190186  1
  O  O5  1  0.80358376  0.82771399  0.43809782  1
  O  O6  1  0.19641606  0.17228721  0.93809833  1
  O  O7  1  0.69641693  0.32771339  0.06190135  1
  O  O8  1  0.13072267  0.44955863  0.25000026  1
  O  O9  1  0.63072354  0.05044021  0.74999943  1
  O  O10  1  0.86927716  0.55044081  0.74999943  1
  O  O11  1  0.36927628  0.94955923  0.25000026  1
  Mn  Mn12  1  0.50000087  0.00000000  0.50000051  1
  Mn  Mn13  1  0.00000000  0.50000060  0.50000051  1
  Mn  Mn14  1  0.00000000  0.50000060  0.00000000  1
  Mn  Mn15  1  0.50000087  0.00000000  0.00000000  1
  Lu  Lu16  1  0.02042575  0.91647594  0.74999943  1
  Lu  Lu17  1  0.52042662  0.58352233  0.25000026  1
  Lu  Lu18  1  0.47957320  0.41647711  0.74999943  1
  Lu  Lu19  1  0.97957408  0.08352349  0.25000026  1
