# generated using pymatgen
data_SrH2N2O5
_symmetry_space_group_name_H-M   'P 1'
_cell_length_a   4.54314399
_cell_length_b   9.07200363
_cell_length_c   12.75231253
_cell_angle_alpha   90.00000000
_cell_angle_beta   99.38938933
_cell_angle_gamma   90.00000000
_symmetry_Int_Tables_number   1
_chemical_formula_structural   SrH2N2O5
_chemical_formula_sum   'Sr4 H8 N8 O20'
_cell_volume   518.55022691
_cell_formula_units_Z   4
loop_
 _symmetry_equiv_pos_site_id
 _symmetry_equiv_pos_as_xyz
  1  'x, y, z'
loop_
 _atom_site_type_symbol
 _atom_site_label
 _atom_site_symmetry_multiplicity
 _atom_site_fract_x
 _atom_site_fract_y
 _atom_site_fract_z
 _atom_site_occupancy
  H  H0  1  0.90476199  0.42783127  0.21694901  1
  H  H1  1  0.09523801  0.92783127  0.78305099  1
  H  H2  1  0.84236946  0.52783423  0.30763823  1
  H  H3  1  0.15763054  0.02783423  0.69236177  1
  H  H4  1  0.85824440  0.11235292  0.83086155  1
  H  H5  1  0.14175560  0.61235292  0.16913845  1
  H  H6  1  0.38934047  0.48734104  0.18131156  1
  H  H7  1  0.61065953  0.98734104  0.81868844  1
  N  N8  1  0.52723696  0.23846814  0.01536546  1
  N  N9  1  0.47276304  0.73846814  0.98463454  1
  N  N10  1  0.52880873  0.98610403  0.49720099  1
  N  N11  1  0.47119127  0.48610403  0.50279901  1
  N  N12  1  0.99225370  0.31101514  0.69123604  1
  N  N13  1  0.00774630  0.81101514  0.30876396  1
  N  N14  1  0.57377551  0.62227303  0.73146299  1
  N  N15  1  0.42622449  0.12227303  0.26853701  1
  O  O16  1  0.61989561  0.86052959  0.53421695  1
  O  O17  1  0.38010439  0.36052959  0.46578305  1
  O  O18  1  0.50916632  0.54363450  0.80605287  1
  O  O19  1  0.49083368  0.04363450  0.19394713  1
  O  O20  1  0.85088683  0.65178337  0.73840742  1
  O  O21  1  0.14911317  0.15178337  0.26159258  1
  O  O22  1  0.74668455  0.50726719  0.50422936  1
  O  O23  1  0.25331545  0.00726719  0.49577064  1
  O  O24  1  0.01127982  0.78368546  0.21103831  1
  O  O25  1  0.98872018  0.28368546  0.78896169  1
  O  O26  1  0.02540575  0.69730763  0.36799579  1
  O  O27  1  0.97459425  0.19730763  0.63200421  1
  O  O28  1  0.80683674  0.01501713  0.85963661  1
  O  O29  1  0.19316326  0.51501713  0.14036339  1
  O  O30  1  0.60435616  0.36618656  0.98925464  1
  O  O31  1  0.39564384  0.86618656  0.01074536  1
  O  O32  1  0.24758107  0.22266715  0.00993167  1
  O  O33  1  0.75241893  0.72266715  0.99006833  1
  O  O34  1  0.23058817  0.93533226  0.72970933  1
  O  O35  1  0.76941183  0.43533226  0.27029067  1
  Sr  Sr36  1  0.87933574  0.22419163  0.42365467  1
  Sr  Sr37  1  0.12066426  0.72419163  0.57634533  1
  Sr  Sr38  1  0.06641827  0.49965770  0.92788088  1
  Sr  Sr39  1  0.93358173  0.99965770  0.07211912  1
