# generated using pymatgen
data_USbO5
_symmetry_space_group_name_H-M   'P 1'
_cell_length_a   5.52358061
_cell_length_b   5.51811881
_cell_length_c   7.62156678
_cell_angle_alpha   69.90836482
_cell_angle_beta   69.92391982
_cell_angle_gamma   73.26411079
_symmetry_Int_Tables_number   1
_chemical_formula_structural   USbO5
_chemical_formula_sum   'U2 Sb2 O10'
_cell_volume   201.06695526
_cell_formula_units_Z   2
loop_
 _symmetry_equiv_pos_site_id
 _symmetry_equiv_pos_as_xyz
  1  'x, y, z'
loop_
 _atom_site_type_symbol
 _atom_site_label
 _atom_site_symmetry_multiplicity
 _atom_site_fract_x
 _atom_site_fract_y
 _atom_site_fract_z
 _atom_site_occupancy
  U  U0  1  0.52983404  0.47010363  0.24982210  1
  U  U1  1  0.47016596  0.52989637  0.75017790  1
  Sb  Sb2  1  0.00000000  0.00000000  0.50000000  1
  Sb  Sb3  1  0.00000000  0.00000000  -0.00000000  1
  O  O4  1  0.26975154  0.23101887  0.37039117  1
  O  O5  1  0.73024846  0.76898113  0.62960883  1
  O  O6  1  0.77418602  0.72523634  0.12746313  1
  O  O7  1  0.22581398  0.27476366  0.87253687  1
  O  O8  1  0.90827446  0.08766628  0.25100740  1
  O  O9  1  0.09172554  0.91233372  0.74899260  1
  O  O10  1  0.29276746  0.69246617  0.46668801  1
  O  O11  1  0.70723254  0.30753383  0.53331199  1
  O  O12  1  0.68956833  0.28943192  0.96818269  1
  O  O13  1  0.31043167  0.71056808  0.03181731  1
