# generated using pymatgen
data_Fe5C2
_symmetry_space_group_name_H-M   'P 1'
_cell_length_a   4.51222718
_cell_length_b   4.99160238
_cell_length_c   11.53055630
_cell_angle_alpha   82.55417375
_cell_angle_beta   90.07676257
_cell_angle_gamma   90.15470649
_symmetry_Int_Tables_number   1
_chemical_formula_structural   Fe5C2
_chemical_formula_sum   'Fe20 C8'
_cell_volume   257.51458462
_cell_formula_units_Z   4
loop_
 _symmetry_equiv_pos_site_id
 _symmetry_equiv_pos_as_xyz
  1  'x, y, z'
loop_
 _atom_site_type_symbol
 _atom_site_label
 _atom_site_symmetry_multiplicity
 _atom_site_fract_x
 _atom_site_fract_y
 _atom_site_fract_z
 _atom_site_occupancy
  Fe  Fe0  1  0.33462840  0.41382835  0.65356433  1
  Fe  Fe1  1  0.66537160  0.58617165  0.34643567  1
  Fe  Fe2  1  0.83197031  0.08523734  0.34641273  1
  Fe  Fe3  1  0.16802969  0.91476266  0.65358727  1
  Fe  Fe4  1  0.33649963  0.08179829  0.84977070  1
  Fe  Fe5  1  0.66350037  0.91820171  0.15022930  1
  Fe  Fe6  1  0.83292381  0.41636802  0.15171635  1
  Fe  Fe7  1  0.16707619  0.58363198  0.84828365  1
  Fe  Fe8  1  0.83515997  0.30986492  0.53439621  1
  Fe  Fe9  1  0.16484003  0.69013508  0.46560379  1
  Fe  Fe10  1  0.33482069  0.19056005  0.46506767  1
  Fe  Fe11  1  0.66517931  0.80943995  0.53493233  1
  Fe  Fe12  1  0.83587522  0.19120925  0.96356742  1
  Fe  Fe13  1  0.16412478  0.80879075  0.03643258  1
  Fe  Fe14  1  0.33545794  0.30910328  0.03660783  1
  Fe  Fe15  1  0.66454206  0.69089672  0.96339217  1
  Fe  Fe16  1  0.82238953  0.24956564  0.74940251  1
  Fe  Fe17  1  0.17761047  0.75043436  0.25059749  1
  Fe  Fe18  1  0.31946204  0.24984981  0.25046324  1
  Fe  Fe19  1  0.68053796  0.75015019  0.74953676  1
  C  C20  1  0.56442857  0.07849811  0.63613503  1
  C  C21  1  0.43557143  0.92150189  0.36386497  1
  C  C22  1  0.06195407  0.42150195  0.36399835  1
  C  C23  1  0.93804593  0.57849805  0.63600165  1
  C  C24  1  0.56459393  0.42163152  0.86208672  1
  C  C25  1  0.43540607  0.57836848  0.13791328  1
  C  C26  1  0.06211445  0.07762407  0.13746546  1
  C  C27  1  0.93788555  0.92237593  0.86253454  1
