# generated using pymatgen
data_MnReO4
_symmetry_space_group_name_H-M   'P 1'
_cell_length_a   4.81116737
_cell_length_b   5.15467418
_cell_length_c   5.75614062
_cell_angle_alpha   90.00000000
_cell_angle_beta   90.00000000
_cell_angle_gamma   92.71761499
_symmetry_Int_Tables_number   1
_chemical_formula_structural   MnReO4
_chemical_formula_sum   'Mn2 Re2 O8'
_cell_volume   142.59174159
_cell_formula_units_Z   2
loop_
 _symmetry_equiv_pos_site_id
 _symmetry_equiv_pos_as_xyz
  1  'x, y, z'
loop_
 _atom_site_type_symbol
 _atom_site_label
 _atom_site_symmetry_multiplicity
 _atom_site_fract_x
 _atom_site_fract_y
 _atom_site_fract_z
 _atom_site_occupancy
  O  O0  1  0.74074937  0.11149057  0.37073900  1
  O  O1  1  0.25925100  0.38850955  0.37073900  1
  O  O2  1  0.25925085  0.88851020  0.62926156  1
  O  O3  1  0.74074922  0.61149122  0.62926156  1
  O  O4  1  0.79294025  0.05840857  0.89642166  1
  O  O5  1  0.20705800  0.44159155  0.89642166  1
  O  O6  1  0.79294213  0.55840726  0.10357714  1
  O  O7  1  0.20705785  0.94159220  0.10357714  1
  Mn  Mn8  1  0.49999912  0.25000006  0.67311404  1
  Mn  Mn9  1  0.49999897  0.75000071  0.32688477  1
  Re  Re10  1  0.99999992  0.25000032  0.16715991  1
  Re  Re11  1  0.99999977  0.75000097  0.83284065  1
