# generated using pymatgen
data_SrThBr6
_symmetry_space_group_name_H-M   'P 1'
_cell_length_a   4.28545969
_cell_length_b   9.37859076
_cell_length_c   13.47064525
_cell_angle_alpha   90.00000000
_cell_angle_beta   90.00000000
_cell_angle_gamma   90.00000000
_symmetry_Int_Tables_number   1
_chemical_formula_structural   SrThBr6
_chemical_formula_sum   'Sr2 Th2 Br12'
_cell_volume   541.40641722
_cell_formula_units_Z   2
loop_
 _symmetry_equiv_pos_site_id
 _symmetry_equiv_pos_as_xyz
  1  'x, y, z'
loop_
 _atom_site_type_symbol
 _atom_site_label
 _atom_site_symmetry_multiplicity
 _atom_site_fract_x
 _atom_site_fract_y
 _atom_site_fract_z
 _atom_site_occupancy
  Br  Br0  1  0.50000000  0.57663637  0.64748752  1
  Br  Br1  1  0.50000000  0.42336363  0.35251248  1
  Br  Br2  1  0.50000000  0.07663637  0.35251248  1
  Br  Br3  1  0.50000000  0.92336363  0.64748752  1
  Br  Br4  1  0.50000000  0.75000000  0.90185297  1
  Br  Br5  1  0.50000000  0.25000000  0.09814703  1
  Br  Br6  1  0.00000000  0.75000000  0.42445032  1
  Br  Br7  1  0.00000000  0.25000000  0.57554968  1
  Br  Br8  1  0.00000000  0.54578132  0.15664279  1
  Br  Br9  1  0.00000000  0.45421868  0.84335721  1
  Br  Br10  1  0.00000000  0.04578132  0.84335721  1
  Br  Br11  1  0.00000000  0.95421868  0.15664279  1
  Sr  Sr12  1  0.50000000  0.75000000  0.26898530  1
  Sr  Sr13  1  0.50000000  0.25000000  0.73101470  1
  Th  Th14  1  0.00000000  0.75000000  0.75157067  1
  Th  Th15  1  0.00000000  0.25000000  0.24842933  1
