# generated using pymatgen
data_UNb2O7
_symmetry_space_group_name_H-M   'P 1'
_cell_length_a   3.81768296
_cell_length_b   6.54308265
_cell_length_c   10.81807711
_cell_angle_alpha   90.00000000
_cell_angle_beta   100.16300597
_cell_angle_gamma   90.00000000
_symmetry_Int_Tables_number   1
_chemical_formula_structural   UNb2O7
_chemical_formula_sum   'U2 Nb4 O14'
_cell_volume   265.98927255
_cell_formula_units_Z   2
loop_
 _symmetry_equiv_pos_site_id
 _symmetry_equiv_pos_as_xyz
  1  'x, y, z'
loop_
 _atom_site_type_symbol
 _atom_site_label
 _atom_site_symmetry_multiplicity
 _atom_site_fract_x
 _atom_site_fract_y
 _atom_site_fract_z
 _atom_site_occupancy
  O  O0  1  0.65286990  0.05577357  0.30573980  1
  O  O1  1  0.34713010  0.94422643  0.69426020  1
  O  O2  1  0.34713010  0.55577357  0.69426020  1
  O  O3  1  0.65286990  0.44422643  0.30573980  1
  O  O4  1  0.75100475  0.75000000  0.50200950  1
  O  O5  1  0.24899525  0.25000000  0.49799050  1
  O  O6  1  0.45060502  0.25000000  0.90121003  1
  O  O7  1  0.54939498  0.75000000  0.09878997  1
  O  O8  1  0.86335916  0.25000000  0.72671832  1
  O  O9  1  0.13664084  0.75000000  0.27328168  1
  O  O10  1  0.05190662  0.43444060  0.10381324  1
  O  O11  1  0.94809338  0.56555940  0.89618676  1
  O  O12  1  0.94809338  0.93444060  0.89618676  1
  O  O13  1  0.05190662  0.06555940  0.10381324  1
  Nb  Nb14  1  0.66440415  0.75000000  0.32880830  1
  Nb  Nb15  1  0.33559585  0.25000000  0.67119170  1
  Nb  Nb16  1  0.02394102  0.75000000  0.04788205  1
  Nb  Nb17  1  0.97605898  0.25000000  0.95211795  1
  U  U18  1  0.14363067  0.25000000  0.28726134  1
  U  U19  1  0.85636933  0.75000000  0.71273866  1
