# generated using pymatgen
data_LiCrPO5
_symmetry_space_group_name_H-M   'P 1'
_cell_length_a   7.09846728
_cell_length_b   6.40922756
_cell_length_c   7.45676904
_cell_angle_alpha   90.00000000
_cell_angle_beta   90.00000000
_cell_angle_gamma   90.00000000
_symmetry_Int_Tables_number   1
_chemical_formula_structural   LiCrPO5
_chemical_formula_sum   'Li4 Cr4 P4 O20'
_cell_volume   339.25086849
_cell_formula_units_Z   4
loop_
 _symmetry_equiv_pos_site_id
 _symmetry_equiv_pos_as_xyz
  1  'x, y, z'
loop_
 _atom_site_type_symbol
 _atom_site_label
 _atom_site_symmetry_multiplicity
 _atom_site_fract_x
 _atom_site_fract_y
 _atom_site_fract_z
 _atom_site_occupancy
  Li  Li0  1  0.00000000  0.00000000  0.00000000  1
  Li  Li1  1  0.50000003  0.50000065  0.50000037  1
  Li  Li2  1  0.50000003  0.00000000  0.50000037  1
  Li  Li3  1  0.00000000  0.50000065  0.00000000  1
  O  O4  1  0.12910921  0.94109113  0.75370630  1
  O  O5  1  0.87089085  0.05890861  0.24629310  1
  O  O6  1  0.87089085  0.44109204  0.24629310  1
  O  O7  1  0.88999281  0.25000033  0.81793950  1
  O  O8  1  0.05540657  0.25000033  0.48646578  1
  O  O9  1  0.11000724  0.74999941  0.18206124  1
  O  O10  1  0.12910921  0.55890769  0.75370630  1
  O  O11  1  0.38999278  0.25000033  0.68206027  1
  O  O12  1  0.19451905  0.25000033  0.00448780  1
  O  O13  1  0.80548100  0.74999941  0.99551160  1
  O  O14  1  0.37089082  0.05890861  0.25370727  1
  O  O15  1  0.37089082  0.44109204  0.25370727  1
  O  O16  1  0.94459348  0.74999941  0.51353497  1
  O  O17  1  0.44459345  0.74999941  0.98646615  1
  O  O18  1  0.55540660  0.25000033  0.01353459  1
  O  O19  1  0.61000727  0.74999941  0.31793913  1
  O  O20  1  0.62910923  0.55890769  0.74629347  1
  O  O21  1  0.62910923  0.94109113  0.74629347  1
  O  O22  1  0.69451908  0.25000033  0.49551257  1
  O  O23  1  0.30548097  0.74999941  0.50448817  1
  P  P24  1  0.12679369  0.74999941  0.62655504  1
  P  P25  1  0.37320633  0.25000033  0.12655467  1
  P  P26  1  0.62679372  0.74999941  0.87344473  1
  P  P27  1  0.87320636  0.25000033  0.37344436  1
  Cr  Cr28  1  0.86407409  0.74999941  0.27055783  1
  Cr  Cr29  1  0.63592599  0.25000033  0.77055820  1
  Cr  Cr30  1  0.36407407  0.74999941  0.22944121  1
  Cr  Cr31  1  0.13592596  0.25000033  0.72944158  1
