# generated using pymatgen
data_LiNiPO4
_symmetry_space_group_name_H-M   'P 1'
_cell_length_a   7.40653246
_cell_length_b   7.40657982
_cell_length_c   9.47886292
_cell_angle_alpha   89.99985116
_cell_angle_beta   90.00002910
_cell_angle_gamma   120.00071373
_symmetry_Int_Tables_number   1
_chemical_formula_structural   LiNiPO4
_chemical_formula_sum   'Li6 Ni6 P6 O24'
_cell_volume   450.31497497
_cell_formula_units_Z   6
loop_
 _symmetry_equiv_pos_site_id
 _symmetry_equiv_pos_as_xyz
  1  'x, y, z'
loop_
 _atom_site_type_symbol
 _atom_site_label
 _atom_site_symmetry_multiplicity
 _atom_site_fract_x
 _atom_site_fract_y
 _atom_site_fract_z
 _atom_site_occupancy
  Li  Li0  1  0.20790670  0.95049328  0.25117320  1
  Li  Li1  1  0.04950417  0.25741015  0.25117642  1
  Li  Li2  1  0.25741500  0.04950487  0.75117367  1
  Li  Li3  1  0.74258360  0.79208959  0.25117379  1
  Li  Li4  1  0.79209212  0.74258652  0.75117333  1
  Li  Li5  1  0.95049347  0.20790451  0.75117607  1
  O  O6  1  0.10343032  0.87604421  0.44218437  1
  O  O7  1  0.88750526  0.39165343  0.32332196  1
  O  O8  1  0.70762431  0.15878121  0.62422029  1
  O  O9  1  0.84122048  0.54884053  0.62421966  1
  O  O10  1  0.89656869  0.77261143  0.94218394  1
  O  O11  1  0.66666589  0.33333208  0.84329578  1
  O  O12  1  0.99999791  0.99999785  0.16260992  1
  O  O13  1  0.00000111  1.00000016  0.66261021  1
  O  O14  1  0.87603692  0.10342384  0.94218466  1
  O  O15  1  0.15878026  0.70761812  0.12421924  1
  O  O16  1  0.11249447  0.50414549  0.82332055  1
  O  O17  1  0.39165437  0.88751134  0.82332223  1
  O  O18  1  0.33333211  0.66666474  0.34329552  1
  O  O19  1  0.33333910  0.66667119  0.60605623  1
  O  O20  1  0.12396370  0.22738904  0.44218471  1
  O  O21  1  0.66666289  0.33333103  0.10605631  1
  O  O22  1  0.54883862  0.84121482  0.12421856  1
  O  O23  1  0.22738359  0.12395782  0.94218229  1
  O  O24  1  0.49585851  0.60834990  0.82332149  1
  O  O25  1  0.45116144  0.29237799  0.62421752  1
  O  O26  1  0.77261554  0.89657440  0.44218279  1
  O  O27  1  0.60834622  0.49585907  0.32331996  1
  O  O28  1  0.50414176  0.11249261  0.32332278  1
  O  O29  1  0.29237526  0.45115408  0.12421877  1
  P  P30  1  0.99999596  0.99999779  1.00002663  1
  P  P31  1  0.66666843  0.33333333  0.67371299  1
  P  P32  1  0.66666556  0.33333328  0.27491252  1
  P  P33  1  0.33333464  0.66666698  0.77491243  1
  P  P34  1  0.00000332  0.00000193  0.50002671  1
  P  P35  1  0.33333042  0.66666260  0.17371301  1
  Ni  Ni36  1  0.05927908  0.59103707  0.47552675  1
  Ni  Ni37  1  0.53175625  0.94072637  0.47552792  1
  Ni  Ni38  1  0.40897495  0.46825707  0.47552491  1
  Ni  Ni39  1  0.46824748  0.40896642  0.97552270  1
  Ni  Ni40  1  0.59102767  0.05927578  0.97552906  1
  Ni  Ni41  1  0.94072158  0.53175639  0.97552632  1
