# generated using pymatgen
data_MgAl2O4
_symmetry_space_group_name_H-M   'P 1'
_cell_length_a   5.78746289
_cell_length_b   5.74858033
_cell_length_c   5.74858067
_cell_angle_alpha   60.00000227
_cell_angle_beta   60.22199844
_cell_angle_gamma   60.22199649
_symmetry_Int_Tables_number   1
_chemical_formula_structural   MgAl2O4
_chemical_formula_sum   'Mg2 Al4 O8'
_cell_volume   135.68867879
_cell_formula_units_Z   2
loop_
 _symmetry_equiv_pos_site_id
 _symmetry_equiv_pos_as_xyz
  1  'x, y, z'
loop_
 _atom_site_type_symbol
 _atom_site_label
 _atom_site_symmetry_multiplicity
 _atom_site_fract_x
 _atom_site_fract_y
 _atom_site_fract_z
 _atom_site_occupancy
  Al  Al0  1  0.49668703  0.49644291  0.01042715  1
  Al  Al1  1  0.49668703  0.49644291  0.49644291  1
  Al  Al2  1  0.49668703  0.01042715  0.49644291  1
  Al  Al3  1  0.85912877  0.88029041  0.88029041  1
  Mg  Mg4  1  0.13393474  0.12202175  0.12202175  1
  Mg  Mg5  1  0.00400487  0.49866504  0.49866504  1
  O  O6  1  0.28286679  0.25256169  0.25256169  1
  O  O7  1  0.28286679  0.25256169  0.71200984  1
  O  O8  1  0.28286679  0.71200984  0.25256169  1
  O  O9  1  0.71959603  0.26013466  0.26013466  1
  O  O10  1  0.26245918  0.74584694  0.74584694  1
  O  O11  1  0.72740499  0.27041692  0.75108904  1
  O  O12  1  0.72740499  0.75108904  0.27041692  1
  O  O13  1  0.72740499  0.75108904  0.75108904  1
