# generated using pymatgen
data_Sb(PO3)4
_symmetry_space_group_name_H-M   'P 1'
_cell_length_a   5.38504247
_cell_length_b   14.05847211
_cell_length_c   7.38693575
_cell_angle_alpha   90.00000000
_cell_angle_beta   99.19229199
_cell_angle_gamma   90.00000000
_symmetry_Int_Tables_number   1
_chemical_formula_structural   Sb(PO3)4
_chemical_formula_sum   'Sb2 P8 O24'
_cell_volume   552.04965653
_cell_formula_units_Z   2
loop_
 _symmetry_equiv_pos_site_id
 _symmetry_equiv_pos_as_xyz
  1  'x, y, z'
loop_
 _atom_site_type_symbol
 _atom_site_label
 _atom_site_symmetry_multiplicity
 _atom_site_fract_x
 _atom_site_fract_y
 _atom_site_fract_z
 _atom_site_occupancy
  Sb  Sb0  1  0.48599926  0.26239980  0.48658172  1
  Sb  Sb1  1  0.51400074  0.76239980  0.51341828  1
  P  P2  1  0.00038397  0.11885133  0.55976940  1
  P  P3  1  0.02703782  0.90217265  0.56410808  1
  P  P4  1  0.99961603  0.61885133  0.44023060  1
  P  P5  1  0.12085661  0.33119275  0.08340658  1
  P  P6  1  0.22636136  0.67943340  0.11182722  1
  P  P7  1  0.97296218  0.40217265  0.43589192  1
  P  P8  1  0.87914339  0.83119275  0.91659342  1
  P  P9  1  0.77363864  0.17943340  0.88817278  1
  O  O10  1  0.95272943  0.23612284  0.04562652  1
  O  O11  1  0.20330872  0.67270851  0.56638898  1
  O  O12  1  0.73347401  0.63305625  0.47856468  1
  O  O13  1  0.62105965  0.25587157  0.76515987  1
  O  O14  1  0.82497860  0.84071872  0.45316107  1
  O  O15  1  0.01217208  0.63926249  0.23234790  1
  O  O16  1  0.28753061  0.89101709  0.51308354  1
  O  O17  1  0.26652599  0.13305625  0.52143532  1
  O  O18  1  0.79669128  0.17270851  0.43361102  1
  O  O19  1  0.36751760  0.29717653  0.20263764  1
  O  O20  1  0.98782792  0.13926249  0.76765210  1
  O  O21  1  0.04727057  0.73612284  0.95437348  1
  O  O22  1  0.95824923  0.38619207  0.22348009  1
  O  O23  1  0.63248240  0.79717653  0.79736236  1
  O  O24  1  0.04175077  0.88619207  0.77651991  1
  O  O25  1  0.13728572  0.39003591  0.92305558  1
  O  O26  1  0.64215046  0.10207928  0.96436794  1
  O  O27  1  0.17502140  0.34071872  0.54683893  1
  O  O28  1  0.71246939  0.39101709  0.48691646  1
  O  O29  1  0.86271428  0.89003591  0.07694442  1
  O  O30  1  0.37894035  0.75587157  0.23484013  1
  O  O31  1  0.93383419  0.00871080  0.52992554  1
  O  O32  1  0.06616581  0.50871080  0.47007446  1
  O  O33  1  0.35784954  0.60207928  0.03563206  1
