# generated using pymatgen
data_BaEu2ZnO5
_symmetry_space_group_name_H-M   'P 1'
_cell_length_a   5.84281098
_cell_length_b   7.30411495
_cell_length_c   12.68675542
_cell_angle_alpha   90.00000000
_cell_angle_beta   90.00000000
_cell_angle_gamma   90.00000000
_symmetry_Int_Tables_number   1
_chemical_formula_structural   BaEu2ZnO5
_chemical_formula_sum   'Ba4 Eu8 Zn4 O20'
_cell_volume   541.42711732
_cell_formula_units_Z   4
loop_
 _symmetry_equiv_pos_site_id
 _symmetry_equiv_pos_as_xyz
  1  'x, y, z'
loop_
 _atom_site_type_symbol
 _atom_site_label
 _atom_site_symmetry_multiplicity
 _atom_site_fract_x
 _atom_site_fract_y
 _atom_site_fract_z
 _atom_site_occupancy
  Eu  Eu0  1  0.25000000  0.11771407  0.28986370  1
  Eu  Eu1  1  0.75000000  0.88228593  0.71013630  1
  Eu  Eu2  1  0.75000000  0.61771407  0.21013630  1
  Eu  Eu3  1  0.25000000  0.38228593  0.78986370  1
  Eu  Eu4  1  0.25000000  0.39453253  0.07228218  1
  Eu  Eu5  1  0.75000000  0.60546747  0.92771782  1
  Eu  Eu6  1  0.75000000  0.89453253  0.42771782  1
  Eu  Eu7  1  0.25000000  0.10546747  0.57228218  1
  Ba  Ba8  1  0.25000000  0.92370351  0.90062952  1
  Ba  Ba9  1  0.75000000  0.07629649  0.09937048  1
  Ba  Ba10  1  0.75000000  0.42370351  0.59937048  1
  Ba  Ba11  1  0.25000000  0.57629649  0.40062952  1
  Zn  Zn12  1  0.25000000  0.69436993  0.65004650  1
  Zn  Zn13  1  0.75000000  0.30563007  0.34995350  1
  Zn  Zn14  1  0.75000000  0.19436993  0.84995350  1
  Zn  Zn15  1  0.25000000  0.80563007  0.15004650  1
  O  O16  1  0.99230736  0.17168506  0.43596535  1
  O  O17  1  0.49230736  0.82831494  0.56403465  1
  O  O18  1  0.00769264  0.67168506  0.06403465  1
  O  O19  1  0.50769264  0.32831494  0.93596535  1
  O  O20  1  0.00769264  0.82831494  0.56403465  1
  O  O21  1  0.50769264  0.17168506  0.43596535  1
  O  O22  1  0.99230736  0.32831494  0.93596535  1
  O  O23  1  0.49230736  0.67168506  0.06403465  1
  O  O24  1  0.50522908  0.35320411  0.22615236  1
  O  O25  1  0.00522908  0.64679589  0.77384764  1
  O  O26  1  0.49477092  0.85320411  0.27384764  1
  O  O27  1  0.99477092  0.14679589  0.72615236  1
  O  O28  1  0.49477092  0.64679589  0.77384764  1
  O  O29  1  0.99477092  0.35320411  0.22615236  1
  O  O30  1  0.50522908  0.14679589  0.72615236  1
  O  O31  1  0.00522908  0.85320411  0.27384764  1
  O  O32  1  0.25000000  0.06637822  0.09852598  1
  O  O33  1  0.75000000  0.93362178  0.90147402  1
  O  O34  1  0.75000000  0.56637822  0.40147402  1
  O  O35  1  0.25000000  0.43362178  0.59852598  1
