# generated using pymatgen
data_Pu2Se3
_symmetry_space_group_name_H-M   'P 1'
_cell_length_a   22.67339469
_cell_length_b   8.70331830
_cell_length_c   8.70331849
_cell_angle_alpha   90.00000173
_cell_angle_beta   54.84544737
_cell_angle_gamma   54.84544646
_symmetry_Int_Tables_number   1
_chemical_formula_structural   Pu2Se3
_chemical_formula_sum   'Pu16 Se24'
_cell_volume   996.93349668
_cell_formula_units_Z   8
loop_
 _symmetry_equiv_pos_site_id
 _symmetry_equiv_pos_as_xyz
  1  'x, y, z'
loop_
 _atom_site_type_symbol
 _atom_site_label
 _atom_site_symmetry_multiplicity
 _atom_site_fract_x
 _atom_site_fract_y
 _atom_site_fract_z
 _atom_site_occupancy
  Pu  Pu0  1  0.99596847  0.38793195  0.25154636  1
  Pu  Pu1  1  0.99596847  0.12416265  0.76054824  1
  Pu  Pu2  1  0.08452892  0.62320612  0.37320612  1
  Pu  Pu3  1  0.16666700  0.25000000  0.62914873  1
  Pu  Pu4  1  0.33736453  0.37583735  0.24845364  1
  Pu  Pu5  1  0.24880408  0.87679388  0.12679388  1
  Pu  Pu6  1  0.16666700  0.75000000  0.87085127  1
  Pu  Pu7  1  0.33736453  0.11206805  0.73945176  1
  Pu  Pu8  1  0.49596847  0.26054824  0.62416265  1
  Pu  Pu9  1  0.66666700  0.37085127  0.25000000  1
  Pu  Pu10  1  0.58452892  0.87320612  0.12320612  1
  Pu  Pu11  1  0.49596847  0.75154636  0.88793195  1
  Pu  Pu12  1  0.66666700  0.12914873  0.75000000  1
  Pu  Pu13  1  0.74880408  0.62679388  0.37679388  1
  Pu  Pu14  1  0.83736453  0.23945176  0.61206805  1
  Pu  Pu15  1  0.83736453  0.74845364  0.87583735  1
  Se  Se16  1  0.12211857  0.49124272  0.99518632  1
  Se  Se17  1  0.05070146  0.34714138  0.49974387  1
  Se  Se18  1  0.28263154  0.15285862  0.15184924  1
  Se  Se19  1  0.05070146  0.00075326  0.34815076  1
  Se  Se20  1  0.28263154  0.49924674  1.00025613  1
  Se  Se21  1  0.12211857  0.64240058  0.63845697  1
  Se  Se22  1  0.21121443  0.85759942  0.50481368  1
  Se  Se23  1  0.44863759  0.49906063  0.99912937  1
  Se  Se24  1  0.38469641  0.34504114  0.50093937  1
  Se  Se25  1  0.21121443  0.00875728  0.86154303  1
  Se  Se26  1  0.62211857  0.13845697  0.14240058  1
  Se  Se27  1  0.38469641  0.00087063  0.34497240  1
  Se  Se28  1  0.62211857  0.49518632  0.99124272  1
  Se  Se29  1  0.44863759  0.65502760  0.65495886  1
  Se  Se30  1  0.55070146  0.84815076  0.50075326  1
  Se  Se31  1  0.78263154  0.50025613  0.99924674  1
  Se  Se32  1  0.71121443  0.36154303  0.50875728  1
  Se  Se33  1  0.55070146  -0.00025613  0.84714138  1
  Se  Se34  1  0.71121443  0.00481368  0.35759942  1
  Se  Se35  1  0.94863759  0.15495886  0.15502760  1
  Se  Se36  1  0.94863759  0.49912937  0.99906063  1
  Se  Se37  1  0.78263154  0.65184924  0.65285862  1
  Se  Se38  1  0.88469641  0.84497240  0.50087063  1
  Se  Se39  1  0.88469641  0.00093937  0.84504114  1
