# generated using pymatgen
data_BaSm4Si3SeO12
_symmetry_space_group_name_H-M   'P 1'
_cell_length_a   10.04316563
_cell_length_b   10.04316588
_cell_length_c   6.97645704
_cell_angle_alpha   90.00000000
_cell_angle_beta   90.00000000
_cell_angle_gamma   119.99999914
_symmetry_Int_Tables_number   1
_chemical_formula_structural   BaSm4Si3SeO12
_chemical_formula_sum   'Ba2 Sm8 Si6 Se2 O24'
_cell_volume   609.40613326
_cell_formula_units_Z   2
loop_
 _symmetry_equiv_pos_site_id
 _symmetry_equiv_pos_as_xyz
  1  'x, y, z'
loop_
 _atom_site_type_symbol
 _atom_site_label
 _atom_site_symmetry_multiplicity
 _atom_site_fract_x
 _atom_site_fract_y
 _atom_site_fract_z
 _atom_site_occupancy
  Ba  Ba0  1  0.33333300  0.66666700  0.50304698  1
  Ba  Ba1  1  0.66666700  0.33333300  0.00304698  1
  O  O2  1  0.25691180  0.89853491  0.43506236  1
  O  O3  1  0.26401192  0.91532847  0.06054781  1
  O  O4  1  0.15691228  0.67110141  0.77924320  1
  O  O5  1  0.11707390  0.59480008  0.22703522  1
  O  O6  1  0.08467153  0.34868345  0.06054781  1
  O  O7  1  0.10146509  0.35837690  0.43506236  1
  O  O8  1  0.47772618  0.88292610  0.22703522  1
  O  O9  1  0.51418912  0.84308772  0.77924320  1
  O  O10  1  0.32889859  0.48581088  0.77924320  1
  O  O11  1  0.40519992  0.52227382  0.22703522  1
  O  O12  1  0.34868345  0.26401192  0.56054781  1
  O  O13  1  0.35837690  0.25691180  0.93506236  1
  O  O14  1  0.65131655  0.73598808  0.06054781  1
  O  O15  1  0.64162310  0.74308820  0.43506236  1
  O  O16  1  0.59480008  0.47772618  0.72703522  1
  O  O17  1  0.67110141  0.51418912  0.27924320  1
  O  O18  1  0.48581088  0.15691228  0.27924320  1
  O  O19  1  0.52227382  0.11707390  0.72703522  1
  O  O20  1  0.91532847  0.65131655  0.56054781  1
  O  O21  1  0.89853491  0.64162310  0.93506236  1
  O  O22  1  0.88292610  0.40519992  0.72703522  1
  O  O23  1  0.84308772  0.32889859  0.27924320  1
  O  O24  1  0.74308820  0.10146509  0.93506236  1
  O  O25  1  0.73598808  0.08467153  0.56054781  1
  Se  Se26  1  0.00000000  0.00000000  -0.00079654  1
  Se  Se27  1  0.00000000  0.00000000  0.49920346  1
  Si  Si28  1  0.02771410  0.40449272  0.25148977  1
  Si  Si29  1  0.37677862  0.97228590  0.25148977  1
  Si  Si30  1  0.40449272  0.37677862  0.75148977  1
  Si  Si31  1  0.59550728  0.62322138  0.25148977  1
  Si  Si32  1  0.62322138  0.02771410  0.75148977  1
  Si  Si33  1  0.97228590  0.59550728  0.75148977  1
  Sm  Sm34  1  0.01536015  0.75779116  0.24682913  1
  Sm  Sm35  1  0.33333300  0.66666700  0.99712711  1
  Sm  Sm36  1  0.24220884  0.25756899  0.24682913  1
  Sm  Sm37  1  0.74243101  0.98463985  0.24682913  1
  Sm  Sm38  1  0.25756899  0.01536015  0.74682913  1
  Sm  Sm39  1  0.75779116  0.74243101  0.74682913  1
  Sm  Sm40  1  0.66666700  0.33333300  0.49712711  1
  Sm  Sm41  1  0.98463985  0.24220884  0.74682913  1
