# generated using pymatgen
data_Cu5As2
_symmetry_space_group_name_H-M   'P 1'
_cell_length_a   5.56577248
_cell_length_b   6.00252810
_cell_length_c   7.08356206
_cell_angle_alpha   115.07111366
_cell_angle_beta   113.12683560
_cell_angle_gamma   90.00162775
_symmetry_Int_Tables_number   1
_chemical_formula_structural   Cu5As2
_chemical_formula_sum   'Cu10 As4'
_cell_volume   193.15349487
_cell_formula_units_Z   2
loop_
 _symmetry_equiv_pos_site_id
 _symmetry_equiv_pos_as_xyz
  1  'x, y, z'
loop_
 _atom_site_type_symbol
 _atom_site_label
 _atom_site_symmetry_multiplicity
 _atom_site_fract_x
 _atom_site_fract_y
 _atom_site_fract_z
 _atom_site_occupancy
  Cu  Cu0  1  0.39644631  0.70685308  0.79390927  1
  Cu  Cu1  1  0.60355369  0.29314692  0.20609073  1
  Cu  Cu2  1  0.10261382  0.91280451  0.20556251  1
  Cu  Cu3  1  0.89738618  0.08719549  0.79443749  1
  Cu  Cu4  1  0.51901670  0.26914565  0.53857622  1
  Cu  Cu5  1  0.98073945  0.73157672  0.46126684  1
  Cu  Cu6  1  0.48098330  0.73085435  0.46142378  1
  Cu  Cu7  1  0.01926055  0.26842328  0.53873316  1
  Cu  Cu8  1  0.25008590  0.50001500  0.00031306  1
  Cu  Cu9  1  0.74991410  0.49998500  0.99968694  1
  As  As10  1  0.11662410  0.34070668  0.23424396  1
  As  As11  1  0.88337590  0.65929332  0.76575604  1
  As  As12  1  0.38331244  0.10648009  0.76622763  1
  As  As13  1  0.61668756  0.89351991  0.23377237  1
