# generated using pymatgen
data_La12Ni6O25
_symmetry_space_group_name_H-M   'P 1'
_cell_length_a   5.59190851
_cell_length_b   5.48932600
_cell_length_c   20.79424209
_cell_angle_alpha   89.97610506
_cell_angle_beta   113.75030349
_cell_angle_gamma   90.01956456
_symmetry_Int_Tables_number   1
_chemical_formula_structural   La12Ni6O25
_chemical_formula_sum   'La12 Ni6 O25'
_cell_volume   584.23830535
_cell_formula_units_Z   1
loop_
 _symmetry_equiv_pos_site_id
 _symmetry_equiv_pos_as_xyz
  1  'x, y, z'
loop_
 _atom_site_type_symbol
 _atom_site_label
 _atom_site_symmetry_multiplicity
 _atom_site_fract_x
 _atom_site_fract_y
 _atom_site_fract_z
 _atom_site_occupancy
  La  La0  1  0.14290494  0.48985097  0.76032812  1
  La  La1  1  0.33532320  0.99668682  0.90923533  1
  La  La2  1  0.11342005  0.49100101  0.42753928  1
  La  La3  1  0.36682366  0.99220937  0.57634863  1
  La  La4  1  0.61629672  0.00946597  0.76034346  1
  La  La5  1  0.86742829  0.49242673  0.90929377  1
  La  La6  1  0.12849210  0.49462843  0.09894604  1
  La  La7  1  0.33700788  0.99692879  0.23778902  1
  La  La8  1  0.64445374  0.01311885  0.42760715  1
  La  La9  1  0.83975747  0.51200130  0.57640936  1
  La  La10  1  0.63611717  0.99551804  0.09908562  1
  La  La11  1  0.84251140  0.49339673  0.23755375  1
  Ni  Ni12  1  0.49155178  0.50171681  0.66831436  1
  Ni  Ni13  1  0.98411061  0.98991533  1.00235722  1
  Ni  Ni14  1  0.48246504  0.50507434  0.33458389  1
  Ni  Ni15  1  0.99195126  0.00064716  0.66834927  1
  Ni  Ni16  1  0.49459826  0.49906495  1.00241376  1
  Ni  Ni17  1  0.99344142  -0.00523325  0.33463066  1
  O  O18  1  0.21770985  0.02642063  0.78493814  1
  O  O19  1  0.25196498  0.50369750  0.87918455  1
  O  O20  1  0.23700228  0.75208304  0.66457984  1
  O  O21  1  0.22036943  0.25198434  0.65453025  1
  O  O22  1  0.36593680  0.53429751  0.55178037  1
  O  O23  1  0.61460713  0.47235540  0.78483895  1
  O  O24  1  0.86001256  0.99356644  0.87935219  1
  O  O25  1  0.27842130  0.75292453  0.35970778  1
  O  O26  1  0.24626237  0.25257411  0.34188163  1
  O  O27  1  0.08123935  0.94516450  0.11035500  1
  O  O28  1  0.76377262  0.75045551  0.68257471  1
  O  O29  1  0.74642036  0.25082903  0.67169448  1
  O  O30  1  0.26017668  0.55137153  0.22654940  1
  O  O31  1  0.72290147  0.46880721  0.45755292  1
  O  O32  1  0.76714435  0.96946833  0.55190625  1
  O  O33  1  0.48401113  0.24492372  0.16782373  1
  O  O34  1  0.24309629  0.74432985  0.00492933  1
  O  O35  1  0.24136980  0.24417845  1.00339034  1
  O  O36  1  0.12423225  0.03335936  0.45758133  1
  O  O37  1  0.74310276  0.74746333  0.33636328  1
  O  O38  1  0.72887679  0.24798720  0.32978941  1
  O  O39  1  0.71816633  0.54170320  0.11075300  1
  O  O40  1  0.88987168  -0.05343604  0.22647534  1
  O  O41  1  0.70609646  0.74382707  0.97965111  1
  O  O42  1  0.72357999  0.24424591  -0.00797802  1
