# generated using pymatgen
data_LiFe4(PO4)3
_symmetry_space_group_name_H-M   'P 1'
_cell_length_a   8.85226535
_cell_length_b   8.85226517
_cell_length_c   6.58688323
_cell_angle_alpha   73.66857940
_cell_angle_beta   106.33142031
_cell_angle_gamma   84.39675905
_symmetry_Int_Tables_number   1
_chemical_formula_structural   LiFe4(PO4)3
_chemical_formula_sum   'Li2 Fe8 P6 O24'
_cell_volume   466.51949220
_cell_formula_units_Z   2
loop_
 _symmetry_equiv_pos_site_id
 _symmetry_equiv_pos_as_xyz
  1  'x, y, z'
loop_
 _atom_site_type_symbol
 _atom_site_label
 _atom_site_symmetry_multiplicity
 _atom_site_fract_x
 _atom_site_fract_y
 _atom_site_fract_z
 _atom_site_occupancy
  Li  Li0  1  0.99310107  0.99310107  0.75000000  1
  Li  Li1  1  0.00689893  0.00689893  0.25000000  1
  Fe  Fe2  1  0.05586902  0.63242872  0.62565304  1
  Fe  Fe3  1  0.73271263  0.73271263  0.75000000  1
  Fe  Fe4  1  0.63242872  0.05586902  0.87434696  1
  Fe  Fe5  1  0.50060421  0.50060421  0.75000000  1
  Fe  Fe6  1  0.36757128  0.94413098  0.12565304  1
  Fe  Fe7  1  0.94413098  0.36757128  0.37434696  1
  Fe  Fe8  1  0.49939579  0.49939579  0.25000000  1
  Fe  Fe9  1  0.26728737  0.26728737  0.25000000  1
  P  P10  1  0.29438284  0.29438284  0.75000000  1
  P  P11  1  0.11122290  0.66907567  0.11828707  1
  P  P12  1  0.88877710  0.33092433  0.88171293  1
  P  P13  1  0.66907567  0.11122290  0.38171293  1
  P  P14  1  0.70561716  0.70561716  0.25000000  1
  P  P15  1  0.33092433  0.88877710  0.61828707  1
  O  O16  1  0.14896556  0.83921483  0.09576322  1
  O  O17  1  0.27147513  0.47435000  0.74287383  1
  O  O18  1  0.72852487  0.52565000  0.25712617  1
  O  O19  1  0.26547472  0.19342587  0.96317483  1
  O  O20  1  0.52565000  0.72852487  0.24287383  1
  O  O21  1  0.39288669  0.95973528  0.80758240  1
  O  O22  1  0.80657413  0.73452528  0.46317483  1
  O  O23  1  0.83921483  0.14896556  0.40423678  1
  O  O24  1  0.19342587  0.26547472  0.53682517  1
  O  O25  1  0.16078517  0.85103444  0.59576322  1
  O  O26  1  0.95973528  0.39288669  0.69241760  1
  O  O27  1  0.68156194  0.98990394  0.61300185  1
  O  O28  1  0.60711331  0.04026472  0.19241760  1
  O  O29  1  0.98990394  0.68156194  0.88699815  1
  O  O30  1  0.73724364  0.46299230  0.83448764  1
  O  O31  1  0.04026472  0.60711331  0.30758240  1
  O  O32  1  0.85103444  0.16078517  0.90423678  1
  O  O33  1  0.53700770  0.26275636  0.33448764  1
  O  O34  1  0.73452528  0.80657413  0.03682517  1
  O  O35  1  0.31843806  0.01009606  0.38699815  1
  O  O36  1  0.47435000  0.27147513  0.75712617  1
  O  O37  1  0.46299230  0.73724364  0.66551236  1
  O  O38  1  0.01009606  0.31843806  0.11300185  1
  O  O39  1  0.26275636  0.53700770  0.16551236  1
