# generated using pymatgen
data_MgAl6O10
_symmetry_space_group_name_H-M   'P 1'
_cell_length_a   5.68007905
_cell_length_b   5.73052024
_cell_length_c   28.58481338
_cell_angle_alpha   59.92208042
_cell_angle_beta   59.78367177
_cell_angle_gamma   59.70367093
_symmetry_Int_Tables_number   1
_chemical_formula_structural   MgAl6O10
_chemical_formula_sum   'Mg4 Al24 O40'
_cell_volume   654.96851944
_cell_formula_units_Z   4
loop_
 _symmetry_equiv_pos_site_id
 _symmetry_equiv_pos_as_xyz
  1  'x, y, z'
loop_
 _atom_site_type_symbol
 _atom_site_label
 _atom_site_symmetry_multiplicity
 _atom_site_fract_x
 _atom_site_fract_y
 _atom_site_fract_z
 _atom_site_occupancy
  Al  Al0  1  0.13121135  0.11739544  0.02679510  1
  Al  Al1  1  0.49786645  0.99872311  0.10126432  1
  Al  Al2  1  0.49783793  0.49710572  0.10126173  1
  Al  Al3  1  0.00427439  0.49784152  0.30000396  1
  Al  Al4  1  0.49866443  0.00460994  0.29988859  1
  Al  Al5  1  0.52088026  0.49233250  0.19890439  1
  Al  Al6  1  0.13414882  0.11831304  0.42584071  1
  Al  Al7  1  0.49869226  0.49722451  0.29989045  1
  Al  Al8  1  0.50171856  1.00078066  0.49961166  1
  Al  Al9  1  0.46838920  0.50208429  0.40548316  1
  Al  Al10  1  0.86202620  0.88194642  0.17483229  1
  Al  Al11  1  0.50180545  0.49936373  0.49961424  1
  Al  Al12  1  0.00870101  0.50003395  0.69825147  1
  Al  Al13  1  0.85690930  0.87623692  0.37810441  1
  Al  Al14  1  0.52452422  0.49400971  0.59747184  1
  Al  Al15  1  0.99753959  0.49805545  0.90127599  1
  Al  Al16  1  0.50290351  0.50009744  0.69842806  1
  Al  Al17  1  0.86620979  0.88412205  0.57311601  1
  Al  Al18  1  0.49659555  0.00166327  0.90093319  1
  Al  Al19  1  0.50176410  0.50186229  0.79889939  1
  Al  Al20  1  0.50285696  0.00487895  0.69843769  1
  Al  Al21  1  0.49660689  0.49704626  0.90093638  1
  Al  Al22  1  0.46514291  0.50038052  0.00681862  1
  Al  Al23  1  0.85246769  0.87241223  0.98053259  1
  Mg  Mg24  1  0.14519883  0.12851149  0.21955832  1
  Mg  Mg25  1  0.14899380  0.13168722  0.61752019  1
  Mg  Mg26  1  0.12723848  0.12335834  0.82522232  1
  Mg  Mg27  1  0.87521067  0.87882915  0.77342790  1
  O  O28  1  0.28705340  0.23879694  0.04596349  1
  O  O29  1  0.29136044  0.25946551  0.13794472  1
  O  O30  1  0.28707487  0.74432640  0.04596322  1
  O  O31  1  0.74119318  0.25976510  0.04785109  1
  O  O32  1  0.25998343  0.26067621  0.25503432  1
  O  O33  1  0.26119831  0.74336920  0.15042981  1
  O  O34  1  0.25996301  0.70417254  0.25503709  1
  O  O35  1  0.71114764  0.25948512  0.15460338  1
  O  O36  1  0.25664443  0.25563416  0.34641422  1
  O  O37  1  0.71974302  0.75132647  0.05552258  1
  O  O38  1  0.71506556  0.25651041  0.25437893  1
  O  O39  1  0.71118875  0.75635254  0.15460772  1
  O  O40  1  0.28981505  0.24082517  0.44476275  1
  O  O41  1  0.26692808  0.74574845  0.34831381  1
  O  O42  1  0.74529993  0.27754746  0.34643451  1
  O  O43  1  0.73929345  0.74070426  0.25585187  1
  O  O44  1  0.29535105  0.26178970  0.53621583  1
  O  O45  1  0.28983787  0.74552967  0.44476364  1
  O  O46  1  0.74448452  0.26144268  0.44653097  1
  O  O47  1  0.74527180  0.74494891  0.34643155  1
  O  O48  1  0.26582900  0.74535293  0.54869956  1
  O  O49  1  0.26164877  0.26085448  0.65374391  1
  O  O50  1  0.72433590  0.75482758  0.45320266  1
  O  O51  1  0.26610380  0.25966340  0.74292641  1
  O  O52  1  0.71449640  0.26200333  0.55306279  1
  O  O53  1  0.26166575  0.70877173  0.65374152  1
  O  O54  1  0.72060232  0.25683528  0.65314192  1
  O  O55  1  0.71450505  0.75819288  0.55305652  1
  O  O56  1  0.25989128  0.26189910  0.85464517  1
  O  O57  1  0.29246008  0.73562331  0.74726317  1
  O  O58  1  0.25280431  0.25622816  0.94694986  1
  O  O59  1  0.25989060  0.70502899  0.85464782  1
  O  O60  1  0.74728952  0.74308541  0.65331446  1
  O  O61  1  0.73647530  0.29282139  0.74736397  1
  O  O62  1  0.70580662  0.26079090  0.85451810  1
  O  O63  1  0.73646292  0.73387294  0.74737025  1
  O  O64  1  0.25996978  0.74449091  0.95021186  1
  O  O65  1  0.74387499  0.27130778  0.94801853  1
  O  O66  1  0.72775395  0.73432072  0.86071945  1
  O  O67  1  0.74385730  0.74470575  0.94802159  1
