# generated using pymatgen
data_MgAl2O4
_symmetry_space_group_name_H-M   'P 1'
_cell_length_a   5.77923242
_cell_length_b   5.74914388
_cell_length_c   40.29285649
_cell_angle_alpha   59.99247450
_cell_angle_beta   60.15004955
_cell_angle_gamma   60.09491989
_symmetry_Int_Tables_number   1
_chemical_formula_structural   MgAl2O4
_chemical_formula_sum   'Mg14 Al28 O56'
_cell_volume   948.33757163
_cell_formula_units_Z   14
loop_
 _symmetry_equiv_pos_site_id
 _symmetry_equiv_pos_as_xyz
  1  'x, y, z'
loop_
 _atom_site_type_symbol
 _atom_site_label
 _atom_site_symmetry_multiplicity
 _atom_site_fract_x
 _atom_site_fract_y
 _atom_site_fract_z
 _atom_site_occupancy
  Al  Al0  1  0.13426668  0.12965524  0.01676605  1
  Al  Al1  1  0.49901237  0.49907759  0.00037569  1
  Al  Al2  1  0.49818211  0.49927451  0.07188550  1
  Al  Al3  1  0.49695798  0.00954334  0.21409786  1
  Al  Al4  1  0.49834306  0.49588711  0.14471168  1
  Al  Al5  1  0.49618041  0.49650861  0.21401000  1
  Al  Al6  1  0.49692477  0.01025576  0.35664788  1
  Al  Al7  1  0.86256949  0.86900516  0.12695327  1
  Al  Al8  1  0.49662340  0.49605098  0.28731128  1
  Al  Al9  1  0.49696211  0.49638427  0.35663030  1
  Al  Al10  1  0.49688939  0.01074420  0.49942587  1
  Al  Al11  1  0.49663113  0.49649515  0.43006152  1
  Al  Al12  1  0.85881547  0.88010635  0.26870625  1
  Al  Al13  1  0.49692615  0.49644245  0.49941509  1
  Al  Al14  1  0.49668279  0.01176949  0.64209971  1
  Al  Al15  1  0.49575185  0.49710236  0.57287977  1
  Al  Al16  1  0.85868491  0.88020137  0.41152695  1
  Al  Al17  1  0.49667931  0.49689254  0.64208599  1
  Al  Al18  1  0.49693084  0.01114939  0.78505908  1
  Al  Al19  1  0.49630927  0.49744244  0.71555893  1
  Al  Al20  1  0.85848266  0.88044131  0.55435129  1
  Al  Al21  1  0.49700694  0.49639018  0.78506070  1
  Al  Al22  1  0.49768352  0.00713642  0.92793177  1
  Al  Al23  1  0.85910710  0.88057493  0.69707485  1
  Al  Al24  1  0.49552845  0.49716126  0.85865838  1
  Al  Al25  1  0.49817666  0.49766365  0.92808317  1
  Al  Al26  1  0.86026828  0.88053125  0.83973600  1
  Al  Al27  1  0.86067911  0.87533054  0.98279690  1
  Mg  Mg28  1  1.00101152  0.49964192  0.07140951  1
  Mg  Mg29  1  0.50025982  0.99932307  0.07154474  1
  Mg  Mg30  1  0.13791528  0.12907683  0.15877161  1
  Mg  Mg31  1  0.00377663  0.49833326  0.21433411  1
  Mg  Mg32  1  0.13496790  0.12184842  0.30314092  1
  Mg  Mg33  1  0.13540555  0.12196488  0.44587797  1
  Mg  Mg34  1  0.13658615  0.12199813  0.58856104  1
  Mg  Mg35  1  0.00354975  0.49875846  0.35699790  1
  Mg  Mg36  1  0.13692972  0.12246117  0.73122563  1
  Mg  Mg37  1  0.00382204  0.49875465  0.49982252  1
  Mg  Mg38  1  0.13408622  0.12079134  0.87490364  1
  Mg  Mg39  1  0.00482442  0.49881549  0.64252369  1
  Mg  Mg40  1  0.00404757  0.49871635  0.78550216  1
  Mg  Mg41  1  0.00207082  0.49836999  0.92841638  1
  O  O42  1  0.26688433  0.27040804  0.03181896  1
  O  O43  1  0.28000746  0.27709646  0.09985462  1
  O  O44  1  0.27284401  0.74207941  0.03347408  1
  O  O45  1  0.74729776  0.27324192  0.03247923  1
  O  O46  1  0.28434893  0.25099688  0.17920597  1
  O  O47  1  0.25810592  0.73186815  0.10812074  1
  O  O48  1  0.73549428  0.73726080  0.03701522  1
  O  O49  1  0.73332599  0.26308049  0.10710963  1
  O  O50  1  0.28142990  0.71487171  0.17901983  1
  O  O51  1  0.28188911  0.25345177  0.24470326  1
  O  O52  1  0.72050638  0.25671556  0.18061357  1
  O  O53  1  0.73789687  0.73270524  0.10957437  1
  O  O54  1  0.28246828  0.25234316  0.32194970  1
  O  O55  1  0.26099916  0.74527622  0.24982507  1
  O  O56  1  0.72654693  0.26988638  0.25047974  1
  O  O57  1  0.28229982  0.71169983  0.32195536  1
  O  O58  1  0.72520472  0.74916255  0.18248794  1
  O  O59  1  0.28280021  0.25276977  0.38740824  1
  O  O60  1  0.72619578  0.75002033  0.25059918  1
  O  O61  1  0.72005016  0.25938196  0.32298392  1
  O  O62  1  0.28274731  0.25270038  0.46466446  1
  O  O63  1  0.26169578  0.74592493  0.39236086  1
  O  O64  1  0.72697095  0.27041159  0.39308197  1
  O  O65  1  0.28306123  0.25290888  0.53018074  1
  O  O66  1  0.72670466  0.75086338  0.32448370  1
  O  O67  1  0.28265061  0.71198082  0.46467382  1
  O  O68  1  0.72046949  0.25962261  0.46571700  1
  O  O69  1  0.72697736  0.75094001  0.39309975  1
  O  O70  1  0.28228191  0.25250508  0.60758748  1
  O  O71  1  0.26134763  0.74594780  0.53525943  1
  O  O72  1  0.72682430  0.27048355  0.53597942  1
  O  O73  1  0.72687644  0.75094986  0.46728057  1
  O  O74  1  0.28217516  0.71227481  0.60758867  1
  O  O75  1  0.28320789  0.25259567  0.67309713  1
  O  O76  1  0.72070031  0.25920375  0.60866417  1
  O  O77  1  0.72685233  0.75075474  0.53599405  1
  O  O78  1  0.28175232  0.25185365  0.75073252  1
  O  O79  1  0.26082073  0.74510964  0.67842618  1
  O  O80  1  0.72627350  0.27017486  0.67910732  1
  O  O81  1  0.72645312  0.75069682  0.61027281  1
  O  O82  1  0.28166308  0.71138106  0.75074525  1
  O  O83  1  0.28195644  0.25143703  0.81645649  1
  O  O84  1  0.72000561  0.25823999  0.75188874  1
  O  O85  1  0.72631906  0.74966257  0.67912297  1
  O  O86  1  0.28129301  0.25177344  0.89403650  1
  O  O87  1  0.26129571  0.74447734  0.82141286  1
  O  O88  1  0.72597602  0.75050906  0.75324723  1
  O  O89  1  0.28060444  0.70811004  0.89424266  1
  O  O90  1  0.72572554  0.26999129  0.82217750  1
  O  O91  1  0.27139720  0.24671243  0.96200074  1
  O  O92  1  0.71463643  0.25808482  0.89551742  1
  O  O93  1  0.72554017  0.74890676  0.82219087  1
  O  O94  1  0.26604954  0.74924275  0.96242585  1
  O  O95  1  0.72782461  0.26920493  0.96387331  1
  O  O96  1  0.72851355  0.75062048  0.89545474  1
  O  O97  1  0.72525094  0.75535476  0.96334262  1
