# generated using pymatgen
data_Ca9PrF20
_symmetry_space_group_name_H-M   'P 1'
_cell_length_a   7.83977182
_cell_length_b   21.91700858
_cell_length_c   10.42661551
_cell_angle_alpha   38.53184750
_cell_angle_beta   55.70323221
_cell_angle_gamma   51.17856338
_symmetry_Int_Tables_number   1
_chemical_formula_structural   Ca9PrF20
_chemical_formula_sum   'Ca18 Pr2 F40'
_cell_volume   859.59859645
_cell_formula_units_Z   2
loop_
 _symmetry_equiv_pos_site_id
 _symmetry_equiv_pos_as_xyz
  1  'x, y, z'
loop_
 _atom_site_type_symbol
 _atom_site_label
 _atom_site_symmetry_multiplicity
 _atom_site_fract_x
 _atom_site_fract_y
 _atom_site_fract_z
 _atom_site_occupancy
  Ca  Ca0  1  1.00024702  0.00034647  0.99584742  1
  Ca  Ca1  1  0.50454334  0.00104774  0.99444703  1
  Ca  Ca2  1  0.40653358  0.19677201  0.00239528  1
  Ca  Ca3  1  0.44346642  0.10322799  0.49760472  1
  Ca  Ca4  1  0.29930411  0.39987931  0.00018348  1
  Ca  Ca5  1  0.89973051  0.19860575  -0.00013734  1
  Ca  Ca6  1  0.34545666  0.29895226  0.50555297  1
  Ca  Ca7  1  0.19407268  0.60097796  0.00181339  1
  Ca  Ca8  1  0.95026949  0.10139425  0.50013734  1
  Ca  Ca9  1  0.25575966  0.50005299  0.49552063  1
  Ca  Ca10  1  0.10131944  0.79865547  0.00512633  1
  Ca  Ca11  1  0.84975298  0.29965353  0.50415258  1
  Ca  Ca12  1  0.69898230  0.60361943  0.99605822  1
  Ca  Ca13  1  0.15101770  0.69638057  0.50394178  1
  Ca  Ca14  1  0.74868056  0.50134453  0.49487367  1
  Ca  Ca15  1  0.59424034  0.79994701  0.00447937  1
  Ca  Ca16  1  0.65592732  0.69902204  0.49818661  1
  Ca  Ca17  1  0.55069589  0.90012069  0.49981652  1
  F  F18  1  0.11942734  0.02583443  0.11416643  1
  F  F19  1  0.02051540  0.22150580  0.12133250  1
  F  F20  1  0.33675995  0.07463355  0.37602739  1
  F  F21  1  0.61382636  0.02460962  0.12404571  1
  F  F22  1  0.06105156  0.12544932  0.62545849  1
  F  F23  1  0.23617364  0.27539038  0.37595429  1
  F  F24  1  0.51324005  0.22536645  0.12397261  1
  F  F25  1  0.82948460  0.07849420  0.37866750  1
  F  F26  1  0.40190444  0.42604554  0.13138799  1
  F  F27  1  0.56170737  0.12531287  0.62592558  1
  F  F28  1  0.28829263  0.17468713  0.87407442  1
  F  F29  1  0.13732976  0.47499967  0.37424876  1
  F  F30  1  0.31152935  0.62517101  0.12677381  1
  F  F31  1  0.73057266  0.27416557  0.38583357  1
  F  F32  1  0.46333925  0.32471064  0.62520011  1
  F  F33  1  0.20093370  0.37310052  0.86775485  1
  F  F34  1  0.03888015  0.67447066  0.37512838  1
  F  F35  1  0.90811421  0.42682579  0.13290891  1
  F  F36  1  0.78894844  0.17455068  0.87454151  1
  F  F37  1  0.36352580  0.52437087  0.62496772  1
  F  F38  1  0.08768594  0.57449068  0.87638084  1
  F  F39  1  0.21308597  0.82430871  0.12510276  1
  F  F40  1  0.63691403  0.47569129  0.37489724  1
  F  F41  1  0.96234125  0.32442447  0.62587449  1
  F  F42  1  0.81111985  0.62552934  0.12487162  1
  F  F43  1  0.69091509  0.37378324  0.86827187  1
  F  F44  1  0.53847065  0.67482899  0.37322619  1
  F  F45  1  0.27260165  0.72128421  0.62133292  1
  F  F46  1  0.86929300  0.52600570  0.61312609  1
  F  F47  1  0.71267024  0.82500033  0.12575124  1
  F  F48  1  0.57739835  0.57871579  0.87866708  1
  F  F49  1  0.44809556  0.87395446  0.36861201  1
  F  F50  1  0.15908491  0.92621676  0.63172813  1
  F  F51  1  0.76231406  0.72550932  0.62361916  1
  F  F52  1  0.48647420  0.77562913  0.87503228  1
  F  F53  1  0.94188579  0.87317421  0.36709109  1
  F  F54  1  0.64906630  0.92689948  0.63224515  1
  F  F55  1  0.38666075  0.97528936  0.87479989  1
  F  F56  1  0.98070700  0.77399430  0.88687391  1
  F  F57  1  0.88765875  0.97557553  0.87412551  1
  Pr  Pr58  1  0.80173842  0.40028047  0.99955601  1
  Pr  Pr59  1  0.04826158  0.89971953  0.50044399  1
