# generated using pymatgen
data_Li3Cu2(WO4)4
_symmetry_space_group_name_H-M   'P 1'
_cell_length_a   10.27215710
_cell_length_b   8.75323846
_cell_length_c   8.16226650
_cell_angle_alpha   47.80001072
_cell_angle_beta   46.03924070
_cell_angle_gamma   34.99292041
_symmetry_Int_Tables_number   1
_chemical_formula_structural   Li3Cu2(WO4)4
_chemical_formula_sum   'Li3 Cu2 W4 O16'
_cell_volume   293.36347047
_cell_formula_units_Z   1
loop_
 _symmetry_equiv_pos_site_id
 _symmetry_equiv_pos_as_xyz
  1  'x, y, z'
loop_
 _atom_site_type_symbol
 _atom_site_label
 _atom_site_symmetry_multiplicity
 _atom_site_fract_x
 _atom_site_fract_y
 _atom_site_fract_z
 _atom_site_occupancy
  Li  Li0  1  0.06591272  0.58794998  0.21551482  1
  Li  Li1  1  0.93636780  0.41107856  0.77938909  1
  Li  Li2  1  0.56357910  0.58053891  0.23031925  1
  O  O3  1  0.01933565  0.73951477  0.92020513  1
  O  O4  1  0.85817197  0.78004402  0.64016040  1
  O  O5  1  0.14748123  0.21676337  0.35538114  1
  O  O6  1  0.46494401  0.27027138  0.09493441  1
  O  O7  1  0.28201472  0.20277567  0.57373653  1
  O  O8  1  0.16805926  0.74428624  0.17393699  1
  O  O9  1  0.32547521  0.25378021  0.82927124  1
  O  O10  1  0.64468859  0.21671887  0.36245271  1
  O  O11  1  0.22360387  0.79111427  0.42709888  1
  O  O12  1  0.71477330  0.80040890  0.42886788  1
  O  O13  1  0.96105352  0.27096328  0.08717612  1
  O  O14  1  0.79853573  0.19529385  0.56025603  1
  O  O15  1  0.34948076  0.79404843  0.64500986  1
  O  O16  1  0.66376154  0.73835522  0.18211221  1
  O  O17  1  0.83615489  0.25817184  0.81946758  1
  O  O18  1  0.54245179  0.72312273  0.91102805  1
  Cu  Cu19  1  0.99809886  0.49762517  0.00572979  1
  Cu  Cu20  1  0.49920402  0.50602908  0.98793634  1
  W  W21  1  0.03111045  0.01023704  0.66004356  1
  W  W22  1  0.52320303  0.02555157  0.65511326  1
  W  W23  1  0.47332054  0.98213182  0.34178117  1
  W  W24  1  0.97591743  0.97642483  0.34927754  1
