# generated using pymatgen
data_K2CoS2
_symmetry_space_group_name_H-M   'P 1'
_cell_length_a   5.94081299
_cell_length_b   6.81663325
_cell_length_c   7.79604351
_cell_angle_alpha   115.92443779
_cell_angle_beta   112.39654424
_cell_angle_gamma   90.00000003
_symmetry_Int_Tables_number   1
_chemical_formula_structural   K2CoS2
_chemical_formula_sum   'K4 Co2 S4'
_cell_volume   257.20234006
_cell_formula_units_Z   2
loop_
 _symmetry_equiv_pos_site_id
 _symmetry_equiv_pos_as_xyz
  1  'x, y, z'
loop_
 _atom_site_type_symbol
 _atom_site_label
 _atom_site_symmetry_multiplicity
 _atom_site_fract_x
 _atom_site_fract_y
 _atom_site_fract_z
 _atom_site_occupancy
  S  S0  1  0.40108114  0.71971593  0.80216228  1
  S  S1  1  0.59891886  0.28028407  0.19783772  1
  S  S2  1  0.09891886  0.91755366  0.19783772  1
  S  S3  1  0.90108114  0.08244634  0.80216228  1
  K  K4  1  0.35372100  0.18696848  0.70744200  1
  K  K5  1  0.64627900  0.81303152  0.29255800  1
  K  K6  1  0.85372100  0.52047352  0.70744200  1
  K  K7  1  0.14627900  0.47952648  0.29255800  1
  Co  Co8  1  0.75000000  0.00000000  0.00000000  1
  Co  Co9  1  0.25000000  0.00000000  0.00000000  1
