# generated using pymatgen
data_Cr2(PO4)3
_symmetry_space_group_name_H-M   'P 1'
_cell_length_a   8.69198403
_cell_length_b   8.57018886
_cell_length_c   12.21993503
_cell_angle_alpha   90.00000000
_cell_angle_beta   91.21918142
_cell_angle_gamma   90.00000000
_symmetry_Int_Tables_number   1
_chemical_formula_structural   Cr2(PO4)3
_chemical_formula_sum   'Cr8 P12 O48'
_cell_volume   910.08065095
_cell_formula_units_Z   4
loop_
 _symmetry_equiv_pos_site_id
 _symmetry_equiv_pos_as_xyz
  1  'x, y, z'
loop_
 _atom_site_type_symbol
 _atom_site_label
 _atom_site_symmetry_multiplicity
 _atom_site_fract_x
 _atom_site_fract_y
 _atom_site_fract_z
 _atom_site_occupancy
  Cr  Cr0  1  0.21891749  0.50070939  0.14216335  1
  Cr  Cr1  1  0.21891749  0.49929061  0.64216335  1
  Cr  Cr2  1  0.28132968  0.00066243  0.35840376  1
  Cr  Cr3  1  0.28132968  0.99933757  0.85840376  1
  Cr  Cr4  1  0.71867032  0.00066243  0.14159624  1
  Cr  Cr5  1  0.71867032  0.99933757  0.64159624  1
  Cr  Cr6  1  0.78108251  0.50070939  0.35783665  1
  Cr  Cr7  1  0.78108251  0.49929061  0.85783665  1
  O  O8  1  0.02914891  0.39331622  0.10627864  1
  O  O9  1  0.02914891  0.60668378  0.60627864  1
  O  O10  1  0.08742812  0.89403446  0.33101569  1
  O  O11  1  0.08742812  0.10596554  0.83101569  1
  O  O12  1  0.11123125  0.68826891  0.18272477  1
  O  O13  1  0.11123125  0.31173109  0.68272477  1
  O  O14  1  0.16132291  0.17994615  0.40178938  1
  O  O15  1  0.16132291  0.82005385  0.90178938  1
  O  O16  1  0.22255054  0.42192531  0.29006155  1
  O  O17  1  0.26933794  0.07128652  0.00856733  1
  O  O18  1  0.22959559  0.42849494  0.49188011  1
  O  O19  1  0.22255054  0.57807469  0.79006155  1
  O  O20  1  0.26933794  0.92871348  0.50856733  1
  O  O21  1  0.22959559  0.57150506  0.99188011  1
  O  O22  1  0.28022415  0.07931177  0.21044601  1
  O  O23  1  0.28022415  0.92068823  0.71044601  1
  O  O24  1  0.33807297  0.32094924  0.09773663  1
  O  O25  1  0.33807297  0.67905076  0.59773663  1
  O  O26  1  0.38932224  0.81333292  0.31775104  1
  O  O27  1  0.38932224  0.18666708  0.81775104  1
  O  O28  1  0.41255786  0.60755228  0.16901038  1
  O  O29  1  0.41255786  0.39244772  0.66901038  1
  O  O30  1  0.47038474  0.10835580  0.39609572  1
  O  O31  1  0.47038474  0.89164420  0.89609572  1
  O  O32  1  0.52961526  0.10835580  0.10390428  1
  O  O33  1  0.52961526  0.89164420  0.60390428  1
  O  O34  1  0.58744214  0.60755228  0.33098962  1
  O  O35  1  0.58744214  0.39244772  0.83098962  1
  O  O36  1  0.61067776  0.81333292  0.18224896  1
  O  O37  1  0.61067776  0.18666708  0.68224896  1
  O  O38  1  0.66192703  0.32094924  0.40226337  1
  O  O39  1  0.66192703  0.67905076  0.90226337  1
  O  O40  1  0.71977585  0.07931177  0.28955399  1
  O  O41  1  0.71977585  0.92068823  0.78955399  1
  O  O42  1  0.77040441  0.42849494  0.00811989  1
  O  O43  1  0.73066206  0.07128652  0.49143267  1
  O  O44  1  0.77744946  0.42192531  0.20993845  1
  O  O45  1  0.77040441  0.57150506  0.50811989  1
  O  O46  1  0.73066206  0.92871348  0.99143267  1
  O  O47  1  0.77744946  0.57807469  0.70993845  1
  O  O48  1  0.83867709  0.17994615  0.09821062  1
  O  O49  1  0.83867709  0.82005385  0.59821062  1
  O  O50  1  0.88876875  0.68826891  0.31727523  1
  O  O51  1  0.88876875  0.31173109  0.81727523  1
  O  O52  1  0.91257188  0.89403446  0.16898431  1
  O  O53  1  0.91257188  0.10596554  0.66898431  1
  O  O54  1  0.97085109  0.39331622  0.39372136  1
  O  O55  1  0.97085109  0.60668378  0.89372136  1
  P  P56  1  0.00000000  0.21396651  0.75000000  1
  P  P57  1  0.14344625  0.35854999  0.39187362  1
  P  P58  1  0.14344625  0.64145001  0.89187362  1
  P  P59  1  0.35684038  0.14246456  0.10764188  1
  P  P60  1  0.35684038  0.85753544  0.60764188  1
  P  P61  1  0.50000000  0.71562087  0.25000000  1
  P  P62  1  0.50000000  0.28437913  0.75000000  1
  P  P63  1  0.64315962  0.14246456  0.39235812  1
  P  P64  1  0.64315962  0.85753544  0.89235812  1
  P  P65  1  0.85655375  0.35854999  0.10812638  1
  P  P66  1  0.85655375  0.64145001  0.60812638  1
  P  P67  1  0.00000000  0.78603349  0.25000000  1
