# generated using pymatgen
data_Mg2SiO4
_symmetry_space_group_name_H-M   'P 1'
_cell_length_a   5.76357592
_cell_length_b   7.69256154
_cell_length_c   7.69256155
_cell_angle_alpha   65.79554871
_cell_angle_beta   67.99916707
_cell_angle_gamma   67.99916705
_symmetry_Int_Tables_number   1
_chemical_formula_structural   Mg2SiO4
_chemical_formula_sum   'Mg8 Si4 O16'
_cell_volume   278.40016549
_cell_formula_units_Z   4
loop_
 _symmetry_equiv_pos_site_id
 _symmetry_equiv_pos_as_xyz
  1  'x, y, z'
loop_
 _atom_site_type_symbol
 _atom_site_label
 _atom_site_symmetry_multiplicity
 _atom_site_fract_x
 _atom_site_fract_y
 _atom_site_fract_z
 _atom_site_occupancy
  O  O0  1  0.63856615  0.61535014  0.62995946  1
  O  O1  1  0.88387575  0.38464986  0.37004054  1
  O  O2  1  0.86143385  0.87004054  0.88464986  1
  O  O3  1  0.61612425  0.12995946  0.11535014  1
  O  O4  1  0.36143385  0.38464986  0.37004054  1
  O  O5  1  0.11612425  0.61535014  0.62995946  1
  O  O6  1  0.13856615  0.12995946  0.11535014  1
  O  O7  1  0.38387575  0.87004054  0.88464986  1
  O  O8  1  0.48992848  0.25455825  0.76558478  1
  O  O9  1  0.51007152  0.74544175  0.23441522  1
  O  O10  1  0.01007152  0.73441522  0.24544175  1
  O  O11  1  0.98992848  0.26558478  0.75455825  1
  O  O12  1  0.25000000  0.96602324  0.53397676  1
  O  O13  1  0.75000000  0.03397676  0.46602324  1
  O  O14  1  0.25000000  0.46628922  0.03371078  1
  O  O15  1  0.75000000  0.53371078  0.96628922  1
  Mg  Mg16  1  0.00000000  0.00000000  0.00000000  1
  Mg  Mg17  1  0.50000000  0.50000000  0.50000000  1
  Mg  Mg18  1  0.25000000  0.71979000  0.78021000  1
  Mg  Mg19  1  0.75000000  0.28021000  0.21979000  1
  Mg  Mg20  1  0.87755975  0.12244025  0.62244025  1
  Mg  Mg21  1  0.62244025  0.87755975  0.37755975  1
  Mg  Mg22  1  0.12244025  0.87755975  0.37755975  1
  Mg  Mg23  1  0.37755975  0.12244025  0.62244025  1
  Si  Si24  1  0.11966141  0.49681848  0.26385871  1
  Si  Si25  1  0.88033859  0.50318152  0.73614129  1
  Si  Si26  1  0.38033859  0.23614129  0.00318152  1
  Si  Si27  1  0.61966141  0.76385871  0.99681848  1
