# generated using pymatgen
data_FeP2O7
_symmetry_space_group_name_H-M   'P 1'
_cell_length_a   5.14960802
_cell_length_b   6.79324933
_cell_length_c   8.38635621
_cell_angle_alpha   68.96720059
_cell_angle_beta   88.41363018
_cell_angle_gamma   88.20115597
_symmetry_Int_Tables_number   1
_chemical_formula_structural   FeP2O7
_chemical_formula_sum   'Fe2 P4 O14'
_cell_volume   273.65281370
_cell_formula_units_Z   2
loop_
 _symmetry_equiv_pos_site_id
 _symmetry_equiv_pos_as_xyz
  1  'x, y, z'
loop_
 _atom_site_type_symbol
 _atom_site_label
 _atom_site_symmetry_multiplicity
 _atom_site_fract_x
 _atom_site_fract_y
 _atom_site_fract_z
 _atom_site_occupancy
  O  O0  1  0.55992262  0.04078958  0.71402274  1
  O  O1  1  0.91567195  0.36007752  0.76081382  1
  O  O2  1  0.08433628  0.63992554  0.23919242  1
  O  O3  1  0.03791285  0.94728240  0.77578308  1
  O  O4  1  0.18736852  0.29146944  0.48024143  1
  O  O5  1  0.28390616  0.34216282  0.17008005  1
  O  O6  1  0.29813245  0.13061877  0.98280523  1
  O  O7  1  0.44007943  0.95920963  0.28596387  1
  O  O8  1  0.81264271  0.70855156  0.51974224  1
  O  O9  1  0.55185140  0.52732510  0.31401900  1
  O  O10  1  0.96209826  0.05269762  0.22421956  1
  O  O11  1  0.70185993  0.86936679  0.01720404  1
  O  O12  1  0.71609525  0.65781415  0.82992980  1
  O  O13  1  0.44816383  0.47266674  0.68599162  1
  P  P14  1  0.27506970  0.45452439  0.31017066  1
  P  P15  1  0.72493368  0.54544739  0.68983279  1
  P  P16  1  0.24308845  0.11024048  0.16787259  1
  P  P17  1  0.75692320  0.88976413  0.83213226  1
  Fe  Fe18  1  0.75673591  0.78740691  0.27048852  1
  Fe  Fe19  1  0.24320742  0.21265705  0.72948929  1
