# generated using pymatgen
data_Li2V(PO4)2
_symmetry_space_group_name_H-M   'P 1'
_cell_length_a   5.86912585
_cell_length_b   4.83299579
_cell_length_c   10.04832311
_cell_angle_alpha   90.00000000
_cell_angle_beta   90.31925713
_cell_angle_gamma   90.00000000
_symmetry_Int_Tables_number   1
_chemical_formula_structural   Li2V(PO4)2
_chemical_formula_sum   'Li4 V2 P4 O16'
_cell_volume   285.02088780
_cell_formula_units_Z   2
loop_
 _symmetry_equiv_pos_site_id
 _symmetry_equiv_pos_as_xyz
  1  'x, y, z'
loop_
 _atom_site_type_symbol
 _atom_site_label
 _atom_site_symmetry_multiplicity
 _atom_site_fract_x
 _atom_site_fract_y
 _atom_site_fract_z
 _atom_site_occupancy
  Li  Li0  1  0.55787788  0.00230707  0.00998887  1
  Li  Li1  1  0.75407725  0.46729941  0.21833314  1
  Li  Li2  1  0.75407725  0.03270059  0.71833314  1
  Li  Li3  1  0.55787788  0.49769293  0.50998887  1
  V  V4  1  0.23929732  0.52532393  0.77581290  1
  V  V5  1  0.23929732  0.97467607  0.27581290  1
  P  P6  1  0.24787892  0.40518843  0.09880890  1
  P  P7  1  0.74250363  0.95389004  0.40309864  1
  P  P8  1  0.24787892  0.09481157  0.59880890  1
  P  P9  1  0.74250363  0.54610996  0.90309864  1
  O  O10  1  0.73587875  0.26480748  0.39250911  1
  O  O11  1  0.95284747  0.82662456  0.32219927  1
  O  O12  1  0.45103762  0.25656961  0.66553512  1
  O  O13  1  0.52456750  0.81464832  0.32840271  1
  O  O14  1  0.74155091  0.83186421  0.54186205  1
  O  O15  1  0.52456750  0.68535168  0.82840271  1
  O  O16  1  0.73587875  0.23519252  0.89250911  1
  O  O17  1  0.05101106  0.26274657  0.17728116  1
  O  O18  1  0.05101106  0.23725343  0.67728116  1
  O  O19  1  0.95284747  0.67337544  0.82219927  1
  O  O20  1  0.24578736  0.32657421  0.94913080  1
  O  O21  1  0.45103762  0.24343039  0.16553512  1
  O  O22  1  0.74155091  0.66813579  0.04186205  1
  O  O23  1  0.25568434  0.72195376  0.11703733  1
  O  O24  1  0.25568434  0.77804624  0.61703733  1
  O  O25  1  0.24578736  0.17342579  0.44913080  1
