# generated using pymatgen
data_PbCClO2
_symmetry_space_group_name_H-M   'P 1'
_cell_length_a   4.24401597
_cell_length_b   4.24401976
_cell_length_c   9.51729224
_cell_angle_alpha   86.48744111
_cell_angle_beta   86.48971001
_cell_angle_gamma   89.38685082
_symmetry_Int_Tables_number   1
_chemical_formula_structural   PbCClO2
_chemical_formula_sum   'Pb2 C2 Cl2 O4'
_cell_volume   170.77528814
_cell_formula_units_Z   2
loop_
 _symmetry_equiv_pos_site_id
 _symmetry_equiv_pos_as_xyz
  1  'x, y, z'
loop_
 _atom_site_type_symbol
 _atom_site_label
 _atom_site_symmetry_multiplicity
 _atom_site_fract_x
 _atom_site_fract_y
 _atom_site_fract_z
 _atom_site_occupancy
  C  C0  1  0.63042372  0.36957726  0.49999860  1
  Pb  Pb1  1  0.77150059  0.77149633  0.77714891  1
  C  C2  1  0.36957301  0.63040477  0.49997737  1
  O  O3  1  0.32885466  0.78587400  0.60947104  1
  O  O4  1  0.21415204  0.67114270  0.39054889  1
  Cl  Cl5  1  0.72707730  0.72707804  0.11624372  1
  Pb  Pb6  1  0.22849301  0.22850542  0.22285440  1
  O  O7  1  0.78585988  0.32885519  0.60945917  1
  O  O8  1  0.67114248  0.21414422  0.39054268  1
  Cl  Cl9  1  0.27292332  0.27292208  0.88375523  1
