# generated using pymatgen
data_Mn
_symmetry_space_group_name_H-M   'P 1'
_cell_length_a   6.02690363
_cell_length_b   6.02690363
_cell_length_c   6.02690363
_cell_angle_alpha   90.00000000
_cell_angle_beta   90.00000000
_cell_angle_gamma   90.00000000
_symmetry_Int_Tables_number   1
_chemical_formula_structural   Mn
_chemical_formula_sum   Mn20
_cell_volume   218.91864001
_cell_formula_units_Z   20
loop_
 _symmetry_equiv_pos_site_id
 _symmetry_equiv_pos_as_xyz
  1  'x, y, z'
loop_
 _atom_site_type_symbol
 _atom_site_label
 _atom_site_symmetry_multiplicity
 _atom_site_fract_x
 _atom_site_fract_y
 _atom_site_fract_z
 _atom_site_occupancy
  Mn  Mn0  1  0.19461988  0.80538012  0.30538012  1
  Mn  Mn1  1  0.30538012  0.19461988  0.80538012  1
  Mn  Mn2  1  0.80538012  0.30538012  0.19461988  1
  Mn  Mn3  1  0.69461988  0.69461988  0.69461988  1
  Mn  Mn4  1  0.55538012  0.44461988  0.94461988  1
  Mn  Mn5  1  0.44461988  0.94461988  0.55538012  1
  Mn  Mn6  1  0.94461988  0.55538012  0.44461988  1
  Mn  Mn7  1  0.05538012  0.05538012  0.05538012  1
  Mn  Mn8  1  0.80121058  0.94878942  0.37500000  1
  Mn  Mn9  1  0.69878942  0.05121058  0.87500000  1
  Mn  Mn10  1  0.19878942  0.44878942  0.12500000  1
  Mn  Mn11  1  0.30121058  0.55121058  0.62500000  1
  Mn  Mn12  1  0.94878942  0.37500000  0.80121058  1
  Mn  Mn13  1  0.05121058  0.87500000  0.69878942  1
  Mn  Mn14  1  0.44878942  0.12500000  0.19878942  1
  Mn  Mn15  1  0.55121058  0.62500000  0.30121058  1
  Mn  Mn16  1  0.37500000  0.80121058  0.94878942  1
  Mn  Mn17  1  0.87500000  0.69878942  0.05121058  1
  Mn  Mn18  1  0.12500000  0.19878942  0.44878942  1
  Mn  Mn19  1  0.62500000  0.30121058  0.55121058  1
