# generated using pymatgen
data_FeP2O7
_symmetry_space_group_name_H-M   'P 1'
_cell_length_a   7.41294014
_cell_length_b   8.16106213
_cell_length_c   9.62341611
_cell_angle_alpha   90.00000000
_cell_angle_beta   110.63777766
_cell_angle_gamma   90.00000000
_symmetry_Int_Tables_number   1
_chemical_formula_structural   FeP2O7
_chemical_formula_sum   'Fe4 P8 O28'
_cell_volume   544.83145726
_cell_formula_units_Z   4
loop_
 _symmetry_equiv_pos_site_id
 _symmetry_equiv_pos_as_xyz
  1  'x, y, z'
loop_
 _atom_site_type_symbol
 _atom_site_label
 _atom_site_symmetry_multiplicity
 _atom_site_fract_x
 _atom_site_fract_y
 _atom_site_fract_z
 _atom_site_occupancy
  Fe  Fe0  1  0.26864569  0.49248192  0.75002458  1
  Fe  Fe1  1  0.73135431  0.99248192  0.74997542  1
  Fe  Fe2  1  0.73135431  0.50751808  0.24997542  1
  Fe  Fe3  1  0.26864569  0.00751808  0.25002458  1
  P  P4  1  0.92857041  0.73979924  0.55240228  1
  P  P5  1  0.67854540  0.29644531  0.94780414  1
  P  P6  1  0.07142959  0.26020076  0.44759772  1
  P  P7  1  0.32145460  0.70355469  0.05219586  1
  P  P8  1  0.32145460  0.79644531  0.55219586  1
  P  P9  1  0.07142959  0.23979924  0.94759772  1
  P  P10  1  0.92857041  0.76020076  0.05240228  1
  P  P11  1  0.67854540  0.20355469  0.44780414  1
  O  O12  1  0.54108387  0.08176962  0.34308677  1
  O  O13  1  0.80648120  0.64582622  0.10690241  1
  O  O14  1  0.35490389  0.61915443  0.60473176  1
  O  O15  1  0.35490389  0.88084557  0.10473176  1
  O  O16  1  0.32031718  0.81443287  0.39354959  1
  O  O17  1  0.32031718  0.68556713  0.89354959  1
  O  O18  1  0.80648120  0.85417378  0.60690241  1
  O  O19  1  0.11042390  0.65147049  0.05173082  1
  O  O20  1  0.81453627  0.80645844  0.89174407  1
  O  O21  1  0.00307416  0.90862708  0.15348821  1
  O  O22  1  0.67968282  0.31443287  0.10645041  1
  O  O23  1  0.19351880  0.14582622  0.39309759  1
  O  O24  1  0.19351880  0.35417378  0.89309759  1
  O  O25  1  0.45891613  0.58176962  0.15691323  1
  O  O26  1  0.67968282  0.18556713  0.60645041  1
  O  O27  1  0.54108387  0.41823038  0.84308677  1
  O  O28  1  0.88957610  0.15147049  0.44826918  1
  O  O29  1  0.64509611  0.38084557  0.39526824  1
  O  O30  1  0.45891613  0.91823038  0.65691323  1
  O  O31  1  0.00307416  0.59137292  0.65348821  1
  O  O32  1  0.64509611  0.11915443  0.89526824  1
  O  O33  1  0.18546373  0.19354156  0.10825593  1
  O  O34  1  0.99692584  0.40862708  0.34651179  1
  O  O35  1  0.18546373  0.30645844  0.60825593  1
  O  O36  1  0.81453627  0.69354156  0.39174407  1
  O  O37  1  0.99692584  0.09137292  0.84651179  1
  O  O38  1  0.11042390  0.84852951  0.55173082  1
  O  O39  1  0.88957610  0.34852951  0.94826918  1
