# generated using pymatgen
data_Na6TlSb4
_symmetry_space_group_name_H-M   'P 1'
_cell_length_a   9.27675499
_cell_length_b   9.27479340
_cell_length_c   17.11271040
_cell_angle_alpha   99.90659471
_cell_angle_beta   101.26821358
_cell_angle_gamma   108.79011965
_symmetry_Int_Tables_number   1
_chemical_formula_structural   Na6TlSb4
_chemical_formula_sum   'Na24 Tl4 Sb16'
_cell_volume   1322.53003982
_cell_formula_units_Z   4
loop_
 _symmetry_equiv_pos_site_id
 _symmetry_equiv_pos_as_xyz
  1  'x, y, z'
loop_
 _atom_site_type_symbol
 _atom_site_label
 _atom_site_symmetry_multiplicity
 _atom_site_fract_x
 _atom_site_fract_y
 _atom_site_fract_z
 _atom_site_occupancy
  Tl  Tl0  1  0.41174488  0.55877110  0.66906843  1
  Tl  Tl1  1  0.38964054  0.74261990  0.83099359  1
  Tl  Tl2  1  0.58825512  0.44122890  0.33093157  1
  Tl  Tl3  1  0.61035946  0.25738010  0.16900641  1
  Sb  Sb4  1  0.07535941  0.29629526  0.57273254  1
  Sb  Sb5  1  0.22354444  0.50259667  0.92728953  1
  Sb  Sb6  1  0.92464059  0.70370474  0.42726746  1
  Sb  Sb7  1  0.77645556  0.49740333  0.07271047  1
  Sb  Sb8  1  0.55501261  0.79613086  0.57131410  1
  Sb  Sb9  1  0.72480563  0.98372742  0.92868101  1
  Sb  Sb10  1  0.44498739  0.20386914  0.42868590  1
  Sb  Sb11  1  0.27519437  0.01627258  0.07131899  1
  Sb  Sb12  1  0.63182350  0.38321337  0.72935632  1
  Sb  Sb13  1  0.15398868  0.90255321  0.77055418  1
  Sb  Sb14  1  0.36817650  0.61678663  0.27064368  1
  Sb  Sb15  1  0.84601132  0.09744679  0.22944582  1
  Sb  Sb16  1  0.68177324  0.85454951  0.41422515  1
  Sb  Sb17  1  0.94026213  0.26755520  0.08577503  1
  Sb  Sb18  1  0.31822676  0.14545049  0.58577485  1
  Sb  Sb19  1  0.05973787  0.73244480  0.91422497  1
  Na  Na20  1  0.69706603  0.52923398  0.55356010  1
  Na  Na21  1  0.47584354  0.14363770  0.94645398  1
  Na  Na22  1  0.30293397  0.47076602  0.44643990  1
  Na  Na23  1  0.52415646  0.85636230  0.05354602  1
  Na  Na24  1  0.94606407  0.94334465  0.59944278  1
  Na  Na25  1  0.84397352  0.34669003  0.90050979  1
  Na  Na26  1  0.05393593  0.05665535  0.40055722  1
  Na  Na27  1  0.15602648  0.65330997  0.09949021  1
  Na  Na28  1  0.78443387  0.78468668  0.76195691  1
  Na  Na29  1  0.52265246  0.02220977  0.73810985  1
  Na  Na30  1  0.21556613  0.21531332  0.23804309  1
  Na  Na31  1  0.47734754  0.97779023  0.26189015  1
  Na  Na32  1  0.00553444  0.49370600  0.73464003  1
  Na  Na33  1  0.25887223  0.27112277  0.76533626  1
  Na  Na34  1  0.99446556  0.50629400  0.26535997  1
  Na  Na35  1  0.74112777  0.72887723  0.23466374  1
  Na  Na36  1  0.69260894  0.15708004  0.57719500  1
  Na  Na37  1  0.07992986  0.11553920  0.92277037  1
  Na  Na38  1  0.30739106  0.84291996  0.42280500  1
  Na  Na39  1  0.92007014  0.88446080  0.07722963  1
  Na  Na40  1  0.17315352  0.71710296  0.59188459  1
  Na  Na41  1  0.62562523  0.58136167  0.90798265  1
  Na  Na42  1  0.82684648  0.28289704  0.40811541  1
  Na  Na43  1  0.37437477  0.41863833  0.09201735  1
