# generated using pymatgen
data_CrP2O7
_symmetry_space_group_name_H-M   'P 1'
_cell_length_a   6.84585530
_cell_length_b   8.08073049
_cell_length_c   9.35373075
_cell_angle_alpha   90.00000000
_cell_angle_beta   108.35928286
_cell_angle_gamma   90.00000000
_symmetry_Int_Tables_number   1
_chemical_formula_structural   CrP2O7
_chemical_formula_sum   'Cr4 P8 O28'
_cell_volume   491.10597216
_cell_formula_units_Z   4
loop_
 _symmetry_equiv_pos_site_id
 _symmetry_equiv_pos_as_xyz
  1  'x, y, z'
loop_
 _atom_site_type_symbol
 _atom_site_label
 _atom_site_symmetry_multiplicity
 _atom_site_fract_x
 _atom_site_fract_y
 _atom_site_fract_z
 _atom_site_occupancy
  Cr  Cr0  1  0.27940613  0.22830435  0.99514621  1
  Cr  Cr1  1  0.27940613  0.27169565  0.49514621  1
  Cr  Cr2  1  0.72059387  0.72830435  0.50485379  1
  Cr  Cr3  1  0.72059387  0.77169565  0.00485379  1
  O  O4  1  0.11205682  0.39872182  0.86447037  1
  O  O5  1  0.13986015  0.05521836  0.84421291  1
  O  O6  1  0.08573829  0.33409142  0.59307263  1
  O  O7  1  0.23480932  0.61319692  0.70745946  1
  O  O8  1  0.11205682  0.10127818  0.36447037  1
  O  O9  1  0.13986015  0.44478164  0.34421291  1
  O  O10  1  0.08573829  0.16590858  0.09307263  1
  O  O11  1  0.48334367  0.22631344  0.89023578  1
  O  O12  1  0.39516282  0.09412679  0.62822941  1
  O  O13  1  0.23480932  0.88680308  0.20745946  1
  O  O14  1  0.52443887  0.91704841  0.86181194  1
  O  O15  1  0.47556113  0.41704841  0.63818806  1
  O  O16  1  0.60483718  0.59412679  0.87177059  1
  O  O17  1  0.51665633  0.72631344  0.60976422  1
  O  O18  1  0.48334367  0.27368656  0.39023578  1
  O  O19  1  0.39516282  0.40587321  0.12822941  1
  O  O20  1  0.52443887  0.58295159  0.36181194  1
  O  O21  1  0.47556113  0.08295159  0.13818806  1
  O  O22  1  0.76519068  0.11319692  0.79254054  1
  O  O23  1  0.60483718  0.90587321  0.37177059  1
  O  O24  1  0.51665633  0.77368656  0.10976422  1
  O  O25  1  0.91426171  0.83409142  0.90692737  1
  O  O26  1  0.86013985  0.55521836  0.65578709  1
  O  O27  1  0.88794318  0.89872182  0.63552963  1
  O  O28  1  0.76519068  0.38680308  0.29254054  1
  O  O29  1  0.91426171  0.66590858  0.40692737  1
  O  O30  1  0.86013985  0.94478164  0.15578709  1
  O  O31  1  0.88794318  0.60127818  0.13552963  1
  P  P32  1  0.06775753  0.46930998  0.70659860  1
  P  P33  1  0.06775753  0.03069002  0.20659860  1
  P  P34  1  0.46743534  0.58718039  0.70549941  1
  P  P35  1  0.53256466  0.08718039  0.79450059  1
  P  P36  1  0.46743534  0.91281961  0.20549941  1
  P  P37  1  0.53256466  0.41281961  0.29450059  1
  P  P38  1  0.93224247  0.96930998  0.79340140  1
  P  P39  1  0.93224247  0.53069002  0.29340140  1
