# generated using pymatgen
data_BaMn4O8
_symmetry_space_group_name_H-M   'P 1'
_cell_length_a   3.16422963
_cell_length_b   7.08524573
_cell_length_c   7.10360805
_cell_angle_alpha   86.90337210
_cell_angle_beta   77.12579217
_cell_angle_gamma   77.09460750
_symmetry_Int_Tables_number   1
_chemical_formula_structural   BaMn4O8
_chemical_formula_sum   'Ba1 Mn4 O8'
_cell_volume   151.33151216
_cell_formula_units_Z   1
loop_
 _symmetry_equiv_pos_site_id
 _symmetry_equiv_pos_as_xyz
  1  'x, y, z'
loop_
 _atom_site_type_symbol
 _atom_site_label
 _atom_site_symmetry_multiplicity
 _atom_site_fract_x
 _atom_site_fract_y
 _atom_site_fract_z
 _atom_site_occupancy
  O  O0  1  0.45756660  0.37206291  0.71268685  1
  O  O1  1  0.54243243  0.62793739  0.28731189  1
  O  O2  1  0.83373256  0.70869604  0.62387541  1
  O  O3  1  0.16626784  0.29130549  0.37612467  1
  O  O4  1  0.84904289  0.95733639  0.34460797  1
  O  O5  1  0.19489895  0.65546796  0.95479000  1
  O  O6  1  0.15095549  0.04266451  0.65539043  1
  O  O7  1  0.80509983  0.34453275  0.04520987  1
  Mn  Mn8  1  0.65076726  0.18467063  0.51366293  1
  Mn  Mn9  1  0.34923390  0.81532730  0.48633713  1
  Mn  Mn10  1  0.16395279  0.48773400  0.18447929  1
  Mn  Mn11  1  0.83605284  0.51226346  0.81551845  1
  Ba  Ba12  1  0.49999961  0.00000018  0.00000009  1
