# generated using pymatgen
data_Li2Co3(P2O7)2
_symmetry_space_group_name_H-M   'P 1'
_cell_length_a   5.52364838
_cell_length_b   6.90823715
_cell_length_c   7.39979125
_cell_angle_alpha   74.25715415
_cell_angle_beta   82.11752397
_cell_angle_gamma   67.60106397
_symmetry_Int_Tables_number   1
_chemical_formula_structural   Li2Co3(P2O7)2
_chemical_formula_sum   'Li2 Co3 P4 O14'
_cell_volume   251.08904770
_cell_formula_units_Z   1
loop_
 _symmetry_equiv_pos_site_id
 _symmetry_equiv_pos_as_xyz
  1  'x, y, z'
loop_
 _atom_site_type_symbol
 _atom_site_label
 _atom_site_symmetry_multiplicity
 _atom_site_fract_x
 _atom_site_fract_y
 _atom_site_fract_z
 _atom_site_occupancy
  Li  Li0  1  0.64271397  0.02728701  0.68830906  1
  Li  Li1  1  0.35728703  0.97271299  0.31169194  1
  O  O2  1  0.33057146  0.27111031  0.14969454  1
  O  O3  1  0.36446162  0.77286067  0.14389362  1
  O  O4  1  0.83496839  0.76682909  0.14188162  1
  O  O5  1  0.16503261  0.23316891  0.85811838  1
  O  O6  1  0.05620611  0.64397653  0.55189789  1
  O  O7  1  0.94379489  0.35602247  0.44810211  1
  O  O8  1  0.03276562  0.94039055  0.71390208  1
  O  O9  1  0.96723538  0.05960845  0.28609792  1
  O  O10  1  0.54035524  0.27328676  0.44617437  1
  O  O11  1  0.66942954  0.72888969  0.85030446  1
  O  O12  1  0.63553838  0.22713933  0.85610538  1
  O  O13  1  0.45964576  0.72671424  0.55382563  1
  O  O14  1  0.74600885  0.43435687  0.13575838  1
  O  O15  1  0.25399215  0.56564413  0.86424162  1
  P  P16  1  0.19921302  0.73124662  0.65884950  1
  P  P17  1  0.34935774  0.31001596  0.93753793  1
  P  P18  1  0.65064226  0.68998404  0.06246207  1
  P  P19  1  0.80078798  0.26875138  0.34115150  1
  Co  Co20  1  0.80694827  0.48484662  0.68280946  1
  Co  Co21  1  0.19305273  0.51515338  0.31718954  1
  Co  Co22  1  0.00000000  0.00000000  0.00000000  1
