# generated using pymatgen
data_Mn(Bi3O5)4
_symmetry_space_group_name_H-M   'P 1'
_cell_length_a   8.92446748
_cell_length_b   8.92446719
_cell_length_c   8.92446749
_cell_angle_alpha   109.47122366
_cell_angle_beta   109.47122299
_cell_angle_gamma   109.47121891
_symmetry_Int_Tables_number   1
_chemical_formula_structural   Mn(Bi3O5)4
_chemical_formula_sum   'Mn1 Bi12 O20'
_cell_volume   547.17344183
_cell_formula_units_Z   1
loop_
 _symmetry_equiv_pos_site_id
 _symmetry_equiv_pos_as_xyz
  1  'x, y, z'
loop_
 _atom_site_type_symbol
 _atom_site_label
 _atom_site_symmetry_multiplicity
 _atom_site_fract_x
 _atom_site_fract_y
 _atom_site_fract_z
 _atom_site_occupancy
  Bi  Bi0  1  0.33351492  0.19267813  0.49581668  1
  Bi  Bi1  1  0.83769824  0.50418332  0.69686145  1
  Bi  Bi2  1  0.14083679  0.30313855  0.80732187  1
  Bi  Bi3  1  0.16230176  0.85916321  0.66648508  1
  Bi  Bi4  1  0.50418332  0.69686145  0.83769824  1
  Bi  Bi5  1  0.80732187  0.14083679  0.30313855  1
  Bi  Bi6  1  0.85916321  0.66648508  0.16230176  1
  Bi  Bi7  1  0.49581668  0.33351492  0.19267813  1
  Bi  Bi8  1  0.19267813  0.49581668  0.33351492  1
  Bi  Bi9  1  0.69686145  0.83769824  0.50418332  1
  Bi  Bi10  1  0.30313855  0.80732187  0.14083679  1
  Bi  Bi11  1  0.66648508  0.16230176  0.85916321  1
  Mn  Mn12  1  0.00000000  0.00000000  0.00000000  1
  O  O13  1  0.38926259  0.38926259  0.38926259  1
  O  O14  1  1.00000000  0.61073741  1.00000000  1
  O  O15  1  1.00000000  1.00000000  0.61073741  1
  O  O16  1  0.61073741  0.00000000  1.00000000  1
  O  O17  1  0.73939587  0.61984842  0.38182785  1
  O  O18  1  0.35756801  0.61817215  0.23802057  1
  O  O19  1  0.11954744  0.76197943  0.38015158  1
  O  O20  1  0.64243199  0.88045256  0.26060413  1
  O  O21  1  0.61817215  0.23802057  0.35756801  1
  O  O22  1  0.38015158  0.11954744  0.76197943  1
  O  O23  1  0.88045256  0.26060413  0.64243199  1
  O  O24  1  0.38182785  0.73939587  0.61984842  1
  O  O25  1  0.61984842  0.38182785  0.73939587  1
  O  O26  1  0.23802057  0.35756801  0.61817215  1
  O  O27  1  0.76197943  0.38015158  0.11954744  1
  O  O28  1  0.26060413  0.64243199  0.88045256  1
  O  O29  1  0.79375070  0.79375070  0.79375070  1
  O  O30  1  1.00000000  0.20624930  1.00000000  1
  O  O31  1  1.00000000  1.00000000  0.20624930  1
  O  O32  1  0.20624930  0.00000000  1.00000000  1
