# generated using pymatgen
data_U2W2C3
_symmetry_space_group_name_H-M   'P 1'
_cell_length_a   3.14978013
_cell_length_b   5.56140729
_cell_length_c   5.97508814
_cell_angle_alpha   104.42191713
_cell_angle_beta   105.28235801
_cell_angle_gamma   90.00000000
_symmetry_Int_Tables_number   1
_chemical_formula_structural   U2W2C3
_chemical_formula_sum   'U2 W2 C3'
_cell_volume   97.54237328
_cell_formula_units_Z   1
loop_
 _symmetry_equiv_pos_site_id
 _symmetry_equiv_pos_as_xyz
  1  'x, y, z'
loop_
 _atom_site_type_symbol
 _atom_site_label
 _atom_site_symmetry_multiplicity
 _atom_site_fract_x
 _atom_site_fract_y
 _atom_site_fract_z
 _atom_site_occupancy
  U  U0  1  0.60248497  0.33460076  0.20496994  1
  U  U1  1  0.39751503  0.66539924  0.79503006  1
  W  W2  1  0.84604131  0.13310759  0.69208262  1
  W  W3  1  0.15395869  0.86689241  0.30791738  1
  C  C4  1  0.25099345  0.26101254  0.50198690  1
  C  C5  1  0.74900655  0.73898746  0.49801310  1
  C  C6  1  -0.00000000  0.00000000  -0.00000000  1
