# generated using pymatgen
data_RbBiAs6H24C8(S6N)2
_symmetry_space_group_name_H-M   'P 1'
_cell_length_a   11.17895637
_cell_length_b   11.17895629
_cell_length_c   11.17895648
_cell_angle_alpha   53.38964977
_cell_angle_beta   53.38965009
_cell_angle_gamma   53.38964966
_symmetry_Int_Tables_number   1
_chemical_formula_structural   RbBiAs6H24C8(S6N)2
_chemical_formula_sum   'Rb1 Bi1 As6 H24 C8 S12 N2'
_cell_volume   834.98925953
_cell_formula_units_Z   1
loop_
 _symmetry_equiv_pos_site_id
 _symmetry_equiv_pos_as_xyz
  1  'x, y, z'
loop_
 _atom_site_type_symbol
 _atom_site_label
 _atom_site_symmetry_multiplicity
 _atom_site_fract_x
 _atom_site_fract_y
 _atom_site_fract_z
 _atom_site_occupancy
  Rb  Rb0  1  0.50000000  0.50000000  0.50000000  1
  Bi  Bi1  1  0.00000000  0.00000000  0.00000000  1
  As  As2  1  0.80495270  0.69257616  0.42179147  1
  As  As3  1  0.19504730  0.30742384  0.57820853  1
  As  As4  1  0.69257616  0.42179147  0.80495270  1
  As  As5  1  0.30742384  0.57820853  0.19504730  1
  As  As6  1  0.57820853  0.19504730  0.30742384  1
  As  As7  1  0.42179147  0.80495270  0.69257616  1
  H  H8  1  0.01150267  0.42097992  0.13121205  1
  H  H9  1  0.33133528  0.94611193  0.28472762  1
  H  H10  1  0.16785160  0.98340907  0.25604256  1
  H  H11  1  0.57902008  0.86878795  0.98849733  1
  H  H12  1  0.71527238  0.66866472  0.05388807  1
  H  H13  1  0.66866472  0.05388807  0.71527238  1
  H  H14  1  0.23126104  0.36997739  0.16780564  1
  H  H15  1  0.98340907  0.25604256  0.16785160  1
  H  H16  1  0.42097992  0.13121205  0.01150267  1
  H  H17  1  0.76873896  0.63002261  0.83219436  1
  H  H18  1  0.74395744  0.83214840  0.01659093  1
  H  H19  1  0.13121205  0.01150267  0.42097992  1
  H  H20  1  0.05388807  0.71527238  0.66866472  1
  H  H21  1  0.63002261  0.83219436  0.76873896  1
  H  H22  1  0.28472762  0.33133528  0.94611193  1
  H  H23  1  0.36997739  0.16780564  0.23126104  1
  H  H24  1  0.94611193  0.28472762  0.33133528  1
  H  H25  1  0.86878795  0.98849733  0.57902008  1
  H  H26  1  0.83219436  0.76873896  0.63002261  1
  H  H27  1  0.98849733  0.57902008  0.86878795  1
  H  H28  1  0.01659093  0.74395744  0.83214840  1
  H  H29  1  0.16780564  0.23126104  0.36997739  1
  H  H30  1  0.25604256  0.16785160  0.98340907  1
  H  H31  1  0.83214840  0.01659093  0.74395744  1
  C  C32  1  0.79434894  0.97961197  0.70398772  1
  C  C33  1  0.70398772  0.79434894  0.97961197  1
  C  C34  1  0.29601228  0.20565106  0.02038803  1
  C  C35  1  0.24412195  0.24412195  0.24412195  1
  C  C36  1  0.97961197  0.70398772  0.79434894  1
  C  C37  1  0.75587805  0.75587805  0.75587805  1
  C  C38  1  0.20565106  0.02038803  0.29601228  1
  C  C39  1  0.02038803  0.29601228  0.20565106  1
  S  S40  1  0.82683600  0.42471662  0.54367187  1
  S  S41  1  0.42471662  0.54367187  0.82683600  1
  S  S42  1  0.57528338  0.45632813  0.17316400  1
  S  S43  1  0.83010019  0.05118282  0.29410569  1
  S  S44  1  0.94881718  0.70589431  0.16989981  1
  S  S45  1  0.05118282  0.29410569  0.83010019  1
  S  S46  1  0.29410569  0.83010019  0.05118282  1
  S  S47  1  0.70589431  0.16989981  0.94881718  1
  S  S48  1  0.54367187  0.82683600  0.42471662  1
  S  S49  1  0.16989981  0.94881718  0.70589431  1
  S  S50  1  0.17316400  0.57528338  0.45632813  1
  S  S51  1  0.45632813  0.17316400  0.57528338  1
  N  N52  1  0.80834236  0.80834236  0.80834236  1
  N  N53  1  0.19165764  0.19165764  0.19165764  1
