# generated using pymatgen
data_Li2ZrF6
_symmetry_space_group_name_H-M   'P 1'
_cell_length_a   5.18887743
_cell_length_b   6.50415035
_cell_length_c   6.50414939
_cell_angle_alpha   75.35894006
_cell_angle_beta   71.24150854
_cell_angle_gamma   71.24151559
_symmetry_Int_Tables_number   1
_chemical_formula_structural   Li2ZrF6
_chemical_formula_sum   'Li4 Zr2 F12'
_cell_volume   194.06009372
_cell_formula_units_Z   2
loop_
 _symmetry_equiv_pos_site_id
 _symmetry_equiv_pos_as_xyz
  1  'x, y, z'
loop_
 _atom_site_type_symbol
 _atom_site_label
 _atom_site_symmetry_multiplicity
 _atom_site_fract_x
 _atom_site_fract_y
 _atom_site_fract_z
 _atom_site_occupancy
  Li  Li0  1  0.09016283  0.29643084  0.13482228  1
  Li  Li1  1  0.40983717  0.86517772  0.70356916  1
  Li  Li2  1  0.90983717  0.70356916  0.86517772  1
  Li  Li3  1  0.59016283  0.13482228  0.29643084  1
  Zr  Zr4  1  0.75000000  0.31725054  0.68274946  1
  Zr  Zr5  1  0.25000000  0.68274946  0.31725054  1
  F  F6  1  0.00347442  0.99960390  0.74992267  1
  F  F7  1  0.55729414  0.11340243  0.62991149  1
  F  F8  1  0.05729414  0.62991149  0.11340243  1
  F  F9  1  0.44270586  0.88659757  0.37008851  1
  F  F10  1  0.50347442  0.74992267  0.99960390  1
  F  F11  1  0.64777487  0.42864289  0.32993049  1
  F  F12  1  0.94270586  0.37008851  0.88659757  1
  F  F13  1  0.85222513  0.67006951  0.57135711  1
  F  F14  1  0.99652558  0.00039610  0.25007733  1
  F  F15  1  0.49652558  0.25007733  0.00039610  1
  F  F16  1  0.35222513  0.57135711  0.67006951  1
  F  F17  1  0.14777487  0.32993049  0.42864289  1
