# generated using pymatgen
data_La6S4N3Cl
_symmetry_space_group_name_H-M   'P 1'
_cell_length_a   4.11846630
_cell_length_b   11.91534178
_cell_length_c   27.23135551
_cell_angle_alpha   90.00000000
_cell_angle_beta   90.00000000
_cell_angle_gamma   90.00000000
_symmetry_Int_Tables_number   1
_chemical_formula_structural   La6S4N3Cl
_chemical_formula_sum   'La24 S16 N12 Cl4'
_cell_volume   1336.32250007
_cell_formula_units_Z   4
loop_
 _symmetry_equiv_pos_site_id
 _symmetry_equiv_pos_as_xyz
  1  'x, y, z'
loop_
 _atom_site_type_symbol
 _atom_site_label
 _atom_site_symmetry_multiplicity
 _atom_site_fract_x
 _atom_site_fract_y
 _atom_site_fract_z
 _atom_site_occupancy
  La  La0  1  0.25000000  0.23277657  0.06498865  1
  La  La1  1  0.75000000  0.05810188  0.42604581  1
  La  La2  1  0.25000000  0.90912932  0.04040484  1
  La  La3  1  0.25000000  0.23787513  0.33000971  1
  La  La4  1  0.25000000  0.38464296  0.70580078  1
  La  La5  1  0.25000000  0.44525963  0.18977438  1
  La  La6  1  0.25000000  0.94189812  0.57395419  1
  La  La7  1  0.75000000  0.61535704  0.29419922  1
  La  La8  1  0.75000000  0.55474037  0.81022562  1
  La  La9  1  0.75000000  0.55810188  0.07395419  1
  La  La10  1  0.75000000  0.76212487  0.66999029  1
  La  La11  1  0.75000000  0.09087068  0.95959516  1
  La  La12  1  0.75000000  0.11535704  0.20580078  1
  La  La13  1  0.25000000  0.44189812  0.92604581  1
  La  La14  1  0.75000000  0.26212487  0.83000971  1
  La  La15  1  0.25000000  0.73787513  0.16999029  1
  La  La16  1  0.25000000  0.88464296  0.79419922  1
  La  La17  1  0.25000000  0.73277657  0.43501135  1
  La  La18  1  0.75000000  0.59087068  0.54040484  1
  La  La19  1  0.75000000  0.26722343  0.56498865  1
  La  La20  1  0.25000000  0.40912932  0.45959516  1
  La  La21  1  0.75000000  0.76722343  0.93501135  1
  La  La22  1  0.25000000  0.94525963  0.31022562  1
  La  La23  1  0.75000000  0.05474037  0.68977438  1
  S  S24  1  0.25000000  0.21374433  0.89586246  1
  S  S25  1  0.25000000  0.04456508  0.13607081  1
  S  S26  1  0.25000000  0.64730643  0.99464733  1
  S  S27  1  0.75000000  0.81919298  0.36114687  1
  S  S28  1  0.25000000  0.18080702  0.63885313  1
  S  S29  1  0.75000000  0.28625567  0.39586246  1
  S  S30  1  0.75000000  0.31919298  0.13885313  1
  S  S31  1  0.25000000  0.71374433  0.60413754  1
  S  S32  1  0.25000000  0.68080702  0.86114687  1
  S  S33  1  0.25000000  0.14730643  0.50535267  1
  S  S34  1  0.75000000  0.95543492  0.86392919  1
  S  S35  1  0.25000000  0.54456508  0.36392919  1
  S  S36  1  0.75000000  0.35269357  0.00535267  1
  S  S37  1  0.75000000  0.85269357  0.49464733  1
  S  S38  1  0.75000000  0.45543492  0.63607081  1
  S  S39  1  0.75000000  0.78625567  0.10413754  1
  N  N40  1  0.75000000  0.90346983  0.98937443  1
  N  N41  1  0.75000000  0.43607904  0.87522148  1
  N  N42  1  0.25000000  0.11081736  0.26123510  1
  N  N43  1  0.25000000  0.56392096  0.12477852  1
  N  N44  1  0.25000000  0.61081736  0.23876490  1
  N  N45  1  0.75000000  0.40346983  0.51062557  1
  N  N46  1  0.75000000  0.93607904  0.62477852  1
  N  N47  1  0.25000000  0.09653017  0.01062557  1
  N  N48  1  0.25000000  0.59653017  0.48937443  1
  N  N49  1  0.25000000  0.06392096  0.37522148  1
  N  N50  1  0.75000000  0.88918264  0.73876490  1
  N  N51  1  0.75000000  0.38918264  0.76123510  1
  Cl  Cl52  1  0.25000000  0.13568641  0.76544163  1
  Cl  Cl53  1  0.75000000  0.36431359  0.26544163  1
  Cl  Cl54  1  0.25000000  0.63568641  0.73455837  1
  Cl  Cl55  1  0.75000000  0.86431359  0.23455837  1
