# generated using pymatgen
data_SnS
_symmetry_space_group_name_H-M   'P 1'
_cell_length_a   4.14051905
_cell_length_b   4.14051889
_cell_length_c   22.77400741
_cell_angle_alpha   90.00000000
_cell_angle_beta   90.00000000
_cell_angle_gamma   90.59822384
_symmetry_Int_Tables_number   1
_chemical_formula_structural   SnS
_chemical_formula_sum   'Sn2 S2'
_cell_volume   390.41396392
_cell_formula_units_Z   2
loop_
 _symmetry_equiv_pos_site_id
 _symmetry_equiv_pos_as_xyz
  1  'x, y, z'
loop_
 _atom_site_type_symbol
 _atom_site_label
 _atom_site_symmetry_multiplicity
 _atom_site_fract_x
 _atom_site_fract_y
 _atom_site_fract_z
 _atom_site_occupancy
  Sn  Sn0  1  0.75100039  0.74899961  0.43555466  1
  Sn  Sn1  1  0.25100039  0.24899961  0.56444534  1
  S  S2  1  0.21499961  0.28500039  0.45146047  1
  S  S3  1  0.71499961  0.78500039  0.54853953  1
