# generated using pymatgen
data_TiO2
_symmetry_space_group_name_H-M   'P 1'
_cell_length_a   5.61627743
_cell_length_b   5.61627701
_cell_length_c   6.12682986
_cell_angle_alpha   90.00000000
_cell_angle_beta   90.00000000
_cell_angle_gamma   120.00000254
_symmetry_Int_Tables_number   1
_chemical_formula_structural   TiO2
_chemical_formula_sum   'Ti3 O6'
_cell_volume   167.36456525
_cell_formula_units_Z   3
loop_
 _symmetry_equiv_pos_site_id
 _symmetry_equiv_pos_as_xyz
  1  'x, y, z'
loop_
 _atom_site_type_symbol
 _atom_site_label
 _atom_site_symmetry_multiplicity
 _atom_site_fract_x
 _atom_site_fract_y
 _atom_site_fract_z
 _atom_site_occupancy
  Ti  Ti0  1  0.53327322  0.53327322  0.00000000  1
  Ti  Ti1  1  0.00000000  0.46672678  0.66666700  1
  Ti  Ti2  1  0.46672678  0.00000000  0.33333300  1
  O  O3  1  0.41977436  0.27098731  0.21259111  1
  O  O4  1  0.14878705  0.72901269  0.45407589  1
  O  O5  1  0.85121295  0.58022564  0.87925811  1
  O  O6  1  0.27098731  0.41977436  0.78740889  1
  O  O7  1  0.72901269  0.14878705  0.54592411  1
  O  O8  1  0.58022564  0.85121295  0.12074189  1
