# generated using pymatgen
data_KU2H5C4O15
_symmetry_space_group_name_H-M   'P 1'
_cell_length_a   5.81569409
_cell_length_b   9.35420624
_cell_length_c   13.98351946
_cell_angle_alpha   90.00000000
_cell_angle_beta   90.00000000
_cell_angle_gamma   98.00469229
_symmetry_Int_Tables_number   1
_chemical_formula_structural   KU2H5C4O15
_chemical_formula_sum   'K2 U4 H10 C8 O30'
_cell_volume   753.30831521
_cell_formula_units_Z   2
loop_
 _symmetry_equiv_pos_site_id
 _symmetry_equiv_pos_as_xyz
  1  'x, y, z'
loop_
 _atom_site_type_symbol
 _atom_site_label
 _atom_site_symmetry_multiplicity
 _atom_site_fract_x
 _atom_site_fract_y
 _atom_site_fract_z
 _atom_site_occupancy
  K  K0  1  0.80718753  0.40552962  0.25000000  1
  K  K1  1  0.19281247  0.59447038  0.75000000  1
  U  U2  1  0.28694226  0.76447045  0.40684496  1
  U  U3  1  0.71305774  0.23552955  0.90684496  1
  U  U4  1  0.71305774  0.23552955  0.59315504  1
  U  U5  1  0.28694226  0.76447045  0.09315504  1
  H  H6  1  0.79859847  0.06972611  0.19468760  1
  H  H7  1  0.24962371  0.19990470  0.19558683  1
  H  H8  1  0.79859847  0.06972611  0.30531240  1
  H  H9  1  0.48941921  0.09097062  0.75000000  1
  H  H10  1  0.75037629  0.80009530  0.69558683  1
  H  H11  1  0.24962371  0.19990470  0.30441317  1
  H  H12  1  0.20140153  0.93027389  0.80531240  1
  H  H13  1  0.51058079  0.90902938  0.25000000  1
  H  H14  1  0.75037629  0.80009530  0.80441317  1
  H  H15  1  0.20140153  0.93027389  0.69468760  1
  C  C16  1  0.98774662  0.95743272  0.95338892  1
  C  C17  1  0.54447944  0.48236882  0.45052281  1
  C  C18  1  0.54447944  0.48236882  0.04947719  1
  C  C19  1  0.01225338  0.04256728  0.45338892  1
  C  C20  1  0.01225338  0.04256728  0.04661108  1
  C  C21  1  0.45552056  0.51763118  0.54947719  1
  C  C22  1  0.98774662  0.95743272  0.54661108  1
  C  C23  1  0.45552056  0.51763118  0.95052281  1
  O  O24  1  0.88345168  0.01082193  0.61500052  1
  O  O25  1  0.66351662  0.37934209  0.05421428  1
  O  O26  1  0.55618332  0.87186634  0.05874090  1
  O  O27  1  0.11654832  0.98917807  0.11500052  1
  O  O28  1  0.97543373  0.34857936  0.63043523  1
  O  O29  1  0.33648338  0.62065791  0.55421428  1
  O  O30  1  0.66351662  0.37934209  0.44578572  1
  O  O31  1  0.44381668  0.12813366  0.55874090  1
  O  O32  1  0.02456627  0.65142064  0.36956477  1
  O  O33  1  0.02456627  0.65142064  0.13043523  1
  O  O34  1  0.88345168  0.01082193  0.88499948  1
  O  O35  1  0.55618332  0.87186634  0.44125910  1
  O  O36  1  0.61520158  0.17683604  0.75000000  1
  O  O37  1  0.92448646  0.15877471  0.04950464  1
  O  O38  1  0.07551354  0.84122529  0.95049536  1
  O  O39  1  0.49107703  0.55940647  0.11843596  1
  O  O40  1  0.38479842  0.82316396  0.25000000  1
  O  O41  1  0.07551354  0.84122529  0.54950464  1
  O  O42  1  0.75058636  0.73455981  0.75000000  1
  O  O43  1  0.11654832  0.98917807  0.38499948  1
  O  O44  1  0.30428415  0.93062074  0.75000000  1
  O  O45  1  0.24941364  0.26544019  0.25000000  1
  O  O46  1  0.97543373  0.34857936  0.86956477  1
  O  O47  1  0.92448646  0.15877471  0.45049536  1
  O  O48  1  0.50892297  0.44059353  0.61843596  1
  O  O49  1  0.44381668  0.12813366  0.94125910  1
  O  O50  1  0.50892297  0.44059353  0.88156404  1
  O  O51  1  0.33648338  0.62065791  0.94578572  1
  O  O52  1  0.49107703  0.55940647  0.38156404  1
  O  O53  1  0.69571585  0.06937926  0.25000000  1
