# generated using pymatgen
data_H4CN2O
_symmetry_space_group_name_H-M   'P 1'
_cell_length_a   5.16188849
_cell_length_b   5.16188849
_cell_length_c   5.66413933
_cell_angle_alpha   90.00000000
_cell_angle_beta   90.00000000
_cell_angle_gamma   90.00000000
_symmetry_Int_Tables_number   1
_chemical_formula_structural   H4CN2O
_chemical_formula_sum   'H8 C2 N4 O2'
_cell_volume   150.92151798
_cell_formula_units_Z   2
loop_
 _symmetry_equiv_pos_site_id
 _symmetry_equiv_pos_as_xyz
  1  'x, y, z'
loop_
 _atom_site_type_symbol
 _atom_site_label
 _atom_site_symmetry_multiplicity
 _atom_site_fract_x
 _atom_site_fract_y
 _atom_site_fract_z
 _atom_site_occupancy
  H  H0  1  0.08420083  0.75000000  0.10562473  1
  H  H1  1  0.75000000  0.41579917  0.10562473  1
  H  H2  1  0.91579917  0.25000000  0.89437527  1
  H  H3  1  0.25000000  0.91579917  0.89437527  1
  H  H4  1  0.58420083  0.25000000  0.89437527  1
  H  H5  1  0.41579917  0.75000000  0.10562473  1
  H  H6  1  0.75000000  0.08420083  0.10562473  1
  H  H7  1  0.25000000  0.58420083  0.89437527  1
  C  C8  1  0.75000000  0.75000000  0.47761979  1
  C  C9  1  0.25000000  0.25000000  0.52238021  1
  N  N10  1  0.25000000  0.25000000  0.73583673  1
  N  N11  1  0.75000000  0.75000000  0.26416327  1
  N  N12  1  0.25000000  0.75000000  0.00000000  1
  N  N13  1  0.75000000  0.25000000  0.00000000  1
  O  O14  1  0.25000000  0.25000000  0.30897753  1
  O  O15  1  0.75000000  0.75000000  0.69102247  1
