# generated using pymatgen
data_K3NdH6(C2O5)3
_symmetry_space_group_name_H-M   'P 1'
_cell_length_a   8.66358983
_cell_length_b   9.44765878
_cell_length_c   9.94491052
_cell_angle_alpha   98.29556617
_cell_angle_beta   91.38336042
_cell_angle_gamma   95.94498843
_symmetry_Int_Tables_number   1
_chemical_formula_structural   K3NdH6(C2O5)3
_chemical_formula_sum   'K6 Nd2 H12 C12 O30'
_cell_volume   800.51639175
_cell_formula_units_Z   2
loop_
 _symmetry_equiv_pos_site_id
 _symmetry_equiv_pos_as_xyz
  1  'x, y, z'
loop_
 _atom_site_type_symbol
 _atom_site_label
 _atom_site_symmetry_multiplicity
 _atom_site_fract_x
 _atom_site_fract_y
 _atom_site_fract_z
 _atom_site_occupancy
  K  K0  1  0.65035741  0.20810419  0.69630176  1
  K  K1  1  0.95583286  0.68368479  0.61369795  1
  K  K2  1  0.34964259  0.79189581  0.30369824  1
  K  K3  1  0.71111467  0.86039969  0.88767469  1
  K  K4  1  0.28888533  0.13960031  0.11232531  1
  K  K5  1  0.04416714  0.31631521  0.38630205  1
  Nd  Nd6  1  0.22852518  0.35759266  0.77914835  1
  Nd  Nd7  1  0.77147482  0.64240734  0.22085165  1
  H  H8  1  0.73181711  0.88923705  0.47397750  1
  H  H9  1  0.37080813  0.24774490  0.49684376  1
  H  H10  1  0.27584474  0.76133321  0.99351416  1
  H  H11  1  0.37951167  1.00430170  0.79464975  1
  H  H12  1  0.26818289  0.11076295  0.52602250  1
  H  H13  1  0.62919187  0.75225510  0.50315624  1
  H  H14  1  0.57252062  0.11712494  0.31432356  1
  H  H15  1  0.72415526  0.23866679  0.00648584  1
  H  H16  1  0.14734534  0.85752166  0.96523833  1
  H  H17  1  0.85265466  0.14247834  0.03476167  1
  H  H18  1  0.62048833  -0.00430170  0.20535025  1
  H  H19  1  0.42747938  0.88287506  0.68567644  1
  C  C20  1  0.52842033  0.42412673  -0.00146891  1
  C  C21  1  0.96484450  0.07594473  0.68105879  1
  C  C22  1  0.32677874  0.61554732  0.60264553  1
  C  C23  1  0.07225069  0.02233295  0.78770000  1
  C  C24  1  0.67322126  0.38445268  0.39735447  1
  C  C25  1  0.96698363  0.54161180  0.94541610  1
  C  C26  1  0.48969084  0.57747679  0.65099694  1
  C  C27  1  0.03515550  0.92405527  0.31894121  1
  C  C28  1  0.03301637  0.45838820  0.05458390  1
  C  C29  1  0.92774931  0.97766705  0.21230000  1
  C  C30  1  0.51030916  0.42252321  0.34900306  1
  C  C31  1  0.47157967  0.57587327  1.00146891  1
  O  O32  1  0.78679054  0.48357926  0.39769805  1
  O  O33  1  0.60827946  0.66483585  0.64179388  1
  O  O34  1  0.96922618  0.09598969  0.17299551  1
  O  O35  1  0.77785651  0.15815270  0.96265987  1
  O  O36  1  0.12544083  0.36700691  0.01533865  1
  O  O37  1  0.39172054  0.33516415  0.35820612  1
  O  O38  1  0.99836098  0.20605153  0.66044174  1
  O  O39  1  0.98882458  0.48902421  0.17528044  1
  O  O40  1  0.33139189  0.19709467  0.57314189  1
  O  O41  1  0.68474726  0.26242412  0.43011913  1
  O  O42  1  0.48829838  0.45887983  0.69745576  1
  O  O43  1  0.00163902  0.79394847  0.33955826  1
  O  O44  1  0.80325250  0.89526055  0.17276117  1
  O  O45  1  0.85320139  0.98933332  0.62655936  1
  O  O46  1  0.47085032  0.96053149  0.75841509  1
  O  O47  1  0.65124560  0.41579348  0.06691288  1
  O  O48  1  0.03077382  0.90401031  0.82700449  1
  O  O49  1  0.21320946  0.51642074  0.60230195  1
  O  O50  1  0.87455917  0.63299309  0.98466135  1
  O  O51  1  0.55207365  0.68206428  0.07201003  1
  O  O52  1  0.34875440  0.58420652  0.93308712  1
  O  O53  1  0.44792635  0.31793572  0.92798997  1
  O  O54  1  0.19674750  0.10473945  0.82723883  1
  O  O55  1  0.52914968  0.03946851  0.24158491  1
  O  O56  1  0.22214349  0.84184730  0.03734013  1
  O  O57  1  0.51170162  0.54112017  0.30254424  1
  O  O58  1  0.14679861  0.01066668  0.37344064  1
  O  O59  1  0.01117542  0.51097579  0.82471956  1
  O  O60  1  0.66860811  0.80290533  0.42685811  1
  O  O61  1  0.31525274  0.73757588  0.56988087  1
