# generated using pymatgen
data_Si2Ag6O7
_symmetry_space_group_name_H-M   'P 1'
_cell_length_a   5.40097719
_cell_length_b   8.05969170
_cell_length_c   10.42086904
_cell_angle_alpha   109.99789175
_cell_angle_beta   90.00000000
_cell_angle_gamma   90.00000000
_symmetry_Int_Tables_number   1
_chemical_formula_structural   Si2Ag6O7
_chemical_formula_sum   'Si4 Ag12 O14'
_cell_volume   426.27154499
_cell_formula_units_Z   2
loop_
 _symmetry_equiv_pos_site_id
 _symmetry_equiv_pos_as_xyz
  1  'x, y, z'
loop_
 _atom_site_type_symbol
 _atom_site_label
 _atom_site_symmetry_multiplicity
 _atom_site_fract_x
 _atom_site_fract_y
 _atom_site_fract_z
 _atom_site_occupancy
  Si  Si0  1  0.27382339  0.83877613  0.63868725  1
  Si  Si1  1  0.72617661  0.16122387  0.36131275  1
  Si  Si2  1  0.72617661  0.33877613  0.13868725  1
  Si  Si3  1  0.27382339  0.66122387  0.86131275  1
  Ag  Ag4  1  0.31068757  0.21231106  0.89982603  1
  Ag  Ag5  1  0.68931243  0.71231106  0.39982603  1
  Ag  Ag6  1  0.72886544  0.95735846  0.89330512  1
  Ag  Ag7  1  0.68931243  0.78768894  0.10017397  1
  Ag  Ag8  1  0.23461883  0.91641911  0.36301044  1
  Ag  Ag9  1  0.27113456  0.04264154  0.10669488  1
  Ag  Ag10  1  0.76538117  0.08358089  0.63698956  1
  Ag  Ag11  1  0.76538117  0.41641911  0.86301044  1
  Ag  Ag12  1  0.27113456  0.45735846  0.39330512  1
  Ag  Ag13  1  0.31068757  0.28768894  0.60017397  1
  Ag  Ag14  1  0.23461883  0.58358089  0.13698956  1
  Ag  Ag15  1  0.72886544  0.54264154  0.60669488  1
  O  O16  1  0.14915718  0.76713371  0.01232476  1
  O  O17  1  0.16526263  0.75000000  0.75000000  1
  O  O18  1  0.83473737  0.25000000  0.25000000  1
  O  O19  1  0.80795629  0.54691530  0.19012831  1
  O  O20  1  0.14915718  0.73286629  0.48767524  1
  O  O21  1  0.80795629  0.95308470  0.30987169  1
  O  O22  1  0.58121281  0.81853159  0.63131622  1
  O  O23  1  0.19204371  0.45308470  0.80987169  1
  O  O24  1  0.85084282  0.26713371  0.51232476  1
  O  O25  1  0.41878719  0.31853159  0.13131622  1
  O  O26  1  0.41878719  0.18146841  0.36868378  1
  O  O27  1  0.19204371  0.04691530  0.69012831  1
  O  O28  1  0.58121281  0.68146841  0.86868378  1
  O  O29  1  0.85084282  0.23286629  0.98767524  1
