# generated using pymatgen
data_TbCu(WO4)2
_symmetry_space_group_name_H-M   'P 1'
_cell_length_a   6.91188849
_cell_length_b   10.13083298
_cell_length_c   15.35427061
_cell_angle_alpha   72.77289954
_cell_angle_beta   88.39246928
_cell_angle_gamma   71.97696367
_symmetry_Int_Tables_number   1
_chemical_formula_structural   TbCu(WO4)2
_chemical_formula_sum   'Tb6 Cu6 W12 O48'
_cell_volume   974.13757844
_cell_formula_units_Z   6
loop_
 _symmetry_equiv_pos_site_id
 _symmetry_equiv_pos_as_xyz
  1  'x, y, z'
loop_
 _atom_site_type_symbol
 _atom_site_label
 _atom_site_symmetry_multiplicity
 _atom_site_fract_x
 _atom_site_fract_y
 _atom_site_fract_z
 _atom_site_occupancy
  Tb  Tb0  1  0.63588896  0.05219211  0.65612842  1
  Tb  Tb1  1  0.96693672  0.39305435  0.33811450  1
  Tb  Tb2  1  0.03306328  0.60694565  0.66188550  1
  Tb  Tb3  1  0.68380874  0.29512327  0.00301403  1
  Tb  Tb4  1  0.36411104  0.94780789  0.34387158  1
  Tb  Tb5  1  0.31619126  0.70487673  0.99698597  1
  Cu  Cu6  1  0.34138466  0.33477238  0.16786160  1
  Cu  Cu7  1  0.15374701  0.16665369  0.83906473  1
  Cu  Cu8  1  0.65861534  0.66522762  0.83213840  1
  Cu  Cu9  1  0.84625299  0.83334631  0.16093527  1
  Cu  Cu10  1  0.50000000  0.50000000  0.50000000  1
  Cu  Cu11  1  0.00000000  0.00000000  0.00000000  1
  W  W12  1  0.83334280  0.56090114  0.06873739  1
  W  W13  1  0.85271297  0.09906463  0.26841460  1
  W  W14  1  0.01895763  0.24480957  0.61265099  1
  W  W15  1  0.98104237  0.75519043  0.38734901  1
  W  W16  1  0.35783962  0.59114591  0.27675187  1
  W  W17  1  0.50134532  0.76561314  0.60679241  1
  W  W18  1  0.33581385  0.08334419  0.06054199  1
  W  W19  1  0.14728703  0.90093537  0.73158540  1
  W  W20  1  0.64216038  0.40885409  0.72324813  1
  W  W21  1  0.16665720  0.43909886  0.93126261  1
  W  W22  1  0.49865468  0.23438686  0.39320759  1
  W  W23  1  0.66418615  0.91665581  0.93945801  1
  O  O24  1  0.42554272  0.97703677  0.17534613  1
  O  O25  1  0.33849282  0.27271488  0.06462877  1
  O  O26  1  0.90998351  0.41919930  0.99286758  1
  O  O27  1  0.94506357  0.88409601  0.93921851  1
  O  O28  1  0.76643567  0.25083938  0.33483842  1
  O  O29  1  0.38270961  0.87483369  0.49543941  1
  O  O30  1  0.62899313  0.56209180  0.27864650  1
  O  O31  1  0.05647070  0.60074489  0.32644822  1
  O  O32  1  0.58904401  0.51807370  0.07360580  1
  O  O33  1  0.28906141  0.21790361  0.61381849  1
  O  O34  1  0.61729039  0.12516631  0.50456059  1
  O  O35  1  0.94352930  0.39925511  0.67355178  1
  O  O36  1  0.55931153  0.57796615  0.58632434  1
  O  O37  1  0.90050374  0.86680453  0.74597194  1
  O  O38  1  0.99899047  0.93947119  0.39102767  1
  O  O39  1  0.41095599  0.48192630  0.92639420  1
  O  O40  1  0.44068847  0.42203385  0.41367566  1
  O  O41  1  0.27252316  0.68933838  0.15705513  1
  O  O42  1  0.38972775  0.92522584  0.99852439  1
  O  O43  1  0.05493643  0.11590399  0.06078149  1
  O  O44  1  0.72264466  0.20699170  0.15634361  1
  O  O45  1  0.09683076  0.08614168  0.75473340  1
  O  O46  1  0.00100953  0.06052881  0.60897233  1
  O  O47  1  0.07106396  0.64815825  0.50544344  1
  O  O48  1  0.27735534  0.79300830  0.84365639  1
  O  O49  1  0.04215329  0.54989894  0.82173335  1
  O  O50  1  0.23279351  0.25130654  0.91677558  1
  O  O51  1  0.61027225  0.07477416  0.00147561  1
  O  O52  1  0.71308789  0.25707596  0.66375605  1
  O  O53  1  0.65709257  0.59805919  0.73186504  1
  O  O54  1  0.66150718  0.72728512  0.93537123  1
  O  O55  1  0.57445728  0.02296323  0.82465387  1
  O  O56  1  0.09001649  0.58080070  0.00713242  1
  O  O57  1  0.74928391  0.80142429  0.59841770  1
  O  O58  1  0.76720649  0.74869346  0.08322442  1
  O  O59  1  0.25071609  0.19857571  0.40158230  1
  O  O60  1  0.42203048  0.91207000  0.67598946  1
  O  O61  1  0.23356433  0.74916062  0.66516158  1
  O  O62  1  0.57796952  0.08793000  0.32401054  1
  O  O63  1  0.95784671  0.45010106  0.17826665  1
  O  O64  1  0.90316924  0.91385832  0.24526660  1
  O  O65  1  0.72747684  0.31066162  0.84294487  1
  O  O66  1  0.71093859  0.78209639  0.38618151  1
  O  O67  1  0.92893604  0.35184175  0.49455656  1
  O  O68  1  0.34290743  0.40194081  0.26813496  1
  O  O69  1  0.28691211  0.74292404  0.33624395  1
  O  O70  1  0.37100687  0.43790820  0.72135350  1
  O  O71  1  0.09949626  0.13319547  0.25402806  1
