# generated using pymatgen
data_LiY(MoO4)2
_symmetry_space_group_name_H-M   'P 1'
_cell_length_a   5.27624181
_cell_length_b   6.79625772
_cell_length_c   10.51420844
_cell_angle_alpha   100.91118709
_cell_angle_beta   99.45493075
_cell_angle_gamma   112.72277378
_symmetry_Int_Tables_number   1
_chemical_formula_structural   LiY(MoO4)2
_chemical_formula_sum   'Li2 Y2 Mo4 O16'
_cell_volume   329.53797246
_cell_formula_units_Z   2
loop_
 _symmetry_equiv_pos_site_id
 _symmetry_equiv_pos_as_xyz
  1  'x, y, z'
loop_
 _atom_site_type_symbol
 _atom_site_label
 _atom_site_symmetry_multiplicity
 _atom_site_fract_x
 _atom_site_fract_y
 _atom_site_fract_z
 _atom_site_occupancy
  Li  Li0  1  0.66474029  0.62235268  0.87425651  1
  Li  Li1  1  0.33525971  0.37764732  0.12574349  1
  Y  Y2  1  0.62364563  0.77070712  0.43876482  1
  Y  Y3  1  0.37635437  0.22929288  0.56123518  1
  Mo  Mo4  1  0.10172100  0.84687082  0.20440230  1
  Mo  Mo5  1  0.89827900  0.15312918  0.79559770  1
  Mo  Mo6  1  0.16317105  0.70053806  0.67894998  1
  Mo  Mo7  1  0.83682895  0.29946194  0.32105002  1
  O  O8  1  0.70777796  0.50346615  0.29403277  1
  O  O9  1  0.98054960  0.04415498  0.63572014  1
  O  O10  1  0.80053407  0.68322650  0.06911326  1
  O  O11  1  0.29222204  0.49653385  0.70596723  1
  O  O12  1  0.70512747  0.32002062  0.76391577  1
  O  O13  1  0.19946593  0.31677350  0.93088674  1
  O  O14  1  0.01945040  0.95584502  0.36427986  1
  O  O15  1  0.37637966  0.88324752  0.58622391  1
  O  O16  1  0.79485619  0.56312656  0.56774393  1
  O  O17  1  0.87629174  0.17658466  0.17020532  1
  O  O18  1  0.20514381  0.43687344  0.43225607  1
  O  O19  1  0.62362034  0.11675248  0.41377609  1
  O  O20  1  0.67490914  0.92419156  0.84239322  1
  O  O21  1  0.29487253  0.67997938  0.23608423  1
  O  O22  1  0.32509086  0.07580844  0.15760678  1
  O  O23  1  0.12370826  0.82341534  0.82979468  1
