# generated using pymatgen
data_La8Ni4O17
_symmetry_space_group_name_H-M   'P 1'
_cell_length_a   8.81857482
_cell_length_b   8.81857486
_cell_length_c   11.14198702
_cell_angle_alpha   71.80669748
_cell_angle_beta   71.80669740
_cell_angle_gamma   76.89332856
_symmetry_Int_Tables_number   1
_chemical_formula_structural   La8Ni4O17
_chemical_formula_sum   'La16 Ni8 O34'
_cell_volume   773.94922007
_cell_formula_units_Z   2
loop_
 _symmetry_equiv_pos_site_id
 _symmetry_equiv_pos_as_xyz
  1  'x, y, z'
loop_
 _atom_site_type_symbol
 _atom_site_label
 _atom_site_symmetry_multiplicity
 _atom_site_fract_x
 _atom_site_fract_y
 _atom_site_fract_z
 _atom_site_occupancy
  La  La0  1  0.89527579  0.39234508  0.42900267  1
  La  La1  1  0.60765392  0.10472421  0.57099733  1
  La  La2  1  0.89689506  0.38418123  0.93752952  1
  La  La3  1  0.10817986  0.60497032  0.07033921  1
  La  La4  1  0.64010159  0.63633344  0.67986627  1
  La  La5  1  0.36598635  0.34239427  0.82676961  1
  La  La6  1  0.61581877  0.10310494  0.06247048  1
  La  La7  1  0.39665091  0.88474992  0.43725878  1
  La  La8  1  0.86336346  0.85960003  0.82017249  1
  La  La9  1  0.86540212  0.84291748  0.32660936  1
  La  La10  1  0.11525008  0.60334909  0.56274122  1
  La  La11  1  0.36366656  0.35989841  0.32013373  1
  La  La12  1  0.15708252  0.13459788  0.67339064  1
  La  La13  1  0.14039997  0.13663654  0.17982751  1
  La  La14  1  0.65760573  0.63401365  0.17323039  1
  La  La15  1  0.39502968  0.89182014  0.92966079  1
  Ni  Ni16  1  0.00091133  0.99908867  0.00000000  1
  Ni  Ni17  1  0.00365357  0.99634643  0.50000000  1
  Ni  Ni18  1  0.76021943  0.24792411  0.74817208  1
  Ni  Ni19  1  0.75207589  0.23978057  0.25182792  1
  Ni  Ni20  1  0.50385731  0.49614269  0.00000000  1
  Ni  Ni21  1  0.26000105  0.74802826  0.24835396  1
  Ni  Ni22  1  0.25197174  0.73999895  0.75164604  1
  Ni  Ni23  1  0.50081732  0.49918268  0.50000000  1
  O  O24  1  0.12078109  0.85707759  0.13229668  1
  O  O25  1  0.45211191  0.88581624  0.63418454  1
  O  O26  1  0.17521949  0.16754642  0.41378876  1
  O  O27  1  0.06676576  0.58083524  0.85063110  1
  O  O28  1  0.37180385  0.61875560  0.12813638  1
  O  O29  1  0.67431257  0.66740240  0.91565244  1
  O  O30  1  0.90722965  0.14705151  0.85611374  1
  O  O31  1  0.37695284  0.12215020  0.75028167  1
  O  O32  1  0.62000945  0.35686093  0.63288923  1
  O  O33  1  0.95173857  0.38656428  0.13426733  1
  O  O34  1  0.13542776  0.87304103  0.62515440  1
  O  O35  1  0.85294849  0.09277035  0.14388626  1
  O  O36  1  0.14801977  0.18075765  0.95660016  1
  O  O37  1  0.56846041  0.07941595  0.35134097  1
  O  O38  1  0.32038787  0.35125609  0.54309285  1
  O  O39  1  0.87784980  0.62304716  0.24971833  1
  O  O40  1  0.11418376  0.54788809  0.36581546  1
  O  O41  1  0.64313907  0.37999055  0.36711077  1
  O  O42  1  0.81924235  0.85198023  0.04339984  1
  O  O43  1  0.12695897  0.86457224  0.37484560  1
  O  O44  1  0.88116543  0.12873096  0.37215153  1
  O  O45  1  0.87126904  0.11883457  0.62784847  1
  O  O46  1  0.64874391  0.67961213  0.45690715  1
  O  O47  1  0.40728634  0.64796329  0.35621442  1
  O  O48  1  0.38124440  0.62819615  0.87186362  1
  O  O49  1  0.14292241  0.87921891  0.86770332  1
  O  O50  1  0.62861850  0.36493188  0.87453872  1
  O  O51  1  0.61343572  0.04826143  0.86573267  1
  O  O52  1  0.33259760  0.32568743  0.08434756  1
  O  O53  1  0.92058405  0.43153959  0.64865903  1
  O  O54  1  0.83245358  0.82478051  0.58621224  1
  O  O55  1  0.41916476  0.93323424  0.14936890  1
  O  O56  1  0.35203671  0.59271366  0.64378558  1
  O  O57  1  0.63506812  0.37138150  0.12546128  1
