# generated using pymatgen
data_Na5WNO4
_symmetry_space_group_name_H-M   'P 1'
_cell_length_a   5.78929070
_cell_length_b   5.78929065
_cell_length_c   10.77197490
_cell_angle_alpha   90.00000000
_cell_angle_beta   90.00000000
_cell_angle_gamma   119.33674858
_symmetry_Int_Tables_number   1
_chemical_formula_structural   Na5WNO4
_chemical_formula_sum   'Na10 W2 N2 O8'
_cell_volume   314.73177867
_cell_formula_units_Z   2
loop_
 _symmetry_equiv_pos_site_id
 _symmetry_equiv_pos_as_xyz
  1  'x, y, z'
loop_
 _atom_site_type_symbol
 _atom_site_label
 _atom_site_symmetry_multiplicity
 _atom_site_fract_x
 _atom_site_fract_y
 _atom_site_fract_z
 _atom_site_occupancy
  Na  Na0  1  0.53452210  0.16389329  0.24084495  1
  Na  Na1  1  0.82391791  0.20691007  0.99085409  1
  Na  Na2  1  0.17608209  0.79308993  0.49085409  1
  Na  Na3  1  0.83610671  0.46547790  0.74084495  1
  Na  Na4  1  0.57142333  0.57142333  0.97428550  1
  Na  Na5  1  0.42857667  0.42857667  0.47428550  1
  Na  Na6  1  0.16389329  0.53452210  0.24084495  1
  Na  Na7  1  0.79308993  0.17608209  0.49085409  1
  Na  Na8  1  0.20691007  0.82391791  0.99085409  1
  Na  Na9  1  0.46547790  0.83610671  0.74084495  1
  W  W10  1  0.79180273  0.79180273  0.25219184  1
  W  W11  1  0.20819727  0.20819727  0.75219184  1
  N  N12  1  0.90243952  0.90243952  0.77678033  1
  N  N13  1  0.09756048  0.09756048  0.27678033  1
  O  O14  1  0.81217805  0.53815554  0.36860338  1
  O  O15  1  0.18782195  0.46184446  0.86860338  1
  O  O16  1  0.85594242  0.58392826  0.12306875  1
  O  O17  1  0.46184446  0.18782195  0.86860338  1
  O  O18  1  0.53815554  0.81217805  0.36860338  1
  O  O19  1  0.58392826  0.85594242  0.12306875  1
  O  O20  1  0.41607174  0.14405758  0.62306875  1
  O  O21  1  0.14405758  0.41607174  0.62306875  1
