# generated using pymatgen
data_Na2Be(SiO3)2
_symmetry_space_group_name_H-M   'P 1'
_cell_length_a   7.10826112
_cell_length_b   11.20555529
_cell_length_c   11.60260722
_cell_angle_alpha   84.42168365
_cell_angle_beta   72.16190693
_cell_angle_gamma   71.50902818
_symmetry_Int_Tables_number   1
_chemical_formula_structural   Na2Be(SiO3)2
_chemical_formula_sum   'Na12 Be6 Si12 O36'
_cell_volume   834.32447300
_cell_formula_units_Z   6
loop_
 _symmetry_equiv_pos_site_id
 _symmetry_equiv_pos_as_xyz
  1  'x, y, z'
loop_
 _atom_site_type_symbol
 _atom_site_label
 _atom_site_symmetry_multiplicity
 _atom_site_fract_x
 _atom_site_fract_y
 _atom_site_fract_z
 _atom_site_occupancy
  Na  Na0  1  0.30565450  0.75008768  0.38837714  1
  Na  Na1  1  0.61676458  0.41621147  0.12377594  1
  Na  Na2  1  0.94414641  0.75000910  0.11161995  1
  Na  Na3  1  0.38323542  0.58378853  0.87622406  1
  Na  Na4  1  0.69434550  0.24991232  0.61162286  1
  Na  Na5  1  0.74082991  0.91610597  0.87624968  1
  Na  Na6  1  0.05585359  0.24999090  0.88838005  1
  Na  Na7  1  0.34315432  0.91617563  0.62379706  1
  Na  Na8  1  0.65684568  0.08382437  0.37620294  1
  Na  Na9  1  0.25917009  0.08389403  0.12375032  1
  Na  Na10  1  0.03322656  0.58377128  0.62378928  1
  Na  Na11  1  0.96677344  0.41622872  0.37621072  1
  Be  Be12  1  0.55923226  0.88141127  0.25000637  1
  Be  Be13  1  0.80938197  0.38132155  0.75001241  1
  Be  Be14  1  0.44076774  0.11858873  0.74999363  1
  Be  Be15  1  0.87494123  0.25004598  0.24996800  1
  Be  Be16  1  0.19061803  0.61867845  0.24998759  1
  Be  Be17  1  0.12505877  0.74995402  0.75003200  1
  Si  Si18  1  0.78096242  0.75001785  0.43792560  1
  Si  Si19  1  0.11882232  0.43202272  0.10173208  1
  Si  Si20  1  0.22058062  0.93202279  0.89826298  1
  Si  Si21  1  0.46893231  0.75001186  0.06210380  1
  Si  Si22  1  0.21903758  0.24998215  0.56207440  1
  Si  Si23  1  0.15250871  0.06801260  0.39823401  1
  Si  Si24  1  0.53106769  0.24998814  0.93789620  1
  Si  Si25  1  0.77941938  0.06797721  0.10173702  1
  Si  Si26  1  0.84749129  0.93198740  0.60176599  1
  Si  Si27  1  0.44914709  0.43209459  0.39822244  1
  Si  Si28  1  0.55085291  0.56790541  0.60177756  1
  Si  Si29  1  0.88117768  0.56797728  0.89826792  1
  O  O30  1  0.97691122  0.29075771  0.63547852  1
  O  O31  1  0.38310917  0.53406881  0.29882424  1
  O  O32  1  0.74741323  0.62551513  0.52872683  1
  O  O33  1  0.81558814  0.17954584  0.15884418  1
  O  O34  1  0.28404040  0.03396939  0.79882058  1
  O  O35  1  0.97439210  0.67957246  0.84115357  1
  O  O36  1  0.37298996  0.37448655  0.02867492  1
  O  O37  1  0.62701004  0.62551345  0.97132508  1
  O  O38  1  0.26752488  0.70925377  0.13542725  1
  O  O39  1  0.00000000  0.50000000  -0.00000000  1
  O  O40  1  0.00463520  0.17956980  0.34119401  1
  O  O41  1  0.68207838  0.03388532  0.70123314  1
  O  O42  1  0.73247512  0.29074623  0.86457275  1
  O  O43  1  0.61689083  0.46593119  0.70117576  1
  O  O44  1  0.91714361  0.46603594  0.79883623  1
  O  O45  1  0.31792162  0.96611468  0.29876686  1
  O  O46  1  0.38790016  0.20914600  0.63538859  1
  O  O47  1  0.02560790  0.32042754  0.15884643  1
  O  O48  1  0.61209984  0.79085400  0.36461141  1
  O  O49  1  0.99536480  0.82043020  0.65880599  1
  O  O50  1  0.08285639  0.53396406  0.20116377  1
  O  O51  1  0.02308878  0.70924229  0.36452148  1
  O  O52  1  0.34599447  0.67940080  0.65898737  1
  O  O53  1  0.25258677  0.37448487  0.47127317  1
  O  O54  1  0.00000000  -0.00000000  0.50000000  1
  O  O55  1  0.72383862  0.87445883  0.52875021  1
  O  O56  1  0.40309652  0.20922246  0.86449937  1
  O  O57  1  0.18441186  0.82045416  0.84115582  1
  O  O58  1  0.40174573  0.87449591  0.97128424  1
  O  O59  1  0.59690348  0.79077754  0.13550063  1
  O  O60  1  0.27616138  0.12554117  0.47124979  1
  O  O61  1  0.65400553  0.32059920  0.34101263  1
  O  O62  1  0.50000000  0.50000000  0.50000000  1
  O  O63  1  0.59825427  0.12550409  0.02871576  1
  O  O64  1  0.00000000  -0.00000000  -0.00000000  1
  O  O65  1  0.71595960  0.96603061  0.20117942  1
