# generated using pymatgen
data_Ni2Ag3O4
_symmetry_space_group_name_H-M   'P 1'
_cell_length_a   3.00995441
_cell_length_b   3.00995497
_cell_length_c   28.04255298
_cell_angle_alpha   90.00000000
_cell_angle_beta   90.00000000
_cell_angle_gamma   120.00000474
_symmetry_Int_Tables_number   1
_chemical_formula_structural   Ni2Ag3O4
_chemical_formula_sum   'Ni4 Ag6 O8'
_cell_volume   220.02299713
_cell_formula_units_Z   2
loop_
 _symmetry_equiv_pos_site_id
 _symmetry_equiv_pos_as_xyz
  1  'x, y, z'
loop_
 _atom_site_type_symbol
 _atom_site_label
 _atom_site_symmetry_multiplicity
 _atom_site_fract_x
 _atom_site_fract_y
 _atom_site_fract_z
 _atom_site_occupancy
  Ni  Ni0  1  0.66666700  0.33333300  0.14091262  1
  Ni  Ni1  1  0.66666700  0.33333300  0.35908738  1
  Ni  Ni2  1  0.33333300  0.66666700  0.85908738  1
  Ni  Ni3  1  0.33333300  0.66666700  0.64091262  1
  Ag  Ag4  1  0.66666700  0.33333300  0.95929731  1
  Ag  Ag5  1  0.33333300  0.66666700  0.04070269  1
  Ag  Ag6  1  0.33333300  0.66666700  0.45929731  1
  Ag  Ag7  1  0.66666700  0.33333300  0.75000000  1
  Ag  Ag8  1  0.66666700  0.33333300  0.54070269  1
  Ag  Ag9  1  0.33333300  0.66666700  0.25000000  1
  O  O10  1  0.66666700  0.33333300  0.82340979  1
  O  O11  1  0.00000000  0.00000000  0.10187317  1
  O  O12  1  0.00000000  0.00000000  0.60187317  1
  O  O13  1  0.00000000  0.00000000  0.89812683  1
  O  O14  1  0.00000000  0.00000000  0.39812683  1
  O  O15  1  0.33333300  0.66666700  0.32340979  1
  O  O16  1  0.66666700  0.33333300  0.67659021  1
  O  O17  1  0.33333300  0.66666700  0.17659021  1
