# generated using pymatgen
data_Ca3SiO5
_symmetry_space_group_name_H-M   'P 1'
_cell_length_a   9.44645531
_cell_length_b   9.44645491
_cell_length_c   9.44645499
_cell_angle_alpha   44.67090911
_cell_angle_beta   44.67091158
_cell_angle_gamma   44.67090650
_symmetry_Int_Tables_number   1
_chemical_formula_structural   Ca3SiO5
_chemical_formula_sum   'Ca9 Si3 O15'
_cell_volume   378.95207908
_cell_formula_units_Z   3
loop_
 _symmetry_equiv_pos_site_id
 _symmetry_equiv_pos_as_xyz
  1  'x, y, z'
loop_
 _atom_site_type_symbol
 _atom_site_label
 _atom_site_symmetry_multiplicity
 _atom_site_fract_x
 _atom_site_fract_y
 _atom_site_fract_z
 _atom_site_occupancy
  Ca  Ca0  1  0.99837357  0.49802496  0.49802496  1
  Ca  Ca1  1  0.49802496  0.99837357  0.49802496  1
  Ca  Ca2  1  0.70484276  0.25370266  0.70484276  1
  Ca  Ca3  1  0.29212400  0.29212400  0.74314051  1
  Ca  Ca4  1  0.74314051  0.29212400  0.29212400  1
  Ca  Ca5  1  0.29212400  0.74314051  0.29212400  1
  Ca  Ca6  1  0.70484276  0.70484276  0.25370266  1
  Ca  Ca7  1  0.25370266  0.70484276  0.70484276  1
  Ca  Ca8  1  0.49802496  0.49802496  0.99837357  1
  Si  Si9  1  0.77858539  0.77858539  0.77858539  1
  Si  Si10  1  0.99263140  0.99263140  0.99263140  1
  Si  Si11  1  0.21366699  0.21366699  0.21366699  1
  O  O12  1  0.92707682  0.92707682  0.92707682  1
  O  O13  1  0.36066332  0.98826447  0.36066332  1
  O  O14  1  0.05013893  0.67343142  0.67343142  1
  O  O15  1  0.71428678  0.71428678  0.71428678  1
  O  O16  1  0.67343142  0.67343142  0.05013893  1
  O  O17  1  0.98826447  0.36066332  0.36066332  1
  O  O18  1  0.13992382  0.76433848  0.13992382  1
  O  O19  1  0.14789542  0.14789542  0.14789542  1
  O  O20  1  0.67343142  0.05013893  0.67343142  1
  O  O21  1  0.13992382  0.13992382  0.76433848  1
  O  O22  1  0.49969691  0.49969691  0.49969691  1
  O  O23  1  0.76433848  0.13992382  0.13992382  1
  O  O24  1  0.61395489  0.61395489  0.61395489  1
  O  O25  1  0.38422624  0.38422624  0.38422624  1
  O  O26  1  0.36066332  0.36066332  0.98826447  1
