# generated using pymatgen
data_Pr6O11
_symmetry_space_group_name_H-M   'P 1'
_cell_length_a   6.96751743
_cell_length_b   12.15731022
_cell_length_c   13.41808979
_cell_angle_alpha   90.00000000
_cell_angle_beta   100.36503949
_cell_angle_gamma   90.00000000
_symmetry_Int_Tables_number   1
_chemical_formula_structural   Pr6O11
_chemical_formula_sum   'Pr24 O44'
_cell_volume   1118.04872831
_cell_formula_units_Z   4
loop_
 _symmetry_equiv_pos_site_id
 _symmetry_equiv_pos_as_xyz
  1  'x, y, z'
loop_
 _atom_site_type_symbol
 _atom_site_label
 _atom_site_symmetry_multiplicity
 _atom_site_fract_x
 _atom_site_fract_y
 _atom_site_fract_z
 _atom_site_occupancy
  Pr  Pr0  1  0.64055282  0.33417762  0.37738854  1
  Pr  Pr1  1  0.12743793  0.64974368  0.87507727  1
  Pr  Pr2  1  0.35944718  0.83417762  0.12261146  1
  Pr  Pr3  1  0.41497498  0.32965019  0.62362755  1
  Pr  Pr4  1  0.64055282  0.16582238  0.87738854  1
  Pr  Pr5  1  0.87256207  0.14974368  0.62492273  1
  Pr  Pr6  1  0.12743793  0.85025632  0.37507727  1
  Pr  Pr7  1  0.35944718  0.66582238  0.62261146  1
  Pr  Pr8  1  0.37745005  0.99978742  0.63037644  1
  Pr  Pr9  1  0.37745005  0.50021258  0.13037644  1
  Pr  Pr10  1  0.13592809  0.01418704  0.88367281  1
  Pr  Pr11  1  0.62254995  0.49978742  0.86962356  1
  Pr  Pr12  1  0.62254995  0.00021258  0.36962356  1
  Pr  Pr13  1  0.86407191  0.98581296  0.11632719  1
  Pr  Pr14  1  0.13631760  0.17028349  0.39551404  1
  Pr  Pr15  1  0.13631760  0.32971651  0.89551404  1
  Pr  Pr16  1  0.58502502  0.67034981  0.37637245  1
  Pr  Pr17  1  0.86368240  0.82971651  0.60448596  1
  Pr  Pr18  1  0.86368240  0.67028349  0.10448596  1
  Pr  Pr19  1  0.58502502  0.82965019  0.87637245  1
  Pr  Pr20  1  0.41497498  0.17034981  0.12362755  1
  Pr  Pr21  1  0.13592809  0.48581296  0.38367281  1
  Pr  Pr22  1  0.87256207  0.35025632  0.12492273  1
  Pr  Pr23  1  0.86407191  0.51418704  0.61632719  1
  O  O24  1  0.57578525  0.16247987  0.69341493  1
  O  O25  1  0.66327181  0.83092090  0.05688864  1
  O  O26  1  0.41336767  0.16731771  0.30354048  1
  O  O27  1  0.73401781  0.16860611  0.07180296  1
  O  O28  1  0.80921391  0.33751725  0.93769725  1
  O  O29  1  0.81500050  0.51192711  0.42510728  1
  O  O30  1  0.33672819  0.16907910  0.94311136  1
  O  O31  1  0.18900989  0.32751336  0.07943984  1
  O  O32  1  0.81099011  0.82751336  0.42056016  1
  O  O33  1  0.95679995  0.17805735  0.80722405  1
  O  O34  1  0.81099011  0.67248664  0.92056016  1
  O  O35  1  0.95679995  0.32194265  0.30722405  1
  O  O36  1  0.81500050  0.98807289  0.92510728  1
  O  O37  1  0.42421475  0.83752013  0.30658507  1
  O  O38  1  0.58663233  0.66731771  0.19645952  1
  O  O39  1  0.94817202  0.48007925  0.80051139  1
  O  O40  1  0.04320005  0.82194265  0.19277595  1
  O  O41  1  0.68120480  0.99500676  0.55956644  1
  O  O42  1  0.58663233  0.83268229  0.69645952  1
  O  O43  1  0.43405780  0.49876247  0.31465461  1
  O  O44  1  0.04320005  0.67805735  0.69277595  1
  O  O45  1  0.33672819  0.33092090  0.44311136  1
  O  O46  1  0.73401781  0.33139389  0.57180296  1
  O  O47  1  0.43405780  0.00123753  0.81465461  1
  O  O48  1  0.41336767  0.33268229  0.80354048  1
  O  O49  1  0.18499950  0.01192711  0.07489272  1
  O  O50  1  0.19078609  0.66248275  0.06230275  1
  O  O51  1  0.57578525  0.33752013  0.19341493  1
  O  O52  1  0.26598219  0.83139389  0.92819704  1
  O  O53  1  0.31879520  0.49500676  0.94043356  1
  O  O54  1  0.31879520  0.00499324  0.44043356  1
  O  O55  1  0.18900989  0.17248664  0.57943984  1
  O  O56  1  0.66327181  0.66907910  0.55688864  1
  O  O57  1  0.19078609  0.83751725  0.56230275  1
  O  O58  1  0.18499950  0.48807289  0.57489272  1
  O  O59  1  0.68120480  0.50499324  0.05956644  1
  O  O60  1  0.05182798  0.98007925  0.69948861  1
  O  O61  1  0.56594220  0.50123753  0.68534539  1
  O  O62  1  0.26598219  0.66860611  0.42819704  1
  O  O63  1  0.94817202  0.01992075  0.30051139  1
  O  O64  1  0.80921391  0.16248275  0.43769725  1
  O  O65  1  0.56594220  0.99876247  0.18534539  1
  O  O66  1  0.42421475  0.66247987  0.80658507  1
  O  O67  1  0.05182798  0.51992075  0.19948861  1
