# generated using pymatgen
data_V6O13
_symmetry_space_group_name_H-M   'P 1'
_cell_length_a   3.76531159
_cell_length_b   11.71056260
_cell_length_c   11.71056294
_cell_angle_alpha   118.23836225
_cell_angle_beta   90.00000000
_cell_angle_gamma   90.00000000
_symmetry_Int_Tables_number   1
_chemical_formula_structural   V6O13
_chemical_formula_sum   'V12 O26'
_cell_volume   454.91041930
_cell_formula_units_Z   2
loop_
 _symmetry_equiv_pos_site_id
 _symmetry_equiv_pos_as_xyz
  1  'x, y, z'
loop_
 _atom_site_type_symbol
 _atom_site_label
 _atom_site_symmetry_multiplicity
 _atom_site_fract_x
 _atom_site_fract_y
 _atom_site_fract_z
 _atom_site_occupancy
  V  V0  1  0.75000000  0.71481117  0.58079714  1
  V  V1  1  0.25000000  0.58079714  0.71481117  1
  V  V2  1  0.25000000  0.39936347  0.89936347  1
  V  V3  1  0.75000000  0.60063653  0.10063653  1
  V  V4  1  0.75000000  0.89936347  0.39936347  1
  V  V5  1  0.25000000  0.21481117  0.08079714  1
  V  V6  1  0.25000000  0.10063653  0.60063653  1
  V  V7  1  0.75000000  0.78518883  0.91920286  1
  V  V8  1  0.25000000  0.28518883  0.41920286  1
  V  V9  1  0.75000000  0.08079714  0.21481117  1
  V  V10  1  0.25000000  0.91920286  0.78518883  1
  V  V11  1  0.75000000  0.41920286  0.28518883  1
  O  O12  1  0.25000000  0.50131059  0.80293155  1
  O  O13  1  0.25000000  0.30293155  1.00131059  1
  O  O14  1  0.75000000  1.00131059  0.30293155  1
  O  O15  1  0.75000000  0.07025320  0.57025320  1
  O  O16  1  0.75000000  0.27469398  0.37024755  1
  O  O17  1  0.75000000  0.42974680  0.92974680  1
  O  O18  1  0.75000000  0.80293155  0.50131059  1
  O  O19  1  0.25000000  0.77469398  0.87024755  1
  O  O20  1  0.25000000  0.12975245  0.22530602  1
  O  O21  1  0.75000000  0.62975245  0.72530602  1
  O  O22  1  0.75000000  0.22530602  0.12975245  1
  O  O23  1  0.25000000  0.44768562  0.55231438  1
  O  O24  1  0.75000000  0.87024755  0.77469398  1
  O  O25  1  0.25000000  0.25000000  0.75000000  1
  O  O26  1  0.25000000  0.72530602  0.62975245  1
  O  O27  1  0.75000000  0.49868941  0.19706845  1
  O  O28  1  0.25000000  0.57025320  0.07025320  1
  O  O29  1  0.25000000  0.92974680  0.42974680  1
  O  O30  1  0.25000000  0.37024755  0.27469398  1
  O  O31  1  0.25000000  0.05231438  0.94768562  1
  O  O32  1  0.75000000  0.75000000  0.25000000  1
  O  O33  1  0.75000000  0.55231438  0.44768562  1
  O  O34  1  0.75000000  0.69706845  -0.00131059  1
  O  O35  1  0.75000000  0.94768562  0.05231438  1
  O  O36  1  0.25000000  -0.00131059  0.69706845  1
  O  O37  1  0.25000000  0.19706845  0.49868941  1
