# generated using pymatgen
data_Tb4CoB13
_symmetry_space_group_name_H-M   'P 1'
_cell_length_a   7.33844780
_cell_length_b   7.33844780
_cell_length_c   6.94485764
_cell_angle_alpha   90.00000000
_cell_angle_beta   90.00000000
_cell_angle_gamma   90.00000000
_symmetry_Int_Tables_number   1
_chemical_formula_structural   Tb4CoB13
_chemical_formula_sum   'Tb8 Co2 B26'
_cell_volume   374.00014142
_cell_formula_units_Z   2
loop_
 _symmetry_equiv_pos_site_id
 _symmetry_equiv_pos_as_xyz
  1  'x, y, z'
loop_
 _atom_site_type_symbol
 _atom_site_label
 _atom_site_symmetry_multiplicity
 _atom_site_fract_x
 _atom_site_fract_y
 _atom_site_fract_z
 _atom_site_occupancy
  B  B0  1  0.66930154  0.53938387  0.75399357  1
  B  B1  1  0.33069846  0.46061613  0.75399357  1
  B  B2  1  0.03938387  0.16930154  0.74600643  1
  B  B3  1  0.53938387  0.33069846  0.75399357  1
  B  B4  1  0.46061613  0.66930154  0.75399357  1
  B  B5  1  0.83069846  0.03938387  0.74600643  1
  B  B6  1  0.16930154  0.96061613  0.74600643  1
  B  B7  1  0.96061613  0.83069846  0.74600643  1
  B  B8  1  0.33069846  0.46061613  0.24600643  1
  B  B9  1  0.66930154  0.53938387  0.24600643  1
  B  B10  1  0.00000000  0.00000000  0.50000000  1
  B  B11  1  0.50000000  0.50000000  0.00000000  1
  B  B12  1  0.40871970  0.90871970  0.25000000  1
  B  B13  1  0.09128030  0.40871970  0.25000000  1
  B  B14  1  0.90871970  0.59128030  0.25000000  1
  B  B15  1  0.59128030  0.09128030  0.25000000  1
  B  B16  1  0.59128030  0.09128030  0.75000000  1
  B  B17  1  0.90871970  0.59128030  0.75000000  1
  B  B18  1  0.09128030  0.40871970  0.75000000  1
  B  B19  1  0.40871970  0.90871970  0.75000000  1
  B  B20  1  0.03938387  0.16930154  0.25399357  1
  B  B21  1  0.83069846  0.03938387  0.25399357  1
  B  B22  1  0.16930154  0.96061613  0.25399357  1
  B  B23  1  0.53938387  0.33069846  0.24600643  1
  B  B24  1  0.46061613  0.66930154  0.24600643  1
  B  B25  1  0.96061613  0.83069846  0.25399357  1
  Co  Co26  1  0.00000000  0.00000000  0.00000000  1
  Co  Co27  1  0.50000000  0.50000000  0.50000000  1
  Tb  Tb28  1  0.81556622  0.31873673  0.00000000  1
  Tb  Tb29  1  0.31556622  0.18126327  0.50000000  1
  Tb  Tb30  1  0.68443378  0.81873673  0.50000000  1
  Tb  Tb31  1  0.68126327  0.81556622  0.00000000  1
  Tb  Tb32  1  0.31873673  0.18443378  0.00000000  1
  Tb  Tb33  1  0.18443378  0.68126327  0.00000000  1
  Tb  Tb34  1  0.18126327  0.68443378  0.50000000  1
  Tb  Tb35  1  0.81873673  0.31556622  0.50000000  1
