# generated using pymatgen
data_In9Pt13
_symmetry_space_group_name_H-M   'P 1'
_cell_length_a   7.24219060
_cell_length_b   7.24219022
_cell_length_c   9.05202789
_cell_angle_alpha   108.40073441
_cell_angle_beta   107.47025705
_cell_angle_gamma   103.31004890
_symmetry_Int_Tables_number   1
_chemical_formula_structural   In9Pt13
_chemical_formula_sum   'In9 Pt13'
_cell_volume   401.06255804
_cell_formula_units_Z   1
loop_
 _symmetry_equiv_pos_site_id
 _symmetry_equiv_pos_as_xyz
  1  'x, y, z'
loop_
 _atom_site_type_symbol
 _atom_site_label
 _atom_site_symmetry_multiplicity
 _atom_site_fract_x
 _atom_site_fract_y
 _atom_site_fract_z
 _atom_site_occupancy
  In  In0  1  0.70311384  0.46498211  0.16809595  1
  In  In1  1  0.25289799  0.48528659  0.31057514  1
  In  In2  1  0.17757402  0.94003504  0.11760906  1
  In  In3  1  0.82242598  0.05996496  0.88239094  1
  In  In4  1  0.50000000  0.00000000  0.50000000  1
  In  In5  1  0.29688616  0.53501789  0.83190405  1
  In  In6  1  0.82528854  0.05767714  0.31057514  1
  In  In7  1  0.17471146  0.94232286  0.68942486  1
  In  In8  1  0.74710201  0.51471341  0.68942486  1
  Pt  Pt9  1  0.45730866  0.72233810  0.65967778  1
  Pt  Pt10  1  0.93733968  0.20236912  0.65967778  1
  Pt  Pt11  1  0.45384304  0.72257050  0.17641354  1
  Pt  Pt12  1  0.25561287  0.25154469  0.50715757  1
  Pt  Pt13  1  0.54269134  0.27766190  0.34032222  1
  Pt  Pt14  1  0.24772792  0.24772792  0.00000000  1
  Pt  Pt15  1  0.74438713  0.74845531  0.49284243  1
  Pt  Pt16  1  0.54615696  0.27742950  0.82358646  1
  Pt  Pt17  1  0.75227208  0.75227208  1.00000000  1
  Pt  Pt18  1  0.00000000  0.50000000  0.50000000  1
  Pt  Pt19  1  0.06266032  0.79763088  0.34032222  1
  Pt  Pt20  1  0.00000000  0.50000000  0.00000000  1
  Pt  Pt21  1  0.50000000  0.00000000  0.00000000  1
