# generated using pymatgen
data_Cs3Mo2I9
_symmetry_space_group_name_H-M   'P 1'
_cell_length_a   8.44487424
_cell_length_b   8.44487451
_cell_length_c   20.45873420
_cell_angle_alpha   90.00000000
_cell_angle_beta   90.00000000
_cell_angle_gamma   119.99999893
_symmetry_Int_Tables_number   1
_chemical_formula_structural   Cs3Mo2I9
_chemical_formula_sum   'Cs6 Mo4 I18'
_cell_volume   1263.55975075
_cell_formula_units_Z   2
loop_
 _symmetry_equiv_pos_site_id
 _symmetry_equiv_pos_as_xyz
  1  'x, y, z'
loop_
 _atom_site_type_symbol
 _atom_site_label
 _atom_site_symmetry_multiplicity
 _atom_site_fract_x
 _atom_site_fract_y
 _atom_site_fract_z
 _atom_site_occupancy
  Cs  Cs0  1  0.66666700  0.33333300  0.93422186  1
  Cs  Cs1  1  0.33333300  0.66666700  0.43422186  1
  Cs  Cs2  1  0.00000000  0.00000000  0.25000000  1
  Cs  Cs3  1  0.66666700  0.33333300  0.56577814  1
  Cs  Cs4  1  0.33333300  0.66666700  0.06577814  1
  Cs  Cs5  1  0.00000000  0.00000000  0.75000000  1
  Mo  Mo6  1  0.33333300  0.66666700  0.67698390  1
  Mo  Mo7  1  0.66666700  0.33333300  0.17698390  1
  Mo  Mo8  1  0.66666700  0.33333300  0.32301610  1
  Mo  Mo9  1  0.33333300  0.66666700  0.82301610  1
  I  I10  1  0.17799627  0.82200373  0.90439632  1
  I  I11  1  0.82200373  0.17799627  0.09560368  1
  I  I12  1  0.17799627  0.35599254  0.59560368  1
  I  I13  1  0.82200373  0.64400746  0.09560368  1
  I  I14  1  0.64400746  0.82200373  0.90439632  1
  I  I15  1  0.49511547  0.50488453  0.75000000  1
  I  I16  1  0.35599254  0.17799627  0.09560368  1
  I  I17  1  0.82200373  0.64400746  0.40439632  1
  I  I18  1  0.49511547  0.99023095  0.75000000  1
  I  I19  1  0.35599254  0.17799627  0.40439632  1
  I  I20  1  0.64400746  0.82200373  0.59560368  1
  I  I21  1  0.99023095  0.49511547  0.25000000  1
  I  I22  1  0.17799627  0.35599254  0.90439632  1
  I  I23  1  0.50488453  0.49511547  0.25000000  1
  I  I24  1  0.50488453  0.00976905  0.25000000  1
  I  I25  1  0.82200373  0.17799627  0.40439632  1
  I  I26  1  0.00976905  0.50488453  0.75000000  1
  I  I27  1  0.17799627  0.82200373  0.59560368  1
