# generated using pymatgen
data_CsLi3Br4
_symmetry_space_group_name_H-M   'P 1'
_cell_length_a   5.06330741
_cell_length_b   8.82544524
_cell_length_c   11.01339698
_cell_angle_alpha   90.00000000
_cell_angle_beta   90.00000000
_cell_angle_gamma   90.00000000
_symmetry_Int_Tables_number   1
_chemical_formula_structural   CsLi3Br4
_chemical_formula_sum   'Cs2 Li6 Br8'
_cell_volume   492.14402176
_cell_formula_units_Z   2
loop_
 _symmetry_equiv_pos_site_id
 _symmetry_equiv_pos_as_xyz
  1  'x, y, z'
loop_
 _atom_site_type_symbol
 _atom_site_label
 _atom_site_symmetry_multiplicity
 _atom_site_fract_x
 _atom_site_fract_y
 _atom_site_fract_z
 _atom_site_occupancy
  Cs  Cs0  1  0.50000000  0.14476901  0.55105318  1
  Cs  Cs1  1  0.50000000  0.64476901  0.44894682  1
  Li  Li2  1  0.00000000  0.11442175  0.21449219  1
  Li  Li3  1  0.00000000  0.47507508  0.14661612  1
  Li  Li4  1  0.00000000  0.61442175  0.78550781  1
  Li  Li5  1  0.50000000  0.80361362  0.04661809  1
  Li  Li6  1  0.50000000  0.30361362  0.95338191  1
  Li  Li7  1  0.00000000  0.97507508  0.85338388  1
  Br  Br8  1  0.50000000  0.48519453  0.76206933  1
  Br  Br9  1  0.50000000  0.98519453  0.23793067  1
  Br  Br10  1  0.00000000  0.74657063  0.99236397  1
  Br  Br11  1  0.50000000  0.52181992  0.14142416  1
  Br  Br12  1  0.00000000  0.33760545  0.37063566  1
  Br  Br13  1  0.00000000  0.24657063  0.00763603  1
  Br  Br14  1  0.50000000  0.02181992  0.85857584  1
  Br  Br15  1  0.00000000  0.83760545  0.62936434  1
