# generated using pymatgen
data_Si(H3C)2
_symmetry_space_group_name_H-M   'P 1'
_cell_length_a   10.65533478
_cell_length_b   10.67120672
_cell_length_c   14.75402599
_cell_angle_alpha   76.68239122
_cell_angle_beta   88.88377953
_cell_angle_gamma   88.47242600
_symmetry_Int_Tables_number   1
_chemical_formula_structural   Si(H3C)2
_chemical_formula_sum   'Si16 H96 C32'
_cell_volume   1631.76293933
_cell_formula_units_Z   16
loop_
 _symmetry_equiv_pos_site_id
 _symmetry_equiv_pos_as_xyz
  1  'x, y, z'
loop_
 _atom_site_type_symbol
 _atom_site_label
 _atom_site_symmetry_multiplicity
 _atom_site_fract_x
 _atom_site_fract_y
 _atom_site_fract_z
 _atom_site_occupancy
  Si  Si0  1  0.95248678  0.79487080  0.99986858  1
  Si  Si1  1  0.65059927  0.41709115  0.60444024  1
  Si  Si2  1  0.13400821  0.88697094  0.91735127  1
  Si  Si3  1  0.04751322  0.20512920  0.00013142  1
  Si  Si4  1  0.29156446  0.72750093  0.90799775  1
  Si  Si5  1  0.20665913  0.04826021  0.98950209  1
  Si  Si6  1  0.19578840  0.24427044  0.42812332  1
  Si  Si7  1  0.52025296  0.28255003  0.54108307  1
  Si  Si8  1  0.79334087  0.95173979  0.01049791  1
  Si  Si9  1  0.86599179  0.11302906  0.08264873  1
  Si  Si10  1  0.32015612  0.37838478  0.49718649  1
  Si  Si11  1  0.47974704  0.71744997  0.45891693  1
  Si  Si12  1  0.67984388  0.62161522  0.50281351  1
  Si  Si13  1  0.70843554  0.27249907  0.09200225  1
  Si  Si14  1  0.34940073  0.58290885  0.39555976  1
  Si  Si15  1  0.80421160  0.75572956  0.57187668  1
  H  H16  1  0.38214980  0.67930201  0.62002025  1
  H  H17  1  0.90754877  0.66699999  0.16261528  1
  H  H18  1  0.22508405  0.30025173  0.65767999  1
  H  H19  1  0.44746316  0.65339164  0.23622120  1
  H  H20  1  0.79134171  0.64158102  0.96874440  1
  H  H21  1  0.29742724  0.80043570  0.54027294  1
  H  H22  1  0.68715606  0.81657524  0.15331652  1
  H  H23  1  0.34751517  0.90694927  0.10813669  1
  H  H24  1  0.63420767  0.85693713  0.65442408  1
  H  H25  1  0.01604233  0.04126528  0.78815571  1
  H  H26  1  0.89586556  0.88569819  0.42205595  1
  H  H27  1  0.13628411  0.43312571  0.59375616  1
  H  H28  1  0.59119150  0.44306195  0.97823316  1
  H  H29  1  0.70180245  0.71930521  0.73019204  1
  H  H30  1  0.64000242  0.48802269  0.75595659  1
  H  H31  1  0.41795527  0.85687430  0.77439624  1
  H  H32  1  0.05615648  0.40500970  0.32160788  1
  H  H33  1  0.42195343  0.07338918  0.91399380  1
  H  H34  1  0.98395767  0.95873472  0.21184429  1
  H  H35  1  0.85250752  0.43705640  0.12896536  1
  H  H36  1  0.75663563  0.96146106  0.45344908  1
  H  H37  1  0.30487056  0.53693890  0.83644440  1
  H  H38  1  0.61785020  0.32069799  0.37997975  1
  H  H39  1  0.31284394  0.18342476  0.84668348  1
  H  H40  1  0.94525411  0.10543607  0.24438893  1
  H  H41  1  0.69512944  0.46306110  0.16355560  1
  H  H42  1  0.72003115  0.54076878  0.35551035  1
  H  H43  1  0.89871061  0.97096508  0.51225561  1
  H  H44  1  0.97898799  0.25729939  0.36508936  1
  H  H45  1  0.85655112  0.31357462  0.56952284  1
  H  H46  1  0.47731750  0.87270088  0.88262078  1
  H  H47  1  0.37402931  0.21558253  0.94993509  1
  H  H48  1  0.13346634  0.27988748  0.13684643  1
  H  H49  1  0.79257964  0.23046836  0.67812556  1
  H  H50  1  0.29819755  0.28069479  0.26980796  1
  H  H51  1  0.55838727  0.16293228  0.41401499  1
  H  H52  1  0.24336437  0.03853894  0.54655092  1
  H  H53  1  0.78966422  0.33884010  0.23271541  1
  H  H54  1  0.48912456  0.49861149  0.70541775  1
  H  H55  1  0.00739865  0.63094194  0.56339048  1
  H  H56  1  0.95860521  0.23726909  0.83842458  1
  H  H57  1  0.14344888  0.68642538  0.43047716  1
  H  H58  1  0.10413444  0.11430181  0.57794405  1
  H  H59  1  0.44752166  0.05703940  0.60939585  1
  H  H60  1  0.04139479  0.76273091  0.16157542  1
  H  H61  1  0.36579233  0.14306287  0.34557592  1
  H  H62  1  0.44161273  0.83706772  0.58598501  1
  H  H63  1  0.77491595  0.69974827  0.34232001  1
  H  H64  1  0.05505120  0.40838139  0.05882350  1
  H  H65  1  0.14749248  0.56294360  0.87103464  1
  H  H66  1  0.99260135  0.36905806  0.43660952  1
  H  H67  1  0.55253684  0.34660836  0.76377880  1
  H  H68  1  0.25840505  0.58529067  0.06789183  1
  H  H69  1  0.05443114  0.61851449  0.12148138  1
  H  H70  1  0.20865829  0.35841898  0.03125560  1
  H  H71  1  0.62597069  0.78441747  0.05006491  1
  H  H72  1  0.09245123  0.33300001  0.83738472  1
  H  H73  1  0.13069421  0.62130952  0.33059552  1
  H  H74  1  0.58851928  0.08639640  0.66285435  1
  H  H75  1  0.41148072  0.91360360  0.33714565  1
  H  H76  1  0.17145806  0.01115220  0.75175240  1
  H  H77  1  0.21033578  0.66115990  0.76728459  1
  H  H78  1  0.86371589  0.56687429  0.40624384  1
  H  H79  1  0.94384352  0.59499030  0.67839212  1
  H  H80  1  0.38076237  0.69462685  0.06820850  1
  H  H81  1  0.05474589  0.89456393  0.75561107  1
  H  H82  1  0.94494880  0.59161861  0.94117650  1
  H  H83  1  0.19407570  0.91693114  0.15497588  1
  H  H84  1  0.02101201  0.74270061  0.63491064  1
  H  H85  1  0.29759707  0.04706667  0.14587543  1
  H  H86  1  0.55247834  0.94296060  0.39060415  1
  H  H87  1  0.51087544  0.50138851  0.29458225  1
  H  H88  1  0.40880850  0.55693805  0.02176684  1
  H  H89  1  0.20742036  0.76953164  0.32187444  1
  H  H90  1  0.61923763  0.30537315  0.93179150  1
  H  H91  1  0.82854194  0.98884780  0.24824760  1
  H  H92  1  0.86653366  0.72011252  0.86315357  1
  H  H93  1  0.52268250  0.12729912  0.11737922  1
  H  H94  1  0.49026562  0.26998200  0.15701208  1
  H  H95  1  0.80592430  0.08306886  0.84502412  1
  H  H96  1  0.57804657  0.92661082  0.08600620  1
  H  H97  1  0.70257276  0.19956430  0.45972706  1
  H  H98  1  0.74159495  0.41470933  0.93210817  1
  H  H99  1  0.58204473  0.14312570  0.22560376  1
  H  H100  1  0.50973438  0.73001800  0.84298792  1
  H  H101  1  0.65248483  0.09305073  0.89186331  1
  H  H102  1  0.27996885  0.45923122  0.64448965  1
  H  H103  1  0.78391951  0.86642733  0.70282475  1
  H  H104  1  0.10128939  0.02903492  0.48774439  1
  H  H105  1  0.94556886  0.38148551  0.87851862  1
  H  H106  1  0.86930579  0.37869048  0.66940448  1
  H  H107  1  0.44320916  0.14936084  0.69535932  1
  H  H108  1  0.70240293  0.95293333  0.85412457  1
  H  H109  1  0.55679084  0.85063916  0.30464068  1
  H  H110  1  0.21608049  0.13357267  0.29717525  1
  H  H111  1  0.35999758  0.51197731  0.24404341  1
  C  C112  1  0.50219474  0.87044092  0.36398661  1
  C  C113  1  0.04185699  0.32727519  0.38404025  1
  C  C114  1  0.49780526  0.12955908  0.63601339  1
  C  C115  1  0.08949062  0.96617434  0.79144334  1
  C  C116  1  0.42391422  0.56002965  0.28211838  1
  C  C117  1  0.23247023  0.61170553  0.83933993  1
  C  C118  1  0.34149801  0.13861955  0.91825253  1
  C  C119  1  0.76752977  0.38829447  0.16066007  1
  C  C120  1  0.23228103  0.39472659  0.60873156  1
  C  C121  1  0.60772730  0.23736081  0.43906637  1
  C  C122  1  0.84206490  0.90731203  0.48117389  1
  C  C123  1  0.65850199  0.86138045  0.08174747  1
  C  C124  1  0.00710117  0.29747212  0.87719643  1
  C  C125  1  0.91050938  0.03382566  0.20855666  1
  C  C126  1  0.72286269  0.80378732  0.67410464  1
  C  C127  1  0.56277042  0.19554016  0.15374809  1
  C  C128  1  0.95814301  0.67272481  0.61595975  1
  C  C129  1  0.88207999  0.67615003  0.93717439  1
  C  C130  1  0.99289883  0.70252788  0.12280357  1
  C  C131  1  0.76771897  0.60527341  0.39126844  1
  C  C132  1  0.19292232  0.67332500  0.36713260  1
  C  C133  1  0.27713731  0.19621268  0.32589536  1
  C  C134  1  0.57608578  0.43997035  0.71788162  1
  C  C135  1  0.80707768  0.32667500  0.63286740  1
  C  C136  1  0.39227270  0.76263919  0.56093363  1
  C  C137  1  0.66124076  0.36740161  0.97240993  1
  C  C138  1  0.33875924  0.63259839  0.02759007  1
  C  C139  1  0.73299044  0.02730053  0.88903942  1
  C  C140  1  0.43722958  0.80445984  0.84625191  1
  C  C141  1  0.11792001  0.32384997  0.06282561  1
  C  C142  1  0.26700956  0.97269947  0.11096058  1
  C  C143  1  0.15793510  0.09268797  0.51882611  1
