# generated using pymatgen
data_U6Co
_symmetry_space_group_name_H-M   'P 1'
_cell_length_a   5.15966891
_cell_length_b   7.67461562
_cell_length_c   7.66486921
_cell_angle_alpha   83.49491148
_cell_angle_beta   70.30428384
_cell_angle_gamma   70.35741759
_symmetry_Int_Tables_number   1
_chemical_formula_structural   U6Co
_chemical_formula_sum   'U12 Co2'
_cell_volume   269.13110822
_cell_formula_units_Z   2
loop_
 _symmetry_equiv_pos_site_id
 _symmetry_equiv_pos_as_xyz
  1  'x, y, z'
loop_
 _atom_site_type_symbol
 _atom_site_label
 _atom_site_symmetry_multiplicity
 _atom_site_fract_x
 _atom_site_fract_y
 _atom_site_fract_z
 _atom_site_occupancy
  U  U0  1  0.10471694  0.67847408  0.11197326  1
  U  U1  1  0.59413890  0.50000000  0.31192660  1
  U  U2  1  0.90611234  0.68777531  0.50000000  1
  U  U3  1  0.89528306  0.32152592  0.88802674  1
  U  U4  1  0.40586110  0.50000000  0.68807340  1
  U  U5  1  0.78330532  0.11190752  0.32128745  1
  U  U6  1  0.21669468  0.88809248  0.67871255  1
  U  U7  1  0.39521284  0.88809248  0.32128745  1
  U  U8  1  0.28319101  0.32152592  0.11197326  1
  U  U9  1  0.60478716  0.11190752  0.67871255  1
  U  U10  1  0.09388766  0.31222469  0.50000000  1
  U  U11  1  0.71680899  0.67847408  0.88802674  1
  Co  Co12  1  0.24998496  0.00003007  0.00000000  1
  Co  Co13  1  0.75001504  0.99996993  0.00000000  1
