# generated using pymatgen
data_H9BrO4
_symmetry_space_group_name_H-M   'P 1'
_cell_length_a   7.45465363
_cell_length_b   11.59689471
_cell_length_c   7.16129132
_cell_angle_alpha   90.00023664
_cell_angle_beta   109.12274077
_cell_angle_gamma   90.01047167
_symmetry_Int_Tables_number   1
_chemical_formula_structural   H9BrO4
_chemical_formula_sum   'H36 Br4 O16'
_cell_volume   584.93703350
_cell_formula_units_Z   4
loop_
 _symmetry_equiv_pos_site_id
 _symmetry_equiv_pos_as_xyz
  1  'x, y, z'
loop_
 _atom_site_type_symbol
 _atom_site_label
 _atom_site_symmetry_multiplicity
 _atom_site_fract_x
 _atom_site_fract_y
 _atom_site_fract_z
 _atom_site_occupancy
  H  H0  1  0.35231487  0.30894808  0.99018590  1
  H  H1  1  0.16726577  0.24996516  0.00157622  1
  H  H2  1  0.64748074  0.80888081  0.00984347  1
  H  H3  1  0.83266560  0.75010852  0.99846639  1
  H  H4  1  0.88153055  0.30659874  0.11465914  1
  H  H5  1  0.97551923  0.18188954  0.17450823  1
  H  H6  1  0.11748922  0.80717620  0.88272890  1
  H  H7  1  0.02476050  0.68198045  0.82540481  1
  H  H8  1  0.63226257  0.18751724  0.83373023  1
  H  H9  1  0.62584165  0.32106821  0.83835841  1
  H  H10  1  0.36370120  0.68832455  0.16530646  1
  H  H11  1  0.37338992  0.82158108  0.16289678  1
  H  H12  1  0.66333792  0.30326216  0.35486845  1
  H  H13  1  0.66663661  0.25010775  0.56781108  1
  H  H14  1  0.33684374  0.80335071  0.64499915  1
  H  H15  1  0.33368592  0.75007542  0.43222880  1
  H  H16  1  0.18872789  0.23604859  0.71814263  1
  H  H17  1  0.99273319  0.24443592  0.53774602  1
  H  H18  1  0.81104791  0.73591519  0.28188455  1
  H  H19  1  0.00727920  0.74443000  0.46189403  1
  H  H20  1  0.34705633  0.36593995  0.37430686  1
  H  H21  1  0.20590618  0.32152912  0.49934202  1
  H  H22  1  0.65278170  0.86593640  0.62568082  1
  H  H23  1  0.79405935  0.82146219  0.50058377  1
  H  H24  1  0.52236451  0.54108474  0.83276853  1
  H  H25  1  0.40336312  0.49191718  0.61124690  1
  H  H26  1  0.40537213  0.64117607  0.64281846  1
  H  H27  1  0.47763627  0.04111297  0.16719576  1
  H  H28  1  0.59473728  0.14129100  0.35731949  1
  H  H29  1  0.59656440  0.99199095  0.38865165  1
  H  H30  1  0.02688810  0.50678809  0.05360210  1
  H  H31  1  0.13729449  0.46720266  0.31181958  1
  H  H32  1  0.93744298  0.55291493  0.22761995  1
  H  H33  1  0.06240661  0.05325622  0.77219196  1
  H  H34  1  0.97337589  0.00673280  0.94646278  1
  H  H35  1  0.86276937  0.96718020  0.68812912  1
  Br  Br36  1  0.98295835  0.48175534  0.77695978  1
  Br  Br37  1  0.01683097  0.98183091  0.22298967  1
  Br  Br38  1  0.58019604  0.44734941  0.13552604  1
  Br  Br39  1  0.42052487  0.94781178  0.86410249  1
  O  O40  1  0.27855201  0.23685450  0.95603908  1
  O  O41  1  0.72138960  0.73686065  0.04389869  1
  O  O42  1  0.97827535  0.25357033  0.10015672  1
  O  O43  1  0.02460810  0.75295605  0.90241124  1
  O  O44  1  0.58959757  0.25444881  0.74939103  1
  O  O45  1  0.41025259  0.75445349  0.25057126  1
  O  O46  1  0.69674843  0.23363205  0.44052155  1
  O  O47  1  0.30331957  0.73367700  0.55946969  1
  O  O48  1  0.12972129  0.23079909  0.56830534  1
  O  O49  1  0.87031989  0.73082068  0.43172866  1
  O  O50  1  0.26836323  0.39725499  0.44797587  1
  O  O51  1  0.73171276  0.89715167  0.55216625  1
  O  O52  1  0.48395045  0.55765056  0.68848726  1
  O  O53  1  0.51599886  0.05767647  0.31148638  1
  O  O54  1  0.05681062  0.53214762  0.20595071  1
  O  O55  1  0.94332759  0.03206282  0.79408688  1
