# generated using pymatgen
data_CeGaNi
_symmetry_space_group_name_H-M   'P 1'
_cell_length_a   4.49800976
_cell_length_b   6.70780381
_cell_length_c   7.40596359
_cell_angle_alpha   89.99997385
_cell_angle_beta   90.00009057
_cell_angle_gamma   89.99997764
_symmetry_Int_Tables_number   1
_chemical_formula_structural   CeGaNi
_chemical_formula_sum   'Ce4 Ga4 Ni4'
_cell_volume   223.45100789
_cell_formula_units_Z   4
loop_
 _symmetry_equiv_pos_site_id
 _symmetry_equiv_pos_as_xyz
  1  'x, y, z'
loop_
 _atom_site_type_symbol
 _atom_site_label
 _atom_site_symmetry_multiplicity
 _atom_site_fract_x
 _atom_site_fract_y
 _atom_site_fract_z
 _atom_site_occupancy
  Ce  Ce0  1  0.74999953  0.17936750  0.52828416  1
  Ce  Ce1  1  0.25000093  0.67934036  0.97171690  1
  Ce  Ce2  1  0.24999993  0.82062789  0.47171750  1
  Ce  Ce3  1  0.74999926  0.32060631  0.02828568  1
  Ga  Ga4  1  0.25000029  0.39579140  0.31664481  1
  Ga  Ga5  1  0.25000012  0.10422528  0.81666091  1
  Ga  Ga6  1  0.74999996  0.60420239  0.68334639  1
  Ga  Ga7  1  0.75000025  0.89580443  0.18335323  1
  Ni  Ni8  1  0.74999992  0.92349207  0.84281435  1
  Ni  Ni9  1  0.75000064  0.57652496  0.34281618  1
  Ni  Ni10  1  0.24999862  0.42346824  0.65717552  1
  Ni  Ni11  1  0.25000057  0.07654917  0.15718437  1
