# generated using pymatgen
data_Ba2LiN
_symmetry_space_group_name_H-M   'P 1'
_cell_length_a   8.26862660
_cell_length_b   8.26862660
_cell_length_c   15.50168586
_cell_angle_alpha   90.00000000
_cell_angle_beta   90.00000000
_cell_angle_gamma   90.00000000
_symmetry_Int_Tables_number   1
_chemical_formula_structural   Ba2LiN
_chemical_formula_sum   'Ba16 Li8 N8'
_cell_volume   1059.85314324
_cell_formula_units_Z   8
loop_
 _symmetry_equiv_pos_site_id
 _symmetry_equiv_pos_as_xyz
  1  'x, y, z'
loop_
 _atom_site_type_symbol
 _atom_site_label
 _atom_site_symmetry_multiplicity
 _atom_site_fract_x
 _atom_site_fract_y
 _atom_site_fract_z
 _atom_site_occupancy
  Ba  Ba0  1  0.75000000  0.02257093  0.66006477  1
  Ba  Ba1  1  0.75000000  0.47742907  0.66006477  1
  Ba  Ba2  1  0.53041066  0.75000000  0.85539966  1
  Ba  Ba3  1  0.52257093  0.25000000  0.83993523  1
  Ba  Ba4  1  0.25000000  0.97742907  0.33993523  1
  Ba  Ba5  1  0.02257093  0.75000000  0.16006477  1
  Ba  Ba6  1  0.75000000  0.96958934  0.35539966  1
  Ba  Ba7  1  0.25000000  0.52257093  0.33993523  1
  Ba  Ba8  1  0.03041066  0.25000000  0.14460034  1
  Ba  Ba9  1  0.96958934  0.75000000  0.85539966  1
  Ba  Ba10  1  0.75000000  0.53041066  0.35539966  1
  Ba  Ba11  1  0.25000000  0.46958934  0.64460034  1
  Ba  Ba12  1  0.97742907  0.25000000  0.83993523  1
  Ba  Ba13  1  0.46958934  0.25000000  0.14460034  1
  Ba  Ba14  1  0.47742907  0.75000000  0.16006477  1
  Ba  Ba15  1  0.25000000  0.03041066  0.64460034  1
  Li  Li16  1  0.49356526  0.75000000  0.46884621  1
  Li  Li17  1  0.25000000  0.50643474  0.03115379  1
  Li  Li18  1  0.75000000  0.49356526  0.96884621  1
  Li  Li19  1  0.25000000  0.99356526  0.03115379  1
  Li  Li20  1  0.50643474  0.25000000  0.53115379  1
  Li  Li21  1  0.99356526  0.25000000  0.53115379  1
  Li  Li22  1  0.75000000  0.00643474  0.96884621  1
  Li  Li23  1  0.00643474  0.75000000  0.46884621  1
  N  N24  1  0.00675524  0.25000000  0.66124311  1
  N  N25  1  0.75000000  0.50675524  0.83875689  1
  N  N26  1  0.49324476  0.25000000  0.66124311  1
  N  N27  1  0.25000000  0.49324476  0.16124311  1
  N  N28  1  0.99324476  0.75000000  0.33875689  1
  N  N29  1  0.25000000  0.00675524  0.16124311  1
  N  N30  1  0.75000000  0.99324476  0.83875689  1
  N  N31  1  0.50675524  0.75000000  0.33875689  1
