# generated using pymatgen
data_ZnH8C4(N4Cl)2
_symmetry_space_group_name_H-M   'P 1'
_cell_length_a   5.00074596
_cell_length_b   15.00677938
_cell_length_c   15.73268868
_cell_angle_alpha   90.00000000
_cell_angle_beta   93.73519193
_cell_angle_gamma   90.00000000
_symmetry_Int_Tables_number   1
_chemical_formula_structural   ZnH8C4(N4Cl)2
_chemical_formula_sum   'Zn4 H32 C16 N32 Cl8'
_cell_volume   1178.15309039
_cell_formula_units_Z   4
loop_
 _symmetry_equiv_pos_site_id
 _symmetry_equiv_pos_as_xyz
  1  'x, y, z'
loop_
 _atom_site_type_symbol
 _atom_site_label
 _atom_site_symmetry_multiplicity
 _atom_site_fract_x
 _atom_site_fract_y
 _atom_site_fract_z
 _atom_site_occupancy
  Zn  Zn0  1  0.42755587  0.76613861  0.08583945  1
  Zn  Zn1  1  0.57244413  0.23386139  0.91416055  1
  Zn  Zn2  1  0.42755587  0.73386139  0.58583945  1
  Zn  Zn3  1  0.57244413  0.26613861  0.41416055  1
  H  H4  1  0.63241207  0.65714327  0.78485908  1
  H  H5  1  0.31319505  0.54074059  0.41502998  1
  H  H6  1  0.11914724  0.30130794  0.14165272  1
  H  H7  1  0.91250254  0.96639813  0.13885999  1
  H  H8  1  0.15166004  0.72575511  0.28311847  1
  H  H9  1  0.63241207  0.84285673  0.28485908  1
  H  H10  1  0.40479412  0.00934033  0.42084592  1
  H  H11  1  0.68680495  0.04074059  0.08497002  1
  H  H12  1  0.68680495  0.45925941  0.58497002  1
  H  H13  1  0.91250254  0.53360187  0.63885999  1
  H  H14  1  0.84833996  0.27424489  0.71688153  1
  H  H15  1  0.88085276  0.80130794  0.35834728  1
  H  H16  1  0.36758793  0.15714327  0.71514092  1
  H  H17  1  0.08749746  0.46639813  0.36114001  1
  H  H18  1  0.63551531  0.45880428  0.18013691  1
  H  H19  1  0.34566418  0.81472481  0.87255517  1
  H  H20  1  0.63551531  0.04119572  0.68013691  1
  H  H21  1  0.59520588  0.50934033  0.07915408  1
  H  H22  1  0.65433582  0.18527519  0.12744483  1
  H  H23  1  0.88085276  0.69869206  0.85834728  1
  H  H24  1  0.84833996  0.22575511  0.21688153  1
  H  H25  1  0.36758793  0.34285673  0.21514092  1
  H  H26  1  0.65433582  0.31472481  0.62744483  1
  H  H27  1  0.11914724  0.19869206  0.64165272  1
  H  H28  1  0.59520588  0.99065967  0.57915408  1
  H  H29  1  0.36448469  0.95880428  0.31986309  1
  H  H30  1  0.31319505  0.95925941  0.91502998  1
  H  H31  1  0.15166004  0.77424489  0.78311847  1
  H  H32  1  0.34566418  0.68527519  0.37255517  1
  H  H33  1  0.40479412  0.49065967  0.92084592  1
  H  H34  1  0.36448469  0.54119572  0.81986309  1
  H  H35  1  0.08749746  0.03360187  0.86114001  1
  C  C36  1  0.98663253  0.63717320  0.00173508  1
  C  C37  1  0.33828533  0.40622182  0.09967803  1
  C  C38  1  0.66171467  0.59377818  0.90032197  1
  C  C39  1  0.91019456  0.09396401  0.18530944  1
  C  C40  1  0.21442684  0.13850500  0.29292946  1
  C  C41  1  0.78557316  0.86149500  0.70707054  1
  C  C42  1  0.01336747  0.13717320  0.49826492  1
  C  C43  1  0.01336747  0.36282680  0.99826492  1
  C  C44  1  0.08980544  0.59396401  0.31469056  1
  C  C45  1  0.66171467  0.90622182  0.40032197  1
  C  C46  1  0.33828533  0.09377818  0.59967803  1
  C  C47  1  0.91019456  0.40603599  0.68530944  1
  C  C48  1  0.21442684  0.36149500  0.79292946  1
  C  C49  1  0.78557316  0.63850500  0.20707054  1
  C  C50  1  0.98663253  0.86282680  0.50173508  1
  C  C51  1  0.08980544  0.90603599  0.81469056  1
  N  N52  1  0.26711311  0.15415878  0.65679864  1
  N  N53  1  0.73288689  0.84584122  0.34320136  1
  N  N54  1  0.53867478  0.03781777  0.62127875  1
  N  N55  1  0.10235833  0.42370916  0.74714521  1
  N  N56  1  0.89764167  0.92370916  0.75285479  1
  N  N57  1  0.26711311  0.34584122  0.15679864  1
  N  N58  1  0.33362619  0.31050799  0.83821563  1
  N  N59  1  0.17223412  0.97178910  0.86693109  1
  N  N60  1  0.80035403  0.32461795  0.67498181  1
  N  N61  1  0.46132522  0.53781777  0.87872125  1
  N  N62  1  0.82623860  0.32046590  0.97321989  1
  N  N63  1  0.66637381  0.68949201  0.16178437  1
  N  N64  1  0.10235833  0.07629084  0.24714521  1
  N  N65  1  0.78437154  0.58682528  0.97905734  1
  N  N66  1  0.73288689  0.65415878  0.84320136  1
  N  N67  1  0.89764167  0.57629084  0.25285479  1
  N  N68  1  0.19964597  0.67538205  0.32501819  1
  N  N69  1  0.78437154  0.91317472  0.47905734  1
  N  N70  1  0.17376140  0.67953410  0.02678011  1
  N  N71  1  0.82776588  0.02821090  0.13306891  1
  N  N72  1  0.17223412  0.52821090  0.36693109  1
  N  N73  1  0.53867478  0.46218223  0.12127875  1
  N  N74  1  0.21562846  0.41317472  0.02094266  1
  N  N75  1  0.33362619  0.18949201  0.33821563  1
  N  N76  1  0.66637381  0.81050799  0.66178437  1
  N  N77  1  0.46132522  0.96218223  0.37872125  1
  N  N78  1  0.82776588  0.47178910  0.63306891  1
  N  N79  1  0.17376140  0.82046590  0.52678011  1
  N  N80  1  0.21562846  0.08682528  0.52094266  1
  N  N81  1  0.82623860  0.17953410  0.47321989  1
  N  N82  1  0.80035403  0.17538205  0.17498181  1
  N  N83  1  0.19964597  0.82461795  0.82501819  1
  Cl  Cl84  1  0.22490078  0.64878087  0.68590156  1
  Cl  Cl85  1  0.77509922  0.14878087  0.81409844  1
  Cl  Cl86  1  0.22490078  0.85121913  0.18590156  1
  Cl  Cl87  1  0.64206191  0.85069082  0.99169357  1
  Cl  Cl88  1  0.77509922  0.35121913  0.31409844  1
  Cl  Cl89  1  0.64206191  0.64930918  0.49169357  1
  Cl  Cl90  1  0.35793809  0.35069082  0.50830643  1
  Cl  Cl91  1  0.35793809  0.14930918  0.00830643  1
