# generated using pymatgen
data_H5ClO6
_symmetry_space_group_name_H-M   'P 1'
_cell_length_a   6.04774222
_cell_length_b   10.90293191
_cell_length_c   8.07203957
_cell_angle_alpha   90.00000000
_cell_angle_beta   90.00000000
_cell_angle_gamma   90.00000000
_symmetry_Int_Tables_number   1
_chemical_formula_structural   H5ClO6
_chemical_formula_sum   'H20 Cl4 O24'
_cell_volume   532.25512700
_cell_formula_units_Z   4
loop_
 _symmetry_equiv_pos_site_id
 _symmetry_equiv_pos_as_xyz
  1  'x, y, z'
loop_
 _atom_site_type_symbol
 _atom_site_label
 _atom_site_symmetry_multiplicity
 _atom_site_fract_x
 _atom_site_fract_y
 _atom_site_fract_z
 _atom_site_occupancy
  H  H0  1  0.51825917  0.02692441  0.23072432  1
  H  H1  1  0.49991896  0.00021237  0.00351419  1
  H  H2  1  0.36634756  0.91588167  0.16680023  1
  H  H3  1  0.01825917  0.47307559  0.26927568  1
  H  H4  1  0.86634756  0.58411833  0.33319977  1
  H  H5  1  -0.00008104  0.49978763  0.49648581  1
  H  H6  1  0.50008104  0.50021237  0.99648581  1
  H  H7  1  0.48174083  0.52692441  0.76927568  1
  H  H8  1  0.63365244  0.41588167  0.83319977  1
  H  H9  1  0.00008104  0.99978763  0.50351419  1
  H  H10  1  0.98174083  0.97307559  0.73072432  1
  H  H11  1  0.13365244  0.08411833  0.66680023  1
  H  H12  1  0.63108042  0.08451749  0.83877874  1
  H  H13  1  0.48021597  0.97224536  0.77685590  1
  H  H14  1  0.98021597  0.52775464  0.72314410  1
  H  H15  1  0.13108042  0.41548251  0.66122126  1
  H  H16  1  0.51978403  0.47224536  0.22314410  1
  H  H17  1  0.36891958  0.58451749  0.16122126  1
  H  H18  1  0.86891958  0.91548251  0.33877874  1
  H  H19  1  0.01978403  0.02775464  0.27685590  1
  Cl  Cl20  1  0.56054244  0.24960105  0.50621107  1
  Cl  Cl21  1  0.06054244  0.25039895  0.99378893  1
  Cl  Cl22  1  0.43945756  0.74960105  0.49378893  1
  Cl  Cl23  1  0.93945756  0.75039895  0.00621107  1
  O  O24  1  0.59722870  0.24919201  0.32884060  1
  O  O25  1  0.09722870  0.25080799  0.17115940  1
  O  O26  1  0.40277130  0.74919201  0.67115940  1
  O  O27  1  0.90277130  0.75080799  0.82884060  1
  O  O28  1  0.77071736  0.25002251  0.59618028  1
  O  O29  1  0.27071736  0.24997749  0.90381972  1
  O  O30  1  0.22928264  0.75002251  0.40381972  1
  O  O31  1  0.72928264  0.74997749  0.09618028  1
  O  O32  1  0.43501326  0.13951294  0.55350262  1
  O  O33  1  0.93501326  0.36048706  0.94649738  1
  O  O34  1  0.56498674  0.63951294  0.44649738  1
  O  O35  1  0.06498674  0.86048706  0.05350262  1
  O  O36  1  0.56560724  0.85963447  0.44735462  1
  O  O37  1  0.06560724  0.64036553  0.05264538  1
  O  O38  1  0.43439276  0.35963447  0.55264538  1
  O  O39  1  0.93439276  0.14036553  0.94735462  1
  O  O40  1  0.41976655  0.99912451  0.14141831  1
  O  O41  1  0.91976655  0.50087549  0.35858169  1
  O  O42  1  0.58023345  0.49912451  0.85858169  1
  O  O43  1  0.08023345  0.00087549  0.64141831  1
  O  O44  1  0.57913252  0.00116762  0.86525899  1
  O  O45  1  0.07913252  0.49883238  0.63474101  1
  O  O46  1  0.42086748  0.50116762  0.13474101  1
  O  O47  1  0.92086748  0.99883238  0.36525899  1
