# generated using pymatgen
data_Rb2TeH6SeO10
_symmetry_space_group_name_H-M   'P 1'
_cell_length_a   6.86950423
_cell_length_b   12.47840232
_cell_length_c   13.95289962
_cell_angle_alpha   108.36674559
_cell_angle_beta   90.00000000
_cell_angle_gamma   90.00000000
_symmetry_Int_Tables_number   1
_chemical_formula_structural   Rb2TeH6SeO10
_chemical_formula_sum   'Rb8 Te4 H24 Se4 O40'
_cell_volume   1135.12080982
_cell_formula_units_Z   4
loop_
 _symmetry_equiv_pos_site_id
 _symmetry_equiv_pos_as_xyz
  1  'x, y, z'
loop_
 _atom_site_type_symbol
 _atom_site_label
 _atom_site_symmetry_multiplicity
 _atom_site_fract_x
 _atom_site_fract_y
 _atom_site_fract_z
 _atom_site_occupancy
  Rb  Rb0  1  0.52194521  0.32832001  0.65723500  1
  Rb  Rb1  1  0.97805479  0.82832001  0.65723500  1
  Rb  Rb2  1  0.97503926  0.42957563  0.16008181  1
  Rb  Rb3  1  0.02496074  0.57042437  0.83991819  1
  Rb  Rb4  1  0.02194521  0.17167999  0.34276500  1
  Rb  Rb5  1  0.52496074  0.92957563  0.16008181  1
  Rb  Rb6  1  0.47805479  0.67167999  0.34276500  1
  Rb  Rb7  1  0.47503926  0.07042437  0.83991819  1
  Te  Te8  1  0.00000000  0.00000000  0.00000000  1
  Te  Te9  1  0.50000000  0.50000000  0.00000000  1
  Te  Te10  1  0.00000000  0.50000000  0.50000000  1
  Te  Te11  1  0.50000000  0.00000000  0.50000000  1
  H  H12  1  0.32873502  0.43676918  0.52423646  1
  H  H13  1  0.49223793  0.70097717  0.01778567  1
  H  H14  1  0.22785784  0.59410601  0.64413419  1
  H  H15  1  0.24672394  0.62384333  0.11186269  1
  H  H16  1  0.43347150  0.13120298  0.40271250  1
  H  H17  1  0.27214216  0.09410601  0.64413419  1
  H  H18  1  0.06652850  0.63120298  0.40271250  1
  H  H19  1  0.00776207  0.20097717  0.01778567  1
  H  H20  1  0.29319288  0.36967580  0.86398125  1
  H  H21  1  0.70680712  0.63032420  0.13601875  1
  H  H22  1  0.67126498  0.56323082  0.47576354  1
  H  H23  1  0.79319288  0.13032420  0.13601875  1
  H  H24  1  0.25327606  0.12384333  0.11186269  1
  H  H25  1  0.82873502  0.06323082  0.47576354  1
  H  H26  1  0.75327606  0.37615667  0.88813731  1
  H  H27  1  0.77214216  0.40589399  0.35586581  1
  H  H28  1  0.17126498  0.93676918  0.52423646  1
  H  H29  1  0.50776207  0.29902283  0.98221433  1
  H  H30  1  0.74672394  0.87615667  0.88813731  1
  H  H31  1  0.56652850  0.86879702  0.59728750  1
  H  H32  1  0.20680712  0.86967580  0.86398125  1
  H  H33  1  0.93347150  0.36879702  0.59728750  1
  H  H34  1  0.72785784  0.90589399  0.35586581  1
  H  H35  1  0.99223793  0.79902283  0.98221433  1
  Se  Se36  1  0.49183155  0.73548043  0.75006643  1
  Se  Se37  1  0.50816845  0.26451957  0.24993357  1
  Se  Se38  1  0.99183155  0.76451957  0.24993357  1
  Se  Se39  1  0.00816845  0.23548043  0.75006643  1
  O  O40  1  0.11447637  0.93575450  0.86660801  1
  O  O41  1  0.88552363  0.06424550  0.13339199  1
  O  O42  1  0.34900969  0.10367372  0.44929335  1
  O  O43  1  0.38552363  0.43575450  0.86660801  1
  O  O44  1  0.24139436  0.54947344  0.05574451  1
  O  O45  1  0.92079015  0.41406740  0.36363894  1
  O  O46  1  0.05100459  0.10305971  0.67393187  1
  O  O47  1  0.84900969  0.39632628  0.55070665  1
  O  O48  1  0.72169254  0.10411999  0.51816339  1
  O  O49  1  0.72251701  0.74937431  0.79151725  1
  O  O50  1  0.54990938  0.16900933  0.31018218  1
  O  O51  1  0.27830746  0.89588001  0.48183661  1
  O  O52  1  0.55100459  0.39694029  0.32606813  1
  O  O53  1  0.55004239  0.63779123  0.96543400  1
  O  O54  1  0.44995761  0.36220877  0.03456600  1
  O  O55  1  0.22251701  0.75062569  0.20848275  1
  O  O56  1  0.27748299  0.25062569  0.20848275  1
  O  O57  1  0.05004239  0.86220877  0.03456600  1
  O  O58  1  0.94995761  0.13779123  0.96543400  1
  O  O59  1  0.75860564  0.45052656  0.94425549  1
  O  O60  1  0.16637846  0.26338896  0.84665241  1
  O  O61  1  0.65099031  0.89632628  0.55070665  1
  O  O62  1  0.25860564  0.04947344  0.05574451  1
  O  O63  1  0.77830746  0.60411999  0.51816339  1
  O  O64  1  0.57920985  0.91406740  0.36363894  1
  O  O65  1  0.44899541  0.60305971  0.67393187  1
  O  O66  1  0.15099031  0.60367372  0.44929335  1
  O  O67  1  0.77748299  0.24937431  0.79151725  1
  O  O68  1  0.45009062  0.83099067  0.68981782  1
  O  O69  1  0.61447637  0.56424550  0.13339199  1
  O  O70  1  0.42079015  0.08593260  0.63636106  1
  O  O71  1  0.94899541  0.89694029  0.32606813  1
  O  O72  1  0.66637846  0.23661104  0.15334759  1
  O  O73  1  0.22169254  0.39588001  0.48183661  1
  O  O74  1  0.83362154  0.73661104  0.15334759  1
  O  O75  1  0.95009062  0.66900933  0.31018218  1
  O  O76  1  0.33362154  0.76338896  0.84665241  1
  O  O77  1  0.74139436  0.95052656  0.94425549  1
  O  O78  1  0.07920985  0.58593260  0.63636106  1
  O  O79  1  0.04990938  0.33099067  0.68981782  1
