# generated using pymatgen
data_SrCu2(BO3)2
_symmetry_space_group_name_H-M   'P 1'
_cell_length_a   6.84076774
_cell_length_b   7.27998494
_cell_length_c   7.27998495
_cell_angle_alpha   77.24726970
_cell_angle_beta   61.97648354
_cell_angle_gamma   61.97648350
_symmetry_Int_Tables_number   1
_chemical_formula_structural   SrCu2(BO3)2
_chemical_formula_sum   'Sr2 Cu4 B4 O12'
_cell_volume   282.51792712
_cell_formula_units_Z   2
loop_
 _symmetry_equiv_pos_site_id
 _symmetry_equiv_pos_as_xyz
  1  'x, y, z'
loop_
 _atom_site_type_symbol
 _atom_site_label
 _atom_site_symmetry_multiplicity
 _atom_site_fract_x
 _atom_site_fract_y
 _atom_site_fract_z
 _atom_site_occupancy
  B  B0  1  0.05212057  0.40826199  0.00000000  1
  B  B1  1  0.94787943  0.00000000  0.59173801  1
  B  B2  1  0.46038257  0.59173801  0.00000000  1
  B  B3  1  0.53961743  0.00000000  0.40826199  1
  O  O4  1  0.92708695  0.18191988  0.47478231  1
  O  O5  1  0.59813073  0.47478231  0.81808012  1
  O  O6  1  0.41621086  0.47478231  0.18191988  1
  O  O7  1  0.10900683  0.81808012  0.47478231  1
  O  O8  1  0.07291305  0.52521769  0.81808012  1
  O  O9  1  0.40186927  0.18191988  0.52521769  1
  O  O10  1  0.61954953  0.00000000  0.19725706  1
  O  O11  1  0.18319341  0.19725706  0.00000000  1
  O  O12  1  0.38045047  0.80274294  0.00000000  1
  O  O13  1  0.81680659  0.00000000  0.80274294  1
  O  O14  1  0.58378914  0.81808012  0.52521769  1
  O  O15  1  0.89099317  0.52521769  0.18191988  1
  Cu  Cu16  1  0.15818943  0.00000000  0.22863035  1
  Cu  Cu17  1  0.61318022  0.22863035  0.00000000  1
  Cu  Cu18  1  0.84181057  0.77136965  0.00000000  1
  Cu  Cu19  1  0.38681978  0.00000000  0.77136965  1
  Sr  Sr20  1  0.50000000  0.50000000  0.50000000  1
  Sr  Sr21  1  0.00000000  0.50000000  0.50000000  1
