# generated using pymatgen
data_Ca(H8O5)2
_symmetry_space_group_name_H-M   'P 1'
_cell_length_a   6.51461035
_cell_length_b   6.53775710
_cell_length_c   11.24267638
_cell_angle_alpha   83.86397128
_cell_angle_beta   96.86398745
_cell_angle_gamma   98.50270435
_symmetry_Int_Tables_number   1
_chemical_formula_structural   Ca(H8O5)2
_chemical_formula_sum   'Ca2 H32 O20'
_cell_volume   468.23408047
_cell_formula_units_Z   2
loop_
 _symmetry_equiv_pos_site_id
 _symmetry_equiv_pos_as_xyz
  1  'x, y, z'
loop_
 _atom_site_type_symbol
 _atom_site_label
 _atom_site_symmetry_multiplicity
 _atom_site_fract_x
 _atom_site_fract_y
 _atom_site_fract_z
 _atom_site_occupancy
  Ca  Ca0  1  0.02818615  0.98479344  0.24346838  1
  Ca  Ca1  1  0.01955053  0.95744425  0.73815389  1
  H  H2  1  0.27047107  0.35575951  0.34937568  1
  H  H3  1  0.12850544  0.28046470  0.45252450  1
  H  H4  1  0.72093575  0.63612414  0.35313370  1
  H  H5  1  0.85711302  0.72004787  0.46872470  1
  H  H6  1  0.71050206  0.98996774  0.38563165  1
  H  H7  1  0.58387145  0.31049143  0.33103301  1
  H  H8  1  0.31635364  0.73749654  0.37607167  1
  H  H9  1  0.44983764  0.98424739  0.39221520  1
  H  H10  1  0.68515799  0.41748513  0.83527824  1
  H  H11  1  0.98884520  0.28547274  0.88246802  1
  H  H12  1  0.26738280  0.66792259  0.87838293  1
  H  H13  1  0.01804257  0.55056099  0.89386456  1
  H  H14  1  0.35813517  0.27941223  0.84973135  1
  H  H15  1  0.26459941  0.14487094  0.96149118  1
  H  H16  1  0.64628270  0.73214014  0.84984569  1
  H  H17  1  0.71921647  0.88009220  0.95103506  1
  H  H18  1  0.95645426  0.58772294  0.65155826  1
  H  H19  1  0.70171640  0.59583564  0.64659658  1
  H  H20  1  0.27640447  0.37714963  0.64382256  1
  H  H21  1  0.01488992  0.33063329  0.61880314  1
  H  H22  1  0.37580725  0.73426576  0.66023879  1
  H  H23  1  0.28347777  0.86681209  0.54607727  1
  H  H24  1  0.61169764  0.12702061  0.66140023  1
  H  H25  1  0.69315898  0.12690844  0.53357756  1
  H  H26  1  0.13045808  0.71441075  0.04939869  1
  H  H27  1  0.26049777  0.61781236  0.16269685  1
  H  H28  1  0.84675492  0.38395866  0.16471773  1
  H  H29  1  0.86413807  0.30553887  0.03797707  1
  H  H30  1  0.64245528  0.96948711  0.12902355  1
  H  H31  1  0.61104703  0.71099124  0.14537606  1
  H  H32  1  0.38905013  0.27455143  0.14217608  1
  H  H33  1  0.36242749  0.01442299  0.13292012  1
  O  O34  1  0.52629658  0.45229325  0.31427683  1
  O  O35  1  0.53992379  0.47536385  0.81662720  1
  O  O36  1  0.49573711  0.51182375  0.68391880  1
  O  O37  1  0.48049404  0.48980955  0.18165646  1
  O  O38  1  0.12720868  0.28797236  0.36402391  1
  O  O39  1  0.83106038  0.75136982  0.37988011  1
  O  O40  1  0.62455368  0.09763666  0.39677077  1
  O  O41  1  0.28967926  0.87513265  0.38975308  1
  O  O42  1  0.89210417  0.37751508  0.90031363  1
  O  O43  1  0.13054478  0.70287311  0.88882261  1
  O  O44  1  0.24116027  0.16852295  0.87222215  1
  O  O45  1  0.71813966  0.87445811  0.86375649  1
  O  O46  1  0.84878218  0.67503505  0.62331927  1
  O  O47  1  0.14702125  0.27929890  0.61284939  1
  O  O48  1  0.29093969  0.85129528  0.63608825  1
  O  O49  1  0.74134441  0.14090485  0.62333558  1
  O  O50  1  0.15253632  0.71416081  0.13871722  1
  O  O51  1  0.84669377  0.25711315  0.12667414  1
  O  O52  1  0.70481356  0.84569294  0.11937422  1
  O  O53  1  0.29510388  0.13963709  0.11510594  1
