# generated using pymatgen
data_BiP2O7
_symmetry_space_group_name_H-M   'P 1'
_cell_length_a   9.33317832
_cell_length_b   5.46764885
_cell_length_c   13.03626522
_cell_angle_alpha   90.00000000
_cell_angle_beta   103.41312846
_cell_angle_gamma   90.00000000
_symmetry_Int_Tables_number   1
_chemical_formula_structural   BiP2O7
_chemical_formula_sum   'Bi4 P8 O28'
_cell_volume   647.10155000
_cell_formula_units_Z   4
loop_
 _symmetry_equiv_pos_site_id
 _symmetry_equiv_pos_as_xyz
  1  'x, y, z'
loop_
 _atom_site_type_symbol
 _atom_site_label
 _atom_site_symmetry_multiplicity
 _atom_site_fract_x
 _atom_site_fract_y
 _atom_site_fract_z
 _atom_site_occupancy
  Bi  Bi0  1  0.26354687  0.73600808  0.52734247  1
  Bi  Bi1  1  0.76354687  0.76399192  0.02734247  1
  Bi  Bi2  1  0.23645313  0.23600808  0.97265753  1
  Bi  Bi3  1  0.73645313  0.26399192  0.47265753  1
  P  P4  1  0.53076652  0.75115884  0.34989722  1
  P  P5  1  0.03076652  0.74884116  0.84989722  1
  P  P6  1  0.57031489  0.27477773  0.88257530  1
  P  P7  1  0.42968511  0.72522227  0.11742470  1
  P  P8  1  0.07031489  0.22522227  0.38257530  1
  P  P9  1  0.92968511  0.77477773  0.61742470  1
  P  P10  1  0.46923348  0.24884116  0.65010278  1
  P  P11  1  0.96923348  0.25115884  0.15010278  1
  O  O12  1  0.79826138  0.63890205  0.54857585  1
  O  O13  1  0.05717795  0.27548591  0.06619003  1
  O  O14  1  0.55717795  0.22451409  0.56619003  1
  O  O15  1  0.29826138  0.86109795  0.04857585  1
  O  O16  1  0.08622496  0.94939441  0.40455437  1
  O  O17  1  0.08084378  0.67441698  0.61237998  1
  O  O18  1  0.94282205  0.72451409  0.93380997  1
  O  O19  1  0.39944882  0.50227212  0.65563044  1
  O  O20  1  0.91915622  0.32558302  0.38762002  1
  O  O21  1  0.44282205  0.77548591  0.43380997  1
  O  O22  1  0.64350075  0.95941594  0.35597775  1
  O  O23  1  0.41377504  0.44939441  0.09544563  1
  O  O24  1  0.89944882  0.99772788  0.15563044  1
  O  O25  1  0.14350075  0.54058406  0.85597775  1
  O  O26  1  0.85649925  0.45941594  0.14402225  1
  O  O27  1  0.58628462  0.22533864  0.76305197  1
  O  O28  1  0.35649925  0.04058406  0.64402225  1
  O  O29  1  0.91371538  0.72533864  0.73694803  1
  O  O30  1  0.41915622  0.17441698  0.88762002  1
  O  O31  1  0.60055118  0.49772788  0.34436956  1
  O  O32  1  0.58084378  0.82558302  0.11237998  1
  O  O33  1  0.08628462  0.27466136  0.26305197  1
  O  O34  1  0.20173862  0.36109795  0.45142415  1
  O  O35  1  0.10055118  0.00227212  0.84436956  1
  O  O36  1  0.91377504  0.05060559  0.59544563  1
  O  O37  1  0.41371538  0.77466136  0.23694803  1
  O  O38  1  0.58622496  0.55060559  0.90455437  1
  O  O39  1  0.70173862  0.13890205  0.95142415  1
