# generated using pymatgen
data_NaPO3
_symmetry_space_group_name_H-M   'P 1'
_cell_length_a   7.48576219
_cell_length_b   9.69327822
_cell_length_c   9.69262045
_cell_angle_alpha   81.42573598
_cell_angle_beta   67.29069577
_cell_angle_gamma   67.28366252
_symmetry_Int_Tables_number   1
_chemical_formula_structural   NaPO3
_chemical_formula_sum   'Na8 P8 O24'
_cell_volume   598.46008986
_cell_formula_units_Z   8
loop_
 _symmetry_equiv_pos_site_id
 _symmetry_equiv_pos_as_xyz
  1  'x, y, z'
loop_
 _atom_site_type_symbol
 _atom_site_label
 _atom_site_symmetry_multiplicity
 _atom_site_fract_x
 _atom_site_fract_y
 _atom_site_fract_z
 _atom_site_occupancy
  Na  Na0  1  0.24705425  0.56452479  0.22754682  1
  Na  Na1  1  0.75294575  0.43547521  0.77245318  1
  Na  Na2  1  0.68839020  0.77245555  0.06451648  1
  Na  Na3  1  0.47480569  0.27244443  0.56448361  1
  Na  Na4  1  0.03933205  0.93556518  0.27238782  1
  Na  Na5  1  0.52519431  0.72755557  0.43551639  1
  Na  Na6  1  0.31160980  0.22754445  0.93548352  1
  Na  Na7  1  0.96066795  0.06443482  0.72761218  1
  P  P8  1  0.76070848  0.40999315  0.18922250  1
  P  P9  1  0.05008786  0.68919584  0.58999871  1
  P  P10  1  0.94991214  0.31080416  0.41000129  1
  P  P11  1  0.64011821  0.90992230  0.68918608  1
  P  P12  1  0.23929152  0.59000685  0.81077750  1
  P  P13  1  0.67065226  0.18924837  0.09006946  1
  P  P14  1  0.32934774  0.81075163  0.90993054  1
  P  P15  1  0.35988179  0.09007770  0.31081392  1
  O  O16  1  0.86522524  0.28153547  0.57475160  1
  O  O17  1  0.56008392  0.07467327  0.71843467  1
  O  O18  1  0.72146902  0.21846722  0.92530101  1
  O  O19  1  0.03464458  0.65428289  0.93243270  1
  O  O20  1  0.81103402  0.06760538  0.15435293  1
  O  O21  1  0.44410133  0.17068449  0.14826869  1
  O  O22  1  0.96535542  0.34571711  0.06756730  1
  O  O23  1  0.88523956  0.85171928  0.67062892  1
  O  O24  1  0.37861666  0.15434171  0.43247094  1
  O  O25  1  0.62138334  0.84565829  0.56752906  1
  O  O26  1  0.35318848  0.42525125  0.78153779  1
  O  O27  1  0.55589867  0.82931551  0.85173131  1
  O  O28  1  0.76300627  0.32937930  0.35176737  1
  O  O29  1  0.23699373  0.67062070  0.64823263  1
  O  O30  1  0.96711882  0.56752802  0.65423586  1
  O  O31  1  0.27853098  0.78153278  0.07469899  1
  O  O32  1  0.40764889  0.64819188  0.82935648  1
  O  O33  1  0.59235111  0.35180812  0.17064352  1
  O  O34  1  0.43991608  0.92532673  0.28156533  1
  O  O35  1  0.13477476  0.71846453  0.42524840  1
  O  O36  1  0.18896598  0.93239462  0.84564707  1
  O  O37  1  0.11476044  0.14828072  0.32937108  1
  O  O38  1  0.03288118  0.43247198  0.34576414  1
  O  O39  1  0.64681152  0.57474875  0.21846221  1
