# generated using pymatgen
data_Ca(H8O5)2
_symmetry_space_group_name_H-M   'P 1'
_cell_length_a   6.06047691
_cell_length_b   6.36843590
_cell_length_c   11.32529673
_cell_angle_alpha   92.21258405
_cell_angle_beta   90.25079247
_cell_angle_gamma   88.58910329
_symmetry_Int_Tables_number   1
_chemical_formula_structural   Ca(H8O5)2
_chemical_formula_sum   'Ca2 H32 O20'
_cell_volume   436.64754853
_cell_formula_units_Z   2
loop_
 _symmetry_equiv_pos_site_id
 _symmetry_equiv_pos_as_xyz
  1  'x, y, z'
loop_
 _atom_site_type_symbol
 _atom_site_label
 _atom_site_symmetry_multiplicity
 _atom_site_fract_x
 _atom_site_fract_y
 _atom_site_fract_z
 _atom_site_occupancy
  Ca  Ca0  1  0.00560111  0.99626580  0.51402523  1
  Ca  Ca1  1  0.99748038  0.99740751  0.99867137  1
  H  H2  1  0.26157730  0.37880223  0.38837768  1
  H  H3  1  0.01429189  0.32580886  0.33596989  1
  H  H4  1  0.91609000  0.62721164  0.31739742  1
  H  H5  1  0.69995873  0.62159967  0.39817047  1
  H  H6  1  0.59060032  0.03893220  0.38787230  1
  H  H7  1  0.62168711  0.28272104  0.40272270  1
  H  H8  1  0.31311316  0.90417615  0.29880975  1
  H  H9  1  0.37765495  0.72037454  0.39504118  1
  H  H10  1  0.70857650  0.36234948  0.88929095  1
  H  H11  1  0.92537038  0.34990200  0.80333860  1
  H  H12  1  0.04350516  0.57826416  0.91447240  1
  H  H13  1  0.28995664  0.62235531  0.89782847  1
  H  H14  1  0.26865055  0.14410749  0.80149090  1
  H  H15  1  0.37889494  0.27502055  0.90791701  1
  H  H16  1  0.63078555  0.70017900  0.89198913  1
  H  H17  1  0.57378911  0.93293943  0.85950757  1
  H  H18  1  0.83814594  0.74151234  0.71637950  1
  H  H19  1  0.72097594  0.62403375  0.60730532  1
  H  H20  1  0.02649623  0.45463105  0.62532881  1
  H  H21  1  0.27131458  0.38340597  0.60240331  1
  H  H22  1  0.37297291  0.73457581  0.61497332  1
  H  H23  1  0.45380255  0.96696866  0.63103776  1
  H  H24  1  0.71952120  0.16327955  0.71887340  1
  H  H25  1  0.61721813  0.27034564  0.60508025  1
  H  H26  1  0.29834992  0.58780976  0.10366693  1
  H  H27  1  0.15873090  0.71998016  0.20283212  1
  H  H28  1  0.98257056  0.42402840  0.12473547  1
  H  H29  1  0.73263936  0.37422473  0.10364212  1
  H  H30  1  0.73738087  0.87820138  0.20644480  1
  H  H31  1  0.63109080  0.73830168  0.09817969  1
  H  H32  1  0.25859231  0.16733509  0.21648759  1
  H  H33  1  0.44392430  0.03287934  0.13922893  1
  O  O34  1  0.49044833  0.50118699  0.43490119  1
  O  O35  1  0.51433429  0.49546549  0.93600817  1
  O  O36  1  0.50008412  0.49753290  0.56710646  1
  O  O37  1  0.52358707  0.52981588  0.06709104  1
  O  O38  1  0.16029469  0.26817399  0.35323378  1
  O  O39  1  0.82929570  0.71331789  0.37356748  1
  O  O40  1  0.70590604  0.14411643  0.38702623  1
  O  O41  1  0.30387530  0.86305771  0.38151150  1
  O  O42  1  0.83116150  0.26411386  0.85095708  1
  O  O43  1  0.13717240  0.68440671  0.88233862  1
  O  O44  1  0.31007506  0.13498681  0.88488791  1
  O  O45  1  0.70079325  0.83543797  0.86581740  1
  O  O46  1  0.86593662  0.69001572  0.63415968  1
  O  O47  1  0.12187056  0.32435914  0.62244343  1
  O  O48  1  0.31784810  0.88212115  0.63312853  1
  O  O49  1  0.67868835  0.13165581  0.63489722  1
  O  O50  1  0.13584535  0.63567319  0.13052403  1
  O  O51  1  0.88134669  0.30280885  0.11729762  1
  O  O52  1  0.69604571  0.88541628  0.12301067  1
  O  O53  1  0.28303658  0.05298584  0.15496662  1
