# generated using pymatgen
data_Ni9O10
_symmetry_space_group_name_H-M   'P 1'
_cell_length_a   5.89214829
_cell_length_b   5.09716688
_cell_length_c   6.64626561
_cell_angle_alpha   97.89858664
_cell_angle_beta   77.15437076
_cell_angle_gamma   73.10483193
_symmetry_Int_Tables_number   1
_chemical_formula_structural   Ni9O10
_chemical_formula_sum   'Ni9 O10'
_cell_volume   181.79424206
_cell_formula_units_Z   1
loop_
 _symmetry_equiv_pos_site_id
 _symmetry_equiv_pos_as_xyz
  1  'x, y, z'
loop_
 _atom_site_type_symbol
 _atom_site_label
 _atom_site_symmetry_multiplicity
 _atom_site_fract_x
 _atom_site_fract_y
 _atom_site_fract_z
 _atom_site_occupancy
  Ni  Ni0  1  0.70635382  0.39648883  0.79338308  1
  Ni  Ni1  1  0.19714104  0.40217370  0.79231912  1
  Ni  Ni2  1  0.90401125  0.79618092  0.59295005  1
  Ni  Ni3  1  0.39336451  0.81386087  0.59962786  1
  Ni  Ni4  1  0.60000000  0.20000000  0.40000000  1
  Ni  Ni5  1  0.80663549  0.58613913  0.20037214  1
  Ni  Ni6  1  0.00285896  0.99782630  0.00768088  1
  Ni  Ni7  1  0.29598875  0.60381908  0.20704995  1
  Ni  Ni8  1  0.49364618  0.00351117  0.00661692  1
  O  O9  1  0.35338278  0.69919096  0.90538000  1
  O  O10  1  0.84661722  0.70080904  0.89462000  1
  O  O11  1  0.54866282  0.10184699  0.70048449  1
  O  O12  1  0.04798195  0.09166114  0.71716239  1
  O  O13  1  0.72140525  0.52142526  0.51055252  1
  O  O14  1  0.26005821  0.52328750  0.50594523  1
  O  O15  1  0.93994179  0.87671250  0.29405477  1
  O  O16  1  0.47859475  0.87857474  0.28944748  1
  O  O17  1  0.65133718  0.29815301  0.09951551  1
  O  O18  1  0.15201805  0.30833886  0.08283761  1
