# generated using pymatgen
data_CuH12(IN)4
_symmetry_space_group_name_H-M   'P 1'
_cell_length_a   8.51726099
_cell_length_b   8.51726099
_cell_length_c   6.64450339
_cell_angle_alpha   58.08224371
_cell_angle_beta   121.91775629
_cell_angle_gamma   115.12277103
_symmetry_Int_Tables_number   1
_chemical_formula_structural   CuH12(IN)4
_chemical_formula_sum   'Cu1 H12 I4 N4'
_cell_volume   340.17195457
_cell_formula_units_Z   1
loop_
 _symmetry_equiv_pos_site_id
 _symmetry_equiv_pos_as_xyz
  1  'x, y, z'
loop_
 _atom_site_type_symbol
 _atom_site_label
 _atom_site_symmetry_multiplicity
 _atom_site_fract_x
 _atom_site_fract_y
 _atom_site_fract_z
 _atom_site_occupancy
  Cu  Cu0  1  0.50000000  0.50000000  0.00000000  1
  H  H1  1  0.73708390  0.51848000  0.85186970  1
  H  H2  1  0.48152000  0.26291610  0.85186970  1
  H  H3  1  0.26291610  0.48152000  0.14813030  1
  H  H4  1  0.51848000  0.73708390  0.14813030  1
  H  H5  1  0.85143130  0.50715365  0.15057263  1
  H  H6  1  0.49284635  0.14856870  0.15057263  1
  H  H7  1  0.14856870  0.49284635  0.84942737  1
  H  H8  1  0.50715365  0.85143130  0.84942737  1
  H  H9  1  0.80170665  0.70977419  0.90408559  1
  H  H10  1  0.29022581  0.19829335  0.90408559  1
  H  H11  1  0.19829335  0.29022581  0.09591441  1
  H  H12  1  0.70977419  0.80170665  0.09591441  1
  I  I13  1  0.91142256  0.08857744  0.54180846  1
  I  I14  1  0.08857744  0.91142256  0.45819154  1
  I  I15  1  0.70608708  0.29391292  0.62718355  1
  I  I16  1  0.29391292  0.70608708  0.37281645  1
  N  N17  1  0.74989943  0.56690118  0.97308625  1
  N  N18  1  0.43309882  0.25010057  0.97308625  1
  N  N19  1  0.25010057  0.43309882  0.02691375  1
  N  N20  1  0.56690118  0.74989943  0.02691375  1
