# generated using pymatgen
data_K2Pt(NO2)4
_symmetry_space_group_name_H-M   'P 1'
_cell_length_a   8.30218066
_cell_length_b   10.19771962
_cell_length_c   13.38524885
_cell_angle_alpha   90.00000000
_cell_angle_beta   90.00000000
_cell_angle_gamma   89.04542099
_symmetry_Int_Tables_number   1
_chemical_formula_structural   K2Pt(NO2)4
_chemical_formula_sum   'K8 Pt4 N16 O32'
_cell_volume   1133.08220538
_cell_formula_units_Z   4
loop_
 _symmetry_equiv_pos_site_id
 _symmetry_equiv_pos_as_xyz
  1  'x, y, z'
loop_
 _atom_site_type_symbol
 _atom_site_label
 _atom_site_symmetry_multiplicity
 _atom_site_fract_x
 _atom_site_fract_y
 _atom_site_fract_z
 _atom_site_occupancy
  K  K0  1  0.01928662  0.72400932  0.64305503  1
  K  K1  1  0.48071338  0.27599068  0.14305503  1
  K  K2  1  0.98071338  0.27599068  0.35694497  1
  K  K3  1  0.51928662  0.72400932  0.85694497  1
  K  K4  1  0.36498873  0.24443478  0.82709569  1
  K  K5  1  0.13501127  0.75556522  0.32709569  1
  K  K6  1  0.63501127  0.75556522  0.17290431  1
  K  K7  1  0.86498873  0.24443478  0.67290431  1
  Pt  Pt8  1  0.50000000  -0.00000000  0.50000000  1
  Pt  Pt9  1  0.00000000  -0.00000000  -0.00000000  1
  Pt  Pt10  1  0.50000000  0.50000000  0.50000000  1
  Pt  Pt11  1  0.00000000  0.50000000  -0.00000000  1
  N  N12  1  0.50334784  0.94529739  0.64843246  1
  N  N13  1  0.99665216  0.05470261  0.14843246  1
  N  N14  1  0.49665216  0.05470261  0.35156754  1
  N  N15  1  0.00334784  0.94529739  0.85156754  1
  N  N16  1  0.50446817  0.43752688  0.64521288  1
  N  N17  1  0.99553183  0.56247312  0.14521288  1
  N  N18  1  0.49553183  0.56247312  0.35478712  1
  N  N19  1  0.00446817  0.43752688  0.85478712  1
  N  N20  1  0.27006882  0.93620739  0.48373146  1
  N  N21  1  0.22993118  0.06379261  0.98373146  1
  N  N22  1  0.72993118  0.06379261  0.51626854  1
  N  N23  1  0.77006882  0.93620739  0.01626854  1
  N  N24  1  0.27079932  0.43294199  0.47680544  1
  N  N25  1  0.22920068  0.56705801  0.97680544  1
  N  N26  1  0.72920068  0.56705801  0.52319456  1
  N  N27  1  0.77079932  0.43294199  0.02319456  1
  O  O28  1  0.52736984  0.02885328  0.71540149  1
  O  O29  1  0.97263016  0.97114672  0.21540149  1
  O  O30  1  0.47263016  0.97114672  0.28459851  1
  O  O31  1  0.02736984  0.02885328  0.78459851  1
  O  O32  1  0.47593448  0.51450020  0.71613178  1
  O  O33  1  0.02406552  0.48549980  0.21613178  1
  O  O34  1  0.52406552  0.48549980  0.28386822  1
  O  O35  1  0.97593448  0.51450020  0.78386822  1
  O  O36  1  0.48437424  0.82758850  0.67093477  1
  O  O37  1  0.01562576  0.17241150  0.17093477  1
  O  O38  1  0.51562576  0.17241150  0.32906523  1
  O  O39  1  0.98437424  0.82758850  0.82906523  1
  O  O40  1  0.53992649  0.31968537  0.66319457  1
  O  O41  1  0.96007351  0.68031463  0.16319457  1
  O  O42  1  0.46007351  0.68031463  0.33680543  1
  O  O43  1  0.03992649  0.31968537  0.83680543  1
  O  O44  1  0.23079461  0.82601253  0.51781695  1
  O  O45  1  0.26920539  0.17398747  0.01781695  1
  O  O46  1  0.76920539  0.17398747  0.48218305  1
  O  O47  1  0.73079461  0.82601253  0.98218305  1
  O  O48  1  0.23301385  0.31862502  0.49950909  1
  O  O49  1  0.26698615  0.68137498  0.99950909  1
  O  O50  1  0.76698615  0.68137498  0.50049091  1
  O  O51  1  0.73301385  0.31862502  0.00049091  1
  O  O52  1  0.17029204  0.00124334  0.43323673  1
  O  O53  1  0.32970796  0.99875666  0.93323673  1
  O  O54  1  0.82970796  0.99875666  0.56676327  1
  O  O55  1  0.67029204  0.00124334  0.06676327  1
  O  O56  1  0.16860470  0.50768016  0.43526380  1
  O  O57  1  0.33139530  0.49231984  0.93526380  1
  O  O58  1  0.83139530  0.49231984  0.56473620  1
  O  O59  1  0.66860470  0.50768016  0.06473620  1
