# generated using pymatgen
data_K(GeSe2)2
_symmetry_space_group_name_H-M   'P 1'
_cell_length_a   7.85861229
_cell_length_b   12.56772210
_cell_length_c   17.78882963
_cell_angle_alpha   90.00000000
_cell_angle_beta   95.65005016
_cell_angle_gamma   90.00000000
_symmetry_Int_Tables_number   1
_chemical_formula_structural   K(GeSe2)2
_chemical_formula_sum   'K8 Ge16 Se32'
_cell_volume   1748.37572059
_cell_formula_units_Z   8
loop_
 _symmetry_equiv_pos_site_id
 _symmetry_equiv_pos_as_xyz
  1  'x, y, z'
loop_
 _atom_site_type_symbol
 _atom_site_label
 _atom_site_symmetry_multiplicity
 _atom_site_fract_x
 _atom_site_fract_y
 _atom_site_fract_z
 _atom_site_occupancy
  K  K0  1  0.23818747  0.94099145  0.33149280  1
  K  K1  1  0.25224452  0.88850700  0.95303292  1
  K  K2  1  0.76181253  0.05900855  0.66850720  1
  K  K3  1  0.25224452  0.61149300  0.45303292  1
  K  K4  1  0.74775548  0.38850700  0.54696708  1
  K  K5  1  0.23818747  0.55900855  0.83149280  1
  K  K6  1  0.76181253  0.44099145  0.16850720  1
  K  K7  1  0.74775548  0.11149300  0.04696708  1
  Ge  Ge8  1  0.72158619  0.68235071  0.98696948  1
  Ge  Ge9  1  0.47045665  0.73745908  0.64730964  1
  Ge  Ge10  1  0.25497021  0.29250968  0.67726017  1
  Ge  Ge11  1  0.97728655  0.74145088  0.65580550  1
  Ge  Ge12  1  0.02271345  0.25854912  0.34419450  1
  Ge  Ge13  1  0.52954335  0.23745908  0.85269036  1
  Ge  Ge14  1  0.47045665  0.76254092  0.14730964  1
  Ge  Ge15  1  0.97728655  0.75854912  0.15580550  1
  Ge  Ge16  1  0.52954335  0.26254092  0.35269036  1
  Ge  Ge17  1  0.72158619  0.81764929  0.48696948  1
  Ge  Ge18  1  0.74502979  0.70749032  0.32273983  1
  Ge  Ge19  1  0.74502979  0.79250968  0.82273983  1
  Ge  Ge20  1  0.02271345  0.24145088  0.84419450  1
  Ge  Ge21  1  0.27841381  0.18235071  0.51303052  1
  Ge  Ge22  1  0.25497021  0.20749032  0.17726017  1
  Ge  Ge23  1  0.27841381  0.31764929  0.01303052  1
  Se  Se24  1  0.75944908  0.11399331  0.85543665  1
  Se  Se25  1  0.02235601  0.66089057  0.28678633  1
  Se  Se26  1  0.70418224  0.87966813  0.15636662  1
  Se  Se27  1  0.24055092  0.61399331  0.64456335  1
  Se  Se28  1  0.96553773  0.89652308  0.55537233  1
  Se  Se29  1  0.03446227  0.39652308  0.94462767  1
  Se  Se30  1  0.25332567  0.36974160  0.55008528  1
  Se  Se31  1  0.29395652  0.39299750  0.13972738  1
  Se  Se32  1  0.02235601  0.83910943  0.78678633  1
  Se  Se33  1  0.70604348  0.89299750  0.36027262  1
  Se  Se34  1  0.50825167  0.13109848  0.25023222  1
  Se  Se35  1  0.49174833  0.86890152  0.74976778  1
  Se  Se36  1  0.74667433  0.86974160  0.94991472  1
  Se  Se37  1  0.29395652  0.10700250  0.63972738  1
  Se  Se38  1  0.49174833  0.63109848  0.24976778  1
  Se  Se39  1  0.75944908  0.38600669  0.35543665  1
  Se  Se40  1  0.25332567  0.13025840  0.05008528  1
  Se  Se41  1  0.50825167  0.36890152  0.75023222  1
  Se  Se42  1  0.97764399  0.16089057  0.21321367  1
  Se  Se43  1  0.43884214  0.84840505  0.53228293  1
  Se  Se44  1  0.56115786  0.34840505  0.96771707  1
  Se  Se45  1  0.96553773  0.60347692  0.05537233  1
  Se  Se46  1  0.43884214  0.65159495  0.03228293  1
  Se  Se47  1  0.24055092  0.88600669  0.14456335  1
  Se  Se48  1  0.29581776  0.37966813  0.34363338  1
  Se  Se49  1  0.56115786  0.15159495  0.46771707  1
  Se  Se50  1  0.29581776  0.12033187  0.84363338  1
  Se  Se51  1  0.74667433  0.63025840  0.44991472  1
  Se  Se52  1  0.03446227  0.10347692  0.44462767  1
  Se  Se53  1  0.70418224  0.62033187  0.65636662  1
  Se  Se54  1  0.70604348  0.60700250  0.86027262  1
  Se  Se55  1  0.97764399  0.33910943  0.71321367  1
