# generated using pymatgen
data_MgMo3Se4
_symmetry_space_group_name_H-M   'P 1'
_cell_length_a   13.94684616
_cell_length_b   9.49319040
_cell_length_c   9.30709268
_cell_angle_alpha   65.36500718
_cell_angle_beta   48.99363818
_cell_angle_gamma   46.98560669
_symmetry_Int_Tables_number   1
_chemical_formula_structural   MgMo3Se4
_chemical_formula_sum   'Mg4 Mo12 Se16'
_cell_volume   678.87439233
_cell_formula_units_Z   4
loop_
 _symmetry_equiv_pos_site_id
 _symmetry_equiv_pos_as_xyz
  1  'x, y, z'
loop_
 _atom_site_type_symbol
 _atom_site_label
 _atom_site_symmetry_multiplicity
 _atom_site_fract_x
 _atom_site_fract_y
 _atom_site_fract_z
 _atom_site_occupancy
  Mg  Mg0  1  0.32121759  0.95712336  0.04643110  1
  Mg  Mg1  1  0.23562232  0.54062139  0.98480339  1
  Mg  Mg2  1  0.76437768  0.45937861  0.01519661  1
  Mg  Mg3  1  0.67878241  0.04287664  0.95356890  1
  Mo  Mo4  1  0.13954204  0.54763956  0.41281162  1
  Mo  Mo5  1  0.06239627  0.58084998  0.75062115  1
  Mo  Mo6  1  0.31832383  0.23860920  0.54302371  1
  Mo  Mo7  1  0.18258741  0.75703128  0.45742172  1
  Mo  Mo8  1  0.43643749  0.41748283  0.24720044  1
  Mo  Mo9  1  0.35978751  0.45123246  0.58554662  1
  Mo  Mo10  1  0.64021249  0.54876754  0.41445338  1
  Mo  Mo11  1  0.56356251  0.58251717  0.75279956  1
  Mo  Mo12  1  0.81741259  0.24296872  0.54257828  1
  Mo  Mo13  1  0.68167617  0.76139080  0.45697629  1
  Mo  Mo14  1  0.93760373  0.41915002  0.24937885  1
  Mo  Mo15  1  0.86045796  0.45236044  0.58718838  1
  Se  Se16  1  0.10335449  0.12382611  0.39187556  1
  Se  Se17  1  0.03549786  0.35989278  0.69916658  1
  Se  Se18  1  0.37876434  0.21615294  0.21816684  1
  Se  Se19  1  0.26598651  0.71595100  0.11348784  1
  Se  Se20  1  0.23403357  0.28632080  0.88247205  1
  Se  Se21  1  0.10626795  0.78503063  0.78813120  1
  Se  Se22  1  0.60217318  0.12885999  0.38067298  1
  Se  Se23  1  0.46646460  0.63943129  0.29635773  1
  Se  Se24  1  0.53353540  0.36056871  0.70364227  1
  Se  Se25  1  0.39782682  0.87114001  0.61932702  1
  Se  Se26  1  0.89373205  0.21496937  0.21186880  1
  Se  Se27  1  0.76596643  0.71367920  0.11752795  1
  Se  Se28  1  0.73401349  0.28404900  0.88651216  1
  Se  Se29  1  0.62123566  0.78384706  0.78183316  1
  Se  Se30  1  0.96450214  0.64010722  0.30083342  1
  Se  Se31  1  0.89664551  0.87617389  0.60812444  1
