# generated using pymatgen
data_Zr4CdO9
_symmetry_space_group_name_H-M   'P 1'
_cell_length_a   3.50606180
_cell_length_b   7.04672870
_cell_length_c   19.80878506
_cell_angle_alpha   61.69459846
_cell_angle_beta   63.73725615
_cell_angle_gamma   60.16232076
_symmetry_Int_Tables_number   1
_chemical_formula_structural   Zr4CdO9
_chemical_formula_sum   'Zr8 Cd2 O18'
_cell_volume   359.83467845
_cell_formula_units_Z   2
loop_
 _symmetry_equiv_pos_site_id
 _symmetry_equiv_pos_as_xyz
  1  'x, y, z'
loop_
 _atom_site_type_symbol
 _atom_site_label
 _atom_site_symmetry_multiplicity
 _atom_site_fract_x
 _atom_site_fract_y
 _atom_site_fract_z
 _atom_site_occupancy
  Zr  Zr0  1  0.95439839  0.98755209  0.02321981  1
  Zr  Zr1  1  0.00678692  0.52304229  0.98806832  1
  Zr  Zr2  1  0.04560161  0.01244791  0.37678019  1
  Zr  Zr3  1  0.99321308  0.47695771  0.41193168  1
  Zr  Zr4  1  0.98738577  0.97536802  0.61489849  1
  Zr  Zr5  1  0.01261423  0.02463198  0.78510151  1
  Zr  Zr6  1  0.01946128  0.52301328  0.58301017  1
  Zr  Zr7  1  0.98053872  0.47698672  0.81698983  1
  Cd  Cd8  1  0.00000000  0.00000000  0.20000000  1
  Cd  Cd9  1  0.00000000  0.50000000  0.20000000  1
  O  O10  1  0.16641676  0.17781012  0.06230925  1
  O  O11  1  0.29839005  0.58436172  0.04689929  1
  O  O12  1  0.21974853  0.15241486  0.25113465  1
  O  O13  1  0.33610511  0.10383626  0.42402345  1
  O  O14  1  0.19828769  0.65549870  0.45848545  1
  O  O15  1  0.18765697  0.16205956  0.66011339  1
  O  O16  1  0.78025147  0.84758514  0.14886535  1
  O  O17  1  0.70160995  0.41563828  0.35310071  1
  O  O18  1  0.31442485  0.09761077  0.83518575  1
  O  O19  1  0.81975684  0.33452498  0.53828727  1
  O  O20  1  0.83358324  0.82218988  0.33769075  1
  O  O21  1  0.32085037  0.59765779  0.63259674  1
  O  O22  1  0.67914963  0.40234221  0.76740326  1
  O  O23  1  0.68557515  0.90238923  0.56481425  1
  O  O24  1  0.18024316  0.66547502  0.86171273  1
  O  O25  1  0.81234303  0.83794044  0.73988661  1
  O  O26  1  0.80171231  0.34450130  0.94151455  1
  O  O27  1  0.66389489  0.89616374  0.97597655  1
