# generated using pymatgen
data_Na4Cr13Se23
_symmetry_space_group_name_H-M   'P 1'
_cell_length_a   13.08783359
_cell_length_b   13.08783359
_cell_length_c   78.52654642
_cell_angle_alpha   16.01532066
_cell_angle_beta   16.01532065
_cell_angle_gamma   16.18342342
_symmetry_Int_Tables_number   1
_chemical_formula_structural   Na4Cr13Se23
_chemical_formula_sum   'Na4 Cr13 Se23'
_cell_volume   898.52097948
_cell_formula_units_Z   1
loop_
 _symmetry_equiv_pos_site_id
 _symmetry_equiv_pos_as_xyz
  1  'x, y, z'
loop_
 _atom_site_type_symbol
 _atom_site_label
 _atom_site_symmetry_multiplicity
 _atom_site_fract_x
 _atom_site_fract_y
 _atom_site_fract_z
 _atom_site_occupancy
  Na  Na0  1  0.66682877  0.66682877  0.27743067  1
  Na  Na1  1  0.68321148  0.68321148  0.60532141  1
  Na  Na2  1  0.66630326  0.66630326  0.77750040  1
  Na  Na3  1  0.64974417  0.64974417  0.94893946  1
  Cr  Cr4  1  0.48580518  0.48580518  0.08648586  1
  Cr  Cr5  1  0.56772412  0.56772412  0.09946255  1
  Cr  Cr6  1  0.43924252  0.43924252  0.23286107  1
  Cr  Cr7  1  0.58858334  0.58858334  0.25738920  1
  Cr  Cr8  1  0.43363524  0.43363524  0.39968085  1
  Cr  Cr9  1  0.50157466  0.50157466  0.41604242  1
  Cr  Cr10  1  0.56272171  0.56272171  0.43475998  1
  Cr  Cr11  1  0.41701807  0.41701807  0.57387482  1
  Cr  Cr12  1  0.57579736  0.57579736  0.59491148  1
  Cr  Cr13  1  0.42169759  0.42169759  0.73909680  1
  Cr  Cr14  1  0.57398071  0.57398071  0.76182311  1
  Cr  Cr15  1  0.43940865  0.43940865  0.90148244  1
  Cr  Cr16  1  0.58307177  0.58307177  0.92583260  1
  Se  Se17  1  0.20163304  0.20163304  0.03460084  1
  Se  Se18  1  0.04351246  0.04351246  0.18034268  1
  Se  Se19  1  0.20805957  0.20805957  0.19933683  1
  Se  Se20  1  0.06222301  0.06222301  0.34029455  1
  Se  Se21  1  0.80660063  0.80660063  0.12899383  1
  Se  Se22  1  0.20219412  0.20219412  0.36791983  1
  Se  Se23  1  0.94639494  0.94639494  0.15711597  1
  Se  Se24  1  0.05744998  0.05744998  0.50913827  1
  Se  Se25  1  0.79267678  0.79267678  0.29978818  1
  Se  Se26  1  0.20392736  0.20392736  0.53419914  1
  Se  Se27  1  0.94673453  0.94673453  0.32221635  1
  Se  Se28  1  0.05224193  0.05224193  0.67670294  1
  Se  Se29  1  0.79567438  0.79567438  0.46597840  1
  Se  Se30  1  0.20574404  0.20574404  0.70069562  1
  Se  Se31  1  0.94703091  0.94703091  0.49032875  1
  Se  Se32  1  0.02299680  0.02299680  0.85287756  1
  Se  Se33  1  0.78599714  0.78599714  0.63516061  1
  Se  Se34  1  0.20609182  0.20609182  0.86719790  1
  Se  Se35  1  0.94944772  0.94944772  0.65546816  1
  Se  Se36  1  0.80007362  0.80007362  0.79744006  1
  Se  Se37  1  0.94556864  0.94556864  0.82376131  1
  Se  Se38  1  0.79259631  0.79259631  0.96553247  1
  Se  Se39  1  0.94308167  0.94308167  0.99106464  1
