# generated using pymatgen
data_Sb(PO3)4
_symmetry_space_group_name_H-M   'P 1'
_cell_length_a   7.53647221
_cell_length_b   8.80793162
_cell_length_c   14.72582652
_cell_angle_alpha   90.00000000
_cell_angle_beta   96.45548442
_cell_angle_gamma   90.00000000
_symmetry_Int_Tables_number   1
_chemical_formula_structural   Sb(PO3)4
_chemical_formula_sum   'Sb4 P16 O48'
_cell_volume   971.31324031
_cell_formula_units_Z   4
loop_
 _symmetry_equiv_pos_site_id
 _symmetry_equiv_pos_as_xyz
  1  'x, y, z'
loop_
 _atom_site_type_symbol
 _atom_site_label
 _atom_site_symmetry_multiplicity
 _atom_site_fract_x
 _atom_site_fract_y
 _atom_site_fract_z
 _atom_site_occupancy
  Sb  Sb0  1  0.45874075  0.15717201  0.14563429  1
  Sb  Sb1  1  0.04125925  0.65717201  0.35436571  1
  Sb  Sb2  1  0.95874075  0.34282799  0.64563429  1
  Sb  Sb3  1  0.54125925  0.84282799  0.85436571  1
  P  P4  1  0.18121482  0.23813567  0.95379989  1
  P  P5  1  0.06451250  0.27197283  0.42897651  1
  P  P6  1  0.71308806  0.47051298  0.81399187  1
  P  P7  1  0.43548750  0.77197283  0.07102349  1
  P  P8  1  0.21308806  0.02948702  0.31399187  1
  P  P9  1  0.28691194  0.52948702  0.18600813  1
  P  P10  1  0.37068759  0.55029288  0.71499273  1
  P  P11  1  0.62931241  0.44970712  0.28500727  1
  P  P12  1  0.56451250  0.22802717  0.92897651  1
  P  P13  1  0.12931241  0.05029288  0.78500727  1
  P  P14  1  0.87068759  0.94970712  0.21499273  1
  P  P15  1  0.68121482  0.26186433  0.45379989  1
  P  P16  1  0.81878518  0.76186433  0.04620011  1
  P  P17  1  0.93548750  0.72802717  0.57102349  1
  P  P18  1  0.78691194  0.97051298  0.68600813  1
  P  P19  1  0.31878518  0.73813567  0.54620011  1
  O  O20  1  0.12878949  0.60261722  0.22420521  1
  O  O21  1  0.77132782  0.13495849  0.65984626  1
  O  O22  1  0.96001181  0.93992404  0.75986523  1
  O  O23  1  0.58051642  0.37717623  0.37714291  1
  O  O24  1  0.22867218  0.86504151  0.34015374  1
  O  O25  1  0.89404777  0.59560375  0.63001561  1
  O  O26  1  0.42943312  0.87079475  0.53545925  1
  O  O27  1  0.72867218  0.63495849  0.84015374  1
  O  O28  1  0.37121051  0.10261722  0.27579479  1
  O  O29  1  0.61016236  0.21101122  0.03195879  1
  O  O30  1  0.08051642  0.12282377  0.87714291  1
  O  O31  1  0.27132782  0.36504151  0.15984626  1
  O  O32  1  0.10595223  0.40439625  0.36998439  1
  O  O33  1  0.63308834  0.33187973  0.21000572  1
  O  O34  1  0.29746389  0.95872300  0.79897828  1
  O  O35  1  0.36210153  0.28309511  0.90559822  1
  O  O36  1  0.88983764  0.71101122  0.46804121  1
  O  O37  1  0.91948358  0.87717623  0.12285709  1
  O  O38  1  0.17165728  0.12582569  0.40148276  1
  O  O39  1  0.67165728  0.37417431  0.90148276  1
  O  O40  1  0.62878949  0.89738278  0.72420521  1
  O  O41  1  0.86691166  0.83187973  0.28999428  1
  O  O42  1  0.38983764  0.78898878  0.96804121  1
  O  O43  1  0.24515781  0.12881135  0.03247800  1
  O  O44  1  0.36691166  0.66812027  0.78999428  1
  O  O45  1  0.79746389  0.54127700  0.29897828  1
  O  O46  1  0.11016236  0.28898878  0.53195879  1
  O  O47  1  0.41948358  0.62282377  0.62285709  1
  O  O48  1  0.57056688  0.12920525  0.46454075  1
  O  O49  1  0.60595223  0.09560375  0.86998439  1
  O  O50  1  0.07056688  0.37079475  0.96454075  1
  O  O51  1  0.20253611  0.45872300  0.70102172  1
  O  O52  1  0.25484219  0.62881135  0.46752200  1
  O  O53  1  0.75484219  0.87118865  0.96752200  1
  O  O54  1  0.39404777  0.90439625  0.13001561  1
  O  O55  1  0.86210153  0.21690489  0.40559822  1
  O  O56  1  0.74515781  0.37118865  0.53247800  1
  O  O57  1  0.92943312  0.62920525  0.03545925  1
  O  O58  1  0.82834272  0.87417431  0.59851724  1
  O  O59  1  0.70253611  0.04127700  0.20102172  1
  O  O60  1  0.03998819  0.06007596  0.24013477  1
  O  O61  1  0.13308834  0.16812027  0.71000572  1
  O  O62  1  0.13789847  0.78309511  0.59440178  1
  O  O63  1  0.46001181  0.56007596  0.25986523  1
  O  O64  1  0.63789847  0.71690489  0.09440178  1
  O  O65  1  0.53998819  0.43992404  0.74013477  1
  O  O66  1  0.87121051  0.39738278  0.77579479  1
  O  O67  1  0.32834272  0.62582569  0.09851724  1
