# generated using pymatgen
data_LiTi2O4
_symmetry_space_group_name_H-M   'P 1'
_cell_length_a   11.51497992
_cell_length_b   5.59245698
_cell_length_c   5.34637394
_cell_angle_alpha   121.45590580
_cell_angle_beta   110.95195581
_cell_angle_gamma   46.62585128
_symmetry_Int_Tables_number   1
_chemical_formula_structural   LiTi2O4
_chemical_formula_sum   'Li3 Ti6 O12'
_cell_volume   213.48172650
_cell_formula_units_Z   3
loop_
 _symmetry_equiv_pos_site_id
 _symmetry_equiv_pos_as_xyz
  1  'x, y, z'
loop_
 _atom_site_type_symbol
 _atom_site_label
 _atom_site_symmetry_multiplicity
 _atom_site_fract_x
 _atom_site_fract_y
 _atom_site_fract_z
 _atom_site_occupancy
  Li  Li0  1  0.08340445  0.43032351  0.35252218  1
  Li  Li1  1  0.41580432  0.42443364  0.35492220  1
  Li  Li2  1  0.74979089  0.42095466  0.34404823  1
  Ti  Ti3  1  0.24859224  0.13595515  0.77063901  1
  Ti  Ti4  1  0.08094860  0.86521382  0.21645806  1
  Ti  Ti5  1  0.58613442  0.12987365  0.77292000  1
  Ti  Ti6  1  0.41863979  0.85525232  0.21982585  1
  Ti  Ti7  1  0.91318434  0.14213691  0.77339978  1
  Ti  Ti8  1  0.75060269  0.85341645  0.20965961  1
  O  O9  1  0.08419832  0.09006785  0.68467196  1
  O  O10  1  0.08380351  0.64133027  0.78836101  1
  O  O11  1  0.25052173  0.35035146  0.20084685  1
  O  O12  1  0.41638912  0.09350349  0.68201245  1
  O  O13  1  0.25018584  0.90216527  0.30578725  1
  O  O14  1  0.41648061  0.64775617  0.79200891  1
  O  O15  1  0.58261569  0.35600026  0.20931575  1
  O  O16  1  0.75008237  0.09707101  0.69330201  1
  O  O17  1  0.58461934  0.90034633  0.30267824  1
  O  O18  1  0.74999946  0.63861859  0.77652978  1
  O  O19  1  0.91755872  0.35570282  0.21144741  1
  O  O20  1  0.91644355  0.90122637  0.30204345  1
