# generated using pymatgen
data_Cu6BiS6
_symmetry_space_group_name_H-M   'P 1'
_cell_length_a   3.99726818
_cell_length_b   3.79989034
_cell_length_c   23.08978333
_cell_angle_alpha   60.22170654
_cell_angle_beta   61.38886043
_cell_angle_gamma   60.01108049
_symmetry_Int_Tables_number   1
_chemical_formula_structural   Cu6BiS6
_chemical_formula_sum   'Cu6 Bi1 S6'
_cell_volume   250.93811147
_cell_formula_units_Z   1
loop_
 _symmetry_equiv_pos_site_id
 _symmetry_equiv_pos_as_xyz
  1  'x, y, z'
loop_
 _atom_site_type_symbol
 _atom_site_label
 _atom_site_symmetry_multiplicity
 _atom_site_fract_x
 _atom_site_fract_y
 _atom_site_fract_z
 _atom_site_occupancy
  Cu  Cu0  1  0.32811632  0.33770360  0.05267669  1
  Cu  Cu1  1  0.32485850  0.21809198  0.70732415  1
  Cu  Cu2  1  0.84483237  0.70816415  0.45823778  1
  Cu  Cu3  1  0.05601041  0.67062428  0.60030236  1
  Cu  Cu4  1  0.78674723  0.71079311  0.79831616  1
  Cu  Cu5  1  0.01860130  0.65362543  0.94209877  1
  Bi  Bi6  1  0.50260275  0.50246104  0.25023727  1
  S  S7  1  0.96830710  0.00896694  0.99931266  1
  S  S8  1  0.01936787  0.00227661  0.16201835  1
  S  S9  1  0.01243836  0.00914452  0.33610845  1
  S  S10  1  0.13445087  0.96764331  0.48840723  1
  S  S11  1  0.01767997  0.98921743  0.66746288  1
  S  S12  1  0.06888696  0.97138759  0.82918026  1
