# generated using pymatgen
data_As4Pd5Pb
_symmetry_space_group_name_H-M   'P 1'
_cell_length_a   19.72310231
_cell_length_b   6.81606960
_cell_length_c   6.88341220
_cell_angle_alpha   60.10400553
_cell_angle_beta   55.62289360
_cell_angle_gamma   29.59527137
_symmetry_Int_Tables_number   1
_chemical_formula_structural   As4Pd5Pb
_chemical_formula_sum   'As8 Pd10 Pb2'
_cell_volume   377.12521649
_cell_formula_units_Z   2
loop_
 _symmetry_equiv_pos_site_id
 _symmetry_equiv_pos_as_xyz
  1  'x, y, z'
loop_
 _atom_site_type_symbol
 _atom_site_label
 _atom_site_symmetry_multiplicity
 _atom_site_fract_x
 _atom_site_fract_y
 _atom_site_fract_z
 _atom_site_occupancy
  As  As0  1  0.06004368  0.31129508  0.72124057  1
  As  As1  1  0.14012331  0.68388764  0.28006298  1
  As  As2  1  0.24258825  0.35027744  0.78017472  1
  As  As3  1  0.45282670  0.35333852  0.73235973  1
  As  As4  1  0.56137691  0.66376407  0.21353779  1
  As  As5  1  0.64259669  0.33149809  0.77780790  1
  As  As6  1  0.74043421  0.65888211  0.28360307  1
  As  As7  1  0.95077913  0.65385852  0.23173987  1
  Pd  Pd8  1  -0.00142107  0.03444163  0.01542498  1
  Pd  Pd9  1  0.10268083  0.99019929  0.50157999  1
  Pd  Pd10  1  0.19565589  -0.01110162  -0.01257995  1
  Pd  Pd11  1  0.38206560  0.10360571  0.99622475  1
  Pd  Pd12  1  0.32176825  0.00959275  0.50061838  1
  Pd  Pd13  1  0.60006182  0.99843435  0.00850887  1
  Pd  Pd14  1  0.49906613  0.95309451  0.51408852  1
  Pd  Pd15  1  0.82186773  0.88054518  -0.00377033  1
  Pd  Pd16  1  0.69276052  0.05977346  0.48846270  1
  Pd  Pd17  1  0.88446427  0.98407246  0.50366329  1
  Pb  Pb18  1  0.34846003  0.69019313  0.25276736  1
  Pb  Pb19  1  0.84955711  0.31074767  0.75313181  1
