# generated using pymatgen
data_Ba2NF
_symmetry_space_group_name_H-M   'P 1'
_cell_length_a   8.11944210
_cell_length_b   10.78773845
_cell_length_c   7.09986111
_cell_angle_alpha   29.12238888
_cell_angle_beta   55.08936893
_cell_angle_gamma   41.14237396
_symmetry_Int_Tables_number   1
_chemical_formula_structural   Ba2NF
_chemical_formula_sum   'Ba4 N2 F2'
_cell_volume   191.88287643
_cell_formula_units_Z   2
loop_
 _symmetry_equiv_pos_site_id
 _symmetry_equiv_pos_as_xyz
  1  'x, y, z'
loop_
 _atom_site_type_symbol
 _atom_site_label
 _atom_site_symmetry_multiplicity
 _atom_site_fract_x
 _atom_site_fract_y
 _atom_site_fract_z
 _atom_site_occupancy
  Ba  Ba0  1  0.23313043  0.99726737  0.54256190  1
  Ba  Ba1  1  0.77056137  0.99926850  0.46177462  1
  Ba  Ba2  1  0.52115967  0.49699366  0.46412236  1
  Ba  Ba3  1  0.98081883  0.49876365  0.54081473  1
  N  N4  1  0.99863922  0.99940989  0.00163825  1
  N  N5  1  0.74219843  0.50464340  0.99472683  1
  F  F6  1  0.50121867  0.99809778  0.00206014  1
  F  F7  1  0.24986139  0.50272475  0.99611816  1
