# generated using pymatgen
data_Al(Ag3S2)3
_symmetry_space_group_name_H-M   'P 1'
_cell_length_a   8.10259746
_cell_length_b   7.88157395
_cell_length_c   7.67634574
_cell_angle_alpha   60.09138280
_cell_angle_beta   60.28664763
_cell_angle_gamma   62.06029093
_symmetry_Int_Tables_number   1
_chemical_formula_structural   Al(Ag3S2)3
_chemical_formula_sum   'Al1 Ag9 S6'
_cell_volume   352.74259352
_cell_formula_units_Z   1
loop_
 _symmetry_equiv_pos_site_id
 _symmetry_equiv_pos_as_xyz
  1  'x, y, z'
loop_
 _atom_site_type_symbol
 _atom_site_label
 _atom_site_symmetry_multiplicity
 _atom_site_fract_x
 _atom_site_fract_y
 _atom_site_fract_z
 _atom_site_occupancy
  Al  Al0  1  0.50163736  0.47179060  0.50361779  1
  Ag  Ag1  1  0.48693166  0.02272788  0.03378216  1
  Ag  Ag2  1  0.04130612  0.46118676  0.48563825  1
  Ag  Ag3  1  0.41051348  0.05915711  0.50481627  1
  Ag  Ag4  1  0.49764804  0.40940167  0.03982417  1
  Ag  Ag5  1  0.25282747  0.77573431  0.14243625  1
  Ag  Ag6  1  0.14981898  0.77878858  0.81772497  1
  Ag  Ag7  1  0.84086652  0.14970199  0.72156733  1
  Ag  Ag8  1  0.78487196  0.83385275  0.27247669  1
  Ag  Ag9  1  0.94917201  0.41210577  0.94394638  1
  S  S10  1  0.22476312  0.24221767  0.25529662  1
  S  S11  1  0.16598878  0.61848019  0.60331494  1
  S  S12  1  0.60199416  0.12946676  0.62457843  1
  S  S13  1  0.60857422  0.61133077  0.13934837  1
  S  S14  1  0.62829405  0.59239138  0.61479752  1
  S  S15  1  0.99709205  0.04356579  0.98613386  1
