# generated using pymatgen
data_CaH2(CO2)2
_symmetry_space_group_name_H-M   'P 1'
_cell_length_a   6.38270530
_cell_length_b   10.26759518
_cell_length_c   13.72474187
_cell_angle_alpha   90.00000000
_cell_angle_beta   90.00000000
_cell_angle_gamma   90.00000000
_symmetry_Int_Tables_number   1
_chemical_formula_structural   CaH2(CO2)2
_chemical_formula_sum   'Ca8 H16 C16 O32'
_cell_volume   899.45142747
_cell_formula_units_Z   8
loop_
 _symmetry_equiv_pos_site_id
 _symmetry_equiv_pos_as_xyz
  1  'x, y, z'
loop_
 _atom_site_type_symbol
 _atom_site_label
 _atom_site_symmetry_multiplicity
 _atom_site_fract_x
 _atom_site_fract_y
 _atom_site_fract_z
 _atom_site_occupancy
  H  H0  1  0.47444242  0.65561283  0.20852910  1
  H  H1  1  0.97444242  0.34438717  0.29147090  1
  H  H2  1  0.02555758  0.15561283  0.79147090  1
  H  H3  1  0.52555758  0.84438717  0.70852910  1
  H  H4  1  0.52555758  0.34438717  0.79147090  1
  H  H5  1  0.02555758  0.65561283  0.70852910  1
  H  H6  1  0.97444242  0.84438717  0.20852910  1
  H  H7  1  0.47444242  0.15561283  0.29147090  1
  H  H8  1  0.03729488  0.10280551  0.39372015  1
  H  H9  1  0.53729488  0.89719449  0.10627985  1
  H  H10  1  0.53729488  0.39719449  0.39372015  1
  H  H11  1  0.03729488  0.60280551  0.10627985  1
  H  H12  1  0.96270512  0.89719449  0.60627985  1
  H  H13  1  0.46270512  0.10280551  0.89372015  1
  H  H14  1  0.46270512  0.60280551  0.60627985  1
  H  H15  1  0.96270512  0.39719449  0.89372015  1
  C  C16  1  0.63089507  0.12505340  0.26504450  1
  C  C17  1  0.13089507  0.87494660  0.23495550  1
  C  C18  1  0.86910493  0.62505340  0.73495550  1
  C  C19  1  0.36910493  0.37494660  0.76504450  1
  C  C20  1  0.36910493  0.87494660  0.73495550  1
  C  C21  1  0.86910493  0.12505340  0.76504450  1
  C  C22  1  0.13089507  0.37494660  0.26504450  1
  C  C23  1  0.63089507  0.62505340  0.23495550  1
  C  C24  1  0.34287877  0.11330306  0.95172260  1
  C  C25  1  0.84287877  0.88669694  0.54827740  1
  C  C26  1  0.15712123  0.61330306  0.04827740  1
  C  C27  1  0.65712123  0.38669694  0.45172260  1
  C  C28  1  0.65712123  0.88669694  0.04827740  1
  C  C29  1  0.15712123  0.11330306  0.45172260  1
  C  C30  1  0.84287877  0.38669694  0.95172260  1
  C  C31  1  0.34287877  0.61330306  0.54827740  1
  O  O32  1  0.36592689  0.70146943  0.48426209  1
  O  O33  1  0.86592689  0.79853057  0.48426209  1
  O  O34  1  0.13407311  0.70146943  0.98426209  1
  O  O35  1  0.63407311  0.29853057  0.51573791  1
  O  O36  1  0.63407311  0.79853057  0.98426209  1
  O  O37  1  0.13407311  0.20146943  0.51573791  1
  O  O38  1  0.86592689  0.29853057  0.01573791  1
  O  O39  1  0.36592689  0.20146943  0.01573791  1
  O  O40  1  0.71610041  0.19765003  0.20030039  1
  O  O41  1  0.21610041  0.80234997  0.29969961  1
  O  O42  1  0.78389959  0.69765003  0.79969961  1
  O  O43  1  0.28389959  0.30234997  0.70030039  1
  O  O44  1  0.28389959  0.80234997  0.79969961  1
  O  O45  1  0.78389959  0.19765003  0.70030039  1
  O  O46  1  0.18741843  0.53632809  0.54770790  1
  O  O47  1  0.71610041  0.69765003  0.29969961  1
  O  O48  1  0.71106457  0.02303063  0.30004693  1
  O  O49  1  0.21106457  0.97696937  0.19995307  1
  O  O50  1  0.78893543  0.52303063  0.69995307  1
  O  O51  1  0.28893543  0.47696937  0.80004693  1
  O  O52  1  0.28893543  0.97696937  0.69995307  1
  O  O53  1  0.78893543  0.02303063  0.80004693  1
  O  O54  1  0.68741843  0.46367191  0.95229210  1
  O  O55  1  0.71106457  0.52303063  0.19995307  1
  O  O56  1  0.31258157  0.03632809  0.45229210  1
  O  O57  1  0.81258157  0.96367191  0.04770790  1
  O  O58  1  0.81258157  0.46367191  0.45229210  1
  O  O59  1  0.31258157  0.53632809  0.04770790  1
  O  O60  1  0.68741843  0.96367191  0.54770790  1
  O  O61  1  0.18741843  0.03632809  0.95229210  1
  O  O62  1  0.21610041  0.30234997  0.20030039  1
  O  O63  1  0.21106457  0.47696937  0.30004693  1
  Ca  Ca64  1  0.03014422  0.63469070  0.39300426  1
  Ca  Ca65  1  0.53014422  0.36530930  0.10699574  1
  Ca  Ca66  1  0.46985578  0.13469070  0.60699574  1
  Ca  Ca67  1  0.96985578  0.86530930  0.89300426  1
  Ca  Ca68  1  0.96985578  0.36530930  0.60699574  1
  Ca  Ca69  1  0.46985578  0.63469070  0.89300426  1
  Ca  Ca70  1  0.53014422  0.86530930  0.39300426  1
  Ca  Ca71  1  0.03014422  0.13469070  0.10699574  1
