# generated using pymatgen
data_Na8Al6Si6O25
_symmetry_space_group_name_H-M   'P 1'
_cell_length_a   9.01059510
_cell_length_b   9.01173490
_cell_length_c   9.01874235
_cell_angle_alpha   90.13934888
_cell_angle_beta   89.82773618
_cell_angle_gamma   89.90065880
_symmetry_Int_Tables_number   1
_chemical_formula_structural   Na8Al6Si6O25
_chemical_formula_sum   'Na8 Al6 Si6 O25'
_cell_volume   732.32516236
_cell_formula_units_Z   1
loop_
 _symmetry_equiv_pos_site_id
 _symmetry_equiv_pos_as_xyz
  1  'x, y, z'
loop_
 _atom_site_type_symbol
 _atom_site_label
 _atom_site_symmetry_multiplicity
 _atom_site_fract_x
 _atom_site_fract_y
 _atom_site_fract_z
 _atom_site_occupancy
  Na  Na0  1  0.14120833  0.15533623  0.15632678  1
  Na  Na1  1  0.14502888  0.85491332  0.85646468  1
  Na  Na2  1  0.29516110  0.29252948  0.70574303  1
  Na  Na3  1  0.29496166  0.70604316  0.29204451  1
  Na  Na4  1  0.70775542  0.70399570  0.70603356  1
  Na  Na5  1  0.74390453  0.25613480  0.25799690  1
  Na  Na6  1  0.84630884  0.15381445  0.86428101  1
  Na  Na7  1  0.84558413  0.85870472  0.15631696  1
  Al  Al8  1  0.99911249  0.25127254  0.50539353  1
  Al  Al9  1  0.24784852  0.50018383  0.00123099  1
  Al  Al10  1  0.49985599  0.00013282  0.75388578  1
  Al  Al11  1  0.49625836  0.00073116  0.25296179  1
  Al  Al12  1  0.74913347  0.50415270  0.00242855  1
  Al  Al13  1  0.00038874  0.75244603  0.50212621  1
  Si  Si14  1  0.00046948  0.50244333  0.25266081  1
  Si  Si15  1  0.24800302  0.00124856  0.50382446  1
  Si  Si16  1  0.49824939  0.75202512  0.00176845  1
  Si  Si17  1  0.49780385  0.25088431  0.00131659  1
  Si  Si18  1  0.74932205  0.99935383  0.50385366  1
  Si  Si19  1  0.99964340  0.50196810  0.75342321  1
  O  O20  1  0.06089655  0.64245278  0.35232788  1
  O  O21  1  0.05999342  0.36139284  0.65483724  1
  O  O22  1  0.14028250  0.44254559  0.15286475  1
  O  O23  1  0.13810279  0.56315899  0.85350640  1
  O  O24  1  0.15056059  0.14268602  0.44652464  1
  O  O25  1  0.14779651  0.86286479  0.56512036  1
  O  O26  1  0.35258542  0.05902881  0.64093415  1
  O  O27  1  0.34686548  0.94018477  0.36289763  1
  O  O28  1  0.35750087  0.34984642  0.94097679  1
  O  O29  1  0.36100225  0.64770057  0.05946294  1
  O  O30  1  0.44171135  0.15105785  0.14232439  1
  O  O31  1  0.43691322  0.85232194  0.86392701  1
  O  O32  1  0.55841884  0.15109980  0.86201676  1
  O  O33  1  0.55481831  0.84954568  0.14417468  1
  O  O34  1  0.63666440  0.35437481  0.05787577  1
  O  O35  1  0.63939452  0.65363849  0.94143225  1
  O  O36  1  0.64609823  0.05586272  0.36468013  1
  O  O37  1  0.64936412  0.93903928  0.64381128  1
  O  O38  1  0.84885961  0.13997213  0.55934359  1
  O  O39  1  0.84885343  0.85942213  0.44368693  1
  O  O40  1  0.86002986  0.55886593  0.15250614  1
  O  O41  1  0.85790096  0.44481636  0.85143970  1
  O  O42  1  0.94374724  0.36374308  0.35575433  1
  O  O43  1  0.94168602  0.63970567  0.64996245  1
  O  O44  1  0.98585186  0.01445834  0.01763035  1
