# generated using pymatgen
data_Li3Sb2(PO4)3
_symmetry_space_group_name_H-M   'P 1'
_cell_length_a   9.12859569
_cell_length_b   13.31203530
_cell_length_c   9.17182176
_cell_angle_alpha   90.00000000
_cell_angle_beta   90.00000000
_cell_angle_gamma   88.47016470
_symmetry_Int_Tables_number   1
_chemical_formula_structural   Li3Sb2(PO4)3
_chemical_formula_sum   'Li12 Sb8 P12 O48'
_cell_volume   1114.16422915
_cell_formula_units_Z   4
loop_
 _symmetry_equiv_pos_site_id
 _symmetry_equiv_pos_as_xyz
  1  'x, y, z'
loop_
 _atom_site_type_symbol
 _atom_site_label
 _atom_site_symmetry_multiplicity
 _atom_site_fract_x
 _atom_site_fract_y
 _atom_site_fract_z
 _atom_site_occupancy
  Li  Li0  1  0.28540765  0.31420969  0.26271972  1
  Li  Li1  1  0.71459235  0.68579031  0.73728028  1
  Li  Li2  1  0.69156888  0.31307824  0.75862830  1
  Li  Li3  1  0.30843112  0.68692176  0.24137170  1
  Li  Li4  1  0.80843112  0.18692176  0.25862830  1
  Li  Li5  1  0.93934588  0.28180830  0.90655208  1
  Li  Li6  1  0.56065412  0.21819170  0.40655208  1
  Li  Li7  1  0.19156888  0.81307824  0.74137170  1
  Li  Li8  1  0.43934588  0.78180830  0.59344792  1
  Li  Li9  1  0.78540765  0.81420969  0.23728028  1
  Li  Li10  1  0.21459235  0.18579031  0.76271972  1
  Li  Li11  1  0.06065412  0.71819170  0.09344792  1
  Sb  Sb12  1  0.75789329  0.90038281  0.55125798  1
  Sb  Sb13  1  0.74184712  0.08702582  0.94574387  1
  Sb  Sb14  1  0.25789329  0.40038281  0.94874202  1
  Sb  Sb15  1  0.25815288  0.91297418  0.05425613  1
  Sb  Sb16  1  0.75815288  0.41297418  0.44574387  1
  Sb  Sb17  1  0.74210671  0.59961719  0.05125798  1
  Sb  Sb18  1  0.24184712  0.58702582  0.55425613  1
  Sb  Sb19  1  0.24210671  0.09961719  0.44874202  1
  P  P20  1  0.60275923  0.34506092  0.09981035  1
  P  P21  1  0.60524508  0.66071656  0.41748154  1
  P  P22  1  0.10524508  0.16071656  0.08251846  1
  P  P23  1  0.89724077  0.15493908  0.59981035  1
  P  P24  1  0.39475492  0.33928344  0.58251846  1
  P  P25  1  0.07084882  0.50916246  0.24466649  1
  P  P26  1  0.92915118  0.49083754  0.75533351  1
  P  P27  1  0.57084882  0.00916246  0.25533351  1
  P  P28  1  0.89475492  0.83928344  0.91748154  1
  P  P29  1  0.42915118  0.99083754  0.74466649  1
  P  P30  1  0.10275923  0.84506092  0.40018965  1
  P  P31  1  0.39724077  0.65493908  0.90018965  1
  O  O32  1  0.99959615  0.41944229  0.86829406  1
  O  O33  1  0.53831416  0.04031463  0.84808378  1
  O  O34  1  0.17990479  0.57426775  0.33637057  1
  O  O35  1  0.66624140  0.92483650  0.33056698  1
  O  O36  1  0.65640953  0.55201943  0.46064198  1
  O  O37  1  0.14913040  0.23184493  0.95510546  1
  O  O38  1  0.14741688  0.95763879  0.38731179  1
  O  O39  1  0.49959615  0.91944229  0.63170594  1
  O  O40  1  0.42968234  0.34254722  0.09213792  1
  O  O41  1  0.67990479  0.07426775  0.16362943  1
  O  O42  1  0.14710024  0.79024399  0.25767207  1
  O  O43  1  0.83375860  0.57516350  0.83056698  1
  O  O44  1  0.17480467  0.79507843  0.53445998  1
  O  O45  1  0.93502338  0.16619267  0.09004335  1
  O  O46  1  0.46168584  0.95968537  0.15191622  1
  O  O47  1  0.85258312  0.04236121  0.61268821  1
  O  O48  1  0.00040385  0.58055771  0.13170594  1
  O  O49  1  0.85086960  0.76815507  0.04489454  1
  O  O50  1  0.82519533  0.20492157  0.46554002  1
  O  O51  1  0.85289976  0.20975601  0.74232793  1
  O  O52  1  0.32009521  0.92573225  0.83637057  1
  O  O53  1  0.56497662  0.33380733  0.59004335  1
  O  O54  1  0.64741688  0.45763879  0.11268821  1
  O  O55  1  0.43502338  0.66619267  0.40995665  1
  O  O56  1  0.64913040  0.73184493  0.54489454  1
  O  O57  1  0.64710024  0.29024399  0.24232793  1
  O  O58  1  0.35258312  0.54236121  0.88731179  1
  O  O59  1  0.17370960  0.19349671  0.22736903  1
  O  O60  1  0.32629040  0.30650329  0.72736903  1
  O  O61  1  0.92968234  0.84254722  0.40786208  1
  O  O62  1  0.82629040  0.80650329  0.77263097  1
  O  O63  1  0.06497662  0.83380733  0.90995665  1
  O  O64  1  0.35289976  0.70975601  0.75767207  1
  O  O65  1  0.34359047  0.44798057  0.53935802  1
  O  O66  1  0.84359047  0.94798057  0.96064198  1
  O  O67  1  0.67370960  0.69349671  0.27263097  1
  O  O68  1  0.33375860  0.07516350  0.66943302  1
  O  O69  1  0.16624140  0.42483650  0.16943302  1
  O  O70  1  0.96168584  0.45968537  0.34808478  1
  O  O71  1  0.57031766  0.65745278  0.90786208  1
  O  O72  1  0.67480467  0.29507843  0.96554002  1
  O  O73  1  0.07031766  0.15745278  0.59213792  1
  O  O74  1  0.82009521  0.42573225  0.66362943  1
  O  O75  1  0.35086960  0.26815507  0.45510546  1
  O  O76  1  0.15640953  0.05201943  0.03935802  1
  O  O77  1  0.50040385  0.08055771  0.36829406  1
  O  O78  1  0.03831416  0.54031463  0.65191622  1
  O  O79  1  0.32519533  0.70492157  0.03445998  1
