# generated using pymatgen
data_Sb(PO3)4
_symmetry_space_group_name_H-M   'P 1'
_cell_length_a   10.47106869
_cell_length_b   8.78360888
_cell_length_c   10.35426156
_cell_angle_alpha   90.00000000
_cell_angle_beta   105.34018657
_cell_angle_gamma   90.00000000
_symmetry_Int_Tables_number   1
_chemical_formula_structural   Sb(PO3)4
_chemical_formula_sum   'Sb4 P16 O48'
_cell_volume   918.39131538
_cell_formula_units_Z   4
loop_
 _symmetry_equiv_pos_site_id
 _symmetry_equiv_pos_as_xyz
  1  'x, y, z'
loop_
 _atom_site_type_symbol
 _atom_site_label
 _atom_site_symmetry_multiplicity
 _atom_site_fract_x
 _atom_site_fract_y
 _atom_site_fract_z
 _atom_site_occupancy
  Sb  Sb0  1  0.01292540  0.72730873  0.18540912  1
  Sb  Sb1  1  0.48707460  0.22730873  0.31459088  1
  Sb  Sb2  1  0.51292540  0.77269127  0.68540912  1
  Sb  Sb3  1  0.98707460  0.27269127  0.81459088  1
  P  P4  1  0.76676090  0.50314538  0.25474635  1
  P  P5  1  0.68881058  0.61372502  0.98475103  1
  P  P6  1  0.81118942  0.11372502  0.51524897  1
  P  P7  1  0.23323910  0.49685462  0.74525365  1
  P  P8  1  0.31118942  0.38627498  0.01524897  1
  P  P9  1  0.84437810  0.90101794  0.74079180  1
  P  P10  1  0.26676090  0.99685462  0.75474635  1
  P  P11  1  0.53479399  0.84327962  0.35398261  1
  P  P12  1  0.18881058  0.88627498  0.48475103  1
  P  P13  1  0.15562190  0.09898206  0.25920820  1
  P  P14  1  0.34437810  0.59898206  0.24079180  1
  P  P15  1  0.46520601  0.15672038  0.64601739  1
  P  P16  1  0.65562190  0.40101794  0.75920820  1
  P  P17  1  0.03479399  0.65672038  0.85398261  1
  P  P18  1  0.96520601  0.34327962  0.14601739  1
  P  P19  1  0.73323910  0.00314538  0.24525365  1
  O  O20  1  0.16986579  0.33172860  0.98598761  1
  O  O21  1  0.42472985  0.28973732  0.09241442  1
  O  O22  1  0.92472985  0.21026268  0.59241442  1
  O  O23  1  0.07177886  0.72335958  0.99293152  1
  O  O24  1  0.03998685  0.22149904  0.25379674  1
  O  O25  1  0.42822114  0.22335958  0.50706848  1
  O  O26  1  0.07527015  0.78973732  0.40758558  1
  O  O27  1  0.87254791  0.62418554  0.30190038  1
  O  O28  1  0.33296825  0.13767419  0.69247314  1
  O  O29  1  0.92822114  0.27664042  0.00706848  1
  O  O30  1  0.53998685  0.27850096  0.75379674  1
  O  O31  1  0.15726157  0.93612098  0.62151758  1
  O  O32  1  0.66986579  0.16827140  0.48598761  1
  O  O33  1  0.37254791  0.87581446  0.80190038  1
  O  O34  1  0.18155257  0.04988743  0.41186719  1
  O  O35  1  0.22676814  0.68731623  0.25966456  1
  O  O36  1  0.54648317  0.01114439  0.67271555  1
  O  O37  1  0.30750476  0.55730885  0.65262705  1
  O  O38  1  0.69249524  0.44269115  0.34737295  1
  O  O39  1  0.45351683  0.98885561  0.32728445  1
  O  O40  1  0.89380345  0.03209789  0.83482983  1
  O  O41  1  0.68155257  0.45011257  0.91186719  1
  O  O42  1  0.10619655  0.96790211  0.16517017  1
  O  O43  1  0.57177886  0.77664042  0.49293152  1
  O  O44  1  0.96001315  0.77850096  0.74620326  1
  O  O45  1  0.84273843  0.06387902  0.37848242  1
  O  O46  1  0.31844743  0.54988743  0.08813281  1
  O  O47  1  0.81844743  0.95011257  0.58813281  1
  O  O48  1  0.65726157  0.56387902  0.12151758  1
  O  O49  1  0.80750476  0.94269115  0.15262705  1
  O  O50  1  0.16703175  0.63767419  0.80752686  1
  O  O51  1  0.19249524  0.05730885  0.84737295  1
  O  O52  1  0.60619655  0.53209789  0.66517017  1
  O  O53  1  0.83296825  0.36232581  0.19247314  1
  O  O54  1  0.46001315  0.72149904  0.24620326  1
  O  O55  1  0.57527015  0.71026268  0.90758558  1
  O  O56  1  0.12745209  0.37581446  0.69809962  1
  O  O57  1  0.83013421  0.66827140  0.01401239  1
  O  O58  1  0.66703175  0.86232581  0.30752686  1
  O  O59  1  0.34273843  0.43612098  0.87848242  1
  O  O60  1  0.04648317  0.48885561  0.17271555  1
  O  O61  1  0.33013421  0.83172860  0.51401239  1
  O  O62  1  0.39380345  0.46790211  0.33482983  1
  O  O63  1  0.95351683  0.51114439  0.82728445  1
  O  O64  1  0.27323186  0.18731623  0.24033544  1
  O  O65  1  0.62745209  0.12418554  0.19809962  1
  O  O66  1  0.72676814  0.81268377  0.75966456  1
  O  O67  1  0.77323186  0.31268377  0.74033544  1
