# generated using pymatgen
data_Mg3(Mo3Se4)4
_symmetry_space_group_name_H-M   'P 1'
_cell_length_a   13.86824100
_cell_length_b   6.99164718
_cell_length_c   6.94977663
_cell_angle_alpha   93.11872837
_cell_angle_beta   95.24694608
_cell_angle_gamma   94.30119074
_symmetry_Int_Tables_number   1
_chemical_formula_structural   Mg3(Mo3Se4)4
_chemical_formula_sum   'Mg3 Mo12 Se16'
_cell_volume   667.87492197
_cell_formula_units_Z   1
loop_
 _symmetry_equiv_pos_site_id
 _symmetry_equiv_pos_as_xyz
  1  'x, y, z'
loop_
 _atom_site_type_symbol
 _atom_site_label
 _atom_site_symmetry_multiplicity
 _atom_site_fract_x
 _atom_site_fract_y
 _atom_site_fract_z
 _atom_site_occupancy
  Mg  Mg0  1  0.31989752  0.95635955  0.04768581  1
  Mg  Mg1  1  0.67854034  0.04459017  0.95143593  1
  Mg  Mg2  1  0.98954662  0.02631142  0.59417696  1
  Mo  Mo3  1  0.12053437  0.54298976  0.41663149  1
  Mo  Mo4  1  0.23098388  0.58002399  0.76221291  1
  Mo  Mo5  1  0.20834976  0.24306928  0.54827688  1
  Mo  Mo6  1  0.29415692  0.75500094  0.45239851  1
  Mo  Mo7  1  0.27129930  0.41215765  0.24313627  1
  Mo  Mo8  1  0.38214302  0.45421539  0.58785716  1
  Mo  Mo9  1  0.61800678  0.54588994  0.41212967  1
  Mo  Mo10  1  0.72732490  0.58506629  0.75391348  1
  Mo  Mo11  1  0.70614779  0.24184216  0.54511734  1
  Mo  Mo12  1  0.79206050  0.76045928  0.45245515  1
  Mo  Mo13  1  0.77062370  0.42300103  0.24180051  1
  Mo  Mo14  1  0.87934840  0.45638436  0.58289649  1
  Se  Se15  1  0.06413097  0.37828610  0.72572841  1
  Se  Se16  1  0.14900003  0.86949264  0.62963765  1
  Se  Se17  1  0.10381591  0.21929881  0.21870951  1
  Se  Se18  1  0.17994106  0.71113269  0.11979761  1
  Se  Se19  1  0.31742083  0.28209946  0.87873988  1
  Se  Se20  1  0.40216763  0.78295556  0.77688899  1
  Se  Se21  1  0.36254944  0.12673945  0.39079789  1
  Se  Se22  1  0.43301388  0.62461817  0.27487809  1
  Se  Se23  1  0.56648300  0.37064813  0.72149606  1
  Se  Se24  1  0.63704763  0.87382230  0.60768427  1
  Se  Se25  1  0.59753933  0.21724160  0.22361422  1
  Se  Se26  1  0.68273008  0.71914644  0.12197753  1
  Se  Se27  1  0.81922753  0.28758846  0.87967048  1
  Se  Se28  1  0.89709778  0.77504496  0.79271127  1
  Se  Se29  1  0.85221722  0.12731806  0.36223904  1
  Se  Se30  1  0.93565387  0.63220595  0.28530456  1
