# generated using pymatgen
data_Ca16Zr9Ta7N7O41
_symmetry_space_group_name_H-M   'P 1'
_cell_length_a   5.61687706
_cell_length_b   5.78648372
_cell_length_c   32.18943807
_cell_angle_alpha   89.96719124
_cell_angle_beta   89.87008840
_cell_angle_gamma   89.91321563
_symmetry_Int_Tables_number   1
_chemical_formula_structural   Ca16Zr9Ta7N7O41
_chemical_formula_sum   'Ca16 Zr9 Ta7 N7 O41'
_cell_volume   1046.21601695
_cell_formula_units_Z   1
loop_
 _symmetry_equiv_pos_site_id
 _symmetry_equiv_pos_as_xyz
  1  'x, y, z'
loop_
 _atom_site_type_symbol
 _atom_site_label
 _atom_site_symmetry_multiplicity
 _atom_site_fract_x
 _atom_site_fract_y
 _atom_site_fract_z
 _atom_site_occupancy
  Ca  Ca0  1  0.01726604  0.04391729  0.06177886  1
  Ca  Ca1  1  0.00985876  0.04229449  0.31285811  1
  Ca  Ca2  1  0.01726851  0.04377130  0.56475547  1
  Ca  Ca3  1  0.01562766  0.04075117  0.81461114  1
  Ca  Ca4  1  0.48045223  0.54810622  0.06227769  1
  Ca  Ca5  1  0.48659465  0.55301504  0.31295104  1
  Ca  Ca6  1  0.48178803  0.54949156  0.81412393  1
  Ca  Ca7  1  0.48746690  0.54210348  0.56577740  1
  Ca  Ca8  1  0.50363158  0.46649635  0.43871806  1
  Ca  Ca9  1  0.50812526  0.45378536  0.18685247  1
  Ca  Ca10  1  0.50500204  0.44995426  0.68532375  1
  Ca  Ca11  1  0.50639414  0.45496335  0.93551515  1
  Ca  Ca12  1  0.98706302  0.94283334  0.18714577  1
  Ca  Ca13  1  0.97699519  0.94218388  0.43819668  1
  Ca  Ca14  1  0.98554922  0.94347084  0.68636265  1
  Ca  Ca15  1  0.99200301  0.94409034  0.93485564  1
  Zr  Zr16  1  0.50176258  0.00247224  0.12534130  1
  Zr  Zr17  1  0.99419118  0.49852249  0.12291422  1
  Zr  Zr18  1  0.99340973  0.49895071  0.00091326  1
  Zr  Zr19  1  0.99668802  0.49868651  0.25111810  1
  Zr  Zr20  1  0.99473228  0.49703482  0.37324795  1
  Zr  Zr21  1  0.99561162  0.50017712  0.62448503  1
  Zr  Zr22  1  0.99414144  0.49779120  0.87325832  1
  Zr  Zr23  1  0.99326447  0.49678638  0.75153916  1
  Zr  Zr24  1  0.99474452  0.49793866  0.50283982  1
  Ta  Ta25  1  0.49011338  0.00380171  0.37973959  1
  Ta  Ta26  1  0.51332252  0.98712396  0.62504894  1
  Ta  Ta27  1  0.51639798  0.01032368  0.87495070  1
  Ta  Ta28  1  0.50332165  -0.00006812  0.99885024  1
  Ta  Ta29  1  0.50142928  0.00273189  0.25073752  1
  Ta  Ta30  1  0.49830831  0.00062613  0.74905864  1
  Ta  Ta31  1  0.49532292  0.00420536  0.49844889  1
  N  N32  1  0.40487188  0.02561929  0.43768671  1
  N  N33  1  0.69497609  0.71634149  0.63820191  1
  N  N34  1  0.78600222  0.19534983  0.88828470  1
  N  N35  1  0.89342389  0.45911302  0.06174848  1
  N  N36  1  0.89853898  0.46413050  0.31231901  1
  N  N37  1  0.89749642  0.46868157  0.81166678  1
  N  N38  1  0.90047793  0.45866872  0.56227082  1
  O  O39  1  0.10970612  0.54404650  0.18823875  1
  O  O40  1  0.10289393  0.54153841  0.43715870  1
  O  O41  1  0.10841606  0.54324660  0.68783934  1
  O  O42  1  0.10643883  0.54161022  0.93774612  1
  O  O43  1  0.21936079  0.80052687  0.01241389  1
  O  O44  1  0.21724185  0.80445683  0.26320546  1
  O  O45  1  0.21870194  0.80490094  0.51323974  1
  O  O46  1  0.20201348  0.80482060  0.11115207  1
  O  O47  1  0.21911121  0.80162947  0.36149291  1
  O  O48  1  0.21775705  0.80427150  0.76232727  1
  O  O49  1  0.21424316  0.80770421  0.61241531  1
  O  O50  1  0.21210279  0.80079782  0.86235872  1
  O  O51  1  0.30621342  0.27915032  0.01195801  1
  O  O52  1  0.30961036  0.28569485  0.26324113  1
  O  O53  1  0.31187096  0.28892252  0.51215437  1
  O  O54  1  0.30858213  0.28282868  0.76271110  1
  O  O55  1  0.30931296  0.28446520  0.36188884  1
  O  O56  1  0.30942954  0.30097453  0.11200486  1
  O  O57  1  0.30631661  0.28820124  0.61407672  1
  O  O58  1  0.30255889  0.28120709  0.86242481  1
  O  O59  1  0.39875419  0.03623552  0.19020559  1
  O  O60  1  0.40258421  0.03076631  0.68884789  1
  O  O61  1  0.40349822  0.02929799  0.93796087  1
  O  O62  1  0.60085603  0.96539075  0.05927231  1
  O  O63  1  0.59259111  0.96978735  0.81167353  1
  O  O64  1  0.59716347  0.96930340  0.31044445  1
  O  O65  1  0.59391080  0.97680259  0.56267287  1
  O  O66  1  0.69805896  0.70625807  0.14036703  1
  O  O67  1  0.69479146  0.71789869  0.23639971  1
  O  O68  1  0.69471251  0.72007999  0.73619888  1
  O  O69  1  0.70082465  0.72268886  0.48663191  1
  O  O70  1  0.69582680  0.71663568  0.38751371  1
  O  O71  1  0.69416916  0.71610923  0.98490328  1
  O  O72  1  0.68925220  0.71305450  0.88820250  1
  O  O73  1  0.78793889  0.19463140  0.23631574  1
  O  O74  1  0.78424660  0.19520954  0.73520786  1
  O  O75  1  0.78535359  0.19935148  0.48560584  1
  O  O76  1  0.78551466  0.19348162  0.98502752  1
  O  O77  1  0.80072016  0.19905806  0.14169233  1
  O  O78  1  0.78883304  0.19235035  0.38807084  1
  O  O79  1  0.78488166  0.19837683  0.63996329  1
