# generated using pymatgen
data_K5Sb4
_symmetry_space_group_name_H-M   'P 1'
_cell_length_a   6.55516446
_cell_length_b   10.71935056
_cell_length_c   6.88699897
_cell_angle_alpha   92.57039744
_cell_angle_beta   96.19120702
_cell_angle_gamma   52.25688035
_symmetry_Int_Tables_number   1
_chemical_formula_structural   K5Sb4
_chemical_formula_sum   'K5 Sb4'
_cell_volume   380.30369436
_cell_formula_units_Z   1
loop_
 _symmetry_equiv_pos_site_id
 _symmetry_equiv_pos_as_xyz
  1  'x, y, z'
loop_
 _atom_site_type_symbol
 _atom_site_label
 _atom_site_symmetry_multiplicity
 _atom_site_fract_x
 _atom_site_fract_y
 _atom_site_fract_z
 _atom_site_occupancy
  K  K0  1  0.71266230  0.02274213  0.29230217  1
  K  K1  1  0.06828231  0.64078850  -0.02222929  1
  K  K2  1  0.50255167  0.49694992  0.49902378  1
  K  K3  1  0.93836577  0.34889093  0.02075023  1
  K  K4  1  0.29220970  0.97015837  0.70358425  1
  Sb  Sb5  1  0.85060117  0.66615130  0.47557381  1
  Sb  Sb6  1  0.56566131  0.21390181  0.82119422  1
  Sb  Sb7  1  0.43806256  0.77981801  0.17622891  1
  Sb  Sb8  1  0.15360320  0.32859903  0.52157192  1
