# generated using pymatgen
data_KRb2Mo(OF)3
_symmetry_space_group_name_H-M   'P 1'
_cell_length_a   6.41270896
_cell_length_b   12.95960888
_cell_length_c   11.25619395
_cell_angle_alpha   29.61803439
_cell_angle_beta   55.17828680
_cell_angle_gamma   60.27663147
_symmetry_Int_Tables_number   1
_chemical_formula_structural   KRb2Mo(OF)3
_chemical_formula_sum   'K2 Rb4 Mo2 O6 F6'
_cell_volume   379.53212532
_cell_formula_units_Z   2
loop_
 _symmetry_equiv_pos_site_id
 _symmetry_equiv_pos_as_xyz
  1  'x, y, z'
loop_
 _atom_site_type_symbol
 _atom_site_label
 _atom_site_symmetry_multiplicity
 _atom_site_fract_x
 _atom_site_fract_y
 _atom_site_fract_z
 _atom_site_occupancy
  K  K0  1  0.49440349  0.49971736  0.50772098  1
  K  K1  1  0.49121717  0.00102273  0.50745773  1
  Rb  Rb2  1  0.24241631  0.49766964  0.26358877  1
  Rb  Rb3  1  0.74256279  0.00238789  0.75718999  1
  Rb  Rb4  1  0.23816934  0.00039800  0.26033283  1
  Rb  Rb5  1  0.73726943  0.50217318  0.75769725  1
  Mo  Mo6  1  0.98235735  0.99928357  0.02098406  1
  Mo  Mo7  1  0.98058626  0.50145804  0.01885139  1
  O  O8  1  0.21658493  0.29899024  0.17920861  1
  O  O9  1  0.79131904  0.99757016  0.21549837  1
  O  O10  1  0.22212725  0.19805012  0.78129478  1
  O  O11  1  0.79457571  0.50362798  0.20959692  1
  O  O12  1  0.82601734  0.79763588  0.18329131  1
  O  O13  1  0.81590880  0.69683711  0.78557474  1
  F  F14  1  0.21800770  0.00399244  0.77509889  1
  F  F15  1  0.22572882  0.77823991  0.22296116  1
  F  F16  1  0.76731825  0.27871177  0.23045300  1
  F  F17  1  0.21938893  0.50371465  0.77541872  1
  F  F18  1  0.22290534  0.72409154  0.77568970  1
  F  F19  1  0.77263275  0.22086880  0.78524981  1
