# generated using pymatgen
data_Al2Cd(Si5O12)2
_symmetry_space_group_name_H-M   'P 1'
_cell_length_a   12.56744877
_cell_length_b   12.46796268
_cell_length_c   12.48803486
_cell_angle_alpha   109.58499983
_cell_angle_beta   110.05851473
_cell_angle_gamma   108.92560240
_symmetry_Int_Tables_number   1
_chemical_formula_structural   Al2Cd(Si5O12)2
_chemical_formula_sum   'Al4 Cd2 Si20 O48'
_cell_volume   1503.30374432
_cell_formula_units_Z   2
loop_
 _symmetry_equiv_pos_site_id
 _symmetry_equiv_pos_as_xyz
  1  'x, y, z'
loop_
 _atom_site_type_symbol
 _atom_site_label
 _atom_site_symmetry_multiplicity
 _atom_site_fract_x
 _atom_site_fract_y
 _atom_site_fract_z
 _atom_site_occupancy
  Al  Al0  1  0.40656579  0.55318981  0.70412969  1
  Al  Al1  1  0.70275483  0.85265979  0.29438979  1
  Al  Al2  1  0.85048881  0.30357583  0.70232709  1
  Al  Al3  1  0.85093452  0.43447346  0.14319329  1
  Cd  Cd4  1  0.66001387  0.00812485  0.56330002  1
  Cd  Cd5  1  0.57822643  0.64051552  -0.00016738  1
  Si  Si6  1  0.14170673  0.84495993  0.44906053  1
  Si  Si7  1  0.15383966  0.45451350  0.85417302  1
  Si  Si8  1  0.30536361  0.70046056  0.85535069  1
  Si  Si9  1  0.29919030  0.84778717  0.69844690  1
  Si  Si10  1  0.15501447  0.60728898  0.30294380  1
  Si  Si11  1  0.15375842  0.30667125  0.60968717  1
  Si  Si12  1  0.40945428  0.71252810  0.55782837  1
  Si  Si13  1  0.30010790  0.61255487  0.15386654  1
  Si  Si14  1  0.28855444  0.14822983  0.60517851  1
  Si  Si15  1  0.45048361  0.85095550  0.14668994  1
  Si  Si16  1  0.44420199  0.14321297  0.85005145  1
  Si  Si17  1  0.54751097  0.39199216  0.70496623  1
  Si  Si18  1  0.54990935  0.70672148  0.40227423  1
  Si  Si19  1  0.69036386  0.27153570  0.83960541  1
  Si  Si20  1  0.69045741  0.39995804  0.55146113  1
  Si  Si21  1  0.69124463  0.54560211  0.39322275  1
  Si  Si22  1  0.60825178  0.15590348  0.30416028  1
  Si  Si23  1  0.60172183  0.29709602  0.15178020  1
  Si  Si24  1  0.83905414  0.67976920  0.28094358  1
  Si  Si25  1  0.85380002  0.15353579  0.44780318  1
  O  O26  1  0.00916845  0.38095645  0.82670413  1
  O  O27  1  0.17115508  0.82194886  0.57642329  1
  O  O28  1  0.17908118  0.57927736  0.82770145  1
  O  O29  1  0.01345977  0.50409491  0.26074205  1
  O  O30  1  0.00360353  0.26545133  0.51415574  1
  O  O31  1  0.25703661  0.74033821  0.74368149  1
  O  O32  1  0.18718455  0.35710965  0.76335902  1
  O  O33  1  0.17883407  0.75803465  0.35396250  1
  O  O34  1  0.27005661  0.61193254  0.42167098  1
  O  O35  1  0.25262797  0.41792233  0.60061274  1
  O  O36  1  0.41720371  0.65725101  0.85276629  1
  O  O37  1  0.40499175  0.83664460  0.65262521  1
  O  O38  1  0.16668046  0.17431780  0.56465099  1
  O  O39  1  0.17903811  0.57027837  0.17760458  1
  O  O40  1  0.45661259  0.64017819  0.63190627  1
  O  O41  1  0.34282551  0.17019386  0.75450734  1
  O  O42  1  0.35277433  0.76305663  0.18006200  1
  O  O43  1  0.23783732  0.99801373  0.49844082  1
  O  O44  1  0.26289339  0.51212898  0.00748427  1
  O  O45  1  0.52607095  0.51274615  0.78746385  1
  O  O46  1  0.52079227  0.78115641  0.51888577  1
  O  O47  1  0.37023279  0.99490880  0.82280606  1
  O  O48  1  0.37169140  0.82814343  0.00031270  1
  O  O49  1  0.42103967  0.60982388  0.25740769  1
  O  O50  1  0.40874060  0.25350602  0.60620707  1
  O  O51  1  0.65039700  0.83834034  0.40979300  1
  O  O52  1  0.65125497  0.37812644  0.81289415  1
  O  O53  1  0.56095011  0.80496167  0.15072914  1
  O  O54  1  0.56044560  0.15450231  0.81487784  1
  O  O55  1  0.61896453  0.62585488  0.43786870  1
  O  O56  1  0.60004597  0.43047638  0.61362097  1
  O  O57  1  0.59724548  0.24869999  0.42339061  1
  O  O58  1  0.58962146  0.41668925  0.24662732  1
  O  O59  1  0.73986782  0.50535470  0.50452689  1
  O  O60  1  0.73326222  0.72732582  0.21647975  1
  O  O61  1  0.72466918  0.20334272  0.72451612  1
  O  O62  1  0.51929035  0.00234031  0.26197563  1
  O  O63  1  0.49636829  0.24863773  0.00011482  1
  O  O64  1  0.55212494  0.17458920  0.17831859  1
  O  O65  1  0.81409861  0.41020720  0.65931834  1
  O  O66  1  0.81005083  0.64474009  0.38800896  1
  O  O67  1  0.81687713  0.16115641  0.56524802  1
  O  O68  1  0.81375442  0.56243747  0.15476462  1
  O  O69  1  0.75852400  0.18694581  0.35347972  1
  O  O70  1  0.74600449  0.34000552  0.17803548  1
  O  O71  1  0.98870834  0.80532033  0.37148167  1
  O  O72  1  0.82806778  0.00799935  0.36859848  1
  O  O73  1  0.81480016  0.34371600  0.98152047  1
