# generated using pymatgen
data_Nb2CoO6
_symmetry_space_group_name_H-M   'P 1'
_cell_length_a   9.31811972
_cell_length_b   5.72197512
_cell_length_c   5.72197517
_cell_angle_alpha   73.50844459
_cell_angle_beta   57.23450813
_cell_angle_gamma   57.23450778
_symmetry_Int_Tables_number   1
_chemical_formula_structural   Nb2CoO6
_chemical_formula_sum   'Nb4 Co2 O12'
_cell_volume   215.70788168
_cell_formula_units_Z   2
loop_
 _symmetry_equiv_pos_site_id
 _symmetry_equiv_pos_as_xyz
  1  'x, y, z'
loop_
 _atom_site_type_symbol
 _atom_site_label
 _atom_site_symmetry_multiplicity
 _atom_site_fract_x
 _atom_site_fract_y
 _atom_site_fract_z
 _atom_site_occupancy
  Nb  Nb0  1  0.01855912  0.98079342  0.98079341  1
  Nb  Nb1  1  0.33333300  0.00000000  0.00000000  1
  Nb  Nb2  1  0.64810788  0.01920658  0.01920659  1
  Nb  Nb3  1  0.83333300  0.50000000  0.50000000  1
  Co  Co4  1  0.16415121  0.50348231  0.50348231  1
  Co  Co5  1  0.50251579  0.49651769  0.49651769  1
  O  O6  1  0.46995410  0.29551632  0.29551632  1
  O  O7  1  0.17018193  0.80571052  0.18769549  1
  O  O8  1  0.17018193  0.18769549  0.80571052  1
  O  O9  1  0.81147831  0.29997188  0.29997188  1
  O  O10  1  0.85518769  0.70002812  0.70002812  1
  O  O11  1  0.49648507  0.81230451  0.19428948  1
  O  O12  1  0.49648507  0.19428948  0.81230451  1
  O  O13  1  0.12576909  0.29884740  0.29884740  1
  O  O14  1  0.19671290  0.70448368  0.70448368  1
  O  O15  1  0.83333300  0.19450492  0.80549509  1
  O  O16  1  0.83333300  0.80549508  0.19450491  1
  O  O17  1  0.54089791  0.70115260  0.70115260  1
