# generated using pymatgen
data_Ba3La7Mn2(Co4O15)2
_symmetry_space_group_name_H-M   'P 1'
_cell_length_a   3.91361669
_cell_length_b   19.56527330
_cell_length_c   8.74271336
_cell_angle_alpha   63.09164600
_cell_angle_beta   90.00000000
_cell_angle_gamma   90.00000000
_symmetry_Int_Tables_number   1
_chemical_formula_structural   Ba3La7Mn2(Co4O15)2
_chemical_formula_sum   'Ba3 La7 Mn2 Co8 O30'
_cell_volume   596.95910397
_cell_formula_units_Z   1
loop_
 _symmetry_equiv_pos_site_id
 _symmetry_equiv_pos_as_xyz
  1  'x, y, z'
loop_
 _atom_site_type_symbol
 _atom_site_label
 _atom_site_symmetry_multiplicity
 _atom_site_fract_x
 _atom_site_fract_y
 _atom_site_fract_z
 _atom_site_occupancy
  Ba  Ba0  1  0.00000000  0.00000000  0.00000000  1
  Ba  Ba1  1  0.00000000  0.89605351  0.50081273  1
  Ba  Ba2  1  0.00000000  0.10394649  0.49918727  1
  La  La3  1  0.00000000  0.69629116  0.49952809  1
  La  La4  1  0.00000000  0.20313792  -0.00188279  1
  La  La5  1  0.00000000  0.39934168  0.00211899  1
  La  La6  1  0.00000000  0.30370884  0.50047191  1
  La  La7  1  0.00000000  0.60065832  0.99788101  1
  La  La8  1  0.00000000  0.50000000  0.50000000  1
  La  La9  1  0.00000000  0.79686208  0.00188279  1
  Mn  Mn10  1  0.50000000  0.05141347  0.24946924  1
  Mn  Mn11  1  0.50000000  0.94858653  0.75053076  1
  Co  Co12  1  0.50000000  0.15392700  0.74756479  1
  Co  Co13  1  0.50000000  0.25354799  0.24795266  1
  Co  Co14  1  0.50000000  0.45140779  0.24815569  1
  Co  Co15  1  0.50000000  0.35327224  0.74817828  1
  Co  Co16  1  0.50000000  0.64672776  0.25182172  1
  Co  Co17  1  0.50000000  0.54859221  0.75184431  1
  Co  Co18  1  0.50000000  0.74645201  0.75204734  1
  Co  Co19  1  0.50000000  0.84607300  0.25243521  1
  O  O20  1  0.50000000  0.15697387  0.22856385  1
  O  O21  1  0.50000000  0.04943527  0.75029535  1
  O  O22  1  0.50000000  0.35514314  0.24268022  1
  O  O23  1  0.50000000  0.25745372  0.74956116  1
  O  O24  1  0.50000000  0.54943418  0.25540008  1
  O  O25  1  0.50000000  0.45056582  0.74459992  1
  O  O26  1  0.50000000  0.74254628  0.25043884  1
  O  O27  1  0.50000000  0.64485686  0.75731978  1
  O  O28  1  0.50000000  0.95056473  0.24970465  1
  O  O29  1  0.50000000  0.84302613  0.77143615  1
  O  O30  1  0.50000000  0.00000000  0.50000000  1
  O  O31  1  0.50000000  0.30598203  0.99654611  1
  O  O32  1  0.50000000  0.10971257  0.99133007  1
  O  O33  1  0.50000000  0.21159726  0.50327618  1
  O  O34  1  0.50000000  0.40228102  0.49742406  1
  O  O35  1  0.50000000  0.69401797  0.00345389  1
  O  O36  1  0.50000000  0.50000000  0.00000000  1
  O  O37  1  0.50000000  0.59771898  0.50257594  1
  O  O38  1  0.50000000  0.89028743  0.00866993  1
  O  O39  1  0.50000000  0.78840274  0.49672382  1
  O  O40  1  0.00000000  0.06153689  0.23344862  1
  O  O41  1  0.00000000  0.26083025  0.23967760  1
  O  O42  1  0.00000000  0.16527573  0.74778846  1
  O  O43  1  0.00000000  0.45149084  0.24947393  1
  O  O44  1  0.00000000  0.35430714  0.74493232  1
  O  O45  1  0.00000000  0.64569286  0.25506768  1
  O  O46  1  0.00000000  0.54850916  0.75052607  1
  O  O47  1  0.00000000  0.83472427  0.25221154  1
  O  O48  1  0.00000000  0.73916975  0.76032240  1
  O  O49  1  0.00000000  0.93846311  0.76655138  1
