# generated using pymatgen
data_LiBH
_symmetry_space_group_name_H-M   'P 1'
_cell_length_a   3.08293396
_cell_length_b   5.90884827
_cell_length_c   6.47653084
_cell_angle_alpha   90.00000000
_cell_angle_beta   90.00000000
_cell_angle_gamma   90.00000000
_symmetry_Int_Tables_number   1
_chemical_formula_structural   LiBH
_chemical_formula_sum   'Li4 B4 H4'
_cell_volume   117.98030043
_cell_formula_units_Z   4
loop_
 _symmetry_equiv_pos_site_id
 _symmetry_equiv_pos_as_xyz
  1  'x, y, z'
loop_
 _atom_site_type_symbol
 _atom_site_label
 _atom_site_symmetry_multiplicity
 _atom_site_fract_x
 _atom_site_fract_y
 _atom_site_fract_z
 _atom_site_occupancy
  H  H0  1  0.25000000  0.23313859  0.52985827  1
  H  H1  1  0.25000000  0.73313859  0.97014173  1
  H  H2  1  0.75000000  0.76686141  0.47014173  1
  H  H3  1  0.75000000  0.26686141  0.02985827  1
  Li  Li4  1  0.75000000  0.24761474  0.71019123  1
  Li  Li5  1  0.25000000  0.25238526  0.21019123  1
  Li  Li6  1  0.75000000  0.74761474  0.78980877  1
  Li  Li7  1  0.25000000  0.75238526  0.28980877  1
  B  B8  1  0.25000000  0.94838521  0.98778605  1
  B  B9  1  0.25000000  0.44838521  0.51221395  1
  B  B10  1  0.75000000  0.55161479  0.48778605  1
  B  B11  1  0.75000000  0.05161479  0.01221395  1
