# generated using pymatgen
data_CuSnH12(NO3)2
_symmetry_space_group_name_H-M   'P 1'
_cell_length_a   5.75287772
_cell_length_b   6.72265890
_cell_length_c   4.96423215
_cell_angle_alpha   92.27849820
_cell_angle_beta   92.94731348
_cell_angle_gamma   107.66580124
_symmetry_Int_Tables_number   1
_chemical_formula_structural   CuSnH12(NO3)2
_chemical_formula_sum   'Cu1 Sn1 H12 N2 O6'
_cell_volume   182.38474360
_cell_formula_units_Z   1
loop_
 _symmetry_equiv_pos_site_id
 _symmetry_equiv_pos_as_xyz
  1  'x, y, z'
loop_
 _atom_site_type_symbol
 _atom_site_label
 _atom_site_symmetry_multiplicity
 _atom_site_fract_x
 _atom_site_fract_y
 _atom_site_fract_z
 _atom_site_occupancy
  Cu  Cu0  1  0.00000000  0.50000000  0.00000000  1
  Sn  Sn1  1  0.00000000  0.00000000  0.00000000  1
  H  H2  1  0.98147293  0.75094054  0.38904177  1
  H  H3  1  0.01852707  0.24905946  0.61095823  1
  H  H4  1  0.33350241  0.87213874  0.77304328  1
  H  H5  1  0.66649759  0.12786126  0.22695672  1
  H  H6  1  0.70291564  0.94567535  0.58981478  1
  H  H7  1  0.29708436  0.05432465  0.41018522  1
  H  H8  1  0.45100528  0.65039853  0.15482971  1
  H  H9  1  0.54899472  0.34960147  0.84517029  1
  H  H10  1  0.29468904  0.62415972  0.42354559  1
  H  H11  1  0.70531096  0.37584028  0.57645441  1
  H  H12  1  0.33403818  0.41301997  0.26515165  1
  H  H13  1  0.66596182  0.58698003  0.73484835  1
  N  N14  1  0.69774722  0.44542400  0.76144173  1
  N  N15  1  0.30225278  0.55457600  0.23855827  1
  O  O16  1  0.89389677  0.71854217  0.20783885  1
  O  O17  1  0.10610323  0.28145783  0.79216115  1
  O  O18  1  0.84003754  0.14833695  0.28245426  1
  O  O19  1  0.15996246  0.85166305  0.71754574  1
  O  O20  1  0.67108294  0.88627821  0.76581822  1
  O  O21  1  0.32891706  0.11372179  0.23418178  1
