# generated using pymatgen
data_Sb2P3(HO3)3
_symmetry_space_group_name_H-M   'P 1'
_cell_length_a   9.37769452
_cell_length_b   8.53117556
_cell_length_c   7.37513782
_cell_angle_alpha   67.74589688
_cell_angle_beta   79.70478912
_cell_angle_gamma   66.62219746
_symmetry_Int_Tables_number   1
_chemical_formula_structural   Sb2P3(HO3)3
_chemical_formula_sum   'Sb4 P6 H6 O18'
_cell_volume   500.97206633
_cell_formula_units_Z   2
loop_
 _symmetry_equiv_pos_site_id
 _symmetry_equiv_pos_as_xyz
  1  'x, y, z'
loop_
 _atom_site_type_symbol
 _atom_site_label
 _atom_site_symmetry_multiplicity
 _atom_site_fract_x
 _atom_site_fract_y
 _atom_site_fract_z
 _atom_site_occupancy
  Sb  Sb0  1  0.26506133  0.51175219  0.99975169  1
  Sb  Sb1  1  0.73493867  0.48824781  0.00024831  1
  Sb  Sb2  1  0.58356775  0.15527381  0.67906901  1
  Sb  Sb3  1  0.41643225  0.84472619  0.32093099  1
  P  P4  1  0.36088158  0.89065188  0.76307401  1
  P  P5  1  0.63911842  0.10934812  0.23692599  1
  P  P6  1  0.93484024  0.78319586  0.77333204  1
  P  P7  1  0.06515976  0.21680414  0.22666796  1
  P  P8  1  0.73758869  0.49960108  0.54241570  1
  P  P9  1  0.26241131  0.50039892  0.45758430  1
  H  H10  1  0.22030052  0.99055989  0.83755195  1
  H  H11  1  0.77969948  0.00944011  0.16244805  1
  H  H12  1  0.97850828  0.84575226  0.57387921  1
  H  H13  1  0.02149172  0.15424774  0.42612079  1
  H  H14  1  0.88830755  0.49653616  0.47187826  1
  H  H15  1  0.11169245  0.50346384  0.52812174  1
  O  O16  1  0.49153958  0.94254095  0.79614106  1
  O  O17  1  0.50846042  0.05745905  0.20385894  1
  O  O18  1  0.32631419  0.94461132  0.54449275  1
  O  O19  1  0.67368581  0.05538868  0.45550725  1
  O  O20  1  0.40156713  0.68620460  0.87630485  1
  O  O21  1  0.59843287  0.31379540  0.12369515  1
  O  O22  1  0.79880071  0.93651985  0.82336655  1
  O  O23  1  0.20119929  0.06348015  0.17663345  1
  O  O24  1  0.90472127  0.60977388  0.80851273  1
  O  O25  1  0.09527873  0.39022612  0.19148727  1
  O  O26  1  0.07889658  0.74138067  0.88780851  1
  O  O27  1  0.92110342  0.25861933  0.11219149  1
  O  O28  1  0.74670483  0.40733250  0.77105904  1
  O  O29  1  0.25329517  0.59266750  0.22894096  1
  O  O30  1  0.63162292  0.70129648  0.48342263  1
  O  O31  1  0.36837708  0.29870352  0.51657737  1
  O  O32  1  0.69452490  0.38491355  0.46072020  1
  O  O33  1  0.30547510  0.61508645  0.53927980  1
