# generated using pymatgen
data_Li2MoP4O13
_symmetry_space_group_name_H-M   'P 1'
_cell_length_a   5.19870676
_cell_length_b   8.09278335
_cell_length_c   13.84983004
_cell_angle_alpha   79.95992813
_cell_angle_beta   81.89324484
_cell_angle_gamma   80.10647626
_symmetry_Int_Tables_number   1
_chemical_formula_structural   Li2MoP4O13
_chemical_formula_sum   'Li4 Mo2 P8 O26'
_cell_volume   561.51724888
_cell_formula_units_Z   2
loop_
 _symmetry_equiv_pos_site_id
 _symmetry_equiv_pos_as_xyz
  1  'x, y, z'
loop_
 _atom_site_type_symbol
 _atom_site_label
 _atom_site_symmetry_multiplicity
 _atom_site_fract_x
 _atom_site_fract_y
 _atom_site_fract_z
 _atom_site_occupancy
  Li  Li0  1  0.05653599  0.32602758  0.00200847  1
  Li  Li1  1  0.34584326  0.36012161  0.48095260  1
  Li  Li2  1  0.65415674  0.63987839  0.51904740  1
  Li  Li3  1  0.94346401  0.67397242  0.99799153  1
  Mo  Mo4  1  0.56899028  0.94291822  0.74039350  1
  Mo  Mo5  1  0.43100972  0.05708178  0.25960650  1
  P  P6  1  0.14487043  0.78125350  0.63705889  1
  P  P7  1  0.65865011  0.42719543  0.18161274  1
  P  P8  1  0.99158606  0.09968116  0.85262861  1
  P  P9  1  0.71253808  0.33187327  0.70024314  1
  P  P10  1  0.28746192  0.66812673  0.29975686  1
  P  P11  1  0.85512957  0.21874650  0.36294111  1
  P  P12  1  0.00841394  0.90031884  0.14737139  1
  P  P13  1  0.34134989  0.57280457  0.81838726  1
  O  O14  1  0.72272070  0.30612997  0.44734139  1
  O  O15  1  0.53511285  0.69722062  0.81214382  1
  O  O16  1  0.28932955  0.03125643  0.84223942  1
  O  O17  1  0.81064639  0.47342037  0.08339608  1
  O  O18  1  0.14035719  0.64151587  0.73895797  1
  O  O19  1  0.85964281  0.35848413  0.26104203  1
  O  O20  1  0.90233014  0.17731410  0.94383809  1
  O  O21  1  0.96204761  0.25187415  0.75606833  1
  O  O22  1  0.50068445  0.60077707  0.21290274  1
  O  O23  1  0.59414336  0.18883196  0.67107985  1
  O  O24  1  0.49931555  0.39922293  0.78709726  1
  O  O25  1  0.71817592  0.07439974  0.34436606  1
  O  O26  1  0.78204853  0.46873914  0.62001103  1
  O  O27  1  0.71067045  0.96874357  0.15776058  1
  O  O28  1  0.21795147  0.53126086  0.37998897  1
  O  O29  1  0.84102937  0.96150642  0.83396855  1
  O  O30  1  0.28182408  0.92560026  0.65563394  1
  O  O31  1  0.46488715  0.30277938  0.18785618  1
  O  O32  1  0.15897063  0.03849358  0.16603145  1
  O  O33  1  0.18935361  0.52657963  0.91660392  1
  O  O34  1  0.09766986  0.82268590  0.05616191  1
  O  O35  1  0.27727930  0.69387003  0.55265861  1
  O  O36  1  0.84777846  0.84919254  0.63290198  1
  O  O37  1  0.40585664  0.81116804  0.32892015  1
  O  O38  1  0.03795239  0.74812585  0.24393167  1
  O  O39  1  0.15222154  0.15080746  0.36709802  1
