# generated using pymatgen
data_LiCrP2O7
_symmetry_space_group_name_H-M   'P 1'
_cell_length_a   5.01099189
_cell_length_b   8.12415508
_cell_length_c   13.13625651
_cell_angle_alpha   90.00000000
_cell_angle_beta   85.75723595
_cell_angle_gamma   90.00000000
_symmetry_Int_Tables_number   1
_chemical_formula_structural   LiCrP2O7
_chemical_formula_sum   'Li4 Cr4 P8 O28'
_cell_volume   533.31245126
_cell_formula_units_Z   4
loop_
 _symmetry_equiv_pos_site_id
 _symmetry_equiv_pos_as_xyz
  1  'x, y, z'
loop_
 _atom_site_type_symbol
 _atom_site_label
 _atom_site_symmetry_multiplicity
 _atom_site_fract_x
 _atom_site_fract_y
 _atom_site_fract_z
 _atom_site_occupancy
  Li  Li0  1  0.80178888  0.29567127  0.74421926  1
  Li  Li1  1  0.30178888  0.20432873  0.24421926  1
  Li  Li2  1  0.69821112  0.79567127  0.75578074  1
  Li  Li3  1  0.19821112  0.70432873  0.25578074  1
  Cr  Cr4  1  0.77126287  0.35368313  0.37030323  1
  Cr  Cr5  1  0.72873713  0.85368313  0.12969677  1
  Cr  Cr6  1  0.22873713  0.64631687  0.62969677  1
  Cr  Cr7  1  0.27126287  0.14631687  0.87030323  1
  P  P8  1  0.25392866  0.29525566  0.52205545  1
  P  P9  1  0.22050646  0.54172704  0.81929638  1
  P  P10  1  0.74607134  0.70474434  0.47794455  1
  P  P11  1  0.24607134  0.79525566  0.97794455  1
  P  P12  1  0.77949354  0.45827296  0.18070362  1
  P  P13  1  0.27949354  0.04172704  0.68070362  1
  P  P14  1  0.72050646  0.95827296  0.31929638  1
  P  P15  1  0.75392866  0.20474434  0.02205545  1
  O  O16  1  0.37834484  0.90969277  0.89585816  1
  O  O17  1  0.51083969  0.85263057  0.26902958  1
  O  O18  1  0.55168163  0.33056124  0.50138740  1
  O  O19  1  0.61873744  0.13373598  0.33499464  1
  O  O20  1  0.62165516  0.09030723  0.10414184  1
  O  O21  1  0.02578659  0.05753937  0.75495184  1
  O  O22  1  0.01083969  0.64736943  0.76902958  1
  O  O23  1  0.44831837  0.66943876  0.49861260  1
  O  O24  1  0.39272116  0.77744751  0.07508277  1
  O  O25  1  0.98916031  0.35263057  0.23097042  1
  O  O26  1  0.10727884  0.27744751  0.42491723  1
  O  O27  1  0.72594067  0.39018323  0.07043331  1
  O  O28  1  0.11873744  0.36626402  0.83499464  1
  O  O29  1  0.12165516  0.40969277  0.60414184  1
  O  O30  1  0.47421341  0.55753937  0.74504816  1
  O  O31  1  0.52578659  0.44246063  0.25495184  1
  O  O32  1  0.97421341  0.94246063  0.24504816  1
  O  O33  1  0.88126256  0.63373598  0.16500536  1
  O  O34  1  0.77405933  0.89018323  0.42956669  1
  O  O35  1  0.94831837  0.83056124  0.99861260  1
  O  O36  1  0.89272116  0.72255249  0.57508277  1
  O  O37  1  0.87834484  0.59030723  0.39585816  1
  O  O38  1  0.05168163  0.16943876  0.00138740  1
  O  O39  1  0.38126256  0.86626402  0.66500536  1
  O  O40  1  0.60727884  0.22255249  0.92491723  1
  O  O41  1  0.27405933  0.60981677  0.92956669  1
  O  O42  1  0.22594067  0.10981677  0.57043331  1
  O  O43  1  0.48916031  0.14736943  0.73097042  1
