# generated using pymatgen
data_Li3(NiO2)8
_symmetry_space_group_name_H-M   'P 1'
_cell_length_a   10.25468446
_cell_length_b   14.85616007
_cell_length_c   14.92526538
_cell_angle_alpha   19.20082317
_cell_angle_beta   28.54269282
_cell_angle_gamma   21.19814757
_symmetry_Int_Tables_number   1
_chemical_formula_structural   Li3(NiO2)8
_chemical_formula_sum   'Li3 Ni8 O16'
_cell_volume   270.36369540
_cell_formula_units_Z   1
loop_
 _symmetry_equiv_pos_site_id
 _symmetry_equiv_pos_as_xyz
  1  'x, y, z'
loop_
 _atom_site_type_symbol
 _atom_site_label
 _atom_site_symmetry_multiplicity
 _atom_site_fract_x
 _atom_site_fract_y
 _atom_site_fract_z
 _atom_site_occupancy
  Li  Li0  1  0.50000000  0.00000000  0.00000000  1
  Li  Li1  1  0.40509167  0.22987535  0.49981577  1
  Li  Li2  1  0.59490833  0.77012465  0.50018423  1
  Ni  Ni3  1  0.18741199  0.12514143  0.24968860  1
  Ni  Ni4  1  0.68864840  0.12449577  0.24836145  1
  Ni  Ni5  1  0.06307308  0.37540531  0.75013216  1
  Ni  Ni6  1  0.43663686  0.62452073  0.25005176  1
  Ni  Ni7  1  0.56336314  0.37547927  0.74994824  1
  Ni  Ni8  1  0.93692692  0.62459469  0.24986784  1
  Ni  Ni9  1  0.31135160  0.87550423  0.75163855  1
  Ni  Ni10  1  0.81258801  0.87485857  0.75031140  1
  O  O11  1  0.09252732  0.06353778  0.10657256  1
  O  O12  1  0.58750043  0.03178724  0.14694723  1
  O  O13  1  0.29155239  0.19299673  0.37686128  1
  O  O14  1  0.33789057  0.54254037  0.13432715  1
  O  O15  1  0.03551501  0.67550672  0.39899226  1
  O  O16  1  0.78542153  0.18413772  0.39281737  1
  O  O17  1  0.46643718  0.28223913  0.64457918  1
  O  O18  1  0.83459393  0.57024539  0.10608608  1
  O  O19  1  0.16540507  0.42975461  0.89391392  1
  O  O20  1  0.53356282  0.71776087  0.35542082  1
  O  O21  1  0.21457947  0.81586228  0.60718263  1
  O  O22  1  0.96448499  0.32449328  0.60100774  1
  O  O23  1  0.66210943  0.45745963  0.86567285  1
  O  O24  1  0.70844761  0.80700327  0.62313872  1
  O  O25  1  0.41249957  0.96821276  0.85305277  1
  O  O26  1  0.90747268  0.93646222  0.89342744  1
