# generated using pymatgen
data_MgH10C4(N2O3)2
_symmetry_space_group_name_H-M   'P 1'
_cell_length_a   12.20521308
_cell_length_b   12.20521308
_cell_length_c   15.48777651
_cell_angle_alpha   67.24789042
_cell_angle_beta   112.75210958
_cell_angle_gamma   90.65041996
_symmetry_Int_Tables_number   1
_chemical_formula_structural   MgH10C4(N2O3)2
_chemical_formula_sum   'Mg8 H80 C32 N32 O48'
_cell_volume   1935.99520323
_cell_formula_units_Z   8
loop_
 _symmetry_equiv_pos_site_id
 _symmetry_equiv_pos_as_xyz
  1  'x, y, z'
loop_
 _atom_site_type_symbol
 _atom_site_label
 _atom_site_symmetry_multiplicity
 _atom_site_fract_x
 _atom_site_fract_y
 _atom_site_fract_z
 _atom_site_occupancy
  Mg  Mg0  1  0.25286981  0.76009602  0.00374855  1
  Mg  Mg1  1  0.76009602  0.25286981  0.49625145  1
  Mg  Mg2  1  0.74713019  0.23990398  0.99625145  1
  Mg  Mg3  1  0.23990398  0.74713019  0.50374855  1
  Mg  Mg4  1  0.25130576  0.25798252  0.00351298  1
  Mg  Mg5  1  0.25798252  0.25130576  0.49648702  1
  Mg  Mg6  1  0.74869424  0.74201748  0.99648702  1
  Mg  Mg7  1  0.74201748  0.74869424  0.50351298  1
  H  H8  1  0.54185813  0.65010977  0.32934529  1
  H  H9  1  0.65010977  0.54185813  0.17065471  1
  H  H10  1  0.45814187  0.34989023  0.67065471  1
  H  H11  1  0.34989023  0.45814187  0.82934529  1
  H  H12  1  0.50911205  0.50937467  0.39230275  1
  H  H13  1  0.50937467  0.50911205  0.10769725  1
  H  H14  1  0.49088795  0.49062533  0.60769725  1
  H  H15  1  0.49062533  0.49088795  0.89230275  1
  H  H16  1  0.24173146  0.53503816  0.17934871  1
  H  H17  1  0.53503816  0.24173146  0.32065129  1
  H  H18  1  0.75826854  0.46496184  0.82065129  1
  H  H19  1  0.46496184  0.75826854  0.67934871  1
  H  H20  1  0.33210895  0.45166190  0.31168718  1
  H  H21  1  0.45166190  0.33210895  0.18831282  1
  H  H22  1  0.66789105  0.54833810  0.68831282  1
  H  H23  1  0.54833810  0.66789105  0.81168718  1
  H  H24  1  0.96864670  0.98020321  0.67431069  1
  H  H25  1  0.98020321  0.96864670  0.82568931  1
  H  H26  1  0.03135330  0.01979679  0.32568931  1
  H  H27  1  0.01979679  0.03135330  0.17431069  1
  H  H28  1  0.00055620  0.90173641  0.61097271  1
  H  H29  1  0.90173641  0.00055620  0.88902729  1
  H  H30  1  0.99944380  0.09826359  0.38902729  1
  H  H31  1  0.09826359  0.99944380  0.11097271  1
  H  H32  1  0.16467379  0.76096692  0.68827933  1
  H  H33  1  0.76096692  0.16467379  0.81172067  1
  H  H34  1  0.83532621  0.23903308  0.31172067  1
  H  H35  1  0.23903308  0.83532621  0.18827933  1
  H  H36  1  0.24900261  0.70284767  0.82239299  1
  H  H37  1  0.70284767  0.24900261  0.67760701  1
  H  H38  1  0.75099739  0.29715233  0.17760701  1
  H  H39  1  0.29715233  0.75099739  0.32239299  1
  H  H40  1  0.26778411  0.03684641  0.93831188  1
  H  H41  1  0.03684641  0.26778411  0.56168812  1
  H  H42  1  0.73221589  0.96315359  0.06168812  1
  H  H43  1  0.96315359  0.73221589  0.43831188  1
  H  H44  1  0.50471521  0.68964420  0.01652973  1
  H  H45  1  0.68964420  0.50471521  0.48347027  1
  H  H46  1  0.49528479  0.31035580  0.98347027  1
  H  H47  1  0.31035580  0.49528479  0.51652973  1
  H  H48  1  0.41144382  0.04373017  0.40093947  1
  H  H49  1  0.04373017  0.41144382  0.09906053  1
  H  H50  1  0.58855618  0.95626983  0.59906053  1
  H  H51  1  0.95626983  0.58855618  0.90093947  1
  H  H52  1  0.29089021  0.16333793  0.33228575  1
  H  H53  1  0.16333793  0.29089021  0.16771425  1
  H  H54  1  0.70910979  0.83666207  0.66771425  1
  H  H55  1  0.83666207  0.70910979  0.83228575  1
  H  H56  1  0.50904628  0.98898407  0.32137409  1
  H  H57  1  0.98898407  0.50904628  0.17862591  1
  H  H58  1  0.49095372  0.01101593  0.67862591  1
  H  H59  1  0.01101593  0.49095372  0.82137409  1
  H  H60  1  0.45017331  0.05149078  0.18623791  1
  H  H61  1  0.05149078  0.45017331  0.31376209  1
  H  H62  1  0.54982669  0.94850922  0.81376209  1
  H  H63  1  0.94850922  0.54982669  0.68623791  1
  H  H64  1  0.06329522  0.45354071  0.60736510  1
  H  H65  1  0.45354071  0.06329522  0.89263490  1
  H  H66  1  0.93670478  0.54645929  0.39263490  1
  H  H67  1  0.54645929  0.93670478  0.10736510  1
  H  H68  1  0.19396815  0.49991471  0.67361480  1
  H  H69  1  0.49991471  0.19396815  0.82638520  1
  H  H70  1  0.80603185  0.50008529  0.32638520  1
  H  H71  1  0.50008529  0.80603185  0.17361480  1
  H  H72  1  0.06088437  0.21571961  0.82424060  1
  H  H73  1  0.21571961  0.06088437  0.67575940  1
  H  H74  1  0.93911563  0.78428039  0.17575940  1
  H  H75  1  0.78428039  0.93911563  0.32424060  1
  H  H76  1  0.98628180  0.29908994  0.68946251  1
  H  H77  1  0.29908994  0.98628180  0.81053749  1
  H  H78  1  0.01371820  0.70091006  0.31053749  1
  H  H79  1  0.70091006  0.01371820  0.18946251  1
  H  H80  1  0.00271044  0.81083189  0.01235247  1
  H  H81  1  0.81083189  0.00271044  0.48764753  1
  H  H82  1  0.99728956  0.18916811  0.98764753  1
  H  H83  1  0.18916811  0.99728956  0.51235247  1
  H  H84  1  0.17092710  0.52662164  0.95607149  1
  H  H85  1  0.52662164  0.17092710  0.54392851  1
  H  H86  1  0.82907290  0.47337836  0.04392851  1
  H  H87  1  0.47337836  0.82907290  0.45607149  1
  C  C88  1  0.38951517  0.60624761  0.24130272  1
  C  C89  1  0.60624761  0.38951517  0.25869728  1
  C  C90  1  0.61048483  0.39375239  0.75869728  1
  C  C91  1  0.39375239  0.61048483  0.74130272  1
  C  C92  1  0.11415036  0.84344550  0.76381525  1
  C  C93  1  0.84344550  0.11415036  0.73618475  1
  C  C94  1  0.88584964  0.15655450  0.23618475  1
  C  C95  1  0.15655450  0.88584964  0.26381525  1
  C  C96  1  0.21639164  0.01548528  0.98658627  1
  C  C97  1  0.01548528  0.21639164  0.51341373  1
  C  C98  1  0.78360836  0.98451472  0.01341373  1
  C  C99  1  0.98451472  0.78360836  0.48658627  1
  C  C100  1  0.49109706  0.78878819  0.97801171  1
  C  C101  1  0.78878819  0.49109706  0.52198829  1
  C  C102  1  0.50890294  0.21121181  0.02198829  1
  C  C103  1  0.21121181  0.50890294  0.47801171  1
  C  C104  1  0.35498627  0.11397229  0.24437377  1
  C  C105  1  0.11397229  0.35498627  0.25562623  1
  C  C106  1  0.64501373  0.88602771  0.75562623  1
  C  C107  1  0.88602771  0.64501373  0.74437377  1
  C  C108  1  0.14175465  0.35417290  0.76364109  1
  C  C109  1  0.35417290  0.14175465  0.73635891  1
  C  C110  1  0.85824535  0.64582710  0.23635891  1
  C  C111  1  0.64582710  0.85824535  0.26364109  1
  C  C112  1  0.01531707  0.71366168  0.03022785  1
  C  C113  1  0.71366168  0.01531707  0.46977215  1
  C  C114  1  0.98468293  0.28633832  0.96977215  1
  C  C115  1  0.28633832  0.98468293  0.53022785  1
  C  C116  1  0.27055208  0.51201402  0.99355692  1
  C  C117  1  0.51201402  0.27055208  0.50644308  1
  C  C118  1  0.72944792  0.48798598  0.00644308  1
  C  C119  1  0.48798598  0.72944792  0.49355692  1
  N  N120  1  0.48155884  0.59134118  0.33101521  1
  N  N121  1  0.59134118  0.48155884  0.16898479  1
  N  N122  1  0.51844116  0.40865882  0.66898479  1
  N  N123  1  0.40865882  0.51844116  0.83101521  1
  N  N124  1  0.31745242  0.52180326  0.24339080  1
  N  N125  1  0.52180326  0.31745242  0.25660920  1
  N  N126  1  0.68254758  0.47819674  0.75660920  1
  N  N127  1  0.47819674  0.68254758  0.74339080  1
  N  N128  1  0.02628169  0.92060929  0.67395964  1
  N  N129  1  0.92060929  0.02628169  0.82604036  1
  N  N130  1  0.97371831  0.07939071  0.32604036  1
  N  N131  1  0.07939071  0.97371831  0.17395964  1
  N  N132  1  0.18487415  0.76557679  0.75714713  1
  N  N133  1  0.76557679  0.18487415  0.74285287  1
  N  N134  1  0.81512585  0.23442321  0.24285287  1
  N  N135  1  0.23442321  0.81512585  0.25714713  1
  N  N136  1  0.35281236  0.10675523  0.33267598  1
  N  N137  1  0.10675523  0.35281236  0.16732402  1
  N  N138  1  0.64718764  0.89324477  0.66732402  1
  N  N139  1  0.89324477  0.64718764  0.83267598  1
  N  N140  1  0.43847704  0.03536043  0.25159462  1
  N  N141  1  0.03536043  0.43847704  0.24840538  1
  N  N142  1  0.56152296  0.96463957  0.74840538  1
  N  N143  1  0.96463957  0.56152296  0.75159462  1
  N  N144  1  0.13455528  0.44012036  0.67401453  1
  N  N145  1  0.44012036  0.13455528  0.82598547  1
  N  N146  1  0.86544472  0.55987964  0.32598547  1
  N  N147  1  0.55987964  0.86544472  0.17401453  1
  N  N148  1  0.05658468  0.28260027  0.75846337  1
  N  N149  1  0.28260027  0.05658468  0.74153663  1
  N  N150  1  0.94341532  0.71739973  0.24153663  1
  N  N151  1  0.71739973  0.94341532  0.25846337  1
  O  O152  1  0.37181847  0.69935534  0.15931989  1
  O  O153  1  0.69935534  0.37181847  0.34068011  1
  O  O154  1  0.62818153  0.30064466  0.84068011  1
  O  O155  1  0.30064466  0.62818153  0.65931989  1
  O  O156  1  0.13115045  0.84861741  0.84842092  1
  O  O157  1  0.84861741  0.13115045  0.65157908  1
  O  O158  1  0.86884955  0.15138259  0.15157908  1
  O  O159  1  0.15138259  0.86884955  0.34842092  1
  O  O160  1  0.19971733  0.90767590  0.02464120  1
  O  O161  1  0.90767590  0.19971733  0.47535880  1
  O  O162  1  0.80028267  0.09232410  0.97535880  1
  O  O163  1  0.09232410  0.80028267  0.52464120  1
  O  O164  1  0.39140946  0.84579463  0.95818620  1
  O  O165  1  0.84579463  0.39140946  0.54181380  1
  O  O166  1  0.60859054  0.15420537  0.04181380  1
  O  O167  1  0.15420537  0.60859054  0.45818620  1
  O  O168  1  0.11409024  0.66673449  0.03998409  1
  O  O169  1  0.66673449  0.11409024  0.46001591  1
  O  O170  1  0.88590976  0.33326551  0.96001591  1
  O  O171  1  0.33326551  0.88590976  0.53998409  1
  O  O172  1  0.32074425  0.60127651  0.00262365  1
  O  O173  1  0.60127651  0.32074425  0.49737635  1
  O  O174  1  0.67925575  0.39872349  0.99737635  1
  O  O175  1  0.39872349  0.67925575  0.50262365  1
  O  O176  1  0.22583983  0.34214148  0.84886320  1
  O  O177  1  0.34214148  0.22583983  0.65113680  1
  O  O178  1  0.77416017  0.65785852  0.15113680  1
  O  O179  1  0.65785852  0.77416017  0.34886320  1
  O  O180  1  0.28002650  0.19252031  0.15812664  1
  O  O181  1  0.19252031  0.28002650  0.34187336  1
  O  O182  1  0.71997350  0.80747969  0.84187336  1
  O  O183  1  0.80747969  0.71997350  0.65812664  1
  O  O184  1  0.92901634  0.65753101  0.03979290  1
  O  O185  1  0.65753101  0.92901634  0.46020710  1
  O  O186  1  0.07098366  0.34246899  0.96020710  1
  O  O187  1  0.34246899  0.07098366  0.53979290  1
  O  O188  1  0.32623435  0.40764067  0.02485272  1
  O  O189  1  0.40764067  0.32623435  0.47514728  1
  O  O190  1  0.67376565  0.59235933  0.97514728  1
  O  O191  1  0.59235933  0.67376565  0.52485272  1
  O  O192  1  0.17814334  0.10113211  0.00020448  1
  O  O193  1  0.10113211  0.17814334  0.49979552  1
  O  O194  1  0.82185666  0.89886789  0.99979552  1
  O  O195  1  0.89886789  0.82185666  0.50020448  1
  O  O196  1  0.57522801  0.83654107  0.95604161  1
  O  O197  1  0.83654107  0.57522801  0.54395839  1
  O  O198  1  0.42477199  0.16345893  0.04395839  1
  O  O199  1  0.16345893  0.42477199  0.45604161  1
