# generated using pymatgen
data_Na3P2H4O7
_symmetry_space_group_name_H-M   'P 1'
_cell_length_a   6.07224284
_cell_length_b   6.25316708
_cell_length_c   11.51080550
_cell_angle_alpha   99.35016634
_cell_angle_beta   95.49294703
_cell_angle_gamma   117.59807749
_symmetry_Int_Tables_number   1
_chemical_formula_structural   Na3P2H4O7
_chemical_formula_sum   'Na6 P4 H8 O14'
_cell_volume   374.81890227
_cell_formula_units_Z   2
loop_
 _symmetry_equiv_pos_site_id
 _symmetry_equiv_pos_as_xyz
  1  'x, y, z'
loop_
 _atom_site_type_symbol
 _atom_site_label
 _atom_site_symmetry_multiplicity
 _atom_site_fract_x
 _atom_site_fract_y
 _atom_site_fract_z
 _atom_site_occupancy
  Na  Na0  1  0.92609929  0.82745260  0.12017637  1
  Na  Na1  1  0.07390071  0.17254740  0.87982363  1
  Na  Na2  1  0.72671976  0.69646687  0.41286724  1
  Na  Na3  1  0.27328024  0.30353313  0.58713276  1
  Na  Na4  1  0.32881041  0.49280423  0.14423651  1
  Na  Na5  1  0.67118959  0.50719577  0.85576349  1
  P  P6  1  0.65575994  0.16581391  0.07142833  1
  P  P7  1  0.34424006  0.83418609  0.92857167  1
  P  P8  1  0.59555420  0.07651327  0.24968997  1
  P  P9  1  0.40444580  0.92348673  0.75031003  1
  H  H10  1  0.21606798  0.80656545  0.51255224  1
  H  H11  1  0.78393202  0.19343455  0.48744776  1
  H  H12  1  0.23993181  0.90008052  0.38861453  1
  H  H13  1  0.76006819  0.09991948  0.61138547  1
  H  H14  1  0.26691981  0.24318928  0.32986223  1
  H  H15  1  0.73308019  0.75681072  0.67013777  1
  H  H16  1  0.10104800  0.37630926  0.35775502  1
  H  H17  1  0.89895200  0.62369074  0.64224498  1
  O  O18  1  0.62797915  0.39323149  0.05933059  1
  O  O19  1  0.37202085  0.60676851  0.94066941  1
  O  O20  1  0.66779560  0.87084920  0.24849410  1
  O  O21  1  0.33220440  0.12915080  0.75150590  1
  O  O22  1  0.91338987  0.18418542  0.05717621  1
  O  O23  1  0.08661013  0.81581458  0.94282379  1
  O  O24  1  0.31082565  0.98239779  0.25106180  1
  O  O25  1  0.68917435  0.01760221  0.74893820  1
  O  O26  1  0.77118756  0.31784502  0.34531269  1
  O  O27  1  0.22881244  0.68215498  0.65468731  1
  O  O28  1  0.17384762  0.90309955  0.46410050  1
  O  O29  1  0.82615238  0.09690045  0.53589950  1
  O  O30  1  0.27777766  0.40452156  0.36395628  1
  O  O31  1  0.72222234  0.59547844  0.63604372  1
