# generated using pymatgen
data_KV3Cu5O13
_symmetry_space_group_name_H-M   'P 1'
_cell_length_a   6.15158332
_cell_length_b   8.30599135
_cell_length_c   10.90224558
_cell_angle_alpha   97.90928234
_cell_angle_beta   92.74881941
_cell_angle_gamma   90.59062776
_symmetry_Int_Tables_number   1
_chemical_formula_structural   KV3Cu5O13
_chemical_formula_sum   'K2 V6 Cu10 O26'
_cell_volume   551.03575635
_cell_formula_units_Z   2
loop_
 _symmetry_equiv_pos_site_id
 _symmetry_equiv_pos_as_xyz
  1  'x, y, z'
loop_
 _atom_site_type_symbol
 _atom_site_label
 _atom_site_symmetry_multiplicity
 _atom_site_fract_x
 _atom_site_fract_y
 _atom_site_fract_z
 _atom_site_occupancy
  K  K0  1  0.75231492  0.47914427  0.59850045  1
  K  K1  1  0.24768508  0.52085573  0.40149955  1
  V  V2  1  0.24006229  0.12521511  0.49439742  1
  V  V3  1  0.75993771  0.87478489  0.50560258  1
  V  V4  1  0.25923398  0.17950127  0.12181768  1
  V  V5  1  0.25682048  0.47192303  0.78819492  1
  V  V6  1  0.74317952  0.52807697  0.21180508  1
  V  V7  1  0.74076602  0.82049873  0.87818232  1
  Cu  Cu8  1  0.00068950  0.10524981  0.77127635  1
  Cu  Cu9  1  0.74258224  0.19212575  0.35465211  1
  Cu  Cu10  1  0.26759479  0.85447575  0.93879624  1
  Cu  Cu11  1  0.22544506  0.60488996  0.10407987  1
  Cu  Cu12  1  0.49150607  0.89363658  0.23262777  1
  Cu  Cu13  1  0.73240521  0.14552425  0.06120376  1
  Cu  Cu14  1  0.50849393  0.10636342  0.76737223  1
  Cu  Cu15  1  0.25741776  0.80787425  0.64534789  1
  Cu  Cu16  1  0.77455494  0.39511004  0.89592013  1
  Cu  Cu17  1  0.99931050  0.89475019  0.22872365  1
  O  O18  1  0.24334863  0.05153882  0.65668374  1
  O  O19  1  0.45491599  0.25010574  0.48083733  1
  O  O20  1  0.25125176  0.57687845  0.66313216  1
  O  O21  1  0.98007574  0.65651386  0.22222895  1
  O  O22  1  0.75665137  0.94846118  0.34331626  1
  O  O23  1  0.02103049  0.11856073  0.18956333  1
  O  O24  1  0.00292475  0.23082007  0.46734604  1
  O  O25  1  0.23668841  0.38270433  0.12142113  1
  O  O26  1  0.25601657  0.96272608  0.38141941  1
  O  O27  1  0.27106579  0.61744272  0.92465807  1
  O  O28  1  0.23268158  0.84370839  0.11635657  1
  O  O29  1  0.74874824  0.42312155  0.33686784  1
  O  O30  1  0.51356162  0.13208268  0.20360483  1
  O  O31  1  0.76331159  0.61729567  0.87857887  1
  O  O32  1  0.48105565  0.34434620  0.77909828  1
  O  O33  1  0.72753031  0.91203499  0.03188633  1
  O  O34  1  0.72893421  0.38255728  0.07534193  1
  O  O35  1  0.54508401  0.74989426  0.51916267  1
  O  O36  1  0.99707525  0.76917993  0.53265396  1
  O  O37  1  0.74398343  0.03727392  0.61858059  1
  O  O38  1  0.97896951  0.88143927  0.81043667  1
  O  O39  1  0.76731842  0.15629161  0.88364343  1
  O  O40  1  0.48643838  0.86791732  0.79639517  1
  O  O41  1  0.51894435  0.65565380  0.22090172  1
  O  O42  1  0.01992426  0.34348614  0.77777105  1
  O  O43  1  0.27246969  0.08796501  0.96811367  1
