# generated using pymatgen
data_KMg8Al17Si19O72
_symmetry_space_group_name_H-M   'P 1'
_cell_length_a   10.01859133
_cell_length_b   9.98009815
_cell_length_c   18.85709501
_cell_angle_alpha   90.05783434
_cell_angle_beta   89.93152604
_cell_angle_gamma   119.94907222
_symmetry_Int_Tables_number   1
_chemical_formula_structural   KMg8Al17Si19O72
_chemical_formula_sum   'K1 Mg8 Al17 Si19 O72'
_cell_volume   1633.68822672
_cell_formula_units_Z   1
loop_
 _symmetry_equiv_pos_site_id
 _symmetry_equiv_pos_as_xyz
  1  'x, y, z'
loop_
 _atom_site_type_symbol
 _atom_site_label
 _atom_site_symmetry_multiplicity
 _atom_site_fract_x
 _atom_site_fract_y
 _atom_site_fract_z
 _atom_site_occupancy
  K  K0  1  0.97595870  0.98313939  0.91971480  1
  Mg  Mg1  1  0.33348592  0.66680106  0.12614132  1
  Mg  Mg2  1  0.33379421  0.66699978  0.62561817  1
  Mg  Mg3  1  0.33855051  0.67663085  0.37618971  1
  Mg  Mg4  1  0.34038621  0.66988817  0.87266418  1
  Mg  Mg5  1  0.67816858  0.33600226  0.12755440  1
  Mg  Mg6  1  0.67944540  0.33765519  0.62577995  1
  Mg  Mg7  1  0.67483548  0.33383796  0.37340905  1
  Mg  Mg8  1  0.66814577  0.33357852  0.87238382  1
  Al  Al9  1  0.49901236  0.49982282  0.87493661  1
  Al  Al10  1  0.62484307  0.73149997  0.99905543  1
  Al  Al11  1  0.62762005  0.73129088  0.49947430  1
  Al  Al12  1  0.36611784  0.09569741  0.25178271  1
  Al  Al13  1  0.36621908  0.09861063  0.75081199  1
  Al  Al14  1  0.73086812  0.62962132  0.25019038  1
  Al  Al15  1  0.73012850  0.62457982  0.74877247  1
  Al  Al16  1  0.51128789  0.01147398  0.37601593  1
  Al  Al17  1  0.50975625  0.01024635  0.87475646  1
  Al  Al18  1  0.90309969  0.63487709  0.00099707  1
  Al  Al19  1  0.90513920  0.63687956  0.50083584  1
  Al  Al20  1  0.73881327  0.11191853  0.00002020  1
  Al  Al21  1  0.73855971  0.10930893  0.50009641  1
  Al  Al22  1  0.99891007  0.49508674  0.12549368  1
  Al  Al23  1  0.99963899  0.49608526  0.62531547  1
  Al  Al24  1  0.89870435  0.26116393  0.25027578  1
  Al  Al25  1  0.89705632  0.26122831  0.74949367  1
  Si  Si26  1  0.10070684  0.72347693  0.25025766  1
  Si  Si27  1  0.10173993  0.72532073  0.74977068  1
  Si  Si28  1  0.27639089  0.90670159  0.00046354  1
  Si  Si29  1  0.27648816  0.90684396  0.50030229  1
  Si  Si30  1  0.10846919  0.37774505  0.99947455  1
  Si  Si31  1  0.10541986  0.37742380  0.50017662  1
  Si  Si32  1  0.50671417  0.00941114  0.62450228  1
  Si  Si33  1  0.26835960  0.36437990  0.25006306  1
  Si  Si34  1  0.26743627  0.36797140  0.74955017  1
  Si  Si35  1  0.62259568  0.89498633  0.25030054  1
  Si  Si36  1  0.62335821  0.89343850  0.74992487  1
  Si  Si37  1  0.36752034  0.27088273  0.00007525  1
  Si  Si38  1  0.36150172  0.26908792  0.49900223  1
  Si  Si39  1  0.49555764  0.49695439  0.12681218  1
  Si  Si40  1  0.49424176  0.49610443  0.62417044  1
  Si  Si41  1  0.49576623  0.49746878  0.37558141  1
  Si  Si42  1  0.50498704  0.00815158  0.12495435  1
  Si  Si43  1  0.00182576  0.49721461  0.37479478  1
  Si  Si44  1  0.00125141  0.49695733  0.87475592  1
  O  O45  1  0.09568493  0.78906059  0.00313175  1
  O  O46  1  0.09872946  0.78517294  0.50489162  1
  O  O47  1  0.22290017  0.90320596  0.25455380  1
  O  O48  1  0.22346827  0.90545287  0.75579767  1
  O  O49  1  0.14059803  0.64568851  0.18087123  1
  O  O50  1  0.14201126  0.64665619  0.68099938  1
  O  O51  1  0.13013417  0.64182930  0.32407786  1
  O  O52  1  0.12826182  0.64221500  0.82420389  1
  O  O53  1  0.14562833  0.49102993  0.06921461  1
  O  O54  1  0.14684295  0.49408619  0.56876463  1
  O  O55  1  0.13360981  0.48281917  0.42490459  1
  O  O56  1  0.13252221  0.48173283  0.92525048  1
  O  O57  1  0.35942629  0.88229388  0.07394664  1
  O  O58  1  0.36058586  0.88448270  0.57375360  1
  O  O59  1  0.35578964  0.87331758  0.43077913  1
  O  O60  1  0.35594651  0.87565604  0.93131308  1
  O  O61  1  0.09304513  0.32019815  0.24936651  1
  O  O62  1  0.08823405  0.31134898  0.74628997  1
  O  O63  1  0.22407899  0.30509363  0.99533019  1
  O  O64  1  0.22497946  0.31031934  0.49610349  1
  O  O65  1  0.51723636  0.87611073  0.17506241  1
  O  O66  1  0.51969333  0.87684977  0.67442774  1
  O  O67  1  0.50635167  0.86168432  0.81818276  1
  O  O68  1  0.50605190  0.86194276  0.31886973  1
  O  O69  1  0.35279198  0.47405424  0.32207828  1
  O  O70  1  0.34816780  0.48408656  0.81779458  1
  O  O71  1  0.35339857  0.47999741  0.17912160  1
  O  O72  1  0.35049029  0.47589011  0.67579064  1
  O  O73  1  0.30199580  0.22609080  0.24653728  1
  O  O74  1  0.30008749  0.22762378  0.74926313  1
  O  O75  1  0.51036027  0.63951450  0.07882055  1
  O  O76  1  0.49927665  0.63454940  0.42402732  1
  O  O77  1  0.50441803  0.63645570  0.57584890  1
  O  O78  1  0.49213670  0.63902698  0.92927356  1
  O  O79  1  0.69858728  0.92584271  0.99782781  1
  O  O80  1  0.67306558  0.91719887  0.49864272  1
  O  O81  1  0.30486603  0.08530012  0.00234766  1
  O  O82  1  0.31404550  0.08867830  0.49896825  1
  O  O83  1  0.45987106  0.34608307  0.07590770  1
  O  O84  1  0.46731504  0.34935281  0.42709092  1
  O  O85  1  0.46194555  0.34699910  0.57207465  1
  O  O86  1  0.47739878  0.34568894  0.93191886  1
  O  O87  1  0.67278808  0.76586255  0.24580681  1
  O  O88  1  0.67647429  0.76639266  0.74694136  1
  O  O89  1  0.63677468  0.50703875  0.17422047  1
  O  O90  1  0.63980941  0.51353902  0.32797321  1
  O  O91  1  0.64792315  0.50710107  0.82355539  1
  O  O92  1  0.63715830  0.50867863  0.67061361  1
  O  O93  1  0.47631171  0.12651128  0.17259669  1
  O  O94  1  0.47571430  0.12705204  0.67185254  1
  O  O95  1  0.49393316  0.14506152  0.32235461  1
  O  O96  1  0.49121435  0.14289613  0.82196006  1
  O  O97  1  0.77681088  0.69959908  0.99104504  1
  O  O98  1  0.76258965  0.67910744  0.49441586  1
  O  O99  1  0.92266679  0.67942527  0.24916236  1
  O  O100  1  0.92608789  0.68745070  0.74733195  1
  O  O101  1  0.64883949  0.13368808  0.07786056  1
  O  O102  1  0.65056338  0.13566835  0.57799039  1
  O  O103  1  0.65551968  0.15347017  0.42881524  1
  O  O104  1  0.65535779  0.15116120  0.92806084  1
  O  O105  1  0.86412064  0.50817808  0.07204873  1
  O  O106  1  0.86625777  0.50745326  0.57084037  1
  O  O107  1  0.88497132  0.52578631  0.42216531  1
  O  O108  1  0.88577213  0.52553747  0.92332982  1
  O  O109  1  0.86207101  0.34735914  0.17857395  1
  O  O110  1  0.86119754  0.34929370  0.67865859  1
  O  O111  1  0.87925438  0.35218896  0.32754354  1
  O  O112  1  0.88006544  0.35060123  0.82813639  1
  O  O113  1  0.76213248  0.06771215  0.25371944  1
  O  O114  1  0.76345885  0.06654365  0.75524797  1
  O  O115  1  0.93827935  0.23480328  0.00071761  1
  O  O116  1  0.93497687  0.23971226  0.50282748  1
