# generated using pymatgen
data_P2H4PbO8
_symmetry_space_group_name_H-M   'P 1'
_cell_length_a   8.31890400
_cell_length_b   8.40790658
_cell_length_c   5.97266633
_cell_angle_alpha   110.29088264
_cell_angle_beta   95.53994320
_cell_angle_gamma   105.39614188
_symmetry_Int_Tables_number   1
_chemical_formula_structural   P2H4PbO8
_chemical_formula_sum   'P4 H8 Pb2 O16'
_cell_volume   369.46155193
_cell_formula_units_Z   2
loop_
 _symmetry_equiv_pos_site_id
 _symmetry_equiv_pos_as_xyz
  1  'x, y, z'
loop_
 _atom_site_type_symbol
 _atom_site_label
 _atom_site_symmetry_multiplicity
 _atom_site_fract_x
 _atom_site_fract_y
 _atom_site_fract_z
 _atom_site_occupancy
  P  P0  1  0.22130986  0.80873480  0.68552461  1
  P  P1  1  0.77869014  0.19126520  0.31447539  1
  P  P2  1  0.75125681  0.66409596  0.01968878  1
  P  P3  1  0.24874319  0.33590404  0.98031122  1
  H  H4  1  0.74908360  0.38811384  0.78298986  1
  H  H5  1  0.25091640  0.61188616  0.21701014  1
  H  H6  1  0.49341294  0.55284816  0.79037346  1
  H  H7  1  0.50658706  0.44715184  0.20962654  1
  H  H8  1  0.16895891  0.58625045  0.80640800  1
  H  H9  1  0.83104109  0.41374955  0.19359200  1
  H  H10  1  0.45491997  0.77984996  0.55352524  1
  H  H11  1  0.54508003  0.22015004  0.44647476  1
  Pb  Pb12  1  0.83929158  0.94730581  0.69881094  1
  Pb  Pb13  1  0.16070842  0.05269419  0.30118906  1
  O  O14  1  0.78492885  0.47466536  0.95520209  1
  O  O15  1  0.21507115  0.52533464  0.04479791  1
  O  O16  1  0.68967729  0.70053826  0.25544533  1
  O  O17  1  0.31032271  0.29946174  0.74455467  1
  O  O18  1  0.90707945  0.80147682  0.00266601  1
  O  O19  1  0.09292055  0.19852318  0.99733399  1
  O  O20  1  0.08174357  0.85122082  0.55110567  1
  O  O21  1  0.91825643  0.14877918  0.44889433  1
  O  O22  1  0.60623098  0.63209805  0.79428992  1
  O  O23  1  0.39376902  0.36790195  0.20571008  1
  O  O24  1  0.16543081  0.60489085  0.65062962  1
  O  O25  1  0.83456919  0.39510915  0.34937038  1
  O  O26  1  0.30026101  0.92993432  0.94607669  1
  O  O27  1  0.69973899  0.07006568  0.05392331  1
  O  O28  1  0.35461285  0.80661072  0.49873857  1
  O  O29  1  0.64538715  0.19338928  0.50126143  1
