# generated using pymatgen
data_Al2P2H8C2NO8F
_symmetry_space_group_name_H-M   'P 1'
_cell_length_a   9.54393858
_cell_length_b   12.89089937
_cell_length_c   8.68955750
_cell_angle_alpha   90.00000000
_cell_angle_beta   112.95496322
_cell_angle_gamma   90.00000000
_symmetry_Int_Tables_number   1
_chemical_formula_structural   Al2P2H8C2NO8F
_chemical_formula_sum   'Al8 P8 H32 C8 N4 O32 F4'
_cell_volume   984.41754213
_cell_formula_units_Z   4
loop_
 _symmetry_equiv_pos_site_id
 _symmetry_equiv_pos_as_xyz
  1  'x, y, z'
loop_
 _atom_site_type_symbol
 _atom_site_label
 _atom_site_symmetry_multiplicity
 _atom_site_fract_x
 _atom_site_fract_y
 _atom_site_fract_z
 _atom_site_occupancy
  Al  Al0  1  0.43481188  0.40157515  0.90949168  1
  Al  Al1  1  0.56518812  0.90157515  0.59050832  1
  Al  Al2  1  0.56518812  0.59842485  0.09050832  1
  Al  Al3  1  0.43481188  0.09842485  0.40949168  1
  Al  Al4  1  0.12827943  0.11734717  0.68074817  1
  Al  Al5  1  0.87172057  0.61734717  0.81925183  1
  Al  Al6  1  0.87172057  0.88265283  0.31925183  1
  Al  Al7  1  0.12827943  0.38265283  0.18074817  1
  P  P8  1  0.21710046  0.54954689  0.98112471  1
  P  P9  1  0.78289954  0.04954689  0.51887529  1
  P  P10  1  0.78289954  0.45045311  0.01887529  1
  P  P11  1  0.21710046  0.95045311  0.48112471  1
  P  P12  1  0.29361571  0.28743929  0.54523337  1
  P  P13  1  0.70638429  0.78743929  0.95476663  1
  P  P14  1  0.70638429  0.71256071  0.45476663  1
  P  P15  1  0.29361571  0.21256071  0.04523337  1
  H  H16  1  0.30943787  0.74178082  0.58970402  1
  H  H17  1  0.69056213  0.24178082  0.91029598  1
  H  H18  1  0.69056213  0.25821918  0.41029598  1
  H  H19  1  0.30943787  0.75821918  0.08970402  1
  H  H20  1  0.33698763  0.64309879  0.72720798  1
  H  H21  1  0.66301237  0.14309879  0.77279202  1
  H  H22  1  0.66301237  0.35690121  0.27279202  1
  H  H23  1  0.33698763  0.85690121  0.22720798  1
  H  H24  1  0.37268955  0.64224492  0.40801549  1
  H  H25  1  0.62731045  0.14224492  0.09198451  1
  H  H26  1  0.62731045  0.35775508  0.59198451  1
  H  H27  1  0.37268955  0.85775508  0.90801549  1
  H  H28  1  0.05970819  0.68847448  0.56234416  1
  H  H29  1  0.94029181  0.18847448  0.93765584  1
  H  H30  1  0.94029181  0.31152552  0.43765584  1
  H  H31  1  0.05970819  0.81152552  0.06234416  1
  H  H32  1  0.32509414  0.52559278  0.48948804  1
  H  H33  1  0.67490586  0.02559278  0.01051196  1
  H  H34  1  0.67490586  0.47440722  0.51051196  1
  H  H35  1  0.32509414  0.97440722  0.98948804  1
  H  H36  1  0.09228822  0.63444157  0.38916394  1
  H  H37  1  0.90771178  0.13444157  0.11083606  1
  H  H38  1  0.90771178  0.36555843  0.61083606  1
  H  H39  1  0.09228822  0.86555843  0.88916394  1
  H  H40  1  0.49648361  0.59318575  0.60807491  1
  H  H41  1  0.50351639  0.09318575  0.89192509  1
  H  H42  1  0.50351639  0.40681425  0.39192509  1
  H  H43  1  0.49648361  0.90681425  0.10807491  1
  H  H44  1  0.11703544  0.55567770  0.56787171  1
  H  H45  1  0.88296456  0.05567770  0.93212829  1
  H  H46  1  0.88296456  0.44432230  0.43212829  1
  H  H47  1  0.11703544  0.94432230  0.06787171  1
  C  C48  1  0.12814175  0.63403822  0.52522966  1
  C  C49  1  0.87185825  0.13403822  0.97477034  1
  C  C50  1  0.87185825  0.36596178  0.47477034  1
  C  C51  1  0.12814175  0.86596178  0.02522966  1
  C  C52  1  0.37866711  0.60178863  0.52068102  1
  C  C53  1  0.62133289  0.10178863  0.97931898  1
  C  C54  1  0.62133289  0.39821137  0.47931898  1
  C  C55  1  0.37866711  0.89821137  0.02068102  1
  N  N56  1  0.29252146  0.66197146  0.60149113  1
  N  N57  1  0.70747854  0.16197146  0.89850887  1
  N  N58  1  0.70747854  0.33802854  0.39850887  1
  N  N59  1  0.29252146  0.83802854  0.10149113  1
  O  O60  1  0.38004413  0.35584146  0.69595999  1
  O  O61  1  0.61995587  0.85584146  0.80404001  1
  O  O62  1  0.61995587  0.64415854  0.30404001  1
  O  O63  1  0.38004413  0.14415854  0.19595999  1
  O  O64  1  0.40568423  0.21976421  0.50306376  1
  O  O65  1  0.59431577  0.71976421  0.99693624  1
  O  O66  1  0.59431577  0.78023579  0.49693624  1
  O  O67  1  0.40568423  0.28023579  0.00306376  1
  O  O68  1  0.17198737  0.22053964  0.57590313  1
  O  O69  1  0.82801263  0.72053964  0.92409687  1
  O  O70  1  0.82801263  0.77946036  0.42409687  1
  O  O71  1  0.17198737  0.27946036  0.07590313  1
  O  O72  1  0.24247093  0.46305032  0.87265187  1
  O  O73  1  0.75752907  0.96305032  0.62734813  1
  O  O74  1  0.75752907  0.53694968  0.12734813  1
  O  O75  1  0.24247093  0.03694968  0.37265187  1
  O  O76  1  0.34933692  0.62991663  0.03882807  1
  O  O77  1  0.65066308  0.12991663  0.46117193  1
  O  O78  1  0.65066308  0.37008337  0.96117193  1
  O  O79  1  0.34933692  0.87008337  0.53882807  1
  O  O80  1  0.07058846  0.61197048  0.87995872  1
  O  O81  1  0.92941154  0.11197048  0.62004128  1
  O  O82  1  0.92941154  0.38802952  0.12004128  1
  O  O83  1  0.07058846  0.88802952  0.37995872  1
  O  O84  1  0.19548208  0.50201428  0.13590470  1
  O  O85  1  0.80451792  0.00201428  0.36409530  1
  O  O86  1  0.80451792  0.49798572  0.86409530  1
  O  O87  1  0.19548208  0.99798572  0.63590470  1
  O  O88  1  0.20554546  0.36113369  0.39725507  1
  O  O89  1  0.79445454  0.86113369  0.10274493  1
  O  O90  1  0.79445454  0.63886631  0.60274493  1
  O  O91  1  0.20554546  0.13886631  0.89725507  1
  F  F92  1  0.49042147  0.53765231  0.86959195  1
  F  F93  1  0.50957853  0.03765231  0.63040805  1
  F  F94  1  0.50957853  0.46234769  0.13040805  1
  F  F95  1  0.49042147  0.96234769  0.36959195  1
