# generated using pymatgen
data_Li2W2O7
_symmetry_space_group_name_H-M   'P 1'
_cell_length_a   5.26180997
_cell_length_b   6.93329276
_cell_length_c   8.70574081
_cell_angle_alpha   70.15906248
_cell_angle_beta   76.32693830
_cell_angle_gamma   85.04621550
_symmetry_Int_Tables_number   1
_chemical_formula_structural   Li2W2O7
_chemical_formula_sum   'Li4 W4 O14'
_cell_volume   290.27385979
_cell_formula_units_Z   2
loop_
 _symmetry_equiv_pos_site_id
 _symmetry_equiv_pos_as_xyz
  1  'x, y, z'
loop_
 _atom_site_type_symbol
 _atom_site_label
 _atom_site_symmetry_multiplicity
 _atom_site_fract_x
 _atom_site_fract_y
 _atom_site_fract_z
 _atom_site_occupancy
  Li  Li0  1  0.86529873  0.55760505  0.75105583  1
  Li  Li1  1  0.59303125  0.22786229  0.35943298  1
  Li  Li2  1  0.13470127  0.44239495  0.24894417  1
  Li  Li3  1  0.40696875  0.77213771  0.64056702  1
  W  W4  1  0.30264380  0.03840040  0.16448656  1
  W  W5  1  0.20944193  0.24395113  0.68721337  1
  W  W6  1  0.79055807  0.75604887  0.31278663  1
  W  W7  1  0.69735620  0.96159960  0.83551344  1
  O  O8  1  0.85249488  0.25220055  0.79668837  1
  O  O9  1  0.14750512  0.74779945  0.20331163  1
  O  O10  1  0.72600488  0.50756799  0.30940389  1
  O  O11  1  0.27399512  0.49243201  0.69059611  1
  O  O12  1  0.05149785  0.92716356  0.74884053  1
  O  O13  1  0.94850215  0.07283644  0.25115947  1
  O  O14  1  0.80568138  0.70138552  0.52709827  1
  O  O15  1  0.66990510  0.90980527  0.07652651  1
  O  O16  1  0.44367538  0.90203195  0.36349397  1
  O  O17  1  0.40508783  0.28676400  0.14454124  1
  O  O18  1  0.55632462  0.09796805  0.63650603  1
  O  O19  1  0.33009490  0.09019473  0.92347349  1
  O  O20  1  0.19431862  0.29861448  0.47290173  1
  O  O21  1  0.59491217  0.71323600  0.85545876  1
