# generated using pymatgen
data_PH7N2O3
_symmetry_space_group_name_H-M   'P 1'
_cell_length_a   6.53480143
_cell_length_b   11.21165396
_cell_length_c   12.40883954
_cell_angle_alpha   90.00000000
_cell_angle_beta   93.05728322
_cell_angle_gamma   90.00000000
_symmetry_Int_Tables_number   1
_chemical_formula_structural   PH7N2O3
_chemical_formula_sum   'P8 H56 N16 O24'
_cell_volume   907.85122173
_cell_formula_units_Z   8
loop_
 _symmetry_equiv_pos_site_id
 _symmetry_equiv_pos_as_xyz
  1  'x, y, z'
loop_
 _atom_site_type_symbol
 _atom_site_label
 _atom_site_symmetry_multiplicity
 _atom_site_fract_x
 _atom_site_fract_y
 _atom_site_fract_z
 _atom_site_occupancy
  P  P0  1  0.24491934  0.64594467  0.04237465  1
  P  P1  1  0.74491934  0.85405533  0.54237465  1
  P  P2  1  0.75508066  0.35405533  0.95762535  1
  P  P3  1  0.25508066  0.14594467  0.45762535  1
  P  P4  1  0.01422504  0.54005732  0.84533666  1
  P  P5  1  0.51422504  0.95994268  0.34533666  1
  P  P6  1  0.98577496  0.45994268  0.15466334  1
  P  P7  1  0.48577496  0.04005732  0.65466334  1
  H  H8  1  0.32501739  0.48722361  0.93547877  1
  H  H9  1  0.82501739  0.01277639  0.43547877  1
  H  H10  1  0.67498261  0.51277639  0.06452123  1
  H  H11  1  0.17498261  0.98722361  0.56452123  1
  H  H12  1  0.04294265  0.66060387  0.18915363  1
  H  H13  1  0.54294265  0.83939613  0.68915363  1
  H  H14  1  0.95705735  0.33939613  0.81084637  1
  H  H15  1  0.45705735  0.16060387  0.31084637  1
  H  H16  1  0.93831435  0.94719639  0.84325685  1
  H  H17  1  0.43831435  0.55280361  0.34325685  1
  H  H18  1  0.06168565  0.05280361  0.15674315  1
  H  H19  1  0.56168565  0.44719639  0.65674315  1
  H  H20  1  0.18733704  0.94526007  0.80174356  1
  H  H21  1  0.68733704  0.55473993  0.30174356  1
  H  H22  1  0.81266296  0.05473993  0.19825644  1
  H  H23  1  0.31266296  0.44526007  0.69825644  1
  H  H24  1  0.08348020  0.82393588  0.86329383  1
  H  H25  1  0.58348020  0.67606412  0.36329383  1
  H  H26  1  0.91651980  0.17606412  0.13670617  1
  H  H27  1  0.41651980  0.32393588  0.63670617  1
  H  H28  1  0.00302592  0.86658350  0.73403394  1
  H  H29  1  0.50302592  0.63341650  0.23403394  1
  H  H30  1  0.99697408  0.13341650  0.26596606  1
  H  H31  1  0.49697408  0.36658350  0.76596606  1
  H  H32  1  0.64001753  0.74502508  0.05502239  1
  H  H33  1  0.14001753  0.75497492  0.55502239  1
  H  H34  1  0.35998247  0.25497492  0.94497761  1
  H  H35  1  0.85998247  0.24502508  0.44497761  1
  H  H36  1  0.71393826  0.88319359  0.00491538  1
  H  H37  1  0.21393826  0.61680641  0.50491538  1
  H  H38  1  0.28606174  0.11680641  0.99508462  1
  H  H39  1  0.78606174  0.38319359  0.49508462  1
  H  H40  1  0.89183686  0.77785407  0.03785079  1
  H  H41  1  0.39183686  0.72214593  0.53785079  1
  H  H42  1  0.10816314  0.22214593  0.96214921  1
  H  H43  1  0.60816314  0.27785407  0.46214921  1
  H  H44  1  0.76395001  0.84691292  0.13481690  1
  H  H45  1  0.26395001  0.65308708  0.63481690  1
  H  H46  1  0.23604999  0.15308708  0.86518310  1
  H  H47  1  0.73604999  0.34691292  0.36518310  1
  H  H48  1  0.13562403  0.82807505  0.30337117  1
  H  H49  1  0.63562403  0.67192495  0.80337117  1
  H  H50  1  0.86437597  0.17192495  0.69662883  1
  H  H51  1  0.36437597  0.32807505  0.19662883  1
  H  H52  1  0.89729933  0.84397412  0.30630925  1
  H  H53  1  0.39729933  0.65602588  0.80630925  1
  H  H54  1  0.10270067  0.15602588  0.69369075  1
  H  H55  1  0.60270067  0.34397412  0.19369075  1
  H  H56  1  0.90099842  0.51390258  0.63270812  1
  H  H57  1  0.40099842  0.98609742  0.13270812  1
  H  H58  1  0.09900158  0.48609742  0.36729188  1
  H  H59  1  0.59900158  0.01390258  0.86729188  1
  H  H60  1  0.74696331  0.58984628  0.55623888  1
  H  H61  1  0.24696331  0.91015372  0.05623888  1
  H  H62  1  0.25303669  0.41015372  0.44376112  1
  H  H63  1  0.75303669  0.08984628  0.94376112  1
  N  N64  1  0.21863910  0.55530940  0.93521845  1
  N  N65  1  0.71863910  0.94469060  0.43521845  1
  N  N66  1  0.78136090  0.44469060  0.06478155  1
  N  N67  1  0.28136090  0.05530940  0.56478155  1
  N  N68  1  0.08437720  0.59638051  0.13477750  1
  N  N69  1  0.58437720  0.90361949  0.63477750  1
  N  N70  1  0.91562280  0.40361949  0.86522250  1
  N  N71  1  0.41562280  0.09638051  0.36522250  1
  N  N72  1  0.05357643  0.89504601  0.81115909  1
  N  N73  1  0.55357643  0.60495399  0.31115909  1
  N  N74  1  0.94642357  0.10495399  0.18884091  1
  N  N75  1  0.44642357  0.39504601  0.68884091  1
  N  N76  1  0.75124143  0.81257149  0.05764301  1
  N  N77  1  0.25124143  0.68742851  0.55764301  1
  N  N78  1  0.24875857  0.18742851  0.94235699  1
  N  N79  1  0.74875857  0.31257149  0.44235699  1
  O  O80  1  0.46672467  0.63358773  0.08647304  1
  O  O81  1  0.96672467  0.86641227  0.58647304  1
  O  O82  1  0.53327533  0.36641227  0.91352696  1
  O  O83  1  0.03327533  0.13358773  0.41352696  1
  O  O84  1  0.17627999  0.77155595  0.01187039  1
  O  O85  1  0.67627999  0.72844405  0.51187039  1
  O  O86  1  0.82372001  0.22844405  0.98812961  1
  O  O87  1  0.32372001  0.27155595  0.48812961  1
  O  O88  1  0.10207138  0.53251653  0.73324736  1
  O  O89  1  0.60207138  0.96748347  0.23324736  1
  O  O90  1  0.89792862  0.46748347  0.26675264  1
  O  O91  1  0.39792862  0.03251653  0.76675264  1
  O  O92  1  0.86621716  0.63832385  0.86720607  1
  O  O93  1  0.36621716  0.86167615  0.36720607  1
  O  O94  1  0.13378284  0.36167615  0.13279393  1
  O  O95  1  0.63378284  0.13832385  0.63279393  1
  O  O96  1  0.00238555  0.80309529  0.26683691  1
  O  O97  1  0.50238555  0.69690471  0.76683691  1
  O  O98  1  0.99761445  0.19690471  0.73316309  1
  O  O99  1  0.49761445  0.30309529  0.23316309  1
  O  O100  1  0.77842649  0.50673263  0.58204013  1
  O  O101  1  0.27842649  0.99326737  0.08204013  1
  O  O102  1  0.22157351  0.49326737  0.41795987  1
  O  O103  1  0.72157351  0.00673263  0.91795987  1
