# generated using pymatgen
data_FeH8(ClO2)2
_symmetry_space_group_name_H-M   'P 1'
_cell_length_a   5.83177344
_cell_length_b   7.32491489
_cell_length_c   9.18445921
_cell_angle_alpha   90.00000000
_cell_angle_beta   114.79514153
_cell_angle_gamma   90.00000000
_symmetry_Int_Tables_number   1
_chemical_formula_structural   FeH8(ClO2)2
_chemical_formula_sum   'Fe2 H16 Cl4 O8'
_cell_volume   356.16663593
_cell_formula_units_Z   2
loop_
 _symmetry_equiv_pos_site_id
 _symmetry_equiv_pos_as_xyz
  1  'x, y, z'
loop_
 _atom_site_type_symbol
 _atom_site_label
 _atom_site_symmetry_multiplicity
 _atom_site_fract_x
 _atom_site_fract_y
 _atom_site_fract_z
 _atom_site_occupancy
  Fe  Fe0  1  0.00000000  0.50000000  0.50000000  1
  Fe  Fe1  1  0.00000000  0.00000000  0.00000000  1
  H  H2  1  0.08372730  0.49448089  0.84632048  1
  H  H3  1  0.91627270  0.99448089  0.65367952  1
  H  H4  1  0.91627270  0.50551911  0.15367952  1
  H  H5  1  0.08372730  0.00551911  0.34632048  1
  H  H6  1  0.89855703  0.81699647  0.73553776  1
  H  H7  1  0.10144297  0.31699647  0.76446224  1
  H  H8  1  0.10144297  0.18300353  0.26446224  1
  H  H9  1  0.89855703  0.68300353  0.23553776  1
  H  H10  1  0.59500737  0.29826124  0.48640808  1
  H  H11  1  0.40499263  0.79826124  0.01359192  1
  H  H12  1  0.40499263  0.70173876  0.51359192  1
  H  H13  1  0.59500737  0.20173876  0.98640808  1
  H  H14  1  0.60590888  0.27903707  0.31831964  1
  H  H15  1  0.39409112  0.77903707  0.18168036  1
  H  H16  1  0.39409112  0.72096293  0.68168036  1
  H  H17  1  0.60590888  0.22096293  0.81831964  1
  Cl  Cl18  1  0.32534663  0.24723774  0.57656113  1
  Cl  Cl19  1  0.67465337  0.74723774  0.92343887  1
  Cl  Cl20  1  0.67465337  0.75276226  0.42343887  1
  Cl  Cl21  1  0.32534663  0.25276226  0.07656113  1
  O  O22  1  0.02071364  0.43689905  0.74097412  1
  O  O23  1  0.97928636  0.93689905  0.75902588  1
  O  O24  1  0.97928636  0.56310095  0.25902588  1
  O  O25  1  0.02071364  0.06310095  0.24097412  1
  O  O26  1  0.71363551  0.29830745  0.43393479  1
  O  O27  1  0.28636449  0.79830745  0.06606521  1
  O  O28  1  0.28636449  0.70169255  0.56606521  1
  O  O29  1  0.71363551  0.20169255  0.93393479  1
