# generated using pymatgen
data_CaHgH16(BrO2)4
_symmetry_space_group_name_H-M   'P 1'
_cell_length_a   10.56805589
_cell_length_b   10.56805589
_cell_length_c   15.09041951
_cell_angle_alpha   90.00000000
_cell_angle_beta   90.00000000
_cell_angle_gamma   100.54939954
_symmetry_Int_Tables_number   1
_chemical_formula_structural   CaHgH16(BrO2)4
_chemical_formula_sum   'Ca4 Hg4 H64 Br16 O32'
_cell_volume   1656.86862203
_cell_formula_units_Z   4
loop_
 _symmetry_equiv_pos_site_id
 _symmetry_equiv_pos_as_xyz
  1  'x, y, z'
loop_
 _atom_site_type_symbol
 _atom_site_label
 _atom_site_symmetry_multiplicity
 _atom_site_fract_x
 _atom_site_fract_y
 _atom_site_fract_z
 _atom_site_occupancy
  Ca  Ca0  1  0.24900892  0.75099108  0.50000000  1
  Ca  Ca1  1  0.25099108  0.74900892  0.00000000  1
  Ca  Ca2  1  0.74900892  0.25099108  0.00000000  1
  Ca  Ca3  1  0.75099108  0.24900892  0.50000000  1
  Hg  Hg4  1  0.27700046  0.27700046  0.28078195  1
  Hg  Hg5  1  0.72299954  0.72299954  0.71921805  1
  Hg  Hg6  1  0.22299954  0.22299954  0.78078195  1
  Hg  Hg7  1  0.77700046  0.77700046  0.21921805  1
  H  H8  1  0.09101459  0.93153174  0.39188962  1
  H  H9  1  0.06846826  0.90898541  0.60811038  1
  H  H10  1  0.02261957  0.79368874  0.36492784  1
  H  H11  1  0.20631126  0.97738043  0.63507216  1
  H  H12  1  0.22617582  0.87706445  0.17938825  1
  H  H13  1  0.12293555  0.77382418  0.82061175  1
  H  H14  1  0.12277316  0.75436018  0.18678484  1
  H  H15  1  0.24563982  0.87722684  0.81321516  1
  H  H16  1  0.02781676  0.38750310  0.48918089  1
  H  H17  1  0.11249690  0.47218324  0.98918089  1
  H  H18  1  0.61249690  0.97218324  0.51081911  1
  H  H19  1  0.52781676  0.88750310  0.01081911  1
  H  H20  1  0.14928189  0.50513828  0.89255213  1
  H  H21  1  0.64928189  0.00513828  0.60744787  1
  H  H22  1  0.99486172  0.35071811  0.39255213  1
  H  H23  1  0.49486172  0.85071811  0.10744787  1
  H  H24  1  0.37722684  0.74563982  0.68678484  1
  H  H25  1  0.25436018  0.62277316  0.31321516  1
  H  H26  1  0.37706445  0.72617582  0.32061175  1
  H  H27  1  0.27382418  0.62293555  0.67938825  1
  H  H28  1  0.79780516  0.95272360  0.04054270  1
  H  H29  1  0.53952521  0.75834440  0.44538964  1
  H  H30  1  0.54727640  0.70219484  0.54054270  1
  H  H31  1  0.03952521  0.25834440  0.05460936  1
  H  H32  1  0.74165560  0.96047479  0.94539064  1
  H  H33  1  0.29780516  0.45272360  0.45945730  1
  H  H34  1  0.24165560  0.46047479  0.55460936  1
  H  H35  1  0.04727640  0.20219484  0.95945730  1
  H  H36  1  0.29368874  0.52261957  0.13507216  1
  H  H37  1  0.47738043  0.70631126  0.86492784  1
  H  H38  1  0.43153174  0.59101459  0.10811038  1
  H  H39  1  0.40898541  0.56846826  0.89188962  1
  H  H40  1  0.59101459  0.43153174  0.10811038  1
  H  H41  1  0.56846826  0.40898541  0.89188962  1
  H  H42  1  0.52261957  0.29368874  0.13507216  1
  H  H43  1  0.70631126  0.47738043  0.86492784  1
  H  H44  1  0.75834440  0.53952521  0.44538964  1
  H  H45  1  0.25834440  0.03952521  0.05460936  1
  H  H46  1  0.70219484  0.54727640  0.54054270  1
  H  H47  1  0.95272360  0.79780516  0.04054270  1
  H  H48  1  0.45272360  0.29780516  0.45945730  1
  H  H49  1  0.46047479  0.24165560  0.55460936  1
  H  H50  1  0.20219484  0.04727640  0.95945730  1
  H  H51  1  0.96047479  0.74165560  0.94539064  1
  H  H52  1  0.62293555  0.27382418  0.67938825  1
  H  H53  1  0.72617582  0.37706445  0.32061175  1
  H  H54  1  0.74563982  0.37722684  0.68678484  1
  H  H55  1  0.62277316  0.25436018  0.31321516  1
  H  H56  1  0.35071811  0.99486172  0.39255213  1
  H  H57  1  0.85071811  0.49486172  0.10744787  1
  H  H58  1  0.00513828  0.64928189  0.60744787  1
  H  H59  1  0.50513828  0.14928189  0.89255213  1
  H  H60  1  0.38750310  0.02781676  0.48918089  1
  H  H61  1  0.47218324  0.11249690  0.98918089  1
  H  H62  1  0.88750310  0.52781676  0.01081911  1
  H  H63  1  0.97218324  0.61249690  0.51081911  1
  H  H64  1  0.75436018  0.12277316  0.18678484  1
  H  H65  1  0.87722684  0.24563982  0.81321516  1
  H  H66  1  0.87706445  0.22617582  0.17938825  1
  H  H67  1  0.77382418  0.12293555  0.82061175  1
  H  H68  1  0.79368874  0.02261957  0.36492784  1
  H  H69  1  0.97738043  0.20631126  0.63507216  1
  H  H70  1  0.93153174  0.09101459  0.39188962  1
  H  H71  1  0.90898541  0.06846826  0.60811038  1
  Br  Br72  1  0.59563500  0.87826543  0.30240983  1
  Br  Br73  1  0.09563500  0.37826543  0.19759017  1
  Br  Br74  1  0.62173457  0.90436500  0.80240983  1
  Br  Br75  1  0.12173457  0.40436500  0.69759017  1
  Br  Br76  1  0.68746123  0.68746123  0.06384932  1
  Br  Br77  1  0.47488463  0.47488463  0.28996955  1
  Br  Br78  1  0.02511537  0.02511537  0.78996955  1
  Br  Br79  1  0.18746123  0.18746123  0.43615068  1
  Br  Br80  1  0.52511537  0.52511537  0.71003045  1
  Br  Br81  1  0.97488463  0.97488463  0.21003045  1
  Br  Br82  1  0.81253877  0.81253877  0.56384932  1
  Br  Br83  1  0.31253877  0.31253877  0.93615068  1
  Br  Br84  1  0.37826543  0.09563500  0.19759017  1
  Br  Br85  1  0.40436500  0.12173457  0.69759017  1
  Br  Br86  1  0.87826543  0.59563500  0.30240983  1
  Br  Br87  1  0.90436500  0.62173457  0.80240983  1
  O  O88  1  0.00972661  0.76116930  0.00035072  1
  O  O89  1  0.23883070  0.99027339  0.99964928  1
  O  O90  1  0.07907072  0.84092768  0.40987277  1
  O  O91  1  0.15907232  0.92092928  0.59012723  1
  O  O92  1  0.20270143  0.78943204  0.15593391  1
  O  O93  1  0.21056796  0.79729857  0.84406609  1
  O  O94  1  0.37435295  0.95669215  0.44736185  1
  O  O95  1  0.04330785  0.62564705  0.55263815  1
  O  O96  1  0.45669215  0.87435295  0.05263815  1
  O  O97  1  0.12564705  0.54330785  0.94736185  1
  O  O98  1  0.29729857  0.71056796  0.65593391  1
  O  O99  1  0.28943204  0.70270143  0.34406609  1
  O  O100  1  0.42092928  0.65907232  0.90987277  1
  O  O101  1  0.34092768  0.57907072  0.09012723  1
  O  O102  1  0.49027339  0.73883070  0.50035072  1
  O  O103  1  0.26116930  0.50972661  0.49964928  1
  O  O104  1  0.50972661  0.26116930  0.49964928  1
  O  O105  1  0.73883070  0.49027339  0.50035072  1
  O  O106  1  0.57907072  0.34092768  0.09012723  1
  O  O107  1  0.65907232  0.42092928  0.90987277  1
  O  O108  1  0.71056796  0.29729857  0.65593391  1
  O  O109  1  0.70270143  0.28943204  0.34406609  1
  O  O110  1  0.87435295  0.45669215  0.05263815  1
  O  O111  1  0.54330785  0.12564705  0.94736185  1
  O  O112  1  0.62564705  0.04330785  0.55263815  1
  O  O113  1  0.95669215  0.37435295  0.44736185  1
  O  O114  1  0.78943204  0.20270143  0.15593391  1
  O  O115  1  0.79729857  0.21056796  0.84406609  1
  O  O116  1  0.84092768  0.07907072  0.40987277  1
  O  O117  1  0.92092928  0.15907232  0.59012723  1
  O  O118  1  0.99027339  0.23883070  0.99964928  1
  O  O119  1  0.76116930  0.00972661  0.00035072  1
