# generated using pymatgen
data_NiH8(ClO2)2
_symmetry_space_group_name_H-M   'P 1'
_cell_length_a   13.45027148
_cell_length_b   9.45117234
_cell_length_c   6.09967719
_cell_angle_alpha   90.00000000
_cell_angle_beta   126.95955129
_cell_angle_gamma   90.00000000
_symmetry_Int_Tables_number   1
_chemical_formula_structural   NiH8(ClO2)2
_chemical_formula_sum   'Ni4 H32 Cl8 O16'
_cell_volume   619.58810028
_cell_formula_units_Z   4
loop_
 _symmetry_equiv_pos_site_id
 _symmetry_equiv_pos_as_xyz
  1  'x, y, z'
loop_
 _atom_site_type_symbol
 _atom_site_label
 _atom_site_symmetry_multiplicity
 _atom_site_fract_x
 _atom_site_fract_y
 _atom_site_fract_z
 _atom_site_occupancy
  Ni  Ni0  1  0.26277357  0.32821232  0.76682230  1
  Ni  Ni1  1  0.23722643  0.82821232  0.23317770  1
  Ni  Ni2  1  0.73722643  0.67178768  0.23317770  1
  Ni  Ni3  1  0.76277357  0.17178768  0.76682230  1
  H  H4  1  0.42587900  0.29377402  0.30461590  1
  H  H5  1  0.07412100  0.79377402  0.69538410  1
  H  H6  1  0.57412100  0.70622598  0.69538410  1
  H  H7  1  0.92587900  0.20622598  0.30461590  1
  H  H8  1  0.29560502  0.32063921  0.24470471  1
  H  H9  1  0.20439498  0.82063921  0.75529529  1
  H  H10  1  0.70439498  0.67936079  0.75529529  1
  H  H11  1  0.79560502  0.17936079  0.24470471  1
  H  H12  1  0.11083533  0.34941000  0.23113882  1
  H  H13  1  0.38916467  0.84941000  0.76886118  1
  H  H14  1  0.88916467  0.65059000  0.76886118  1
  H  H15  1  0.61083533  0.15059000  0.23113882  1
  H  H16  1  0.18278670  0.49175660  0.33029868  1
  H  H17  1  0.31721330  0.99175660  0.66970132  1
  H  H18  1  0.81721330  0.50824340  0.66970132  1
  H  H19  1  0.68278670  0.00824340  0.33029868  1
  H  H20  1  0.31376157  0.59260563  0.81343946  1
  H  H21  1  0.18623843  0.09260563  0.18656054  1
  H  H22  1  0.68623843  0.40739437  0.18656054  1
  H  H23  1  0.81376157  0.90739437  0.81343946  1
  H  H24  1  0.41413144  0.52109164  0.80622165  1
  H  H25  1  0.08586856  0.02109164  0.19377835  1
  H  H26  1  0.58586856  0.47890836  0.19377835  1
  H  H27  1  0.91413144  0.97890836  0.80622165  1
  H  H28  1  0.06667566  0.42197153  0.74724320  1
  H  H29  1  0.43332434  0.92197153  0.25275680  1
  H  H30  1  0.93332434  0.57802847  0.25275680  1
  H  H31  1  0.56667566  0.07802847  0.74724320  1
  H  H32  1  0.14838045  0.56030776  0.81217402  1
  H  H33  1  0.35161955  0.06030776  0.18782598  1
  H  H34  1  0.85161955  0.43969224  0.18782598  1
  H  H35  1  0.64838045  0.93969224  0.81217402  1
  Cl  Cl36  1  0.11256493  0.14522374  0.56237260  1
  Cl  Cl37  1  0.38743507  0.64522374  0.43762740  1
  Cl  Cl38  1  0.88743507  0.85477626  0.43762740  1
  Cl  Cl39  1  0.61256493  0.35477626  0.56237260  1
  Cl  Cl40  1  0.42615153  0.18607247  0.82363008  1
  Cl  Cl41  1  0.07384847  0.68607247  0.17636992  1
  Cl  Cl42  1  0.57384847  0.81392753  0.17636992  1
  Cl  Cl43  1  0.92615153  0.31392753  0.82363008  1
  O  O44  1  0.33538722  0.26905216  0.17462623  1
  O  O45  1  0.16461278  0.76905216  0.82537377  1
  O  O46  1  0.66461278  0.73094784  0.82537377  1
  O  O47  1  0.83538722  0.23094784  0.17462623  1
  O  O48  1  0.19626416  0.38794033  0.35962548  1
  O  O49  1  0.30373584  0.88794033  0.64037452  1
  O  O50  1  0.80373584  0.61205967  0.64037452  1
  O  O51  1  0.69626416  0.11205967  0.35962548  1
  O  O52  1  0.36980129  0.51197670  0.88919775  1
  O  O53  1  0.13019871  0.01197670  0.11080225  1
  O  O54  1  0.63019871  0.48802330  0.11080225  1
  O  O55  1  0.86980129  0.98802330  0.88919775  1
  O  O56  1  0.13359157  0.46168393  0.74644796  1
  O  O57  1  0.36640843  0.96168393  0.25355204  1
  O  O58  1  0.86640843  0.53831607  0.25355204  1
  O  O59  1  0.63359157  0.03831607  0.74644796  1
