# generated using pymatgen
data_MoH6NO3F2
_symmetry_space_group_name_H-M   'P 1'
_cell_length_a   8.59078864
_cell_length_b   8.59078864
_cell_length_c   7.99098595
_cell_angle_alpha   77.39712264
_cell_angle_beta   102.60287736
_cell_angle_gamma   66.81489988
_symmetry_Int_Tables_number   1
_chemical_formula_structural   MoH6NO3F2
_chemical_formula_sum   'Mo4 H24 N4 O12 F8'
_cell_volume   497.73316026
_cell_formula_units_Z   4
loop_
 _symmetry_equiv_pos_site_id
 _symmetry_equiv_pos_as_xyz
  1  'x, y, z'
loop_
 _atom_site_type_symbol
 _atom_site_label
 _atom_site_symmetry_multiplicity
 _atom_site_fract_x
 _atom_site_fract_y
 _atom_site_fract_z
 _atom_site_occupancy
  Mo  Mo0  1  0.98942588  0.72404821  0.73680475  1
  Mo  Mo1  1  0.72404821  0.98942588  0.76319525  1
  Mo  Mo2  1  0.01057412  0.27595179  0.26319525  1
  Mo  Mo3  1  0.27595179  0.01057412  0.23680475  1
  H  H4  1  0.62897427  0.53299545  0.86615420  1
  H  H5  1  0.53299545  0.62897427  0.63384580  1
  H  H6  1  0.37102573  0.46700455  0.13384580  1
  H  H7  1  0.46700455  0.37102573  0.36615420  1
  H  H8  1  0.58443295  0.41302270  0.73856906  1
  H  H9  1  0.41302270  0.58443295  0.76143094  1
  H  H10  1  0.41556705  0.58697730  0.26143094  1
  H  H11  1  0.58697730  0.41556705  0.23856906  1
  H  H12  1  0.12018963  0.29545999  0.66111826  1
  H  H13  1  0.29545999  0.12018963  0.83888174  1
  H  H14  1  0.87981037  0.70454001  0.33888174  1
  H  H15  1  0.70454001  0.87981037  0.16111826  1
  H  H16  1  0.87039226  0.24072590  0.65740383  1
  H  H17  1  0.24072590  0.87039226  0.84259617  1
  H  H18  1  0.12960774  0.75927410  0.34259617  1
  H  H19  1  0.75927410  0.12960774  0.15740383  1
  H  H20  1  0.92207031  0.19150192  0.87762215  1
  H  H21  1  0.19150192  0.92207031  0.62237785  1
  H  H22  1  0.07792969  0.80849808  0.12237785  1
  H  H23  1  0.80849808  0.07792969  0.37762215  1
  H  H24  1  0.24884701  0.33416055  0.82487536  1
  H  H25  1  0.33416055  0.24884701  0.67512464  1
  H  H26  1  0.75115299  0.66583945  0.17512464  1
  H  H27  1  0.66583945  0.75115299  0.32487536  1
  N  N28  1  0.53952667  0.53952667  0.75000000  1
  N  N29  1  0.46047333  0.46047333  0.25000000  1
  N  N30  1  0.24911648  0.24911648  0.75000000  1
  N  N31  1  0.75088352  0.75088352  0.25000000  1
  O  O32  1  0.89483590  0.58194170  0.73271556  1
  O  O33  1  0.58194170  0.89483590  0.76728444  1
  O  O34  1  0.10516410  0.41805830  0.26728444  1
  O  O35  1  0.41805830  0.10516410  0.23271556  1
  O  O36  1  0.95882886  0.80487302  0.94557193  1
  O  O37  1  0.80487302  0.95882886  0.55442807  1
  O  O38  1  0.04117114  0.19512698  0.05442807  1
  O  O39  1  0.19512698  0.04117114  0.44557193  1
  O  O40  1  0.19148257  0.84164883  0.73609577  1
  O  O41  1  0.84164883  0.19148257  0.76390423  1
  O  O42  1  0.80851743  0.15835117  0.26390423  1
  O  O43  1  0.15835117  0.80851743  0.23609577  1
  F  F44  1  0.08139852  0.67110784  0.52490014  1
  F  F45  1  0.67110784  0.08139852  0.97509986  1
  F  F46  1  0.91860148  0.32889216  0.47509986  1
  F  F47  1  0.32889216  0.91860148  0.02490014  1
  F  F48  1  0.24065042  0.51426505  0.90791626  1
  F  F49  1  0.51426505  0.24065042  0.59208374  1
  F  F50  1  0.75934958  0.48573495  0.09208374  1
  F  F51  1  0.48573495  0.75934958  0.40791626  1
