# generated using pymatgen
data_Mn2CuO4
_symmetry_space_group_name_H-M   'P 1'
_cell_length_a   6.05905111
_cell_length_b   6.05905140
_cell_length_c   18.13023619
_cell_angle_alpha   59.91436021
_cell_angle_beta   59.91435859
_cell_angle_gamma   59.99999645
_symmetry_Int_Tables_number   1
_chemical_formula_structural   Mn2CuO4
_chemical_formula_sum   'Mn12 Cu6 O24'
_cell_volume   470.03945560
_cell_formula_units_Z   6
loop_
 _symmetry_equiv_pos_site_id
 _symmetry_equiv_pos_as_xyz
  1  'x, y, z'
loop_
 _atom_site_type_symbol
 _atom_site_label
 _atom_site_symmetry_multiplicity
 _atom_site_fract_x
 _atom_site_fract_y
 _atom_site_fract_z
 _atom_site_occupancy
  Mn  Mn0  1  0.00229430  0.00229430  0.99770570  1
  Mn  Mn1  1  0.12698253  0.62390099  0.20840483  1
  Mn  Mn2  1  0.62390099  0.12698253  0.20840483  1
  Mn  Mn3  1  0.00279848  0.00279848  0.33053452  1
  Mn  Mn4  1  0.62390099  0.62390099  0.20840483  1
  Mn  Mn5  1  0.12716963  0.62326772  0.54209864  1
  Mn  Mn6  1  0.62326772  0.12716963  0.54209864  1
  Mn  Mn7  1  0.62326772  0.62326772  0.54209864  1
  Mn  Mn8  1  0.12562197  0.62643457  0.87383630  1
  Mn  Mn9  1  0.62643457  0.12562197  0.87383630  1
  Mn  Mn10  1  0.62602113  0.62602113  0.70731187  1
  Mn  Mn11  1  0.62643457  0.62643457  0.87383630  1
  Cu  Cu12  1  0.24881784  0.24881784  0.08451516  1
  Cu  Cu13  1  0.24704960  0.24704960  0.41961740  1
  Cu  Cu14  1  0.62476779  0.62476779  0.04189921  1
  Cu  Cu15  1  0.24976081  0.24976081  0.75023919  1
  Cu  Cu16  1  0.62367910  0.62367910  0.37632090  1
  Cu  Cu17  1  0.00025863  0.00025863  0.66640837  1
  O  O18  1  0.38050100  0.38050100  0.13402144  1
  O  O19  1  0.38050100  0.83693369  0.13402144  1
  O  O20  1  0.38070759  0.38070759  0.28595941  1
  O  O21  1  0.37960641  0.37960641  0.46759245  1
  O  O22  1  0.41575118  0.86769834  0.28295105  1
  O  O23  1  0.83693369  0.38050100  0.13402144  1
  O  O24  1  0.86600957  0.86600957  0.13399043  1
  O  O25  1  0.37960641  0.83800883  0.46759245  1
  O  O26  1  0.86769834  0.41575118  0.28295105  1
  O  O27  1  0.38319450  0.38319450  0.61680550  1
  O  O28  1  0.38596540  0.38596540  0.79685078  1
  O  O29  1  0.41153351  0.86462183  0.61974094  1
  O  O30  1  0.86769834  0.86769834  0.28295105  1
  O  O31  1  0.83800883  0.37960641  0.46759245  1
  O  O32  1  0.86388360  0.86388360  0.46944940  1
  O  O33  1  0.38596540  0.83751785  0.79685078  1
  O  O34  1  0.86462183  0.41153351  0.61974094  1
  O  O35  1  0.38293720  0.38293720  0.95039580  1
  O  O36  1  0.83751785  0.38596540  0.79685078  1
  O  O37  1  0.86462183  0.86462183  0.61974094  1
  O  O38  1  0.41562400  0.87020213  0.94799025  1
  O  O39  1  0.86827988  0.86827988  0.79838712  1
  O  O40  1  0.87020213  0.41562400  0.94799025  1
  O  O41  1  0.87020213  0.87020213  0.94799025  1
