# generated using pymatgen
data_Li3BiS3
_symmetry_space_group_name_H-M   'P 1'
_cell_length_a   6.87586901
_cell_length_b   6.87593065
_cell_length_c   6.87591158
_cell_angle_alpha   105.21961669
_cell_angle_beta   105.22033252
_cell_angle_gamma   105.21928658
_symmetry_Int_Tables_number   1
_chemical_formula_structural   Li3BiS3
_chemical_formula_sum   'Li6 Bi2 S6'
_cell_volume   282.84933711
_cell_formula_units_Z   2
loop_
 _symmetry_equiv_pos_site_id
 _symmetry_equiv_pos_as_xyz
  1  'x, y, z'
loop_
 _atom_site_type_symbol
 _atom_site_label
 _atom_site_symmetry_multiplicity
 _atom_site_fract_x
 _atom_site_fract_y
 _atom_site_fract_z
 _atom_site_occupancy
  Li  Li0  1  0.30375824  0.90163779  0.52540443  1
  Li  Li1  1  0.40164330  0.80375912  0.02538616  1
  Li  Li2  1  0.80376336  0.02537779  0.40165232  1
  Li  Li3  1  0.52540668  0.30377813  0.90166144  1
  Li  Li4  1  0.90166006  0.52539198  0.30377017  1
  Li  Li5  1  0.02540306  0.40168515  0.80376536  1
  Bi  Bi6  1  0.48490699  0.48486209  0.48489996  1
  Bi  Bi7  1  0.98489349  0.98493563  0.98490444  1
  S  S8  1  0.07389263  0.71951629  0.70686041  1
  S  S9  1  0.21948577  0.57386155  0.20685654  1
  S  S10  1  0.20684597  0.21947465  0.57389316  1
  S  S11  1  0.71947846  0.70685360  0.07386867  1
  S  S12  1  0.57389030  0.20682813  0.21946640  1
  S  S13  1  0.70685068  0.07391709  0.71949155  1
