# generated using pymatgen
data_GaH36C12S6(IO2)3
_symmetry_space_group_name_H-M   'P 1'
_cell_length_a   10.31288933
_cell_length_b   10.31288933
_cell_length_c   10.31288933
_cell_angle_alpha   65.03761248
_cell_angle_beta   65.03761250
_cell_angle_gamma   65.03761254
_symmetry_Int_Tables_number   1
_chemical_formula_structural   GaH36C12S6(IO2)3
_chemical_formula_sum   'Ga1 H36 C12 S6 I3 O6'
_cell_volume   860.86964224
_cell_formula_units_Z   1
loop_
 _symmetry_equiv_pos_site_id
 _symmetry_equiv_pos_as_xyz
  1  'x, y, z'
loop_
 _atom_site_type_symbol
 _atom_site_label
 _atom_site_symmetry_multiplicity
 _atom_site_fract_x
 _atom_site_fract_y
 _atom_site_fract_z
 _atom_site_occupancy
  H  H0  1  0.22653852  0.55552344  0.75667922  1
  H  H1  1  0.55552344  0.75667922  0.22653852  1
  H  H2  1  0.75667922  0.22653852  0.55552344  1
  H  H3  1  0.77346148  0.44447656  0.24332078  1
  H  H4  1  0.44447656  0.24332078  0.77346148  1
  H  H5  1  0.24332078  0.77346148  0.44447656  1
  H  H6  1  0.03157034  0.65026683  0.83114290  1
  H  H7  1  0.65026683  0.83114290  0.03157034  1
  H  H8  1  0.83114290  0.03157034  0.65026683  1
  H  H9  1  0.96842966  0.34973317  0.16885710  1
  H  H10  1  0.34973317  0.16885710  0.96842966  1
  H  H11  1  0.16885710  0.96842966  0.34973317  1
  H  H12  1  0.14159803  0.51266378  0.95825017  1
  H  H13  1  0.51266378  0.95825017  0.14159803  1
  H  H14  1  0.95825017  0.14159803  0.51266378  1
  H  H15  1  0.29273809  0.10118855  0.58564568  1
  H  H16  1  0.85840197  0.48733622  0.04174983  1
  H  H17  1  0.04174983  0.85840197  0.48733622  1
  H  H18  1  0.41435432  0.70726191  0.89881145  1
  H  H19  1  0.70726191  0.89881145  0.41435432  1
  H  H20  1  0.89881145  0.41435432  0.70726191  1
  H  H21  1  0.58564568  0.29273809  0.10118855  1
  H  H22  1  0.00174593  0.65623064  0.45532546  1
  H  H23  1  0.45532546  0.00174593  0.65623064  1
  H  H24  1  0.65623064  0.45532546  0.00174593  1
  H  H25  1  0.99825407  0.34376936  0.54467454  1
  H  H26  1  0.54467454  0.99825407  0.34376936  1
  H  H27  1  0.34376936  0.54467454  0.99825407  1
  H  H28  1  0.20036344  0.55642170  0.41464219  1
  H  H29  1  0.41464219  0.20036344  0.55642170  1
  H  H30  1  0.55642170  0.41464219  0.20036344  1
  H  H31  1  0.79963656  0.44357830  0.58535781  1
  H  H32  1  0.58535781  0.79963656  0.44357830  1
  H  H33  1  0.44357830  0.58535781  0.79963656  1
  H  H34  1  0.10118855  0.58564568  0.29273809  1
  H  H35  1  0.48733622  0.04174983  0.85840197  1
  C  C36  1  0.36732924  0.63336161  0.89221668  1
  C  C37  1  0.63336161  0.89221668  0.36732924  1
  C  C38  1  0.89221668  0.36732924  0.63336161  1
  C  C39  1  0.63267076  0.36663839  0.10778332  1
  C  C40  1  0.15018930  0.85761572  0.40019951  1
  C  C41  1  0.40019951  0.15018930  0.85761572  1
  C  C42  1  0.85761572  0.40019951  0.15018930  1
  C  C43  1  0.84981070  0.14238428  0.59980049  1
  C  C44  1  0.10778332  0.63267076  0.36663839  1
  C  C45  1  0.14238428  0.59980049  0.84981070  1
  C  C46  1  0.36663839  0.10778332  0.63267076  1
  C  C47  1  0.59980049  0.84981070  0.14238428  1
  O  O48  1  0.08383398  0.78912487  0.98956158  1
  O  O49  1  0.78912487  0.98956158  0.08383398  1
  O  O50  1  0.01043842  0.91616602  0.21087513  1
  O  O51  1  0.91616602  0.21087513  0.01043842  1
  O  O52  1  0.21087513  0.01043842  0.91616602  1
  O  O53  1  0.98956158  0.08383398  0.78912487  1
  S  S54  1  0.19653008  0.74527641  0.84516134  1
  S  S55  1  0.74527641  0.84516134  0.19653008  1
  S  S56  1  0.84516134  0.19653008  0.74527641  1
  S  S57  1  0.80346992  0.25472359  0.15483866  1
  S  S58  1  0.25472359  0.15483866  0.80346992  1
  S  S59  1  0.15483866  0.80346992  0.25472359  1
  Ga  Ga60  1  0.00000000  0.00000000  0.00000000  1
  I  I61  1  0.50000000  0.50000000  0.50000000  1
  I  I62  1  0.24835250  0.24835250  0.24835250  1
  I  I63  1  0.75164750  0.75164750  0.75164750  1
