# generated using pymatgen
data_LiAgF3
_symmetry_space_group_name_H-M   'P 1'
_cell_length_a   6.79788520
_cell_length_b   6.79788546
_cell_length_c   6.06056389
_cell_angle_alpha   87.76999778
_cell_angle_beta   92.23000320
_cell_angle_gamma   92.94615318
_symmetry_Int_Tables_number   1
_chemical_formula_structural   LiAgF3
_chemical_formula_sum   'Li4 Ag4 F12'
_cell_volume   279.29296478
_cell_formula_units_Z   4
loop_
 _symmetry_equiv_pos_site_id
 _symmetry_equiv_pos_as_xyz
  1  'x, y, z'
loop_
 _atom_site_type_symbol
 _atom_site_label
 _atom_site_symmetry_multiplicity
 _atom_site_fract_x
 _atom_site_fract_y
 _atom_site_fract_z
 _atom_site_occupancy
  Li  Li0  1  0.09773049  0.72860366  0.30543788  1
  Li  Li1  1  0.27139634  0.90226951  0.80543788  1
  Li  Li2  1  0.72860366  0.09773049  0.19456212  1
  Li  Li3  1  0.90226951  0.27139634  0.69456212  1
  Ag  Ag4  1  0.21018601  0.21018601  0.25000000  1
  Ag  Ag5  1  0.40934895  0.40934895  0.75000000  1
  Ag  Ag6  1  0.59065105  0.59065105  0.25000000  1
  Ag  Ag7  1  0.78981399  0.78981399  0.75000000  1
  F  F8  1  0.07475686  0.80196725  0.60473421  1
  F  F9  1  0.12786859  0.37770510  0.85687417  1
  F  F10  1  0.19803275  0.92524314  0.10473421  1
  F  F11  1  0.29408406  0.52366092  0.33571881  1
  F  F12  1  0.37770510  0.12786859  0.64312583  1
  F  F13  1  0.47633908  0.70591594  0.83571881  1
  F  F14  1  0.52366092  0.29408406  0.16428119  1
  F  F15  1  0.62229490  0.87213141  0.35687417  1
  F  F16  1  0.70591594  0.47633908  0.66428119  1
  F  F17  1  0.80196725  0.07475686  0.89526579  1
  F  F18  1  0.87213141  0.62229490  0.14312583  1
  F  F19  1  0.92524314  0.19803275  0.39526579  1
