# generated using pymatgen
data_Li2Cu3F8
_symmetry_space_group_name_H-M   'P 1'
_cell_length_a   6.05373348
_cell_length_b   5.82519787
_cell_length_c   6.28194348
_cell_angle_alpha   59.57874467
_cell_angle_beta   60.21945634
_cell_angle_gamma   60.92290551
_symmetry_Int_Tables_number   1
_chemical_formula_structural   Li2Cu3F8
_chemical_formula_sum   'Li2 Cu3 F8'
_cell_volume   157.45300423
_cell_formula_units_Z   1
loop_
 _symmetry_equiv_pos_site_id
 _symmetry_equiv_pos_as_xyz
  1  'x, y, z'
loop_
 _atom_site_type_symbol
 _atom_site_label
 _atom_site_symmetry_multiplicity
 _atom_site_fract_x
 _atom_site_fract_y
 _atom_site_fract_z
 _atom_site_occupancy
  Li  Li0  1  0.12728554  0.16217631  0.13484589  1
  Li  Li1  1  0.87271219  0.83782199  0.86515466  1
  Cu  Cu2  1  0.00000365  0.50000663  0.49999691  1
  Cu  Cu3  1  0.50000767  0.50000650  0.99998953  1
  Cu  Cu4  1  0.50000638  0.99999718  0.50000842  1
  F  F5  1  0.13881185  0.55723821  0.05829329  1
  F  F6  1  0.44297324  0.90777972  0.87103617  1
  F  F7  1  0.38155278  0.39147377  0.43836502  1
  F  F8  1  0.94999812  0.88274249  0.40506675  1
  F  F9  1  0.05000183  0.11725561  0.59493358  1
  F  F10  1  0.61845030  0.60851993  0.56163526  1
  F  F11  1  0.55702674  0.09221757  0.12895952  1
  F  F12  1  0.86117770  0.44276209  0.94170799  1
