# generated using pymatgen
data_LiAg2F6
_symmetry_space_group_name_H-M   'P 1'
_cell_length_a   5.47680255
_cell_length_b   5.47680255
_cell_length_c   4.81775358
_cell_angle_alpha   90.02952068
_cell_angle_beta   90.02952068
_cell_angle_gamma   59.94190260
_symmetry_Int_Tables_number   1
_chemical_formula_structural   LiAg2F6
_chemical_formula_sum   'Li1 Ag2 F6'
_cell_volume   125.07622371
_cell_formula_units_Z   1
loop_
 _symmetry_equiv_pos_site_id
 _symmetry_equiv_pos_as_xyz
  1  'x, y, z'
loop_
 _atom_site_type_symbol
 _atom_site_label
 _atom_site_symmetry_multiplicity
 _atom_site_fract_x
 _atom_site_fract_y
 _atom_site_fract_z
 _atom_site_occupancy
  Li  Li0  1  0.00045262  0.99954738  0.00000000  1
  Ag  Ag1  1  0.66657489  0.66648938  0.74304804  1
  Ag  Ag2  1  0.33351062  0.33342511  0.25695196  1
  F  F3  1  0.00025110  0.65679904  0.00017282  1
  F  F4  1  0.99976931  0.35433346  0.50001036  1
  F  F5  1  0.35326761  0.64673239  0.50000000  1
  F  F6  1  0.65720535  0.34279465  0.00000000  1
  F  F7  1  0.34320096  0.99974890  0.99982718  1
  F  F8  1  0.64566654  0.00023069  0.49998964  1
