# generated using pymatgen
data_Li2Cu2F7
_symmetry_space_group_name_H-M   'P 1'
_cell_length_a   8.70513165
_cell_length_b   6.44568967
_cell_length_c   5.33376561
_cell_angle_alpha   95.29685638
_cell_angle_beta   74.16912490
_cell_angle_gamma   107.57758409
_symmetry_Int_Tables_number   1
_chemical_formula_structural   Li2Cu2F7
_chemical_formula_sum   'Li4 Cu4 F14'
_cell_volume   274.46945773
_cell_formula_units_Z   2
loop_
 _symmetry_equiv_pos_site_id
 _symmetry_equiv_pos_as_xyz
  1  'x, y, z'
loop_
 _atom_site_type_symbol
 _atom_site_label
 _atom_site_symmetry_multiplicity
 _atom_site_fract_x
 _atom_site_fract_y
 _atom_site_fract_z
 _atom_site_occupancy
  Li  Li0  1  0.26630713  0.58876333  0.09315090  1
  Li  Li1  1  0.35851079  0.75912489  0.54491980  1
  Li  Li2  1  0.64148921  0.24087511  0.45508020  1
  Li  Li3  1  0.73369287  0.41123667  0.90684910  1
  Cu  Cu4  1  0.17085471  0.99310529  0.30376618  1
  Cu  Cu5  1  0.30366043  0.20999519  0.78756735  1
  Cu  Cu6  1  0.69633957  0.79000481  0.21243265  1
  Cu  Cu7  1  0.82914529  0.00689471  0.69623382  1
  F  F8  1  0.15977016  0.71921304  0.40372517  1
  F  F9  1  0.20075319  0.26785802  0.15237474  1
  F  F10  1  0.08807411  0.09174244  0.67376214  1
  F  F11  1  0.26130801  0.91495987  0.93451909  1
  F  F12  1  0.30249167  0.49863340  0.73531720  1
  F  F13  1  0.47084630  0.70092778  0.18243532  1
  F  F14  1  0.39461440  0.11128957  0.44528684  1
  F  F15  1  0.60538560  0.88871043  0.55471316  1
  F  F16  1  0.52915370  0.29907222  0.81756468  1
  F  F17  1  0.69750833  0.50136660  0.26468280  1
  F  F18  1  0.73869199  0.08504013  0.06548091  1
  F  F19  1  0.91192589  0.90825756  0.32623786  1
  F  F20  1  0.79924681  0.73214198  0.84762526  1
  F  F21  1  0.84022984  0.28078696  0.59627483  1
