# generated using pymatgen
data_Cs2BeO2
_symmetry_space_group_name_H-M   'P 1'
_cell_length_a   4.45354970
_cell_length_b   4.45354970
_cell_length_c   7.14923089
_cell_angle_alpha   71.85212943
_cell_angle_beta   71.85212943
_cell_angle_gamma   90.00000000
_symmetry_Int_Tables_number   1
_chemical_formula_structural   Cs2BeO2
_chemical_formula_sum   'Cs2 Be1 O2'
_cell_volume   127.30104943
_cell_formula_units_Z   1
loop_
 _symmetry_equiv_pos_site_id
 _symmetry_equiv_pos_as_xyz
  1  'x, y, z'
loop_
 _atom_site_type_symbol
 _atom_site_label
 _atom_site_symmetry_multiplicity
 _atom_site_fract_x
 _atom_site_fract_y
 _atom_site_fract_z
 _atom_site_occupancy
  Cs  Cs0  1  0.34621737  0.34621737  0.30756526  1
  Cs  Cs1  1  0.65378263  0.65378263  0.69243474  1
  Be  Be2  1  0.00000000  0.00000000  0.00000000  1
  O  O3  1  0.11243262  0.11243262  0.77513476  1
  O  O4  1  0.88756738  0.88756738  0.22486524  1
