# generated using pymatgen
data_H3CSO4F3
_symmetry_space_group_name_H-M   'P 1'
_cell_length_a   6.10785821
_cell_length_b   9.77451903
_cell_length_c   10.11395193
_cell_angle_alpha   90.00000000
_cell_angle_beta   90.00000000
_cell_angle_gamma   99.23863782
_symmetry_Int_Tables_number   1
_chemical_formula_structural   H3CSO4F3
_chemical_formula_sum   'H12 C4 S4 O16 F12'
_cell_volume   595.98427275
_cell_formula_units_Z   4
loop_
 _symmetry_equiv_pos_site_id
 _symmetry_equiv_pos_as_xyz
  1  'x, y, z'
loop_
 _atom_site_type_symbol
 _atom_site_label
 _atom_site_symmetry_multiplicity
 _atom_site_fract_x
 _atom_site_fract_y
 _atom_site_fract_z
 _atom_site_occupancy
  H  H0  1  0.46837753  0.31292001  0.91352866  1
  H  H1  1  0.53162247  0.18707999  0.41352866  1
  H  H2  1  0.53162247  0.68707999  0.08647134  1
  H  H3  1  0.46837753  0.81292001  0.58647134  1
  H  H4  1  0.40395599  0.72639881  0.94757991  1
  H  H5  1  0.59604401  0.77360119  0.44757991  1
  H  H6  1  0.50418739  0.14820284  0.93498656  1
  H  H7  1  0.40395599  0.22639881  0.55242009  1
  H  H8  1  0.49581261  0.85179716  0.06501344  1
  H  H9  1  0.50418739  0.64820284  0.56501344  1
  H  H10  1  0.59604401  0.27360119  0.05242009  1
  H  H11  1  0.49581261  0.35179716  0.43498656  1
  C  C12  1  0.99395302  0.49822307  0.73059947  1
  C  C13  1  0.99395302  0.99822307  0.76940053  1
  C  C14  1  0.00604698  0.50177693  0.26940053  1
  C  C15  1  0.00604698  0.00177693  0.23059947  1
  O  O16  1  0.59862072  -0.00109434  0.13978366  1
  O  O17  1  0.31902416  0.92338785  0.62929874  1
  O  O18  1  0.68097584  0.57661215  0.12929874  1
  O  O19  1  0.68097584  0.07661215  0.37070126  1
  O  O20  1  0.40137928  0.50109434  0.63978366  1
  O  O21  1  0.34804624  0.16953988  0.69038545  1
  O  O22  1  0.31902416  0.42338785  0.87070126  1
  O  O23  1  0.59862072  0.49890566  0.36021634  1
  O  O24  1  0.56505572  0.74878637  0.54548064  1
  O  O25  1  0.40137928  1.00109434  0.86021634  1
  O  O26  1  0.34804624  0.66953988  0.80961455  1
  O  O27  1  0.65195376  0.83046012  0.30961455  1
  O  O28  1  0.56505572  0.24878637  0.95451936  1
  O  O29  1  0.43494428  0.25121363  0.45451936  1
  O  O30  1  0.43494428  0.75121363  0.04548064  1
  O  O31  1  0.65195376  0.33046012  0.19038545  1
  F  F32  1  0.92224525  0.86673753  0.80930367  1
  F  F33  1  0.11995988  0.47567408  0.16008222  1
  F  F34  1  0.11995988  0.97567408  0.33991778  1
  F  F35  1  0.88004012  0.52432592  0.83991778  1
  F  F36  1  0.88004012  0.02432592  0.66008222  1
  F  F37  1  0.07775475  0.63326247  0.30930367  1
  F  F38  1  0.07775475  0.13326247  0.19069633  1
  F  F39  1  0.95409257  0.08609557  0.86657087  1
  F  F40  1  0.92224525  0.36673753  0.69069633  1
  F  F41  1  0.95409257  0.58609557  0.63342913  1
  F  F42  1  0.04590743  0.91390443  0.13342913  1
  F  F43  1  0.04590743  0.41390443  0.36657087  1
  S  S44  1  0.29833613  0.02411962  0.73282658  1
  S  S45  1  0.70166387  0.47588038  0.23282658  1
  S  S46  1  0.70166387  0.97588038  0.26717342  1
  S  S47  1  0.29833613  0.52411962  0.76717342  1
