# generated using pymatgen
data_Li5InO4
_symmetry_space_group_name_H-M   'P 1'
_cell_length_a   6.95739208
_cell_length_b   6.63432027
_cell_length_c   4.81504343
_cell_angle_alpha   90.00000000
_cell_angle_beta   90.00000000
_cell_angle_gamma   90.00000000
_symmetry_Int_Tables_number   1
_chemical_formula_structural   Li5InO4
_chemical_formula_sum   'Li10 In2 O8'
_cell_volume   222.25069119
_cell_formula_units_Z   2
loop_
 _symmetry_equiv_pos_site_id
 _symmetry_equiv_pos_as_xyz
  1  'x, y, z'
loop_
 _atom_site_type_symbol
 _atom_site_label
 _atom_site_symmetry_multiplicity
 _atom_site_fract_x
 _atom_site_fract_y
 _atom_site_fract_z
 _atom_site_occupancy
  Li  Li0  1  0.05631602  0.01204128  0.75074298  1
  Li  Li1  1  0.05631602  0.48795872  0.75074298  1
  Li  Li2  1  0.25000000  0.75000000  0.23423720  1
  Li  Li3  1  0.44368398  0.01204128  0.75074298  1
  Li  Li4  1  0.44368398  0.48795872  0.75074298  1
  Li  Li5  1  0.55631602  0.98795872  0.24925702  1
  Li  Li6  1  0.55631602  0.51204128  0.24925702  1
  Li  Li7  1  0.75000000  0.25000000  0.76576280  1
  Li  Li8  1  0.94368398  0.51204128  0.24925702  1
  Li  Li9  1  0.94368398  0.98795872  0.24925702  1
  In  In10  1  0.25000000  0.25000000  0.22832751  1
  In  In11  1  0.75000000  0.75000000  0.77167249  1
  O  O12  1  0.99799450  0.25000000  0.99139330  1
  O  O13  1  0.25000000  0.99174149  0.46440401  1
  O  O14  1  0.25000000  0.50825851  0.46440401  1
  O  O15  1  0.50200550  0.25000000  0.99139330  1
  O  O16  1  0.49799450  0.75000000  0.00860670  1
  O  O17  1  0.75000000  0.00825851  0.53559599  1
  O  O18  1  0.75000000  0.49174149  0.53559599  1
  O  O19  1  0.00200550  0.75000000  0.00860670  1
