# generated using pymatgen
data_TmGaO3
_symmetry_space_group_name_H-M   'P 1'
_cell_length_a   5.24091250
_cell_length_b   5.57066050
_cell_length_c   7.59972529
_cell_angle_alpha   90.00000000
_cell_angle_beta   90.00000000
_cell_angle_gamma   90.00000000
_symmetry_Int_Tables_number   1
_chemical_formula_structural   TmGaO3
_chemical_formula_sum   'Tm4 Ga4 O12'
_cell_volume   221.87659603
_cell_formula_units_Z   4
loop_
 _symmetry_equiv_pos_site_id
 _symmetry_equiv_pos_as_xyz
  1  'x, y, z'
loop_
 _atom_site_type_symbol
 _atom_site_label
 _atom_site_symmetry_multiplicity
 _atom_site_fract_x
 _atom_site_fract_y
 _atom_site_fract_z
 _atom_site_occupancy
  Tm  Tm0  1  0.02182202  0.07137722  0.00891840  1
  Tm  Tm1  1  0.47817798  0.57137722  0.00891840  1
  Tm  Tm2  1  0.52182202  0.42862278  0.50891840  1
  Tm  Tm3  1  0.97817798  0.92862278  0.50891840  1
  Ga  Ga4  1  0.00001299  0.49987651  0.75900466  1
  Ga  Ga5  1  0.49998701  0.99987651  0.75900466  1
  Ga  Ga6  1  0.50001299  0.00012349  0.25900466  1
  Ga  Ga7  1  0.99998701  0.50012349  0.25900466  1
  O  O8  1  0.12080909  0.54561073  0.50909381  1
  O  O9  1  0.19159689  0.80565764  0.82044013  1
  O  O10  1  0.19133625  0.80617500  0.19791199  1
  O  O11  1  0.30866375  0.30617500  0.19791199  1
  O  O12  1  0.30840311  0.30565764  0.82044013  1
  O  O13  1  0.37919091  0.04561073  0.50909381  1
  O  O14  1  0.62080909  0.95438927  0.00909381  1
  O  O15  1  0.69159689  0.69434236  0.32044013  1
  O  O16  1  0.69133625  0.69382500  0.69791199  1
  O  O17  1  0.80866375  0.19382500  0.69791199  1
  O  O18  1  0.80840311  0.19434236  0.32044013  1
  O  O19  1  0.87919091  0.45438927  0.00909381  1
