# generated using pymatgen
data_CaTm2O4
_symmetry_space_group_name_H-M   'P 1'
_cell_length_a   9.85069756
_cell_length_b   11.66279741
_cell_length_c   3.32779806
_cell_angle_alpha   90.00000000
_cell_angle_beta   90.00000000
_cell_angle_gamma   90.00000000
_symmetry_Int_Tables_number   1
_chemical_formula_structural   CaTm2O4
_chemical_formula_sum   'Ca4 Tm8 O16'
_cell_volume   382.31970407
_cell_formula_units_Z   4
loop_
 _symmetry_equiv_pos_site_id
 _symmetry_equiv_pos_as_xyz
  1  'x, y, z'
loop_
 _atom_site_type_symbol
 _atom_site_label
 _atom_site_symmetry_multiplicity
 _atom_site_fract_x
 _atom_site_fract_y
 _atom_site_fract_z
 _atom_site_occupancy
  Ca  Ca0  1  0.24821312  0.35117405  0.75000000  1
  Ca  Ca1  1  0.25178688  0.85117405  0.25000000  1
  Ca  Ca2  1  0.74821312  0.14882595  0.75000000  1
  Ca  Ca3  1  0.75178688  0.64882595  0.25000000  1
  Tm  Tm4  1  0.07944966  0.61032478  0.75000000  1
  Tm  Tm5  1  0.07572750  0.11396880  0.75000000  1
  Tm  Tm6  1  0.42427250  0.61396880  0.25000000  1
  Tm  Tm7  1  0.42055034  0.11032478  0.25000000  1
  Tm  Tm8  1  0.57944966  0.88967522  0.75000000  1
  Tm  Tm9  1  0.57572750  0.38603120  0.75000000  1
  Tm  Tm10  1  0.92427250  0.88603120  0.25000000  1
  Tm  Tm11  1  0.92055034  0.38967522  0.25000000  1
  O  O12  1  0.02072339  0.71705713  0.25000000  1
  O  O13  1  0.07867915  0.92199932  0.75000000  1
  O  O14  1  0.12955564  0.47649565  0.25000000  1
  O  O15  1  0.21013040  0.18246324  0.25000000  1
  O  O16  1  0.28986960  0.68246324  0.75000000  1
  O  O17  1  0.37044436  0.97649565  0.75000000  1
  O  O18  1  0.42132085  0.42199932  0.25000000  1
  O  O19  1  0.47927661  0.21705713  0.75000000  1
  O  O20  1  0.52072339  0.78294287  0.25000000  1
  O  O21  1  0.57867915  0.57800068  0.75000000  1
  O  O22  1  0.62955564  0.02350435  0.25000000  1
  O  O23  1  0.71013040  0.31753676  0.25000000  1
  O  O24  1  0.78986960  0.81753676  0.75000000  1
  O  O25  1  0.87044436  0.52350435  0.75000000  1
  O  O26  1  0.92132085  0.07800068  0.25000000  1
  O  O27  1  0.97927661  0.28294287  0.75000000  1
