# generated using pymatgen
data_GdAsO3
_symmetry_space_group_name_H-M   'P 1'
_cell_length_a   4.44230959
_cell_length_b   12.06043164
_cell_length_c   5.74715569
_cell_angle_alpha   90.00000000
_cell_angle_beta   101.88034002
_cell_angle_gamma   90.00000000
_symmetry_Int_Tables_number   1
_chemical_formula_structural   GdAsO3
_chemical_formula_sum   'Gd4 As4 O12'
_cell_volume   301.31505409
_cell_formula_units_Z   4
loop_
 _symmetry_equiv_pos_site_id
 _symmetry_equiv_pos_as_xyz
  1  'x, y, z'
loop_
 _atom_site_type_symbol
 _atom_site_label
 _atom_site_symmetry_multiplicity
 _atom_site_fract_x
 _atom_site_fract_y
 _atom_site_fract_z
 _atom_site_occupancy
  Gd  Gd0  1  0.99515035  0.35494068  0.34933538  1
  Gd  Gd1  1  0.49515035  0.14505932  0.84933538  1
  Gd  Gd2  1  0.50484965  0.85494068  0.15066462  1
  Gd  Gd3  1  0.00484965  0.64505932  0.65066462  1
  As  As4  1  0.06587911  0.06763387  0.27726632  1
  As  As5  1  0.43412089  0.56763387  0.22273368  1
  As  As6  1  0.56587911  0.43236613  0.77726632  1
  As  As7  1  0.93412089  0.93236613  0.72273368  1
  O  O8  1  0.11201633  0.17652196  0.49830637  1
  O  O9  1  0.05980370  0.15221561  0.01238322  1
  O  O10  1  0.15116450  0.44993715  0.70977087  1
  O  O11  1  0.34883550  0.94993715  0.79022913  1
  O  O12  1  0.44019630  0.65221561  0.48761678  1
  O  O13  1  0.38798367  0.67652196  0.00169363  1
  O  O14  1  0.61201633  0.32347804  0.99830637  1
  O  O15  1  0.55980370  0.34778439  0.51238322  1
  O  O16  1  0.65116450  0.05006285  0.20977087  1
  O  O17  1  0.84883550  0.55006285  0.29022913  1
  O  O18  1  0.94019630  0.84778439  0.98761678  1
  O  O19  1  0.88798367  0.82347804  0.50169363  1
