# generated using pymatgen
data_Zr3N4
_symmetry_space_group_name_H-M   'P 1'
_cell_length_a   3.46527645
_cell_length_b   8.72483666
_cell_length_c   3.46527643
_cell_angle_alpha   89.99999445
_cell_angle_beta   60.00000212
_cell_angle_gamma   101.45433458
_symmetry_Int_Tables_number   1
_chemical_formula_structural   Zr3N4
_chemical_formula_sum   'Zr3 N4'
_cell_volume   88.31499629
_cell_formula_units_Z   1
loop_
 _symmetry_equiv_pos_site_id
 _symmetry_equiv_pos_as_xyz
  1  'x, y, z'
loop_
 _atom_site_type_symbol
 _atom_site_label
 _atom_site_symmetry_multiplicity
 _atom_site_fract_x
 _atom_site_fract_y
 _atom_site_fract_z
 _atom_site_occupancy
  Zr  Zr0  1  0.44459154  0.66688781  0.77770373  1
  Zr  Zr1  1  0.55540846  0.33311219  0.22229627  1
  Zr  Zr2  1  0.00000000  0.00000000  0.00000000  1
  N  N3  1  0.24348390  0.86522585  0.37825805  1
  N  N4  1  0.73572877  0.60359216  0.13213561  1
  N  N5  1  0.26427123  0.39640784  0.86786439  1
  N  N6  1  0.75651610  0.13477415  0.62174195  1
