# generated using pymatgen
data_SrSm2O4
_symmetry_space_group_name_H-M   'P 1'
_cell_length_a   3.47059966
_cell_length_b   6.02552858
_cell_length_c   11.39719645
_cell_angle_alpha   90.00000000
_cell_angle_beta   90.00000000
_cell_angle_gamma   106.73773643
_symmetry_Int_Tables_number   1
_chemical_formula_structural   SrSm2O4
_chemical_formula_sum   'Sr2 Sm4 O8'
_cell_volume   228.24265967
_cell_formula_units_Z   2
loop_
 _symmetry_equiv_pos_site_id
 _symmetry_equiv_pos_as_xyz
  1  'x, y, z'
loop_
 _atom_site_type_symbol
 _atom_site_label
 _atom_site_symmetry_multiplicity
 _atom_site_fract_x
 _atom_site_fract_y
 _atom_site_fract_z
 _atom_site_occupancy
  Sr  Sr0  1  0.11188850  0.22377699  0.25000000  1
  Sr  Sr1  1  0.88811150  0.77622301  0.75000000  1
  Sm  Sm2  1  0.36730961  0.73461922  0.42630800  1
  Sm  Sm3  1  0.36730961  0.73461922  0.07369200  1
  Sm  Sm4  1  0.63269039  0.26538078  0.57369200  1
  Sm  Sm5  1  0.63269039  0.26538078  0.92630800  1
  O  O6  1  0.00000000  0.00000000  0.00000000  1
  O  O7  1  0.00000000  0.00000000  0.50000000  1
  O  O8  1  0.46158160  0.92316320  0.25000000  1
  O  O9  1  0.26408940  0.52817880  0.61054485  1
  O  O10  1  0.26408940  0.52817880  0.88945515  1
  O  O11  1  0.53841840  0.07683680  0.75000000  1
  O  O12  1  0.73591060  0.47182120  0.38945515  1
  O  O13  1  0.73591060  0.47182120  0.11054485  1
