# generated using pymatgen
data_Ba4Bi3O11
_symmetry_space_group_name_H-M   'P 1'
_cell_length_a   6.21683001
_cell_length_b   6.21683001
_cell_length_c   8.93525241
_cell_angle_alpha   90.00000000
_cell_angle_beta   90.00000000
_cell_angle_gamma   89.99363822
_symmetry_Int_Tables_number   1
_chemical_formula_structural   Ba4Bi3O11
_chemical_formula_sum   'Ba4 Bi3 O11'
_cell_volume   345.33834817
_cell_formula_units_Z   1
loop_
 _symmetry_equiv_pos_site_id
 _symmetry_equiv_pos_as_xyz
  1  'x, y, z'
loop_
 _atom_site_type_symbol
 _atom_site_label
 _atom_site_symmetry_multiplicity
 _atom_site_fract_x
 _atom_site_fract_y
 _atom_site_fract_z
 _atom_site_occupancy
  Ba  Ba0  1  0.95347911  0.49251272  0.25547132  1
  Ba  Ba1  1  0.95347911  0.49251272  0.74452868  1
  Ba  Ba2  1  0.49251272  0.95347911  0.74452868  1
  Ba  Ba3  1  0.49251272  0.95347911  0.25547132  1
  Bi  Bi4  1  0.99085236  0.99085236  0.00000000  1
  Bi  Bi5  1  0.98970495  0.98970495  0.50000000  1
  Bi  Bi6  1  0.48065216  0.48065216  0.50000000  1
  O  O7  1  0.99004154  0.99004154  0.24935712  1
  O  O8  1  0.99004154  0.99004154  0.75064288  1
  O  O9  1  0.24616211  0.74730006  0.50000000  1
  O  O10  1  0.23646086  0.23646086  0.50000000  1
  O  O11  1  0.30499864  0.89846610  0.00000000  1
  O  O12  1  0.49214160  0.49214160  0.26878797  1
  O  O13  1  0.49214160  0.49214160  0.73121203  1
  O  O14  1  0.89846610  0.30499864  0.00000000  1
  O  O15  1  0.74730006  0.24616211  0.50000000  1
  O  O16  1  0.76012737  0.76012737  0.00000000  1
  O  O17  1  0.73892644  0.73892644  0.50000000  1
