# generated using pymatgen
data_SrLaCl5
_symmetry_space_group_name_H-M   'P 1'
_cell_length_a   5.54315799
_cell_length_b   10.12240459
_cell_length_c   7.03929279
_cell_angle_alpha   89.05596173
_cell_angle_beta   94.75280328
_cell_angle_gamma   105.77204160
_symmetry_Int_Tables_number   1
_chemical_formula_structural   SrLaCl5
_chemical_formula_sum   'Sr2 La2 Cl10'
_cell_volume   378.79027296
_cell_formula_units_Z   2
loop_
 _symmetry_equiv_pos_site_id
 _symmetry_equiv_pos_as_xyz
  1  'x, y, z'
loop_
 _atom_site_type_symbol
 _atom_site_label
 _atom_site_symmetry_multiplicity
 _atom_site_fract_x
 _atom_site_fract_y
 _atom_site_fract_z
 _atom_site_occupancy
  Sr  Sr0  1  0.32678925  0.64420629  0.25145037  1
  Sr  Sr1  1  0.68322778  0.35648742  0.74395980  1
  La  La2  1  0.08128466  0.15794935  0.25084298  1
  La  La3  1  0.92566925  0.84211279  0.74920336  1
  Cl  Cl4  1  0.21074528  0.91975117  0.10987929  1
  Cl  Cl5  1  0.19547793  0.39197265  0.99636338  1
  Cl  Cl6  1  0.37331012  0.74088278  0.74417120  1
  Cl  Cl7  1  0.19943038  0.39247795  0.50989874  1
  Cl  Cl8  1  0.28990015  0.07968808  0.61057849  1
  Cl  Cl9  1  0.71857482  0.92130371  0.39023627  1
  Cl  Cl10  1  0.80822991  0.60861302  0.48915791  1
  Cl  Cl11  1  0.63166850  0.25932113  0.25442501  1
  Cl  Cl12  1  0.80371771  0.60859155  0.00352441  1
  Cl  Cl13  1  0.79860925  0.08024213  0.88958579  1
