# generated using pymatgen
data_Li2CrS3
_symmetry_space_group_name_H-M   'P 1'
_cell_length_a   6.11409602
_cell_length_b   6.10537722
_cell_length_c   12.06056043
_cell_angle_alpha   85.03571485
_cell_angle_beta   99.95197043
_cell_angle_gamma   120.04724538
_symmetry_Int_Tables_number   1
_chemical_formula_structural   Li2CrS3
_chemical_formula_sum   'Li8 Cr4 S12'
_cell_volume   383.84105042
_cell_formula_units_Z   4
loop_
 _symmetry_equiv_pos_site_id
 _symmetry_equiv_pos_as_xyz
  1  'x, y, z'
loop_
 _atom_site_type_symbol
 _atom_site_label
 _atom_site_symmetry_multiplicity
 _atom_site_fract_x
 _atom_site_fract_y
 _atom_site_fract_z
 _atom_site_occupancy
  Li  Li0  1  0.16455820  0.84055506  0.49882821  1
  Li  Li1  1  0.00000000  0.50000000  0.00000000  1
  Li  Li2  1  0.08513311  0.17026621  0.25000000  1
  Li  Li3  1  0.50000000  0.50000000  0.50000000  1
  Li  Li4  1  0.67599686  0.84055506  0.00117179  1
  Li  Li5  1  0.32400314  0.15944494  0.99882821  1
  Li  Li6  1  0.91486689  0.82973379  0.75000000  1
  Li  Li7  1  0.83544180  0.15944494  0.50117179  1
  Cr  Cr8  1  0.24396252  0.48792604  0.75000000  1
  Cr  Cr9  1  0.42242345  0.84484689  0.25000000  1
  Cr  Cr10  1  0.57757655  0.15515311  0.75000000  1
  Cr  Cr11  1  0.75603748  0.51207396  0.25000000  1
  S  S12  1  0.05010674  0.81578141  0.13480220  1
  S  S13  1  0.31044144  0.82180942  0.86285118  1
  S  S14  1  0.12661953  0.53771881  0.36222564  1
  S  S15  1  0.51136798  0.82180942  0.63714882  1
  S  S16  1  0.23432633  0.18421859  0.63480220  1
  S  S17  1  0.58890072  0.46228119  0.86222564  1
  S  S18  1  0.41109928  0.53771881  0.13777436  1
  S  S19  1  0.76567367  0.81578141  0.36519780  1
  S  S20  1  0.48863202  0.17819058  0.36285118  1
  S  S21  1  0.87338047  0.46228119  0.63777436  1
  S  S22  1  0.68955856  0.17819058  0.13714882  1
  S  S23  1  0.94989326  0.18421859  0.86519780  1
