# generated using pymatgen
data_RbHO
_symmetry_space_group_name_H-M   'P 1'
_cell_length_a   6.64732947
_cell_length_b   4.06895305
_cell_length_c   8.07205934
_cell_angle_alpha   90.00000000
_cell_angle_beta   90.00000000
_cell_angle_gamma   90.00000000
_symmetry_Int_Tables_number   1
_chemical_formula_structural   RbHO
_chemical_formula_sum   'Rb4 H4 O4'
_cell_volume   218.33040953
_cell_formula_units_Z   4
loop_
 _symmetry_equiv_pos_site_id
 _symmetry_equiv_pos_as_xyz
  1  'x, y, z'
loop_
 _atom_site_type_symbol
 _atom_site_label
 _atom_site_symmetry_multiplicity
 _atom_site_fract_x
 _atom_site_fract_y
 _atom_site_fract_z
 _atom_site_occupancy
  Rb  Rb0  1  0.03132512  0.75000000  0.80622232  1
  Rb  Rb1  1  0.46867488  0.25000000  0.30622232  1
  Rb  Rb2  1  0.53132512  0.75000000  0.69377768  1
  Rb  Rb3  1  0.96867488  0.25000000  0.19377768  1
  H  H4  1  0.93283699  0.25000000  0.53771476  1
  H  H5  1  0.56716301  0.75000000  0.03771476  1
  H  H6  1  0.43283699  0.25000000  0.96228524  1
  H  H7  1  0.06716301  0.75000000  0.46228524  1
  O  O8  1  0.20746173  0.75000000  0.42803975  1
  O  O9  1  0.29253827  0.25000000  0.92803975  1
  O  O10  1  0.70746173  0.75000000  0.07196025  1
  O  O11  1  0.79253827  0.25000000  0.57196025  1
