# generated using pymatgen
data_Bi16O25
_symmetry_space_group_name_H-M   'P 1'
_cell_length_a   9.67173319
_cell_length_b   9.67173319
_cell_length_c   9.67173319
_cell_angle_alpha   70.26933356
_cell_angle_beta   109.73066644
_cell_angle_gamma   71.04643412
_symmetry_Int_Tables_number   1
_chemical_formula_structural   Bi16O25
_chemical_formula_sum   'Bi16 O25'
_cell_volume   696.40915531
_cell_formula_units_Z   1
loop_
 _symmetry_equiv_pos_site_id
 _symmetry_equiv_pos_as_xyz
  1  'x, y, z'
loop_
 _atom_site_type_symbol
 _atom_site_label
 _atom_site_symmetry_multiplicity
 _atom_site_fract_x
 _atom_site_fract_y
 _atom_site_fract_z
 _atom_site_occupancy
  Bi  Bi0  1  0.49661134  0.00338866  0.75166418  1
  Bi  Bi1  1  0.99418461  0.50581539  0.76107888  1
  Bi  Bi2  1  0.75295305  0.24689692  0.73990978  1
  Bi  Bi3  1  0.25310308  0.74704695  0.73990978  1
  Bi  Bi4  1  0.50581539  0.73310573  0.50000000  1
  Bi  Bi5  1  0.76689427  0.99418461  0.50000000  1
  Bi  Bi6  1  0.25505284  0.49661134  0.50000000  1
  Bi  Bi7  1  0.00338866  0.24494716  0.50000000  1
  Bi  Bi8  1  0.51304427  0.48680670  0.26009022  1
  Bi  Bi9  1  0.01319330  0.98695573  0.26009022  1
  Bi  Bi10  1  0.24494716  0.25505284  0.24833582  1
  Bi  Bi11  1  0.73310573  0.76689427  0.23892112  1
  Bi  Bi12  1  0.48680670  0.25310308  0.99985097  1
  Bi  Bi13  1  0.98695573  0.75295305  0.00014903  1
  Bi  Bi14  1  0.24689692  0.01319330  0.99985097  1
  Bi  Bi15  1  0.74704695  0.51304427  0.00014903  1
  O  O16  1  0.25000000  0.95204237  0.79795763  1
  O  O17  1  0.54795763  0.25000000  0.79795763  1
  O  O18  1  0.75000000  0.45799714  0.79200286  1
  O  O19  1  0.04200286  0.75000000  0.79200286  1
  O  O20  1  0.70418396  0.00182864  0.70041692  1
  O  O21  1  0.00182864  0.29775344  0.70601260  1
  O  O22  1  0.49817136  0.79581604  0.70041692  1
  O  O23  1  0.20224656  0.49817136  0.70601260  1
  O  O24  1  0.28378008  0.70505620  0.50000000  1
  O  O25  1  0.79494380  0.21621992  0.50000000  1
  O  O26  1  0.04623010  0.95893854  0.50000000  1
  O  O27  1  0.54106146  0.45376990  0.50000000  1
  O  O28  1  0.75000000  0.75000000  0.50000000  1
  O  O29  1  0.99623395  0.70418396  0.29398740  1
  O  O30  1  0.50376605  0.20224656  0.29958308  1
  O  O31  1  0.79581604  0.50376605  0.29398740  1
  O  O32  1  0.29775344  0.99623395  0.29958308  1
  O  O33  1  0.95204237  0.25000000  0.20204237  1
  O  O34  1  0.75000000  0.04200286  0.20799714  1
  O  O35  1  0.45799714  0.75000000  0.20799714  1
  O  O36  1  0.25000000  0.54795763  0.20204237  1
  O  O37  1  0.45376990  0.04623010  0.99483236  1
  O  O38  1  0.95893854  0.54106146  0.00516764  1
  O  O39  1  0.70505620  0.79494380  0.98883628  1
  O  O40  1  0.21621992  0.28378008  0.01116372  1
