# generated using pymatgen
data_LiCu(PO3)3
_symmetry_space_group_name_H-M   'P 1'
_cell_length_a   6.28042125
_cell_length_b   7.68205046
_cell_length_c   6.89349039
_cell_angle_alpha   99.11379066
_cell_angle_beta   95.92829678
_cell_angle_gamma   88.94293860
_symmetry_Int_Tables_number   1
_chemical_formula_structural   LiCu(PO3)3
_chemical_formula_sum   'Li2 Cu2 P6 O18'
_cell_volume   326.63121891
_cell_formula_units_Z   2
loop_
 _symmetry_equiv_pos_site_id
 _symmetry_equiv_pos_as_xyz
  1  'x, y, z'
loop_
 _atom_site_type_symbol
 _atom_site_label
 _atom_site_symmetry_multiplicity
 _atom_site_fract_x
 _atom_site_fract_y
 _atom_site_fract_z
 _atom_site_occupancy
  Li  Li0  1  0.11717136  0.17717371  0.42792013  1
  Li  Li1  1  0.88282864  0.82282629  0.57207987  1
  Cu  Cu2  1  0.19327838  0.13868834  0.87346025  1
  Cu  Cu3  1  0.80672162  0.86131166  0.12653975  1
  P  P4  1  0.15845095  0.54281470  0.77599788  1
  P  P5  1  0.30291557  0.77042666  0.14093348  1
  P  P6  1  0.37641360  0.79470727  0.58280257  1
  P  P7  1  0.62358640  0.20529273  0.41719743  1
  P  P8  1  0.69708443  0.22957334  0.85906652  1
  P  P9  1  0.84154905  0.45718530  0.22400212  1
  O  O10  1  0.04371130  0.36049084  0.26573952  1
  O  O11  1  0.15869163  0.34268294  0.72328759  1
  O  O12  1  0.11182175  0.89525386  0.12132701  1
  O  O13  1  0.19004090  0.91992451  0.62802167  1
  O  O14  1  0.24613891  0.58166737  0.00923738  1
  O  O15  1  0.35228152  0.61524919  0.67373503  1
  O  O16  1  0.33735991  0.71023119  0.35005885  1
  O  O17  1  0.40218837  0.13956216  0.36663591  1
  O  O18  1  0.49703140  0.16169397  0.92552170  1
  O  O19  1  0.50296860  0.83830603  0.07447830  1
  O  O20  1  0.59781163  0.86043784  0.63336409  1
  O  O21  1  0.66264009  0.28976881  0.64994115  1
  O  O22  1  0.64771848  0.38475081  0.32626497  1
  O  O23  1  0.75386109  0.41833263  0.99076262  1
  O  O24  1  0.80995910  0.08007549  0.37197833  1
  O  O25  1  0.88817825  0.10474614  0.87867299  1
  O  O26  1  0.84130837  0.65731706  0.27671241  1
  O  O27  1  0.95628870  0.63950916  0.73426048  1
