# generated using pymatgen
data_Tm2TeO6
_symmetry_space_group_name_H-M   'P 1'
_cell_length_a   4.94594646
_cell_length_b   4.94580619
_cell_length_c   9.96382532
_cell_angle_alpha   90.00000000
_cell_angle_beta   90.00000000
_cell_angle_gamma   89.99940038
_symmetry_Int_Tables_number   1
_chemical_formula_structural   Tm2TeO6
_chemical_formula_sum   'Tm4 Te2 O12'
_cell_volume   243.73203226
_cell_formula_units_Z   2
loop_
 _symmetry_equiv_pos_site_id
 _symmetry_equiv_pos_as_xyz
  1  'x, y, z'
loop_
 _atom_site_type_symbol
 _atom_site_label
 _atom_site_symmetry_multiplicity
 _atom_site_fract_x
 _atom_site_fract_y
 _atom_site_fract_z
 _atom_site_occupancy
  Tm  Tm0  1  0.99996762  0.99997501  0.33452733  1
  Tm  Tm1  1  0.99996762  0.99997501  0.66547267  1
  Tm  Tm2  1  0.50005133  0.50004003  0.16547168  1
  Tm  Tm3  1  0.50005133  0.50004003  0.83452832  1
  Te  Te4  1  0.00007775  0.00006801  0.00000000  1
  Te  Te5  1  0.49997662  0.49998633  0.50000000  1
  O  O6  1  0.18428590  0.18427711  0.14792809  1
  O  O7  1  0.18428590  0.18427711  0.85207191  1
  O  O8  1  0.21924911  0.21908857  0.50000000  1
  O  O9  1  0.28090410  0.71927732  0.00000000  1
  O  O10  1  0.31569781  0.68417886  0.35208173  1
  O  O11  1  0.31569781  0.68417886  0.64791827  1
  O  O12  1  0.68428452  0.31582089  0.35208532  1
  O  O13  1  0.68428452  0.31582089  0.64791468  1
  O  O14  1  0.71929516  0.28090014  0.00000000  1
  O  O15  1  0.78069125  0.78087123  0.50000000  1
  O  O16  1  0.81581484  0.81581180  0.14790257  1
  O  O17  1  0.81581484  0.81581180  0.85209743  1
