# generated using pymatgen
data_LiSn(PO3)4
_symmetry_space_group_name_H-M   'P 1'
_cell_length_a   7.61398133
_cell_length_b   7.63291148
_cell_length_c   10.26893618
_cell_angle_alpha   80.36094427
_cell_angle_beta   71.56787216
_cell_angle_gamma   110.46099667
_symmetry_Int_Tables_number   1
_chemical_formula_structural   LiSn(PO3)4
_chemical_formula_sum   'Li2 Sn2 P8 O24'
_cell_volume   503.85482453
_cell_formula_units_Z   2
loop_
 _symmetry_equiv_pos_site_id
 _symmetry_equiv_pos_as_xyz
  1  'x, y, z'
loop_
 _atom_site_type_symbol
 _atom_site_label
 _atom_site_symmetry_multiplicity
 _atom_site_fract_x
 _atom_site_fract_y
 _atom_site_fract_z
 _atom_site_occupancy
  Li  Li0  1  0.24865334  0.00215067  0.75124765  1
  Li  Li1  1  0.75321916  0.99554899  0.25104790  1
  Sn  Sn2  1  0.99882354  0.49914914  0.00106525  1
  Sn  Sn3  1  0.99848280  0.99972840  0.50023750  1
  P  P4  1  0.99610515  0.68182256  0.30969143  1
  P  P5  1  0.26577361  0.72635333  0.47552906  1
  P  P6  1  0.69954305  0.74110665  0.02407616  1
  P  P7  1  0.50647632  0.69264223  0.81159732  1
  P  P8  1  0.49008499  0.30646011  0.18912141  1
  P  P9  1  0.29717814  0.25713800  0.97765586  1
  P  P10  1  0.73566238  0.27633854  0.52340587  1
  P  P11  1  0.00770513  0.32074559  0.68833840  1
  O  O12  1  0.03771417  0.65651198  0.16308459  1
  O  O13  1  0.13180452  0.80274542  0.57198068  1
  O  O14  1  0.18308456  0.68286491  0.34997408  1
  O  O15  1  0.49082506  0.83473777  0.40778631  1
  O  O16  1  0.30703574  0.70987144  0.82881418  1
  O  O17  1  0.20817725  0.50498308  0.56692459  1
  O  O18  1  0.12268779  0.29265198  0.07495088  1
  O  O19  1  0.73904411  0.89763383  0.09200127  1
  O  O20  1  0.56947751  0.77332852  0.93221626  1
  O  O21  1  0.67797716  0.79612675  0.66482276  1
  O  O22  1  0.52861198  0.53218797  0.14747863  1
  O  O23  1  0.04276292  0.13925087  0.67161703  1
  O  O24  1  0.96152545  0.86369900  0.32572271  1
  O  O25  1  0.46459704  0.46602897  0.85322317  1
  O  O26  1  0.31853679  0.20040718  0.33570080  1
  O  O27  1  0.43020213  0.22581991  0.06740532  1
  O  O28  1  0.25725925  0.10061523  0.90981537  1
  O  O29  1  0.87515350  0.70527494  0.92874803  1
  O  O30  1  0.79580788  0.49851969  0.43184773  1
  O  O31  1  0.69075152  0.29275270  0.17274952  1
  O  O32  1  0.51053246  0.17001883  0.59413135  1
  O  O33  1  0.82270432  0.32113903  0.64641737  1
  O  O34  1  0.86493232  0.19654823  0.42647878  1
  O  O35  1  0.96324697  0.34480455  0.83542677  1
