# generated using pymatgen
data_Li2Ti3O7
_symmetry_space_group_name_H-M   'P 1'
_cell_length_a   5.70610254
_cell_length_b   5.70610254
_cell_length_c   10.57124715
_cell_angle_alpha   88.24946180
_cell_angle_beta   91.75053820
_cell_angle_gamma   128.71502820
_symmetry_Int_Tables_number   1
_chemical_formula_structural   Li2Ti3O7
_chemical_formula_sum   'Li4 Ti6 O14'
_cell_volume   268.41006324
_cell_formula_units_Z   2
loop_
 _symmetry_equiv_pos_site_id
 _symmetry_equiv_pos_as_xyz
  1  'x, y, z'
loop_
 _atom_site_type_symbol
 _atom_site_label
 _atom_site_symmetry_multiplicity
 _atom_site_fract_x
 _atom_site_fract_y
 _atom_site_fract_z
 _atom_site_occupancy
  Li  Li0  1  0.52729221  0.82496711  0.81666112  1
  Li  Li1  1  0.17503289  0.47270779  0.31666112  1
  Li  Li2  1  0.82496711  0.52729221  0.68333888  1
  Li  Li3  1  0.47270779  0.17503289  0.18333888  1
  Ti  Ti4  1  0.00000000  0.50000000  0.00000000  1
  Ti  Ti5  1  0.11830928  0.23774543  0.60384111  1
  Ti  Ti6  1  0.23774543  0.11830928  0.89615889  1
  Ti  Ti7  1  0.76225457  0.88169072  0.10384111  1
  Ti  Ti8  1  0.88169072  0.76225457  0.39615889  1
  Ti  Ti9  1  0.50000000  0.00000000  0.50000000  1
  O  O10  1  0.11554919  0.75309665  0.83790056  1
  O  O11  1  0.24690335  0.88445081  0.33790056  1
  O  O12  1  0.92268442  0.13393251  0.92740348  1
  O  O13  1  0.32893284  0.59386344  0.51767242  1
  O  O14  1  0.86606749  0.07731558  0.42740348  1
  O  O15  1  0.37338889  0.37338889  0.75000000  1
  O  O16  1  0.40613656  0.67106716  0.01767242  1
  O  O17  1  0.59386344  0.32893284  0.98232758  1
  O  O18  1  0.62661111  0.62661111  0.25000000  1
  O  O19  1  0.13393251  0.92268442  0.57259652  1
  O  O20  1  0.67106716  0.40613656  0.48232758  1
  O  O21  1  0.07731558  0.86606749  0.07259652  1
  O  O22  1  0.75309665  0.11554919  0.66209944  1
  O  O23  1  0.88445081  0.24690335  0.16209944  1
