# generated using pymatgen
data_YTa3O9
_symmetry_space_group_name_H-M   'P 1'
_cell_length_a   5.56215754
_cell_length_b   8.82568456
_cell_length_c   8.86136786
_cell_angle_alpha   66.49588641
_cell_angle_beta   71.70416788
_cell_angle_gamma   71.60966544
_symmetry_Int_Tables_number   1
_chemical_formula_structural   YTa3O9
_chemical_formula_sum   'Y2 Ta6 O18'
_cell_volume   369.58949112
_cell_formula_units_Z   2
loop_
 _symmetry_equiv_pos_site_id
 _symmetry_equiv_pos_as_xyz
  1  'x, y, z'
loop_
 _atom_site_type_symbol
 _atom_site_label
 _atom_site_symmetry_multiplicity
 _atom_site_fract_x
 _atom_site_fract_y
 _atom_site_fract_z
 _atom_site_occupancy
  Y  Y0  1  0.32368188  0.35935910  0.00114730  1
  Y  Y1  1  0.69496973  0.64345962  0.99719555  1
  Ta  Ta2  1  0.07626171  0.59041803  0.25826274  1
  Ta  Ta3  1  0.58448993  0.08079118  0.75297107  1
  Ta  Ta4  1  0.25452986  0.76308671  0.73303437  1
  Ta  Ta5  1  0.41656601  0.91906763  0.24478785  1
  Ta  Ta6  1  0.74893685  0.23635517  0.26494180  1
  Ta  Ta7  1  0.92543265  0.40790344  0.74301004  1
  O  O8  1  0.09407990  0.09948402  0.22658510  1
  O  O9  1  0.00039082  0.49914827  0.49988845  1
  O  O10  1  0.50195227  0.99704644  0.99927171  1
  O  O11  1  0.16633853  0.64391506  0.99949963  1
  O  O12  1  0.57157229  0.10112544  0.22827089  1
  O  O13  1  0.07017519  0.57495176  0.77817283  1
  O  O14  1  0.26275143  0.75212154  0.22786278  1
  O  O15  1  0.24925460  0.25074170  0.77217213  1
  O  O16  1  0.42668828  0.42867250  0.21944106  1
  O  O17  1  0.81795052  0.35640731  0.00018387  1
  O  O18  1  0.33608100  0.83425038  0.49429657  1
  O  O19  1  0.66238356  0.16683894  0.50349552  1
  O  O20  1  0.72597900  0.25062774  0.77298427  1
  O  O21  1  0.92847776  0.42357566  0.22068070  1
  O  O22  1  0.74677032  0.74541760  0.22753966  1
  O  O23  1  0.42610306  0.89909507  0.77092770  1
  O  O24  1  0.56903111  0.57250741  0.78060068  1
  O  O25  1  0.90603775  0.90126926  0.76847373  1
