# generated using pymatgen
data_TbNbO4
_symmetry_space_group_name_H-M   'P 1'
_cell_length_a   7.61189279
_cell_length_b   5.38651337
_cell_length_c   7.67322801
_cell_angle_alpha   90.00000000
_cell_angle_beta   98.43093421
_cell_angle_gamma   90.00000000
_symmetry_Int_Tables_number   1
_chemical_formula_structural   TbNbO4
_chemical_formula_sum   'Tb4 Nb4 O16'
_cell_volume   311.21439915
_cell_formula_units_Z   4
loop_
 _symmetry_equiv_pos_site_id
 _symmetry_equiv_pos_as_xyz
  1  'x, y, z'
loop_
 _atom_site_type_symbol
 _atom_site_label
 _atom_site_symmetry_multiplicity
 _atom_site_fract_x
 _atom_site_fract_y
 _atom_site_fract_z
 _atom_site_occupancy
  Tb  Tb0  1  0.35458182  0.72006209  0.60881501  1
  Tb  Tb1  1  0.35458182  0.77993791  0.10881501  1
  Tb  Tb2  1  0.64541818  0.22006209  0.89118499  1
  Tb  Tb3  1  0.64541818  0.27993791  0.39118499  1
  Nb  Nb4  1  0.16487288  0.23224790  0.81125782  1
  Nb  Nb5  1  0.16487288  0.26775210  0.31125782  1
  Nb  Nb6  1  0.83512712  0.73224790  0.68874218  1
  Nb  Nb7  1  0.83512712  0.76775210  0.18874218  1
  O  O8  1  0.06607139  0.89747524  0.68933783  1
  O  O9  1  0.06607139  0.60252476  0.18933783  1
  O  O10  1  0.17224085  0.37230805  0.56212798  1
  O  O11  1  0.17224085  0.12769195  0.06212798  1
  O  O12  1  0.32797987  0.50033515  0.88000520  1
  O  O13  1  0.39028171  0.00910059  0.82820842  1
  O  O14  1  0.32797987  0.99966485  0.38000520  1
  O  O15  1  0.39028171  0.49089941  0.32820842  1
  O  O16  1  0.60971829  0.50910059  0.67179158  1
  O  O17  1  0.67202013  0.00033515  0.61999480  1
  O  O18  1  0.60971829  0.99089941  0.17179158  1
  O  O19  1  0.67202013  0.49966485  0.11999480  1
  O  O20  1  0.82775915  0.87230805  0.93787202  1
  O  O21  1  0.82775915  0.62769195  0.43787202  1
  O  O22  1  0.93392861  0.39747524  0.81066217  1
  O  O23  1  0.93392861  0.10252476  0.31066217  1
