# generated using pymatgen
data_ZnP2H14C2(NO)6
_symmetry_space_group_name_H-M   'P 1'
_cell_length_a   9.29857535
_cell_length_b   9.71390213
_cell_length_c   9.71390213
_cell_angle_alpha   104.60480114
_cell_angle_beta   67.00652079
_cell_angle_gamma   67.00652079
_symmetry_Int_Tables_number   1
_chemical_formula_structural   ZnP2H14C2(NO)6
_chemical_formula_sum   'Zn2 P4 H28 C4 N12 O12'
_cell_volume   653.24029784
_cell_formula_units_Z   2
loop_
 _symmetry_equiv_pos_site_id
 _symmetry_equiv_pos_as_xyz
  1  'x, y, z'
loop_
 _atom_site_type_symbol
 _atom_site_label
 _atom_site_symmetry_multiplicity
 _atom_site_fract_x
 _atom_site_fract_y
 _atom_site_fract_z
 _atom_site_occupancy
  Zn  Zn0  1  0.66010570  0.66994715  0.66994715  1
  Zn  Zn1  1  0.16010570  0.91994715  0.41994715  1
  P  P2  1  0.81797695  0.30220505  0.63858095  1
  P  P3  1  0.31797695  0.79344209  0.62981800  1
  P  P4  1  0.81797695  0.87981800  0.54344209  1
  P  P5  1  0.31797695  0.88858095  0.05220505  1
  H  H6  1  0.00395307  0.10136079  0.95676992  1
  H  H7  1  0.40521906  0.10606146  0.94150276  1
  H  H8  1  0.90521906  0.19150276  0.85606146  1
  H  H9  1  0.50395307  0.20676992  0.85136079  1
  H  H10  1  0.37674348  0.48939746  0.99581505  1
  H  H11  1  0.37674348  0.13385906  0.62744147  1
  H  H12  1  0.17628411  0.20609586  0.61610938  1
  H  H13  1  0.50395307  0.28927702  0.64468615  1
  H  H14  1  0.80454088  0.23123302  0.50073354  1
  H  H15  1  0.30454088  0.75073354  0.98123302  1
  H  H16  1  0.40521906  0.48871948  0.65327818  1
  H  H17  1  0.04170535  0.47095000  0.62169228  1
  H  H18  1  0.67628411  0.86610938  0.95609586  1
  H  H19  1  0.14133488  0.59208750  0.63984470  1
  H  H20  1  0.87674348  0.87744147  0.88385906  1
  H  H21  1  0.87674348  0.24581505  0.23939746  1
  H  H22  1  0.14133488  0.26657662  0.21882043  1
  H  H23  1  0.67628411  0.45760651  0.36762003  1
  H  H24  1  0.04170535  0.48734365  0.33660136  1
  H  H25  1  0.30454088  0.94472558  0.71422610  1
  H  H26  1  0.80454088  0.96422610  0.69472558  1
  H  H27  1  0.54170535  0.58660136  0.23734365  1
  H  H28  1  0.17628411  0.61762003  0.20760651  1
  H  H29  1  0.64133488  0.46882043  0.01657662  1
  H  H30  1  0.64133488  0.88984470  0.34208750  1
  H  H31  1  0.54170535  0.87169228  0.22095000  1
  H  H32  1  0.90521906  0.90327818  0.23871948  1
  H  H33  1  0.00395307  0.89468615  0.03927702  1
  C  C34  1  0.27276205  0.36396444  0.63345306  1
  C  C35  1  0.77276205  0.34378489  0.11327352  1
  C  C36  1  0.27276205  0.36327352  0.09378489  1
  C  C37  1  0.77276205  0.88345306  0.11396444  1
  N  N38  1  0.90248797  0.20104118  0.96398537  1
  N  N39  1  0.40248797  0.21398537  0.95104018  1
  N  N40  1  0.27291213  0.22472735  0.62759441  1
  N  N41  1  0.40248797  0.38352766  0.64647185  1
  N  N42  1  0.14423998  0.48311194  0.62678206  1
  N  N43  1  0.77291213  0.87759441  0.97472735  1
  N  N44  1  0.77291213  0.34949346  0.25235952  1
  N  N45  1  0.14423998  0.37264808  0.22897797  1
  N  N46  1  0.64423998  0.47897797  0.12264808  1
  N  N47  1  0.27291213  0.50235952  0.09949346  1
  N  N48  1  0.64423998  0.87678206  0.23311194  1
  N  N49  1  0.90248797  0.89647185  0.13352766  1
  O  O50  1  0.00174425  0.15785218  0.60414175  1
  O  O51  1  0.64530857  0.35950104  0.80363727  1
  O  O52  1  0.84586043  0.44571965  0.62194474  1
  O  O53  1  0.14530857  0.05363727  0.10950104  1
  O  O54  1  0.50174425  0.85414175  0.90785218  1
  O  O55  1  0.50174425  0.64411401  0.59040357  1
  O  O56  1  0.14530857  0.80105416  0.74519039  1
  O  O57  1  0.84586043  0.70841892  0.53219483  1
  O  O58  1  0.34586043  0.78219483  0.45841892  1
  O  O59  1  0.64530857  0.99519039  0.55105416  1
  O  O60  1  0.00174425  0.84040357  0.39411401  1
  O  O61  1  0.34586043  0.87194474  0.19571965  1
