# generated using pymatgen
data_Li11(RuO3)8
_symmetry_space_group_name_H-M   'P 1'
_cell_length_a   5.09242667
_cell_length_b   8.78016884
_cell_length_c   9.95852020
_cell_angle_alpha   98.74834395
_cell_angle_beta   94.61532317
_cell_angle_gamma   91.46448614
_symmetry_Int_Tables_number   1
_chemical_formula_structural   Li11(RuO3)8
_chemical_formula_sum   'Li11 Ru8 O24'
_cell_volume   438.33871829
_cell_formula_units_Z   1
loop_
 _symmetry_equiv_pos_site_id
 _symmetry_equiv_pos_as_xyz
  1  'x, y, z'
loop_
 _atom_site_type_symbol
 _atom_site_label
 _atom_site_symmetry_multiplicity
 _atom_site_fract_x
 _atom_site_fract_y
 _atom_site_fract_z
 _atom_site_occupancy
  Li  Li0  1  0.61097333  0.80414742  0.24912084  1
  Li  Li1  1  0.18202306  0.96283692  0.25739030  1
  Li  Li2  1  0.88971762  0.70118958  0.74999884  1
  Li  Li3  1  0.38411061  0.87188411  0.75237399  1
  Li  Li4  1  0.11551251  0.62673234  0.25048761  1
  Li  Li5  1  0.64617274  0.42595153  0.24378673  1
  Li  Li6  1  0.34514187  0.55144422  0.74572196  1
  Li  Li7  1  0.88091218  0.37482461  0.74769776  1
  Li  Li8  1  0.10445402  0.29395693  0.25124559  1
  Li  Li9  1  0.84691553  0.05233982  0.75278904  1
  Li  Li10  1  0.39088209  0.20180861  0.74949719  1
  Ru  Ru11  1  0.77536298  0.92557407  0.00369117  1
  Ru  Ru12  1  0.72023743  0.57427655  0.99783379  1
  Ru  Ru13  1  0.00320621  0.84942655  0.50219941  1
  Ru  Ru14  1  0.50091570  0.66103884  0.49795896  1
  Ru  Ru15  1  0.49857614  0.33838237  0.49991789  1
  Ru  Ru16  1  0.99092011  0.14463425  0.49921958  1
  Ru  Ru17  1  0.27810512  0.42956741  0.99900526  1
  Ru  Ru18  1  0.23254610  0.07787323  0.00071185  1
  O  O19  1  0.83886460  0.96946095  0.36936066  1
  O  O20  1  0.45625355  0.94594587  0.10360040  1
  O  O21  1  0.90350744  0.76555066  0.10973108  1
  O  O22  1  0.70252914  0.84152477  0.61611903  1
  O  O23  1  0.80621277  0.66392943  0.38901132  1
  O  O24  1  0.30190140  0.80366789  0.38405250  1
  O  O25  1  0.95508710  0.44907264  0.11018651  1
  O  O26  1  0.04453675  0.90757425  0.86811828  1
  O  O27  1  0.59140301  0.73269580  0.88743447  1
  O  O28  1  0.45711552  0.59813348  0.13312796  1
  O  O29  1  0.19894138  0.70153383  0.61301030  1
  O  O30  1  0.65350407  0.52390046  0.62681264  1
  O  O31  1  0.34838670  0.47287423  0.37067064  1
  O  O32  1  0.80478193  0.29554449  0.39603928  1
  O  O33  1  0.54270911  0.40495641  0.86444407  1
  O  O34  1  0.40279829  0.27154118  0.10485816  1
  O  O35  1  0.96934651  0.09094569  0.13231949  1
  O  O36  1  0.04081251  0.55263751  0.88621533  1
  O  O37  1  0.69809141  0.19819365  0.61634693  1
  O  O38  1  0.19561571  0.33198608  0.61103312  1
  O  O39  1  0.28909605  0.16112375  0.39388859  1
  O  O40  1  0.09941552  0.23480016  0.89003049  1
  O  O41  1  0.55265663  0.05087773  0.88843068  1
  O  O42  1  0.16524655  0.02513870  0.63451234  1
