# generated using pymatgen
data_Li2VP2O7
_symmetry_space_group_name_H-M   'P 1'
_cell_length_a   6.64091115
_cell_length_b   10.42528881
_cell_length_c   9.31818432
_cell_angle_alpha   66.50339505
_cell_angle_beta   106.38309194
_cell_angle_gamma   91.55843842
_symmetry_Int_Tables_number   1
_chemical_formula_structural   Li2VP2O7
_chemical_formula_sum   'Li8 V4 P8 O28'
_cell_volume   564.94462067
_cell_formula_units_Z   4
loop_
 _symmetry_equiv_pos_site_id
 _symmetry_equiv_pos_as_xyz
  1  'x, y, z'
loop_
 _atom_site_type_symbol
 _atom_site_label
 _atom_site_symmetry_multiplicity
 _atom_site_fract_x
 _atom_site_fract_y
 _atom_site_fract_z
 _atom_site_occupancy
  Li  Li0  1  0.05004507  0.48066853  0.21157548  1
  Li  Li1  1  0.64384767  0.37892804  0.07608863  1
  Li  Li2  1  0.59919406  0.02695456  0.50916956  1
  Li  Li3  1  0.16308954  0.87328673  0.10838349  1
  Li  Li4  1  0.16741532  0.96846680  0.48663855  1
  Li  Li5  1  0.86518401  0.10849382  0.89240167  1
  Li  Li6  1  0.34691408  0.62135793  0.92292292  1
  Li  Li7  1  0.93160043  0.49989545  0.82907770  1
  V  V8  1  0.36474622  0.26004904  0.50169394  1
  V  V9  1  0.72354723  0.77439217  0.09820186  1
  V  V10  1  0.28240917  0.22828534  0.89261632  1
  V  V11  1  0.62555526  0.74827215  0.48988723  1
  P  P12  1  0.07672821  0.20287672  0.17941083  1
  P  P13  1  0.69818586  0.05456141  0.18920506  1
  P  P14  1  0.55702218  0.53848368  0.28913183  1
  P  P15  1  0.12126128  0.70254065  0.44646001  1
  P  P16  1  0.86864955  0.30142043  0.54082868  1
  P  P17  1  0.43795289  0.46715951  0.70651559  1
  P  P18  1  0.30925857  0.94722594  0.80246909  1
  P  P19  1  0.92736803  0.80360039  0.80764305  1
  O  O20  1  0.10059658  0.14426779  0.05792714  1
  O  O21  1  0.56844352  0.19649064  0.08489474  1
  O  O22  1  0.27913490  0.17901690  0.31756508  1
  O  O23  1  0.96159887  0.35275351  0.09196054  1
  O  O24  1  0.02839597  0.31040871  0.44816212  1
  O  O25  1  0.92831253  0.09438065  0.27956518  1
  O  O26  1  0.63079016  0.54310998  0.14236058  1
  O  O27  1  0.03731235  0.71630185  0.26863495  1
  O  O28  1  0.35905322  0.46336123  0.30134261  1
  O  O29  1  0.38060882  0.03940147  0.65420634  1
  O  O30  1  0.53837050  0.69077429  0.27516246  1
  O  O31  1  0.69522292  0.20401650  0.52063756  1
  O  O32  1  0.74103711  0.98442898  0.08287690  1
  O  O33  1  0.24847045  0.54588704  0.54247556  1
  O  O34  1  0.74390043  0.45971509  0.45575184  1
  O  O35  1  0.26921170  0.01780985  0.90858628  1
  O  O36  1  0.28792875  0.80622775  0.46270632  1
  O  O37  1  0.45778819  0.31715992  0.71377000  1
  O  O38  1  0.62038969  0.96269302  0.33193498  1
  O  O39  1  0.63371581  0.54490768  0.69477921  1
  O  O40  1  0.96554084  0.27574517  0.72141026  1
  O  O41  1  0.36733800  0.45660471  0.85649916  1
  O  O42  1  0.08211927  0.90768125  0.70939081  1
  O  O43  1  0.95523348  0.70455811  0.52818830  1
  O  O44  1  0.03735417  0.65343028  0.89256552  1
  O  O45  1  0.72031870  0.82913333  0.67401951  1
  O  O46  1  0.43995245  0.80575296  0.90632074  1
  O  O47  1  0.91073697  0.86230307  0.93179583  1
