# generated using pymatgen
data_Li2Fe3(Si3O8)2
_symmetry_space_group_name_H-M   'P 1'
_cell_length_a   9.75345066
_cell_length_b   10.32434044
_cell_length_c   7.02028346
_cell_angle_alpha   69.86193589
_cell_angle_beta   97.49972248
_cell_angle_gamma   85.16208869
_symmetry_Int_Tables_number   1
_chemical_formula_structural   Li2Fe3(Si3O8)2
_chemical_formula_sum   'Li4 Fe6 Si12 O32'
_cell_volume   651.65608898
_cell_formula_units_Z   2
loop_
 _symmetry_equiv_pos_site_id
 _symmetry_equiv_pos_as_xyz
  1  'x, y, z'
loop_
 _atom_site_type_symbol
 _atom_site_label
 _atom_site_symmetry_multiplicity
 _atom_site_fract_x
 _atom_site_fract_y
 _atom_site_fract_z
 _atom_site_occupancy
  Li  Li0  1  0.11177959  0.53109981  0.32756284  1
  Li  Li1  1  0.42133356  0.18538553  0.65096208  1
  Li  Li2  1  0.57866644  0.81461447  0.34903792  1
  Li  Li3  1  0.88822041  0.46890019  0.67243716  1
  Fe  Fe4  1  0.14217926  0.52627857  0.89419786  1
  Fe  Fe5  1  0.10737541  0.90954698  0.93986701  1
  Fe  Fe6  1  0.12350493  0.88938219  0.45824911  1
  Fe  Fe7  1  0.87649507  0.11061781  0.54175089  1
  Fe  Fe8  1  0.89262459  0.09045302  0.06013299  1
  Fe  Fe9  1  0.85782074  0.47372143  0.10580214  1
  Si  Si10  1  0.13899309  0.24183727  0.75270915  1
  Si  Si11  1  0.13296577  0.23300968  0.31568976  1
  Si  Si12  1  0.32034613  0.06670700  0.15061028  1
  Si  Si13  1  0.38286232  0.65016245  0.60255229  1
  Si  Si14  1  0.40004165  0.86559206  0.77915416  1
  Si  Si15  1  0.40113723  0.61319013  0.17906048  1
  Si  Si16  1  0.59886277  0.38680987  0.82093952  1
  Si  Si17  1  0.59995835  0.13440794  0.22084584  1
  Si  Si18  1  0.61713768  0.34983755  0.39744771  1
  Si  Si19  1  0.67965387  0.93329300  0.84938972  1
  Si  Si20  1  0.86703423  0.76699032  0.68431024  1
  Si  Si21  1  0.86100691  0.75816273  0.24729085  1
  O  O22  1  0.02267444  0.13352475  0.81218963  1
  O  O23  1  0.02497671  0.11716796  0.33388968  1
  O  O24  1  0.08759695  0.39735114  0.73725367  1
  O  O25  1  0.06624009  0.38565628  0.15581171  1
  O  O26  1  0.19167586  0.25328637  0.53406677  1
  O  O27  1  0.29164567  0.16644901  0.90478494  1
  O  O28  1  0.21757985  0.65853908  0.61011864  1
  O  O29  1  0.28148405  0.17060229  0.27180948  1
  O  O30  1  0.23834824  0.92966791  0.72216258  1
  O  O31  1  0.24117125  0.59244372  0.12230659  1
  O  O32  1  0.23257649  0.93728015  0.19523163  1
  O  O33  1  0.49226919  0.01680772  0.22416299  1
  O  O34  1  0.55694466  0.25088885  0.99156003  1
  O  O35  1  0.43320512  0.65117170  0.38838558  1
  O  O36  1  0.43913261  0.79504969  0.61237475  1
  O  O37  1  0.47868025  0.51756063  0.78745196  1
  O  O38  1  0.52131975  0.48243937  0.21254804  1
  O  O39  1  0.56086739  0.20495031  0.38762525  1
  O  O40  1  0.56679488  0.34882830  0.61161442  1
  O  O41  1  0.44305534  0.74911115  0.00843997  1
  O  O42  1  0.50773081  0.98319228  0.77583701  1
  O  O43  1  0.76742351  0.06271985  0.80476837  1
  O  O44  1  0.75882875  0.40755628  0.87769341  1
  O  O45  1  0.76165176  0.07033209  0.27783742  1
  O  O46  1  0.71851595  0.82939771  0.72819052  1
  O  O47  1  0.78242015  0.34146092  0.38988136  1
  O  O48  1  0.70835433  0.83355099  0.09521506  1
  O  O49  1  0.80832414  0.74671363  0.46593323  1
  O  O50  1  0.93375991  0.61434372  0.84418829  1
  O  O51  1  0.91240305  0.60264886  0.26274633  1
  O  O52  1  0.97502329  0.88283204  0.66611032  1
  O  O53  1  0.97732556  0.86647525  0.18781037  1
