# generated using pymatgen
data_LiInMo3O8
_symmetry_space_group_name_H-M   'P 1'
_cell_length_a   5.84760048
_cell_length_b   5.84760047
_cell_length_c   5.09097262
_cell_angle_alpha   90.00000000
_cell_angle_beta   90.00000000
_cell_angle_gamma   120.00000003
_symmetry_Int_Tables_number   1
_chemical_formula_structural   LiInMo3O8
_chemical_formula_sum   'Li1 In1 Mo3 O8'
_cell_volume   150.76022558
_cell_formula_units_Z   1
loop_
 _symmetry_equiv_pos_site_id
 _symmetry_equiv_pos_as_xyz
  1  'x, y, z'
loop_
 _atom_site_type_symbol
 _atom_site_label
 _atom_site_symmetry_multiplicity
 _atom_site_fract_x
 _atom_site_fract_y
 _atom_site_fract_z
 _atom_site_occupancy
  Li  Li0  1  0.66666667  0.33333333  0.69874193  1
  O  O1  1  0.66666667  0.33333333  0.06015637  1
  O  O2  1  0.66694173  0.83347086  0.01425743  1
  O  O3  1  0.16652914  0.33305827  0.01425743  1
  O  O4  1  0.16652914  0.83347086  0.01425743  1
  O  O5  1  0.00000000  0.00000000  0.53341001  1
  O  O6  1  0.50799968  0.49200032  0.47691003  1
  O  O7  1  0.50799968  0.01599935  0.47691003  1
  O  O8  1  0.98400065  0.49200032  0.47691003  1
  Mo  Mo9  1  0.85317230  0.14682770  0.25218093  1
  Mo  Mo10  1  0.29365540  0.14682770  0.25218093  1
  Mo  Mo11  1  0.85317230  0.70634460  0.25218093  1
  In  In12  1  0.33333333  0.66666667  0.72964651  1
