# generated using pymatgen
data_Cu8O7
_symmetry_space_group_name_H-M   'P 1'
_cell_length_a   6.51835344
_cell_length_b   10.63281222
_cell_length_c   6.46152242
_cell_angle_alpha   98.14856548
_cell_angle_beta   80.02236180
_cell_angle_gamma   29.42311133
_symmetry_Int_Tables_number   1
_chemical_formula_structural   Cu8O7
_chemical_formula_sum   'Cu8 O7'
_cell_volume   172.54220910
_cell_formula_units_Z   1
loop_
 _symmetry_equiv_pos_site_id
 _symmetry_equiv_pos_as_xyz
  1  'x, y, z'
loop_
 _atom_site_type_symbol
 _atom_site_label
 _atom_site_symmetry_multiplicity
 _atom_site_fract_x
 _atom_site_fract_y
 _atom_site_fract_z
 _atom_site_occupancy
  Cu  Cu0  1  0.98716285  0.01038836  0.01333737  1
  Cu  Cu1  1  0.01515594  0.47815551  0.50375211  1
  Cu  Cu2  1  -0.00047601  0.49982437  0.00778042  1
  Cu  Cu3  1  0.99257853  0.00375864  0.51205000  1
  Cu  Cu4  1  0.01141501  0.24385862  0.27140508  1
  Cu  Cu5  1  0.97135596  0.76425909  0.74912340  1
  Cu  Cu6  1  0.95681377  0.77901934  0.25702845  1
  Cu  Cu7  1  0.96757646  0.27366577  0.75218665  1
  O  O8  1  0.24824077  0.94082704  0.20442798  1
  O  O9  1  0.23246618  0.44872032  0.69171217  1
  O  O10  1  0.74397190  0.06488416  0.81864410  1
  O  O11  1  0.22154389  0.70447118  0.94581607  1
  O  O12  1  0.75990369  0.54909640  0.32277725  1
  O  O13  1  0.73875220  0.31437085  0.07007157  1
  O  O14  1  0.68712388  0.85915935  0.56434640  1
