# generated using pymatgen
data_Ti3(SnO5)2
_symmetry_space_group_name_H-M   'P 1'
_cell_length_a   4.72613967
_cell_length_b   4.72613967
_cell_length_c   15.43283908
_cell_angle_alpha   90.00000000
_cell_angle_beta   90.00000000
_cell_angle_gamma   90.04259402
_symmetry_Int_Tables_number   1
_chemical_formula_structural   Ti3(SnO5)2
_chemical_formula_sum   'Ti6 Sn4 O20'
_cell_volume   344.71391211
_cell_formula_units_Z   2
loop_
 _symmetry_equiv_pos_site_id
 _symmetry_equiv_pos_as_xyz
  1  'x, y, z'
loop_
 _atom_site_type_symbol
 _atom_site_label
 _atom_site_symmetry_multiplicity
 _atom_site_fract_x
 _atom_site_fract_y
 _atom_site_fract_z
 _atom_site_occupancy
  Ti  Ti0  1  0.00000000  0.00000000  0.19234494  1
  Ti  Ti1  1  0.00000000  0.00000000  0.00073092  1
  Ti  Ti2  1  0.00000000  0.00000000  0.60081935  1
  Ti  Ti3  1  0.00000000  0.00000000  0.80035522  1
  Ti  Ti4  1  0.50000000  0.50000000  0.50267861  1
  Ti  Ti5  1  0.50000000  0.50000000  0.10057683  1
  Sn  Sn6  1  0.00000000  0.00000000  0.40159089  1
  Sn  Sn7  1  0.50000000  0.50000000  0.69862353  1
  Sn  Sn8  1  0.50000000  0.50000000  0.29757014  1
  Sn  Sn9  1  0.50000000  0.50000000  0.90259009  1
  O  O10  1  0.19938643  0.80061357  0.50674210  1
  O  O11  1  0.19309432  0.80690568  0.09903844  1
  O  O12  1  0.19046031  0.80953969  0.29415524  1
  O  O13  1  0.18662509  0.81337491  0.70077037  1
  O  O14  1  0.18623919  0.81376081  0.90140651  1
  O  O15  1  0.30016498  0.30016498  0.00571250  1
  O  O16  1  0.30132543  0.30132543  0.19239509  1
  O  O17  1  0.29661014  0.29661014  0.80051625  1
  O  O18  1  0.30949096  0.30949096  0.40451232  1
  O  O19  1  0.29980459  0.29980459  0.59581142  1
  O  O20  1  0.69983502  0.69983502  0.00571250  1
  O  O21  1  0.69867457  0.69867457  0.19239509  1
  O  O22  1  0.69050904  0.69050904  0.40451232  1
  O  O23  1  0.70019541  0.70019541  0.59581142  1
  O  O24  1  0.70338986  0.70338986  0.80051625  1
  O  O25  1  0.80690568  0.19309432  0.09903844  1
  O  O26  1  0.80061357  0.19938643  0.50674210  1
  O  O27  1  0.80953969  0.19046031  0.29415524  1
  O  O28  1  0.81337491  0.18662509  0.70077037  1
  O  O29  1  0.81376081  0.18623919  0.90140651  1
