# generated using pymatgen
data_LiBiP2O7
_symmetry_space_group_name_H-M   'P 1'
_cell_length_a   7.23047202
_cell_length_b   9.11778058
_cell_length_c   9.90393286
_cell_angle_alpha   90.00000000
_cell_angle_beta   105.24600317
_cell_angle_gamma   90.00000000
_symmetry_Int_Tables_number   1
_chemical_formula_structural   LiBiP2O7
_chemical_formula_sum   'Li4 Bi4 P8 O28'
_cell_volume   629.94599768
_cell_formula_units_Z   4
loop_
 _symmetry_equiv_pos_site_id
 _symmetry_equiv_pos_as_xyz
  1  'x, y, z'
loop_
 _atom_site_type_symbol
 _atom_site_label
 _atom_site_symmetry_multiplicity
 _atom_site_fract_x
 _atom_site_fract_y
 _atom_site_fract_z
 _atom_site_occupancy
  Li  Li0  1  0.29009053  0.89742249  0.59372759  1
  Li  Li1  1  0.29009053  0.60257751  0.09372759  1
  Li  Li2  1  0.70990947  0.39742249  0.90627241  1
  Li  Li3  1  0.70990947  0.10257751  0.40627241  1
  Bi  Bi4  1  0.27432205  0.22161774  0.99269162  1
  Bi  Bi5  1  0.27432205  0.27838226  0.49269162  1
  Bi  Bi6  1  0.72567795  0.72161774  0.50730838  1
  Bi  Bi7  1  0.72567795  0.77838226  0.00730838  1
  P  P8  1  0.05473561  0.46587961  0.72310477  1
  P  P9  1  0.05473561  0.03412039  0.22310477  1
  P  P10  1  0.56387973  0.08134309  0.79297750  1
  P  P11  1  0.43612027  0.58134309  0.70702250  1
  P  P12  1  0.56387973  0.41865691  0.29297750  1
  P  P13  1  0.43612027  0.91865691  0.20702250  1
  P  P14  1  0.94526439  0.96587961  0.77689523  1
  P  P15  1  0.94526439  0.53412039  0.27689523  1
  O  O16  1  0.07709996  0.43299878  0.87883825  1
  O  O17  1  0.13598032  0.04052841  0.84274385  1
  O  O18  1  0.08940056  0.32935672  0.64206993  1
  O  O19  1  0.21485568  0.59048604  0.71382226  1
  O  O20  1  0.07709996  0.06700122  0.37883825  1
  O  O21  1  0.13598032  0.45947159  0.34274385  1
  O  O22  1  0.08940056  0.17064328  0.14206993  1
  O  O23  1  0.54038462  0.22059160  0.87440473  1
  O  O24  1  0.43713607  0.07915144  0.64092176  1
  O  O25  1  0.21485568  0.90951396  0.21382226  1
  O  O26  1  0.53077023  0.93874903  0.86397749  1
  O  O27  1  0.46922977  0.43874903  0.63602251  1
  O  O28  1  0.56286393  0.57915144  0.85907824  1
  O  O29  1  0.45961538  0.72059160  0.62559527  1
  O  O30  1  0.54038462  0.27940840  0.37440473  1
  O  O31  1  0.43713607  0.42084856  0.14092176  1
  O  O32  1  0.53077023  0.56125097  0.36397749  1
  O  O33  1  0.46922977  0.06125097  0.13602251  1
  O  O34  1  0.78514432  0.09048604  0.78617774  1
  O  O35  1  0.56286393  0.92084856  0.35907824  1
  O  O36  1  0.45961538  0.77940840  0.12559527  1
  O  O37  1  0.91059944  0.82935672  0.85793007  1
  O  O38  1  0.86401968  0.54052841  0.65725615  1
  O  O39  1  0.92290004  0.93299878  0.62116175  1
  O  O40  1  0.78514432  0.40951396  0.28617774  1
  O  O41  1  0.91059944  0.67064328  0.35793007  1
  O  O42  1  0.86401968  0.95947159  0.15725615  1
  O  O43  1  0.92290004  0.56700122  0.12116175  1
