# generated using pymatgen
data_Li2Ti(BO3)2
_symmetry_space_group_name_H-M   'P 1'
_cell_length_a   5.15840692
_cell_length_b   8.90888090
_cell_length_c   10.27929083
_cell_angle_alpha   90.00000000
_cell_angle_beta   91.58793833
_cell_angle_gamma   90.00000000
_symmetry_Int_Tables_number   1
_chemical_formula_structural   Li2Ti(BO3)2
_chemical_formula_sum   'Li8 Ti4 B8 O24'
_cell_volume   472.20990325
_cell_formula_units_Z   4
loop_
 _symmetry_equiv_pos_site_id
 _symmetry_equiv_pos_as_xyz
  1  'x, y, z'
loop_
 _atom_site_type_symbol
 _atom_site_label
 _atom_site_symmetry_multiplicity
 _atom_site_fract_x
 _atom_site_fract_y
 _atom_site_fract_z
 _atom_site_occupancy
  Li  Li0  1  0.18400691  0.66463815  0.63440382  1
  Li  Li1  1  0.17042150  0.98671397  0.09760274  1
  Li  Li2  1  0.31599309  0.16463815  0.86559618  1
  Li  Li3  1  0.32957850  0.48671397  0.40239726  1
  Li  Li4  1  0.67042150  0.51328603  0.59760274  1
  Li  Li5  1  0.68400691  0.83536185  0.13440382  1
  Li  Li6  1  0.82957850  0.01328603  0.90239726  1
  Li  Li7  1  0.81599309  0.33536185  0.36559618  1
  Ti  Ti8  1  0.14831826  0.32559221  0.13181177  1
  Ti  Ti9  1  0.35168174  0.82559221  0.36818823  1
  Ti  Ti10  1  0.64831826  0.17440779  0.63181177  1
  Ti  Ti11  1  0.85168174  0.67440779  0.86818823  1
  B  B12  1  0.17096071  0.33650737  0.62366000  1
  B  B13  1  0.15740717  0.66736616  0.12461422  1
  B  B14  1  0.32903929  0.83650737  0.87634000  1
  B  B15  1  0.34259283  0.16736616  0.37538578  1
  B  B16  1  0.65740717  0.83263384  0.62461422  1
  B  B17  1  0.67096071  0.16349263  0.12366000  1
  B  B18  1  0.84259283  0.33263384  0.87538578  1
  B  B19  1  0.82903929  0.66349263  0.37634000  1
  O  O20  1  0.07204006  0.31192788  0.94619782  1
  O  O21  1  0.10030293  0.67178899  0.39182779  1
  O  O22  1  0.19637706  0.96215563  0.90335253  1
  O  O23  1  0.20610434  0.29057807  0.32879374  1
  O  O24  1  0.25338085  0.02277268  0.35016165  1
  O  O25  1  0.20514718  0.70347263  0.83377165  1
  O  O26  1  0.29485282  0.20347263  0.66622835  1
  O  O27  1  0.24661915  0.52277268  0.14983835  1
  O  O28  1  0.29389566  0.79057807  0.17120626  1
  O  O29  1  0.30362294  0.46215563  0.59664747  1
  O  O30  1  0.42795994  0.81192788  0.55380218  1
  O  O31  1  0.39969707  0.17178899  0.10817221  1
  O  O32  1  0.60030293  0.82821101  0.89182779  1
  O  O33  1  0.57204006  0.18807212  0.44619782  1
  O  O34  1  0.69637706  0.53784437  0.40335253  1
  O  O35  1  0.70610434  0.20942193  0.82879374  1
  O  O36  1  0.75338085  0.47722732  0.85016165  1
  O  O37  1  0.70514718  0.79652737  0.33377165  1
  O  O38  1  0.79485282  0.29652737  0.16622835  1
  O  O39  1  0.74661915  0.97722732  0.64983835  1
  O  O40  1  0.79389566  0.70942193  0.67120626  1
  O  O41  1  0.80362294  0.03784437  0.09664747  1
  O  O42  1  0.89969707  0.32821101  0.60817221  1
  O  O43  1  0.92795994  0.68807212  0.05380218  1
