# generated using pymatgen
data_Li4V(PO4)2
_symmetry_space_group_name_H-M   'P 1'
_cell_length_a   8.50604918
_cell_length_b   10.35666479
_cell_length_c   8.31851214
_cell_angle_alpha   90.00000000
_cell_angle_beta   107.87636037
_cell_angle_gamma   90.00000000
_symmetry_Int_Tables_number   1
_chemical_formula_structural   Li4V(PO4)2
_chemical_formula_sum   'Li16 V4 P8 O32'
_cell_volume   697.43409955
_cell_formula_units_Z   4
loop_
 _symmetry_equiv_pos_site_id
 _symmetry_equiv_pos_as_xyz
  1  'x, y, z'
loop_
 _atom_site_type_symbol
 _atom_site_label
 _atom_site_symmetry_multiplicity
 _atom_site_fract_x
 _atom_site_fract_y
 _atom_site_fract_z
 _atom_site_occupancy
  Li  Li0  1  0.10249452  0.65992447  0.60007389  1
  Li  Li1  1  0.15924723  0.16043557  0.65274348  1
  Li  Li2  1  0.14231353  0.33817039  0.15762724  1
  Li  Li3  1  0.24087746  0.42641096  0.48359518  1
  Li  Li4  1  0.25912254  0.92641096  0.51640482  1
  Li  Li5  1  0.35768647  0.83817039  0.84237276  1
  Li  Li6  1  0.34075277  0.66043557  0.34725652  1
  Li  Li7  1  0.39750548  0.15992447  0.39992611  1
  Li  Li8  1  0.60249452  0.84007553  0.60007389  1
  Li  Li9  1  0.65924723  0.33956443  0.65274348  1
  Li  Li10  1  0.64231353  0.16182961  0.15762724  1
  Li  Li11  1  0.74087746  0.07358904  0.48359518  1
  Li  Li12  1  0.75912254  0.57358904  0.51640482  1
  Li  Li13  1  0.85768647  0.66182961  0.84237276  1
  Li  Li14  1  0.84075277  0.83956443  0.34725652  1
  Li  Li15  1  0.89750548  0.34007553  0.39992611  1
  V  V16  1  0.12792656  0.85611792  0.11980096  1
  V  V17  1  0.37207344  0.35611792  0.88019904  1
  V  V18  1  0.62792656  0.64388208  0.11980096  1
  V  V19  1  0.87207344  0.14388208  0.88019904  1
  P  P20  1  0.03640861  0.41575756  0.77723112  1
  P  P21  1  0.01749189  0.09227233  0.28974847  1
  P  P22  1  0.48250811  0.59227233  0.71025153  1
  P  P23  1  0.53640861  0.08424244  0.77723112  1
  P  P24  1  0.46359139  0.91575756  0.22276888  1
  P  P25  1  0.51749189  0.40772767  0.28974847  1
  P  P26  1  0.98250811  0.90772767  0.71025153  1
  P  P27  1  0.96359139  0.58424244  0.22276888  1
  O  O28  1  0.01877957  0.05452752  0.74471962  1
  O  O29  1  0.12806164  0.35659092  0.65436185  1
  O  O30  1  0.16832629  0.41605854  0.95542809  1
  O  O31  1  0.02630906  0.44773568  0.28560533  1
  O  O32  1  0.12592285  0.84489983  0.65789066  1
  O  O33  1  0.03911808  0.16041999  0.13068187  1
  O  O34  1  0.10839802  0.67226591  0.21957004  1
  O  O35  1  0.18401369  0.10580298  0.43517359  1
  O  O36  1  0.31598631  0.60580298  0.56482641  1
  O  O37  1  0.39160198  0.17226591  0.78042996  1
  O  O38  1  0.46088192  0.66041999  0.86931813  1
  O  O39  1  0.37407715  0.34489983  0.34210934  1
  O  O40  1  0.47369094  0.94773568  0.71439467  1
  O  O41  1  0.33167371  0.91605854  0.04457191  1
  O  O42  1  0.51877957  0.44547248  0.74471962  1
  O  O43  1  0.37193836  0.85659092  0.34563815  1
  O  O44  1  0.62806164  0.14340908  0.65436185  1
  O  O45  1  0.48122043  0.55452752  0.25528038  1
  O  O46  1  0.66832629  0.08394146  0.95542809  1
  O  O47  1  0.52630906  0.05226432  0.28560533  1
  O  O48  1  0.62592285  0.65510017  0.65789066  1
  O  O49  1  0.53911808  0.33958001  0.13068187  1
  O  O50  1  0.60839802  0.82773409  0.21957004  1
  O  O51  1  0.68401369  0.39419702  0.43517359  1
  O  O52  1  0.81598631  0.89419702  0.56482641  1
  O  O53  1  0.89160198  0.32773409  0.78042996  1
  O  O54  1  0.96088192  0.83958001  0.86931813  1
  O  O55  1  0.87407715  0.15510017  0.34210934  1
  O  O56  1  0.97369094  0.55226432  0.71439467  1
  O  O57  1  0.83167371  0.58394146  0.04457191  1
  O  O58  1  0.87193836  0.64340908  0.34563815  1
  O  O59  1  0.98122043  0.94547248  0.25528038  1
