# generated using pymatgen
data_LiBiP2O7
_symmetry_space_group_name_H-M   'P 1'
_cell_length_a   4.75012048
_cell_length_b   5.72538028
_cell_length_c   5.72368129
_cell_angle_alpha   74.26656423
_cell_angle_beta   82.52134470
_cell_angle_gamma   97.42975733
_symmetry_Int_Tables_number   1
_chemical_formula_structural   LiBiP2O7
_chemical_formula_sum   'Li1 Bi1 P2 O7'
_cell_volume   146.32962218
_cell_formula_units_Z   1
loop_
 _symmetry_equiv_pos_site_id
 _symmetry_equiv_pos_as_xyz
  1  'x, y, z'
loop_
 _atom_site_type_symbol
 _atom_site_label
 _atom_site_symmetry_multiplicity
 _atom_site_fract_x
 _atom_site_fract_y
 _atom_site_fract_z
 _atom_site_occupancy
  Li  Li0  1  0.72574069  0.29675029  0.90984051  1
  Bi  Bi1  1  0.72446357  0.92495340  0.53370054  1
  P  P2  1  0.31246989  0.39288678  0.41814193  1
  P  P3  1  0.13450066  0.81057476  0.00007687  1
  O  O4  1  0.02434983  0.25370560  0.58532954  1
  O  O5  1  0.48906937  0.53307461  0.55732272  1
  O  O6  1  0.48571198  0.23227301  0.29818766  1
  O  O7  1  0.96092344  0.69071494  0.83945839  1
  O  O8  1  0.42257738  0.97729509  0.86030187  1
  O  O9  1  0.22272136  0.58040238  0.18796570  1
  O  O10  1  0.95765184  0.95056813  0.13922628  1
