# generated using pymatgen
data_Cu3(OF)2
_symmetry_space_group_name_H-M   'P 1'
_cell_length_a   8.03926357
_cell_length_b   8.20420067
_cell_length_c   10.37122826
_cell_angle_alpha   90.00000000
_cell_angle_beta   72.59729449
_cell_angle_gamma   90.00000000
_symmetry_Int_Tables_number   1
_chemical_formula_structural   Cu3(OF)2
_chemical_formula_sum   'Cu24 O16 F16'
_cell_volume   652.73075249
_cell_formula_units_Z   8
loop_
 _symmetry_equiv_pos_site_id
 _symmetry_equiv_pos_as_xyz
  1  'x, y, z'
loop_
 _atom_site_type_symbol
 _atom_site_label
 _atom_site_symmetry_multiplicity
 _atom_site_fract_x
 _atom_site_fract_y
 _atom_site_fract_z
 _atom_site_occupancy
  Cu  Cu0  1  0.07522661  0.79110893  0.35557945  1
  Cu  Cu1  1  0.10511448  0.41937006  0.38057928  1
  Cu  Cu2  1  0.23297089  0.18029449  0.16596208  1
  Cu  Cu3  1  0.07522661  0.70889107  0.85557945  1
  Cu  Cu4  1  0.30771379  0.51323170  0.06982259  1
  Cu  Cu5  1  0.10511448  0.08062994  0.88057928  1
  Cu  Cu6  1  0.23297089  0.31970551  0.66596208  1
  Cu  Cu7  1  0.45006911  0.92763096  0.26812740  1
  Cu  Cu8  1  0.30771379  0.98676830  0.56982259  1
  Cu  Cu9  1  0.59432363  0.15339357  0.00713822  1
  Cu  Cu10  1  0.40567637  0.65339357  0.49286278  1
  Cu  Cu11  1  0.54993089  0.42763096  0.23187260  1
  Cu  Cu12  1  0.45006911  0.57236904  0.76812740  1
  Cu  Cu13  1  0.59432363  0.34660643  0.50713722  1
  Cu  Cu14  1  0.40567637  0.84660643  0.99286278  1
  Cu  Cu15  1  0.69228621  0.01323170  0.43017741  1
  Cu  Cu16  1  0.54993089  0.07236904  0.73187260  1
  Cu  Cu17  1  0.76702911  0.68029449  0.33403792  1
  Cu  Cu18  1  0.89488552  0.91937006  0.11942072  1
  Cu  Cu19  1  0.69228621  0.48676830  0.93017741  1
  Cu  Cu20  1  0.92477339  0.29110893  0.14442055  1
  Cu  Cu21  1  0.76702911  0.81970551  0.83403792  1
  Cu  Cu22  1  0.89488552  0.58062994  0.61942072  1
  Cu  Cu23  1  0.92477339  0.20889107  0.64442055  1
  O  O24  1  0.06169244  0.09868502  0.07466059  1
  O  O25  1  0.12322221  0.38622636  0.19027275  1
  O  O26  1  0.06169244  0.40131498  0.57466059  1
  O  O27  1  0.12322221  0.11377364  0.69027275  1
  O  O28  1  0.40165849  0.02025905  0.11643841  1
  O  O29  1  0.50410098  0.37368161  0.06724675  1
  O  O30  1  0.49589902  0.87368161  0.43275325  1
  O  O31  1  0.40165849  0.47974095  0.61643841  1
  O  O32  1  0.59834151  0.52025805  0.38356159  1
  O  O33  1  0.50410098  0.12631839  0.56724675  1
  O  O34  1  0.49589902  0.62631839  0.93275325  1
  O  O35  1  0.59834151  0.97974195  0.88356159  1
  O  O36  1  0.87677779  0.88622636  0.30972725  1
  O  O37  1  0.93830756  0.59868502  0.42533941  1
  O  O38  1  0.87677779  0.61377364  0.80972725  1
  O  O39  1  0.93830756  0.90131498  0.92533941  1
  F  F40  1  0.18883829  0.72947151  0.09450653  1
  F  F41  1  0.19824684  0.99272795  0.36627879  1
  F  F42  1  0.18883829  0.77052849  0.59450653  1
  F  F43  1  0.29468773  0.66481543  0.32145037  1
  F  F44  1  0.19824684  0.50727205  0.86627879  1
  F  F45  1  0.33367427  0.30532576  0.33516121  1
  F  F46  1  0.29468773  0.83518457  0.82145037  1
  F  F47  1  0.66632573  0.80532576  0.16483879  1
  F  F48  1  0.33367427  0.19467424  0.83516121  1
  F  F49  1  0.70531227  0.16481543  0.17854963  1
  F  F50  1  0.66632573  0.69467424  0.66483879  1
  F  F51  1  0.80175316  0.49272795  0.13372121  1
  F  F52  1  0.70531227  0.33518457  0.67854963  1
  F  F53  1  0.81116171  0.22947151  0.40549347  1
  F  F54  1  0.80175316  0.00727205  0.63372121  1
  F  F55  1  0.81116171  0.27052849  0.90549347  1
