# generated using pymatgen
data_Li7Mn4P9O32
_symmetry_space_group_name_H-M   'P 1'
_cell_length_a   13.58603653
_cell_length_b   13.58603653
_cell_length_c   6.60293844
_cell_angle_alpha   90.00000000
_cell_angle_beta   90.00000000
_cell_angle_gamma   90.00000000
_symmetry_Int_Tables_number   1
_chemical_formula_structural   Li7Mn4P9O32
_chemical_formula_sum   'Li14 Mn8 P18 O64'
_cell_volume   1218.77294312
_cell_formula_units_Z   2
loop_
 _symmetry_equiv_pos_site_id
 _symmetry_equiv_pos_as_xyz
  1  'x, y, z'
loop_
 _atom_site_type_symbol
 _atom_site_label
 _atom_site_symmetry_multiplicity
 _atom_site_fract_x
 _atom_site_fract_y
 _atom_site_fract_z
 _atom_site_occupancy
  Li  Li0  1  0.00000000  0.00000000  0.00000000  1
  Li  Li1  1  0.00000000  0.50000000  0.13798653  1
  Li  Li2  1  0.00000000  0.50000000  0.63798653  1
  Li  Li3  1  0.09176836  0.74188551  0.83746223  1
  Li  Li4  1  0.24188551  0.59176836  0.33746223  1
  Li  Li5  1  0.25811449  0.09176836  0.16253777  1
  Li  Li6  1  0.40823164  0.24188551  0.66253777  1
  Li  Li7  1  0.50000000  0.50000000  0.50000000  1
  Li  Li8  1  0.50000000  0.00000000  0.36201347  1
  Li  Li9  1  0.50000000  0.00000000  0.86201347  1
  Li  Li10  1  0.59176836  0.75811449  0.66253777  1
  Li  Li11  1  0.74188551  0.90823164  0.16253777  1
  Li  Li12  1  0.75811449  0.40823164  0.33746223  1
  Li  Li13  1  0.90823164  0.25811449  0.83746223  1
  Mn  Mn14  1  0.11988648  0.19838151  0.61497420  1
  Mn  Mn15  1  0.19838151  0.88011352  0.38502580  1
  Mn  Mn16  1  0.30161849  0.38011352  0.11497420  1
  Mn  Mn17  1  0.38011352  0.69838151  0.88502580  1
  Mn  Mn18  1  0.61988648  0.30161849  0.88502580  1
  Mn  Mn19  1  0.69838151  0.61988648  0.11497420  1
  Mn  Mn20  1  0.80161849  0.11988648  0.38502580  1
  Mn  Mn21  1  0.88011352  0.80161849  0.61497420  1
  P  P22  1  0.00000000  0.00000000  0.50000000  1
  P  P23  1  0.06221851  0.69172998  0.38752255  1
  P  P24  1  0.10803407  0.24484869  0.12776883  1
  P  P25  1  0.19172998  0.56221851  0.88752255  1
  P  P26  1  0.24484869  0.89196593  0.87223117  1
  P  P27  1  0.25515131  0.39196593  0.62776883  1
  P  P28  1  0.30827002  0.06221851  0.61247745  1
  P  P29  1  0.39196593  0.74484869  0.37223117  1
  P  P30  1  0.43778149  0.19172998  0.11247745  1
  P  P31  1  0.50000000  0.50000000  0.00000000  1
  P  P32  1  0.56221851  0.80827002  0.11247745  1
  P  P33  1  0.60803407  0.25515131  0.37223117  1
  P  P34  1  0.69172998  0.93778149  0.61247745  1
  P  P35  1  0.74484869  0.60803407  0.62776883  1
  P  P36  1  0.75515131  0.10803407  0.87223117  1
  P  P37  1  0.80827002  0.43778149  0.88752255  1
  P  P38  1  0.89196593  0.75515131  0.12776883  1
  P  P39  1  0.93778149  0.30827002  0.38752255  1
  O  O40  1  0.00320683  0.72073982  0.18311987  1
  O  O41  1  0.01512698  0.74289582  0.57115093  1
  O  O42  1  0.06264412  0.06537649  0.64388950  1
  O  O43  1  0.06537649  0.93735588  0.35611050  1
  O  O44  1  0.06609763  0.58040597  0.39779879  1
  O  O45  1  0.08040597  0.56609763  0.89779879  1
  O  O46  1  0.09304182  0.19048532  0.92969343  1
  O  O47  1  0.14440640  0.17605582  0.29336154  1
  O  O48  1  0.16572334  0.73408357  0.34897229  1
  O  O49  1  0.16426227  0.34273325  0.10954782  1
  O  O50  1  0.15726675  0.33573773  0.60954782  1
  O  O51  1  0.17605582  0.85559360  0.70663846  1
  O  O52  1  0.19048532  0.90695818  0.07030657  1
  O  O53  1  0.22073982  0.50320683  0.68311987  1
  O  O54  1  0.23408357  0.66572334  0.84897229  1
  O  O55  1  0.24289582  0.51512698  0.07115093  1
  O  O56  1  0.25710418  0.01512698  0.42884907  1
  O  O57  1  0.26591643  0.16572334  0.65102771  1
  O  O58  1  0.27926018  0.00320683  0.81688013  1
  O  O59  1  0.30951468  0.40695818  0.42969343  1
  O  O60  1  0.32394418  0.35559360  0.79336154  1
  O  O61  1  0.34273325  0.83573773  0.89045218  1
  O  O62  1  0.33573773  0.84273325  0.39045218  1
  O  O63  1  0.33427666  0.23408357  0.15102771  1
  O  O64  1  0.35559360  0.67605582  0.20663846  1
  O  O65  1  0.40695818  0.69048532  0.57030657  1
  O  O66  1  0.41959403  0.06609763  0.60220121  1
  O  O67  1  0.43390237  0.08040597  0.10220121  1
  O  O68  1  0.43462351  0.43735588  0.14388950  1
  O  O69  1  0.43735588  0.56537649  0.85611050  1
  O  O70  1  0.48487302  0.24289582  0.92884907  1
  O  O71  1  0.49679317  0.22073982  0.31688013  1
  O  O72  1  0.50320683  0.77926018  0.31688013  1
  O  O73  1  0.51512698  0.75710418  0.92884907  1
  O  O74  1  0.56264412  0.43462351  0.85611050  1
  O  O75  1  0.56537649  0.56264412  0.14388950  1
  O  O76  1  0.56609763  0.91959403  0.10220121  1
  O  O77  1  0.58040597  0.93390237  0.60220121  1
  O  O78  1  0.59304182  0.30951468  0.57030657  1
  O  O79  1  0.64440640  0.32394418  0.20663846  1
  O  O80  1  0.66572334  0.76591643  0.15102771  1
  O  O81  1  0.66426227  0.15726675  0.39045218  1
  O  O82  1  0.65726675  0.16426227  0.89045218  1
  O  O83  1  0.67605582  0.64440640  0.79336154  1
  O  O84  1  0.69048532  0.59304182  0.42969343  1
  O  O85  1  0.72073982  0.99679317  0.81688013  1
  O  O86  1  0.73408357  0.83427666  0.65102771  1
  O  O87  1  0.74289582  0.98487302  0.42884907  1
  O  O88  1  0.75710418  0.48487302  0.07115093  1
  O  O89  1  0.76591643  0.33427666  0.84897229  1
  O  O90  1  0.77926018  0.49679317  0.68311987  1
  O  O91  1  0.80951468  0.09304182  0.07030657  1
  O  O92  1  0.82394418  0.14440640  0.70663846  1
  O  O93  1  0.84273325  0.66426227  0.60954782  1
  O  O94  1  0.83573773  0.65726675  0.10954782  1
  O  O95  1  0.83427666  0.26591643  0.34897229  1
  O  O96  1  0.85559360  0.82394418  0.29336154  1
  O  O97  1  0.90695818  0.80951468  0.92969343  1
  O  O98  1  0.91959403  0.43390237  0.89779879  1
  O  O99  1  0.93390237  0.41959403  0.39779879  1
  O  O100  1  0.93462351  0.06264412  0.35611050  1
  O  O101  1  0.93735588  0.93462351  0.64388950  1
  O  O102  1  0.98487302  0.25710418  0.57115093  1
  O  O103  1  0.99679317  0.27926018  0.18311987  1
