# generated using pymatgen
data_LiNi(PO3)3
_symmetry_space_group_name_H-M   'P 1'
_cell_length_a   9.60279090
_cell_length_b   9.43299841
_cell_length_c   9.35777955
_cell_angle_alpha   110.22963080
_cell_angle_beta   104.68258800
_cell_angle_gamma   108.91327120
_symmetry_Int_Tables_number   1
_chemical_formula_structural   LiNi(PO3)3
_chemical_formula_sum   'Li4 Ni4 P12 O36'
_cell_volume   685.66383227
_cell_formula_units_Z   4
loop_
 _symmetry_equiv_pos_site_id
 _symmetry_equiv_pos_as_xyz
  1  'x, y, z'
loop_
 _atom_site_type_symbol
 _atom_site_label
 _atom_site_symmetry_multiplicity
 _atom_site_fract_x
 _atom_site_fract_y
 _atom_site_fract_z
 _atom_site_occupancy
  Li  Li0  1  0.26530602  0.22863876  0.76683649  1
  Li  Li1  1  0.21573642  0.30438119  0.07390110  1
  Li  Li2  1  0.78426358  0.69561881  0.92609890  1
  Li  Li3  1  0.73469398  0.77136124  0.23316351  1
  Ni  Ni4  1  0.50786619  0.93531884  0.33376809  1
  Ni  Ni5  1  0.30882937  0.17196754  0.37937817  1
  Ni  Ni6  1  0.69117063  0.82803246  0.62062183  1
  Ni  Ni7  1  0.49213381  0.06468116  0.66623191  1
  P  P8  1  0.07996829  0.91746016  0.80384346  1
  P  P9  1  0.10548211  0.85531117  0.47858245  1
  P  P10  1  0.35463016  0.60446049  0.99267090  1
  P  P11  1  0.15545150  0.78628831  0.04798986  1
  P  P12  1  0.29023580  0.65972510  0.41640304  1
  P  P13  1  0.40870939  0.56851378  0.67403162  1
  P  P14  1  0.59129061  0.43148622  0.32596838  1
  P  P15  1  0.70976420  0.34027490  0.58359696  1
  P  P16  1  0.84454850  0.21371169  0.95201014  1
  P  P17  1  0.64536984  0.39553951  0.00732910  1
  P  P18  1  0.89451789  0.14468883  0.52141755  1
  P  P19  1  0.92003171  0.08253984  0.19615654  1
  O  O20  1  0.00204570  0.26686634  0.94354811  1
  O  O21  1  0.09243828  0.81934955  0.63066777  1
  O  O22  1  0.15421248  0.82596262  0.89539069  1
  O  O23  1  0.19721299  0.62936284  0.99119710  1
  O  O24  1  0.14053399  0.69990677  0.38278710  1
  O  O25  1  0.04775384  0.16661041  0.62996872  1
  O  O26  1  0.19844608  0.09916692  0.88953223  1
  O  O27  1  0.32491526  0.43129806  0.96458835  1
  O  O28  1  0.37294990  0.62936690  0.83581876  1
  O  O29  1  0.28694970  0.61639506  0.56636133  1
  O  O30  1  0.30199900  0.93586699  0.20936237  1
  O  O31  1  0.09519812  0.13736250  0.22544749  1
  O  O32  1  0.26989108  0.52064282  0.26738477  1
  O  O33  1  0.44891682  0.83057713  0.49108713  1
  O  O34  1  0.35258557  0.38051080  0.59174931  1
  O  O35  1  0.25965070  0.01994217  0.54279511  1
  O  O36  1  0.57837211  0.68911385  0.71666827  1
  O  O37  1  0.50243383  0.24732781  0.85184513  1
  O  O38  1  0.49756617  0.75267219  0.14815487  1
  O  O39  1  0.42162789  0.31088615  0.28333173  1
  O  O40  1  0.74034930  0.98005783  0.45720489  1
  O  O41  1  0.64741443  0.61948920  0.40825069  1
  O  O42  1  0.55108318  0.16942287  0.50891287  1
  O  O43  1  0.73010892  0.47935718  0.73261523  1
  O  O44  1  0.90480188  0.86263750  0.77455251  1
  O  O45  1  0.69800100  0.06413301  0.79063763  1
  O  O46  1  0.71305030  0.38360494  0.43363867  1
  O  O47  1  0.62705010  0.37063310  0.16418124  1
  O  O48  1  0.67508474  0.56870194  0.03541165  1
  O  O49  1  0.80155392  0.90083308  0.11046777  1
  O  O50  1  0.95224616  0.83338959  0.37003128  1
  O  O51  1  0.85946601  0.30009323  0.61721290  1
  O  O52  1  0.80278701  0.37063716  0.00880290  1
  O  O53  1  0.84578752  0.17403738  0.10460931  1
  O  O54  1  0.90756172  0.18065045  0.36933223  1
  O  O55  1  0.99795430  0.73313366  0.05645189  1
