# generated using pymatgen
data_Li2Fe(PO4)2
_symmetry_space_group_name_H-M   'P 1'
_cell_length_a   7.59244289
_cell_length_b   8.03984192
_cell_length_c   5.13569172
_cell_angle_alpha   90.00000000
_cell_angle_beta   92.91518631
_cell_angle_gamma   90.00000000
_symmetry_Int_Tables_number   1
_chemical_formula_structural   Li2Fe(PO4)2
_chemical_formula_sum   'Li4 Fe2 P4 O16'
_cell_volume   313.08741494
_cell_formula_units_Z   2
loop_
 _symmetry_equiv_pos_site_id
 _symmetry_equiv_pos_as_xyz
  1  'x, y, z'
loop_
 _atom_site_type_symbol
 _atom_site_label
 _atom_site_symmetry_multiplicity
 _atom_site_fract_x
 _atom_site_fract_y
 _atom_site_fract_z
 _atom_site_occupancy
  Li  Li0  1  0.09549446  0.36133045  0.08522427  1
  Li  Li1  1  0.40450554  0.86133045  0.41477573  1
  Li  Li2  1  0.59549446  0.13866955  0.58522427  1
  Li  Li3  1  0.90450554  0.63866955  0.91477573  1
  Fe  Fe4  1  0.00000000  0.00000000  0.00000000  1
  Fe  Fe5  1  0.50000000  0.50000000  0.50000000  1
  P  P6  1  0.19307743  0.19578276  0.52778202  1
  P  P7  1  0.30692257  0.69578276  0.97221798  1
  P  P8  1  0.69307743  0.30421724  0.02778202  1
  P  P9  1  0.80692257  0.80421724  0.47221798  1
  O  O10  1  0.94358756  0.85624172  0.69401922  1
  O  O11  1  0.10167336  0.19204906  0.79144553  1
  O  O12  1  0.15175533  0.57383513  0.95311975  1
  O  O13  1  0.25485387  0.37355929  0.45845885  1
  O  O14  1  0.24514613  0.87355929  0.04154115  1
  O  O15  1  0.34824467  0.07383513  0.54688025  1
  O  O16  1  0.39832664  0.69204906  0.70855447  1
  O  O17  1  0.55641244  0.35624172  0.80598078  1
  O  O18  1  0.44358756  0.64375828  0.19402022  1
  O  O19  1  0.60167336  0.30795094  0.29144553  1
  O  O20  1  0.65175533  0.92616487  0.45311975  1
  O  O21  1  0.75485387  0.12644071  0.95845885  1
  O  O22  1  0.74514613  0.62644071  0.54154115  1
  O  O23  1  0.84824467  0.42616487  0.04688025  1
  O  O24  1  0.89832664  0.80795094  0.20855447  1
  O  O25  1  0.05641244  0.14375828  0.30597978  1
