# generated using pymatgen
data_Li6Cr3Ni(PO4)6
_symmetry_space_group_name_H-M   'P 1'
_cell_length_a   8.47523897
_cell_length_b   8.49502235
_cell_length_c   8.50369906
_cell_angle_alpha   61.91223373
_cell_angle_beta   62.16295585
_cell_angle_gamma   61.96618984
_symmetry_Int_Tables_number   1
_chemical_formula_structural   Li6Cr3Ni(PO4)6
_chemical_formula_sum   'Li6 Cr3 Ni1 P6 O24'
_cell_volume   452.41560477
_cell_formula_units_Z   1
loop_
 _symmetry_equiv_pos_site_id
 _symmetry_equiv_pos_as_xyz
  1  'x, y, z'
loop_
 _atom_site_type_symbol
 _atom_site_label
 _atom_site_symmetry_multiplicity
 _atom_site_fract_x
 _atom_site_fract_y
 _atom_site_fract_z
 _atom_site_occupancy
  Li  Li0  1  0.01650900  0.00292299  0.98441685  1
  Li  Li1  1  0.75425323  0.14579533  0.35282932  1
  Li  Li2  1  0.48396302  0.51189521  0.49559153  1
  Li  Li3  1  0.21624955  0.85213658  0.66078757  1
  Li  Li4  1  0.66235985  0.21315786  0.84894338  1
  Li  Li5  1  0.84831076  0.66365773  0.21329893  1
  Cr  Cr6  1  0.13808250  0.14377009  0.13859934  1
  Cr  Cr7  1  0.36038209  0.36323803  0.35548318  1
  Cr  Cr8  1  0.64181383  0.64474362  0.64508378  1
  Ni  Ni9  1  0.85618498  0.85354591  0.85264241  1
  P  P10  1  0.04980605  0.75008500  0.45204173  1
  P  P11  1  0.44850403  0.05206045  0.75188975  1
  P  P12  1  0.75042179  0.45594343  0.04786923  1
  P  P13  1  0.25230356  0.53877442  0.95983770  1
  P  P14  1  0.54202812  0.96510814  0.25180414  1
  P  P15  1  0.95815445  0.25151641  0.53630884  1
  O  O16  1  0.12482681  0.31275149  0.47927587  1
  O  O17  1  0.33148391  0.48825438  0.11420737  1
  O  O18  1  0.05083239  0.91762531  0.26515420  1
  O  O19  1  0.52219304  0.11854582  0.31741185  1
  O  O20  1  0.24479898  0.59058995  0.41957220  1
  O  O21  1  0.03565936  0.80113549  0.60923257  1
  O  O22  1  0.25713534  0.06801552  0.90945318  1
  O  O23  1  0.43626589  0.24306840  0.58309379  1
  O  O24  1  0.59484723  0.42672534  0.24660294  1
  O  O25  1  0.19568654  0.37939325  0.99021418  1
  O  O26  1  0.08930770  0.72838914  0.95869560  1
  O  O27  1  0.36772525  0.00834006  0.21059875  1
  O  O28  1  0.60897216  0.02832304  0.80612197  1
  O  O29  1  0.90368484  0.25682341  0.06828944  1
  O  O30  1  0.81046058  0.60900294  0.02823585  1
  O  O31  1  0.40257359  0.57375550  0.75950539  1
  O  O32  1  0.57222047  0.76458414  0.40362503  1
  O  O33  1  0.72726458  0.95597759  0.08383837  1
  O  O34  1  0.96707585  0.20123437  0.37955293  1
  O  O35  1  0.76083370  0.40570955  0.57516599  1
  O  O36  1  0.48512920  0.89066588  0.69051626  1
  O  O37  1  0.95716712  0.08584944  0.72487870  1
  O  O38  1  0.68877351  0.49489710  0.88727482  1
  O  O39  1  0.88575814  0.69098964  0.49305606  1
