# generated using pymatgen
data_Li2TiPCO7
_symmetry_space_group_name_H-M   'P 1'
_cell_length_a   5.11468068
_cell_length_b   6.39912156
_cell_length_c   8.59754537
_cell_angle_alpha   90.00000000
_cell_angle_beta   86.52455912
_cell_angle_gamma   90.00000000
_symmetry_Int_Tables_number   1
_chemical_formula_structural   Li2TiPCO7
_chemical_formula_sum   'Li4 Ti2 P2 C2 O14'
_cell_volume   280.87552916
_cell_formula_units_Z   2
loop_
 _symmetry_equiv_pos_site_id
 _symmetry_equiv_pos_as_xyz
  1  'x, y, z'
loop_
 _atom_site_type_symbol
 _atom_site_label
 _atom_site_symmetry_multiplicity
 _atom_site_fract_x
 _atom_site_fract_y
 _atom_site_fract_z
 _atom_site_occupancy
  Li  Li0  1  0.75074176  0.00909474  0.77902705  1
  Li  Li1  1  0.24925824  0.99090526  0.22097295  1
  Li  Li2  1  0.24925824  0.50909474  0.22097295  1
  Li  Li3  1  0.75074176  0.49090526  0.77902705  1
  C  C4  1  0.73106330  0.75000000  0.05406073  1
  C  C5  1  0.26893670  0.25000000  0.94593927  1
  O  O6  1  0.53071019  0.75000000  0.16020086  1
  O  O7  1  0.96147954  0.75000000  0.11421331  1
  O  O8  1  0.46928981  0.25000000  0.83979914  1
  O  O9  1  0.18292560  0.94390452  0.66835272  1
  O  O10  1  0.18292560  0.55609548  0.66835272  1
  O  O11  1  0.18116018  0.75000000  0.41071462  1
  O  O12  1  0.81883982  0.25000000  0.58928538  1
  O  O13  1  0.81707440  0.44390452  0.33164728  1
  O  O14  1  0.81707440  0.05609548  0.33164728  1
  O  O15  1  0.40859683  0.25000000  0.43664602  1
  O  O16  1  0.70059328  0.75000000  0.90934340  1
  O  O17  1  0.29940672  0.25000000  0.09065660  1
  O  O18  1  0.59140317  0.75000000  0.56335398  1
  O  O19  1  0.03852046  0.25000000  0.88578669  1
  P  P20  1  0.71282539  0.25000000  0.42331492  1
  P  P21  1  0.28717461  0.75000000  0.57668508  1
  Ti  Ti22  1  0.79457482  0.75000000  0.34205230  1
  Ti  Ti23  1  0.20542518  0.25000000  0.65794770  1
