# generated using pymatgen
data_LiMnPO5
_symmetry_space_group_name_H-M   'P 1'
_cell_length_a   7.18274420
_cell_length_b   7.81571375
_cell_length_c   7.01305806
_cell_angle_alpha   90.00000000
_cell_angle_beta   60.61931893
_cell_angle_gamma   90.00000000
_symmetry_Int_Tables_number   1
_chemical_formula_structural   LiMnPO5
_chemical_formula_sum   'Li4 Mn4 P4 O20'
_cell_volume   343.06286502
_cell_formula_units_Z   4
loop_
 _symmetry_equiv_pos_site_id
 _symmetry_equiv_pos_as_xyz
  1  'x, y, z'
loop_
 _atom_site_type_symbol
 _atom_site_label
 _atom_site_symmetry_multiplicity
 _atom_site_fract_x
 _atom_site_fract_y
 _atom_site_fract_z
 _atom_site_occupancy
  Li  Li0  1  0.25163095  0.93949817  0.96615691  1
  Li  Li1  1  0.25163095  0.56050183  0.46615691  1
  Li  Li2  1  0.74836905  0.43949817  0.53384309  1
  Li  Li3  1  0.74836905  0.06050183  0.03384309  1
  Mn  Mn4  1  0.24986303  0.25229401  0.75020371  1
  Mn  Mn5  1  0.24986303  0.24770599  0.25020471  1
  Mn  Mn6  1  0.75013697  0.75229401  0.74979629  1
  Mn  Mn7  1  0.75013697  0.74770599  0.24979529  1
  P  P8  1  0.25034032  0.89467177  0.50089029  1
  P  P9  1  0.74965968  0.39467177  0.99910971  1
  P  P10  1  0.25034032  0.60532823  0.00089029  1
  P  P11  1  0.74965968  0.10532823  0.49910971  1
  O  O12  1  0.24914680  0.17603738  0.99963826  1
  O  O13  1  0.26114381  0.49446723  0.81358897  1
  O  O14  1  0.06267750  0.76421701  0.59009642  1
  O  O15  1  0.43678248  0.73695001  0.91135123  1
  O  O16  1  0.24197069  0.00482337  0.68854186  1
  O  O17  1  0.24914680  0.32396262  0.49963826  1
  O  O18  1  0.26114381  0.00553277  0.31358897  1
  O  O19  1  0.06267750  0.73578299  0.09009642  1
  O  O20  1  0.75802931  0.50482337  0.81145814  1
  O  O21  1  0.56321752  0.23695001  0.58864877  1
  O  O22  1  0.43678248  0.76304999  0.41135123  1
  O  O23  1  0.24197069  0.49517663  0.18854186  1
  O  O24  1  0.93732250  0.26421701  0.90990358  1
  O  O25  1  0.73885619  0.99446723  0.68641103  1
  O  O26  1  0.75085320  0.67603738  0.50036174  1
  O  O27  1  0.75802931  0.99517663  0.31145814  1
  O  O28  1  0.56321752  0.26304999  0.08864877  1
  O  O29  1  0.93732250  0.23578299  0.40990358  1
  O  O30  1  0.73885619  0.50553277  0.18641103  1
  O  O31  1  0.75085320  0.82396262  0.00036174  1
