# generated using pymatgen
data_V5W3O20
_symmetry_space_group_name_H-M   'P 1'
_cell_length_a   7.61958928
_cell_length_b   12.98816913
_cell_length_c   7.82732454
_cell_angle_alpha   89.57313307
_cell_angle_beta   89.91058664
_cell_angle_gamma   72.89962571
_symmetry_Int_Tables_number   1
_chemical_formula_structural   V5W3O20
_chemical_formula_sum   'V10 W6 O40'
_cell_volume   740.36123342
_cell_formula_units_Z   2
loop_
 _symmetry_equiv_pos_site_id
 _symmetry_equiv_pos_as_xyz
  1  'x, y, z'
loop_
 _atom_site_type_symbol
 _atom_site_label
 _atom_site_symmetry_multiplicity
 _atom_site_fract_x
 _atom_site_fract_y
 _atom_site_fract_z
 _atom_site_occupancy
  V  V0  1  0.32832436  0.84415997  0.54483795  1
  V  V1  1  0.82044704  0.85878065  0.53836540  1
  V  V2  1  0.32574082  0.84794963  0.04028148  1
  V  V3  1  0.17356196  0.65477369  0.95457497  1
  V  V4  1  0.16404992  0.66005595  0.46502244  1
  V  V5  1  0.82643804  0.34522631  0.54542503  1
  V  V6  1  0.83595008  0.33994405  0.03497756  1
  V  V7  1  0.67167564  0.15584003  0.95516205  1
  V  V8  1  0.17955296  0.14121935  0.96163460  1
  V  V9  1  0.67425918  0.15205037  0.45971852  1
  W  W10  1  0.82299923  0.85608012  0.03080337  1
  W  W11  1  0.67677564  0.64288270  0.97603407  1
  W  W12  1  0.67731763  0.64695081  0.47484374  1
  W  W13  1  0.32322436  0.35711730  0.52396593  1
  W  W14  1  0.32268237  0.35304919  0.02515626  1
  W  W15  1  0.17700077  0.14391988  0.46919663  1
  O  O16  1  0.32399029  0.84854979  0.75759138  1
  O  O17  1  0.82631523  0.84777865  0.75519824  1
  O  O18  1  0.32398246  0.85212171  0.25262209  1
  O  O19  1  0.82366982  0.84935822  0.25882414  1
  O  O20  1  0.60313638  0.81243525  0.50645946  1
  O  O21  1  0.59707068  0.81436428  0.99780057  1
  O  O22  1  0.08700246  0.81568879  0.99908591  1
  O  O23  1  0.08634132  0.81179821  0.50265209  1
  O  O24  1  0.40909694  0.68174081  0.49766178  1
  O  O25  1  0.91631588  0.67131420  0.49826612  1
  O  O26  1  0.41395355  0.68174640  0.00365931  1
  O  O27  1  0.90581415  0.67954062  0.00067300  1
  O  O28  1  0.67598862  0.64635886  0.74276801  1
  O  O29  1  0.67631069  0.65074613  0.24096516  1
  O  O30  1  0.17778414  0.64854828  0.74372778  1
  O  O31  1  0.17370492  0.65353035  0.25530321  1
  O  O32  1  0.74723434  0.49581095  0.99969494  1
  O  O33  1  0.74578698  0.50063095  0.49468060  1
  O  O34  1  0.25276566  0.50418905  0.50030506  1
  O  O35  1  0.25421302  0.49936905  0.00531940  1
  O  O36  1  0.82221586  0.35145172  0.75627222  1
  O  O37  1  0.82629508  0.34646965  0.24469679  1
  O  O38  1  0.32401138  0.35364114  0.75723199  1
  O  O39  1  0.32368931  0.34925387  0.25903484  1
  O  O40  1  0.59090306  0.31825919  0.00233822  1
  O  O41  1  0.08368412  0.32868580  0.00173388  1
  O  O42  1  0.09418585  0.32045938  0.49932700  1
  O  O43  1  0.58604645  0.31825360  0.49634069  1
  O  O44  1  0.91299754  0.18431121  0.50091409  1
  O  O45  1  0.91365868  0.18820179  0.99734791  1
  O  O46  1  0.39686362  0.18756475  0.99354054  1
  O  O47  1  0.40292932  0.18563572  0.50219943  1
  O  O48  1  0.17368477  0.15222135  0.74480176  1
  O  O49  1  0.67600971  0.15145021  0.74240862  1
  O  O50  1  0.17633018  0.15064178  0.24117586  1
  O  O51  1  0.67601754  0.14787829  0.24737791  1
  O  O52  1  0.75294598  0.99377393  0.50718245  1
  O  O53  1  0.24981915  0.99965527  0.49867640  1
  O  O54  1  0.24705402  0.00622607  0.99281755  1
  O  O55  1  0.75018085  0.00034473  0.00132360  1
