# generated using pymatgen
data_LiCrPO4
_symmetry_space_group_name_H-M   'P 1'
_cell_length_a   5.88572282
_cell_length_b   10.75752132
_cell_length_c   10.05097923
_cell_angle_alpha   90.00000000
_cell_angle_beta   91.72866965
_cell_angle_gamma   90.00000000
_symmetry_Int_Tables_number   1
_chemical_formula_structural   LiCrPO4
_chemical_formula_sum   'Li8 Cr8 P8 O32'
_cell_volume   636.09605220
_cell_formula_units_Z   8
loop_
 _symmetry_equiv_pos_site_id
 _symmetry_equiv_pos_as_xyz
  1  'x, y, z'
loop_
 _atom_site_type_symbol
 _atom_site_label
 _atom_site_symmetry_multiplicity
 _atom_site_fract_x
 _atom_site_fract_y
 _atom_site_fract_z
 _atom_site_occupancy
  Li  Li0  1  0.11569813  0.13808536  0.89873952  1
  Li  Li1  1  0.11569813  0.36191464  0.39873952  1
  Li  Li2  1  0.39745741  0.65457145  0.64485488  1
  Li  Li3  1  0.39745741  0.84542855  0.14485488  1
  Li  Li4  1  0.60254259  0.15457145  0.85514512  1
  Li  Li5  1  0.60254259  0.34542855  0.35514512  1
  Li  Li6  1  0.88430187  0.63808536  0.60126048  1
  Li  Li7  1  0.88430187  0.86191464  0.10126048  1
  Cr  Cr8  1  0.13180005  0.90362321  0.72232325  1
  Cr  Cr9  1  0.13180005  0.59637679  0.22232325  1
  Cr  Cr10  1  0.34151399  0.37298749  0.98083567  1
  Cr  Cr11  1  0.34151399  0.12701251  0.48083567  1
  Cr  Cr12  1  0.65848601  0.87298749  0.51916433  1
  Cr  Cr13  1  0.65848601  0.62701251  0.01916433  1
  Cr  Cr14  1  0.86819995  0.40362221  0.77767675  1
  Cr  Cr15  1  0.86819995  0.09637779  0.27767675  1
  P  P16  1  0.12567033  0.64507442  0.90688730  1
  P  P17  1  0.12567033  0.85492558  0.40688730  1
  P  P18  1  0.37221535  0.39241103  0.65765552  1
  P  P19  1  0.37221535  0.10758897  0.15765552  1
  P  P20  1  0.62778465  0.89241103  0.84234448  1
  P  P21  1  0.62778465  0.60758897  0.34234448  1
  P  P22  1  0.87432967  0.14507442  0.59311270  1
  P  P23  1  0.87432967  0.35492558  0.09311270  1
  O  O24  1  0.08960358  0.78492309  0.54006949  1
  O  O25  1  0.10030286  0.07293433  0.62749348  1
  O  O26  1  0.08960358  0.71507691  0.04006949  1
  O  O27  1  0.10030286  0.42706567  0.12749348  1
  O  O28  1  0.17712920  0.72995699  0.79002264  1
  O  O29  1  0.15179598  0.47197121  0.64450461  1
  O  O30  1  0.17712920  0.77004301  0.29002264  1
  O  O31  1  0.15179598  0.02802879  0.14450461  1
  O  O32  1  0.32870000  0.55476417  0.92398630  1
  O  O33  1  0.36795018  0.30605045  0.78349413  1
  O  O34  1  0.32870000  0.94523583  0.42398630  1
  O  O35  1  0.38655443  0.31041656  0.52883709  1
  O  O36  1  0.41824992  0.98056477  0.83310427  1
  O  O37  1  0.36795018  0.19394955  0.28349413  1
  O  O38  1  0.38655443  0.18958344  0.02883709  1
  O  O39  1  0.41824992  0.51943523  0.33310427  1
  O  O40  1  0.58175008  0.48056477  0.66689573  1
  O  O41  1  0.61344557  0.81041656  0.97116291  1
  O  O42  1  0.63204982  0.80605045  0.71650587  1
  O  O43  1  0.58175008  0.01943523  0.16689573  1
  O  O44  1  0.61344557  0.68958344  0.47116291  1
  O  O45  1  0.67130000  0.05476417  0.57601370  1
  O  O46  1  0.63204982  0.69394955  0.21650587  1
  O  O47  1  0.67130000  0.44523583  0.07601370  1
  O  O48  1  0.84820402  0.97197121  0.85549539  1
  O  O49  1  0.82287080  0.22995699  0.70997736  1
  O  O50  1  0.84820402  0.52802879  0.35549539  1
  O  O51  1  0.82287080  0.27004301  0.20997736  1
  O  O52  1  0.89969714  0.57293433  0.87250652  1
  O  O53  1  0.91039642  0.28492309  0.95993051  1
  O  O54  1  0.89969714  0.92706567  0.37250652  1
  O  O55  1  0.91039642  0.21507691  0.45993051  1
