# generated using pymatgen
data_Li4CoCu3(PO4)4
_symmetry_space_group_name_H-M   'P 1'
_cell_length_a   4.74086953
_cell_length_b   10.02485834
_cell_length_c   6.08171887
_cell_angle_alpha   90.00000000
_cell_angle_beta   90.00000000
_cell_angle_gamma   89.23936550
_symmetry_Int_Tables_number   1
_chemical_formula_structural   Li4CoCu3(PO4)4
_chemical_formula_sum   'Li4 Co1 Cu3 P4 O16'
_cell_volume   289.01761786
_cell_formula_units_Z   1
loop_
 _symmetry_equiv_pos_site_id
 _symmetry_equiv_pos_as_xyz
  1  'x, y, z'
loop_
 _atom_site_type_symbol
 _atom_site_label
 _atom_site_symmetry_multiplicity
 _atom_site_fract_x
 _atom_site_fract_y
 _atom_site_fract_z
 _atom_site_occupancy
  Li  Li0  1  0.99761197  0.99673842  0.99952897  1
  Li  Li1  1  0.99761197  0.99673842  0.50047103  1
  Li  Li2  1  0.50312475  0.50133908  0.49912622  1
  Li  Li3  1  0.50312475  0.50133908  0.00087378  1
  Co  Co4  1  0.97978173  0.27886911  0.25000000  1
  Cu  Cu5  1  0.03969655  0.71452265  0.75000000  1
  Cu  Cu6  1  0.44771818  0.21642362  0.75000000  1
  Cu  Cu7  1  0.54133208  0.78344175  0.25000000  1
  P  P8  1  0.08307195  0.59652574  0.25000000  1
  P  P9  1  0.41744810  0.09447300  0.25000000  1
  P  P10  1  0.57666137  0.90504677  0.75000000  1
  P  P11  1  0.92078295  0.40320598  0.75000000  1
  O  O12  1  0.20303347  0.45124096  0.25000000  1
  O  O13  1  0.21957073  0.66647721  0.04600478  1
  O  O14  1  0.21957073  0.66647721  0.45399522  1
  O  O15  1  0.24862242  0.39763410  0.75000000  1
  O  O16  1  0.25126967  0.89916605  0.75000000  1
  O  O17  1  0.27288140  0.16535586  0.04838387  1
  O  O18  1  0.27288140  0.16535586  0.45161613  1
  O  O19  1  0.30290112  0.94883858  0.25000000  1
  O  O20  1  0.68529168  0.05187899  0.75000000  1
  O  O21  1  0.71883968  0.83579909  0.54670310  1
  O  O22  1  0.71883968  0.83579909  0.95329690  1
  O  O23  1  0.74038532  0.09902620  0.25000000  1
  O  O24  1  0.75699809  0.60258136  0.25000000  1
  O  O25  1  0.78667163  0.33723813  0.54394155  1
  O  O26  1  0.78667163  0.33723813  0.95605845  1
  O  O27  1  0.80760504  0.55122657  0.75000000  1
