# generated using pymatgen
data_Li2CoP2O7
_symmetry_space_group_name_H-M   'P 1'
_cell_length_a   5.25417021
_cell_length_b   6.23049101
_cell_length_c   8.82953605
_cell_angle_alpha   67.78384241
_cell_angle_beta   88.79562625
_cell_angle_gamma   83.84033789
_symmetry_Int_Tables_number   1
_chemical_formula_structural   Li2CoP2O7
_chemical_formula_sum   'Li4 Co2 P4 O14'
_cell_volume   265.98186356
_cell_formula_units_Z   2
loop_
 _symmetry_equiv_pos_site_id
 _symmetry_equiv_pos_as_xyz
  1  'x, y, z'
loop_
 _atom_site_type_symbol
 _atom_site_label
 _atom_site_symmetry_multiplicity
 _atom_site_fract_x
 _atom_site_fract_y
 _atom_site_fract_z
 _atom_site_occupancy
  Li  Li0  1  0.23288973  0.34077421  0.46104314  1
  Li  Li1  1  0.27846363  0.08357691  0.84834971  1
  Li  Li2  1  0.72153637  0.91642309  0.15165029  1
  Li  Li3  1  0.76711027  0.65922579  0.53895686  1
  Co  Co4  1  0.22800821  0.69603310  0.73025080  1
  Co  Co5  1  0.77199179  0.30396690  0.26974920  1
  P  P6  1  0.21787921  0.66729115  0.13418517  1
  P  P7  1  0.30154381  0.91865299  0.34689128  1
  P  P8  1  0.69845619  0.08134701  0.65310872  1
  P  P9  1  0.78212079  0.33270885  0.86581483  1
  O  O10  1  0.05400268  0.37480918  0.80304324  1
  O  O11  1  0.12221732  0.13070645  0.33903729  1
  O  O12  1  0.24101383  0.74940351  0.94918721  1
  O  O13  1  0.22997996  0.68922699  0.47782037  1
  O  O14  1  0.27603976  0.90523296  0.16332082  1
  O  O15  1  0.41175349  0.05317933  0.64487084  1
  O  O16  1  0.42053283  0.47950536  0.23717926  1
  O  O17  1  0.57946717  0.52049464  0.76282074  1
  O  O18  1  0.58824651  0.94682067  0.35512916  1
  O  O19  1  0.72396024  0.09476704  0.83667918  1
  O  O20  1  0.77002004  0.31077301  0.52217963  1
  O  O21  1  0.75898617  0.25059649  0.05081279  1
  O  O22  1  0.87778268  0.86929355  0.66096271  1
  O  O23  1  0.94599732  0.62519082  0.19695676  1
