# generated using pymatgen
data_LiCoPO4
_symmetry_space_group_name_H-M   'P 1'
_cell_length_a   10.31623882
_cell_length_b   6.21391549
_cell_length_c   4.71702299
_cell_angle_alpha   90.00000000
_cell_angle_beta   90.00000000
_cell_angle_gamma   90.00000000
_symmetry_Int_Tables_number   1
_chemical_formula_structural   LiCoPO4
_chemical_formula_sum   'Li4 Co4 P4 O16'
_cell_volume   302.38115592
_cell_formula_units_Z   4
loop_
 _symmetry_equiv_pos_site_id
 _symmetry_equiv_pos_as_xyz
  1  'x, y, z'
loop_
 _atom_site_type_symbol
 _atom_site_label
 _atom_site_symmetry_multiplicity
 _atom_site_fract_x
 _atom_site_fract_y
 _atom_site_fract_z
 _atom_site_occupancy
  Li  Li0  1  0.21490702  0.75000000  0.49500191  1
  Li  Li1  1  0.28509298  0.25000000  0.99500191  1
  Li  Li2  1  0.71490702  0.75000000  0.00499809  1
  Li  Li3  1  0.78509298  0.25000000  0.50499809  1
  Co  Co4  1  0.00000000  0.00000000  0.00000000  1
  Co  Co5  1  0.00000000  0.50000000  0.00000000  1
  Co  Co6  1  0.50000000  0.00000000  0.50000000  1
  Co  Co7  1  0.50000000  0.50000000  0.50000000  1
  P  P8  1  0.09357099  0.25000000  0.41764448  1
  P  P9  1  0.40642901  0.75000000  0.91764448  1
  P  P10  1  0.59357099  0.25000000  0.08235552  1
  P  P11  1  0.90642901  0.75000000  0.58235552  1
  O  O12  1  0.04761728  0.75000000  0.72112588  1
  O  O13  1  0.08595998  0.25000000  0.74793978  1
  O  O14  1  0.15853404  0.04476161  0.29717021  1
  O  O15  1  0.15853404  0.45523839  0.29717021  1
  O  O16  1  0.34146596  0.54476161  0.79717021  1
  O  O17  1  0.34146596  0.95523839  0.79717021  1
  O  O18  1  0.41404002  0.75000000  0.24793978  1
  O  O19  1  0.45238272  0.25000000  0.22112588  1
  O  O20  1  0.54761728  0.75000000  0.77887412  1
  O  O21  1  0.58595998  0.25000000  0.75206022  1
  O  O22  1  0.65853404  0.04476161  0.20282979  1
  O  O23  1  0.65853404  0.45523839  0.20282979  1
  O  O24  1  0.84146596  0.54476161  0.70282979  1
  O  O25  1  0.84146596  0.95523839  0.70282979  1
  O  O26  1  0.91404002  0.75000000  0.25206022  1
  O  O27  1  0.95238272  0.25000000  0.27887412  1
