# generated using pymatgen
data_Li5Sb(P2O7)2
_symmetry_space_group_name_H-M   'P 1'
_cell_length_a   8.57683530
_cell_length_b   9.86659831
_cell_length_c   7.25155944
_cell_angle_alpha   76.87593884
_cell_angle_beta   111.18808238
_cell_angle_gamma   102.55045510
_symmetry_Int_Tables_number   1
_chemical_formula_structural   Li5Sb(P2O7)2
_chemical_formula_sum   'Li10 Sb2 P8 O28'
_cell_volume   551.01458469
_cell_formula_units_Z   2
loop_
 _symmetry_equiv_pos_site_id
 _symmetry_equiv_pos_as_xyz
  1  'x, y, z'
loop_
 _atom_site_type_symbol
 _atom_site_label
 _atom_site_symmetry_multiplicity
 _atom_site_fract_x
 _atom_site_fract_y
 _atom_site_fract_z
 _atom_site_occupancy
  Li  Li0  1  0.18450118  0.72344070  0.66222955  1
  Li  Li1  1  0.25168522  0.41274419  0.68542189  1
  Li  Li2  1  0.26350109  0.90058761  0.24745746  1
  Li  Li3  1  0.46238624  0.85894846  0.96711402  1
  Li  Li4  1  0.48376978  0.64342071  0.55375080  1
  Li  Li5  1  0.51623022  0.35658029  0.44624920  1
  Li  Li6  1  0.53761376  0.14105154  0.03288598  1
  Li  Li7  1  0.73649891  0.09941239  0.75254254  1
  Li  Li8  1  0.74831478  0.58725581  0.31457811  1
  Li  Li9  1  0.81549882  0.27655930  0.33777045  1
  Sb  Sb10  1  0.14720095  0.24031231  0.12427911  1
  Sb  Sb11  1  0.85279905  0.75968769  0.87572089  1
  P  P12  1  0.14459374  0.03760881  0.83752630  1
  P  P13  1  0.09949505  0.54773577  0.30979557  1
  P  P14  1  0.34113601  0.05624053  0.58453965  1
  P  P15  1  0.36299127  0.57124224  0.12288419  1
  P  P16  1  0.63700873  0.42875776  0.87711581  1
  P  P17  1  0.65886399  0.94375947  0.41546035  1
  P  P18  1  0.90050495  0.45226423  0.69020443  1
  P  P19  1  0.85540626  0.96239119  0.16247370  1
  O  O20  1  0.05858760  0.37872026  0.78379514  1
  O  O21  1  0.20501399  0.89552601  0.92354617  1
  O  O22  1  0.04142240  0.96141230  0.20476755  1
  O  O23  1  0.06293963  0.38658814  0.34339250  1
  O  O24  1  0.26082573  0.14968423  0.97695370  1
  O  O25  1  0.22850908  0.60254531  0.49895388  1
  O  O26  1  0.18187390  0.09476713  0.62797100  1
  O  O27  1  0.37004472  0.65970693  0.92537764  1
  O  O28  1  0.30186261  0.90732483  0.53948989  1
  O  O29  1  0.18982295  0.60068735  0.13788127  1
  O  O30  1  0.34941370  0.17254509  0.39941711  1
  O  O31  1  0.34292919  0.40798263  0.13269566  1
  O  O32  1  0.49731380  0.07706903  0.76913792  1
  O  O33  1  0.48633008  0.39683058  0.69154680  1
  O  O34  1  0.51366992  0.60316942  0.30845320  1
  O  O35  1  0.50268620  0.92293097  0.23086208  1
  O  O36  1  0.65707081  0.59201737  0.86730434  1
  O  O37  1  0.65058630  0.82745491  0.60058289  1
  O  O38  1  0.81017705  0.39931265  0.86211873  1
  O  O39  1  0.69813739  0.09267517  0.46051011  1
  O  O40  1  0.62995528  0.34029307  0.07462236  1
  O  O41  1  0.81812610  0.90523287  0.37202900  1
  O  O42  1  0.77149092  0.39745469  0.50104612  1
  O  O43  1  0.73917427  0.85031577  0.02304630  1
  O  O44  1  0.93706037  0.61341186  0.65660750  1
  O  O45  1  0.95857760  0.03858770  0.79523245  1
  O  O46  1  0.79498601  0.10447399  0.07645383  1
  O  O47  1  0.94141240  0.62127974  0.21620486  1
