# generated using pymatgen
data_Fe(SiO3)2
_symmetry_space_group_name_H-M   'P 1'
_cell_length_a   9.75491891
_cell_length_b   8.76410757
_cell_length_c   5.36190975
_cell_angle_alpha   90.00000000
_cell_angle_beta   109.34520422
_cell_angle_gamma   90.00000000
_symmetry_Int_Tables_number   1
_chemical_formula_structural   Fe(SiO3)2
_chemical_formula_sum   'Fe4 Si8 O24'
_cell_volume   432.52491620
_cell_formula_units_Z   4
loop_
 _symmetry_equiv_pos_site_id
 _symmetry_equiv_pos_as_xyz
  1  'x, y, z'
loop_
 _atom_site_type_symbol
 _atom_site_label
 _atom_site_symmetry_multiplicity
 _atom_site_fract_x
 _atom_site_fract_y
 _atom_site_fract_z
 _atom_site_occupancy
  O  O0  1  0.60831433  0.75146939  0.52968811  1
  O  O1  1  0.89521905  0.01030742  0.22107798  1
  O  O2  1  0.86489045  0.32330052  0.13812895  1
  O  O3  1  0.89490642  0.74364552  0.46121348  1
  O  O4  1  0.10478095  0.98969258  0.77892202  1
  O  O5  1  0.13510955  0.67669948  0.86187105  1
  O  O6  1  0.10509358  0.25635448  0.53878652  1
  O  O7  1  0.10478095  0.51030742  0.27892202  1
  O  O8  1  0.13510955  0.82330052  0.36187105  1
  O  O9  1  0.10509358  0.24364552  0.03878652  1
  O  O10  1  0.39168567  0.25146939  0.97031189  1
  O  O11  1  0.36749189  0.67727082  0.63571872  1
  O  O12  1  0.39352257  0.98999245  0.71838441  1
  O  O13  1  0.39168567  0.24853061  0.47031189  1
  O  O14  1  0.36749189  0.82272918  0.13571872  1
  O  O15  1  0.86489045  0.17669948  0.63812895  1
  O  O16  1  0.60647743  0.48999245  0.78161559  1
  O  O17  1  0.63250811  0.17727082  0.86428128  1
  O  O18  1  0.39352257  0.51000755  0.21838441  1
  O  O19  1  0.60647743  0.01000755  0.28161559  1
  O  O20  1  0.63250811  0.32272918  0.36428128  1
  O  O21  1  0.60831433  0.74853061  0.02968811  1
  O  O22  1  0.89490642  0.75635448  0.96121348  1
  O  O23  1  0.89521905  0.48969258  0.72107798  1
  Si  Si24  1  0.45227418  0.33549232  0.25804825  1
  Si  Si25  1  0.54772582  0.66450768  0.74195175  1
  Si  Si26  1  0.54772582  0.83549232  0.24195175  1
  Si  Si27  1  0.95472549  0.66401082  0.75287534  1
  Si  Si28  1  0.04527451  0.16401082  0.74712466  1
  Si  Si29  1  0.04527451  0.33598918  0.24712466  1
  Si  Si30  1  0.95472549  0.83598918  0.25287534  1
  Si  Si31  1  0.45227418  0.16450768  0.75804825  1
  Fe  Fe32  1  0.74982425  0.15009304  0.24952178  1
  Fe  Fe33  1  0.74982425  0.34990696  0.74952178  1
  Fe  Fe34  1  0.25017575  0.65009304  0.25047822  1
  Fe  Fe35  1  0.25017575  0.84990696  0.75047822  1
