# generated using pymatgen
data_LiFe(SiO3)2
_symmetry_space_group_name_H-M   'P 1'
_cell_length_a   18.52391177
_cell_length_b   9.55555661
_cell_length_c   5.20714786
_cell_angle_alpha   90.00000000
_cell_angle_beta   90.00000000
_cell_angle_gamma   90.00000000
_symmetry_Int_Tables_number   1
_chemical_formula_structural   LiFe(SiO3)2
_chemical_formula_sum   'Li8 Fe8 Si16 O48'
_cell_volume   921.69791146
_cell_formula_units_Z   8
loop_
 _symmetry_equiv_pos_site_id
 _symmetry_equiv_pos_as_xyz
  1  'x, y, z'
loop_
 _atom_site_type_symbol
 _atom_site_label
 _atom_site_symmetry_multiplicity
 _atom_site_fract_x
 _atom_site_fract_y
 _atom_site_fract_z
 _atom_site_occupancy
  Li  Li0  1  0.12377221  0.36254298  0.38168728  1
  Li  Li1  1  0.12377221  0.13745702  0.88168728  1
  Li  Li2  1  0.37622779  0.63745702  0.88168728  1
  Li  Li3  1  0.37622779  0.86254298  0.38168728  1
  Li  Li4  1  0.62377221  0.13745702  0.61831272  1
  Li  Li5  1  0.62377221  0.36254298  0.11831272  1
  Li  Li6  1  0.87622779  0.63745702  0.61831272  1
  Li  Li7  1  0.87622779  0.86254298  0.11831272  1
  Fe  Fe8  1  0.12445239  0.02427102  0.37925867  1
  Fe  Fe9  1  0.12445239  0.47572898  0.87925867  1
  Fe  Fe10  1  0.37554761  0.97572898  0.87925867  1
  Fe  Fe11  1  0.37554761  0.52427102  0.37925867  1
  Fe  Fe12  1  0.62445239  0.47572898  0.62074133  1
  Fe  Fe13  1  0.62445239  0.02427102  0.12074133  1
  Fe  Fe14  1  0.87554761  0.97572898  0.62074133  1
  Fe  Fe15  1  0.87554761  0.52427102  0.12074133  1
  Si  Si16  1  0.02813942  0.66767223  0.28139506  1
  Si  Si17  1  0.02813942  0.83232777  0.78139506  1
  Si  Si18  1  0.22652237  0.66139773  0.58011129  1
  Si  Si19  1  0.22652237  0.83860227  0.08011129  1
  Si  Si20  1  0.27347763  0.16139773  0.58011129  1
  Si  Si21  1  0.27347763  0.33860227  0.08011129  1
  Si  Si22  1  0.47186058  0.16767223  0.28139506  1
  Si  Si23  1  0.47186058  0.33232777  0.78139506  1
  Si  Si24  1  0.52813942  0.66767223  0.21860494  1
  Si  Si25  1  0.52813942  0.83232777  0.71860494  1
  Si  Si26  1  0.72652237  0.66139773  0.91988871  1
  Si  Si27  1  0.72652237  0.83860227  0.41988871  1
  Si  Si28  1  0.77347763  0.16139773  0.91988871  1
  Si  Si29  1  0.77347763  0.33860227  0.41988871  1
  Si  Si30  1  0.97186058  0.16767223  0.21860494  1
  Si  Si31  1  0.97186058  0.33232777  0.71860494  1
  O  O32  1  0.04986518  0.69973717  0.58662727  1
  O  O33  1  0.04986518  0.80026283  0.08662727  1
  O  O34  1  0.06011925  0.15133620  0.21343822  1
  O  O35  1  0.06011925  0.34866380  0.71343822  1
  O  O36  1  0.07192077  0.53229277  0.17462959  1
  O  O37  1  0.07192077  0.96770723  0.67462959  1
  O  O38  1  0.18553973  0.15122174  0.56673903  1
  O  O39  1  0.18553973  0.34877826  0.06673903  1
  O  O40  1  0.18478429  0.98921265  0.08724882  1
  O  O41  1  0.18478429  0.51078735  0.58724882  1
  O  O42  1  0.19889430  0.73655115  0.84739759  1
  O  O43  1  0.19889430  0.76344885  0.34739759  1
  O  O44  1  0.30110570  0.23655115  0.84739759  1
  O  O45  1  0.30110570  0.26344885  0.34739759  1
  O  O46  1  0.31521571  0.48921265  0.08724882  1
  O  O47  1  0.31521571  0.01078735  0.58724882  1
  O  O48  1  0.31446027  0.65122174  0.56673903  1
  O  O49  1  0.31446027  0.84877826  0.06673903  1
  O  O50  1  0.42807923  0.03229277  0.17462959  1
  O  O51  1  0.42807923  0.46770723  0.67462959  1
  O  O52  1  0.43988075  0.65133620  0.21343822  1
  O  O53  1  0.43988075  0.84866380  0.71343822  1
  O  O54  1  0.45013482  0.19973717  0.58662727  1
  O  O55  1  0.45013482  0.30026283  0.08662727  1
  O  O56  1  0.54986518  0.69973717  0.91337273  1
  O  O57  1  0.54986518  0.80026283  0.41337273  1
  O  O58  1  0.56011925  0.15133620  0.28656178  1
  O  O59  1  0.56011925  0.34866380  0.78656178  1
  O  O60  1  0.57192077  0.53229277  0.32537041  1
  O  O61  1  0.57192077  0.96770723  0.82537041  1
  O  O62  1  0.68553973  0.15122174  0.93326097  1
  O  O63  1  0.68553973  0.34877826  0.43326097  1
  O  O64  1  0.68478429  0.98921265  0.41275118  1
  O  O65  1  0.68478429  0.51078735  0.91275118  1
  O  O66  1  0.69889430  0.73655115  0.65260241  1
  O  O67  1  0.69889430  0.76344885  0.15260241  1
  O  O68  1  0.80110570  0.23655115  0.65260241  1
  O  O69  1  0.80110570  0.26344885  0.15260241  1
  O  O70  1  0.81521571  0.48921265  0.41275118  1
  O  O71  1  0.81521571  0.01078735  0.91275118  1
  O  O72  1  0.81446027  0.65122174  0.93326097  1
  O  O73  1  0.81446027  0.84877826  0.43326097  1
  O  O74  1  0.92807923  0.03229277  0.32537041  1
  O  O75  1  0.92807923  0.46770723  0.82537041  1
  O  O76  1  0.93988075  0.65133620  0.28656178  1
  O  O77  1  0.93988075  0.84866380  0.78656178  1
  O  O78  1  0.95013482  0.19973717  0.91337273  1
  O  O79  1  0.95013482  0.30026283  0.41337273  1
