# generated using pymatgen
data_Li4V3P8O29
_symmetry_space_group_name_H-M   'P 1'
_cell_length_a   9.77555805
_cell_length_b   9.78586457
_cell_length_c   14.10083852
_cell_angle_alpha   90.17387852
_cell_angle_beta   90.14215361
_cell_angle_gamma   59.88084336
_symmetry_Int_Tables_number   1
_chemical_formula_structural   Li4V3P8O29
_chemical_formula_sum   'Li8 V6 P16 O58'
_cell_volume   1166.78638654
_cell_formula_units_Z   2
loop_
 _symmetry_equiv_pos_site_id
 _symmetry_equiv_pos_as_xyz
  1  'x, y, z'
loop_
 _atom_site_type_symbol
 _atom_site_label
 _atom_site_symmetry_multiplicity
 _atom_site_fract_x
 _atom_site_fract_y
 _atom_site_fract_z
 _atom_site_occupancy
  Li  Li0  1  0.76748654  0.89877061  0.55463297  1
  Li  Li1  1  0.77361807  0.30645348  0.05791488  1
  Li  Li2  1  0.32283489  0.90619161  0.06440178  1
  Li  Li3  1  0.67275987  0.23361928  0.44160332  1
  Li  Li4  1  0.33062188  0.76593204  0.55751458  1
  Li  Li5  1  0.22056920  0.68529377  0.94578835  1
  Li  Li6  1  0.08919658  0.23195882  0.94109693  1
  Li  Li7  1  0.02353265  0.02287203  0.49441044  1
  V  V8  1  0.56482171  0.43284257  0.25045896  1
  V  V9  1  0.43213587  0.56611620  0.75075063  1
  V  V10  1  0.56870654  0.99929615  0.75509388  1
  V  V11  1  0.43230503  0.00466081  0.24911635  1
  V  V12  1  0.00111419  0.56641195  0.25543748  1
  V  V13  1  0.99466075  0.43888716  0.74096942  1
  P  P14  1  0.91614247  0.76815170  0.84336706  1
  P  P15  1  0.77189518  0.91580221  0.34021869  1
  P  P16  1  0.91613829  0.30568240  0.34264103  1
  P  P17  1  0.66860729  0.66149328  0.13130605  1
  P  P18  1  0.66219862  0.67418683  0.62826511  1
  P  P19  1  0.77150824  0.31947937  0.83904026  1
  P  P20  1  0.68480108  0.22463727  0.65815665  1
  P  P21  1  0.31800299  0.91298330  0.84521969  1
  P  P22  1  0.68744111  0.08412830  0.15543579  1
  P  P23  1  0.31498189  0.77612322  0.34111997  1
  P  P24  1  0.22504018  0.68207590  0.16169456  1
  P  P25  1  0.33415301  0.33418569  0.37002717  1
  P  P26  1  0.32599960  0.33483991  0.86892588  1
  P  P27  1  0.08283730  0.69399444  0.65756581  1
  P  P28  1  0.22614916  0.08326818  0.66124138  1
  P  P29  1  0.08417907  0.23417573  0.15762545  1
  O  O30  1  0.99351248  0.78884918  0.57403911  1
  O  O31  1  0.91596058  0.74480175  0.33337754  1
  O  O32  1  0.77143335  0.00325971  0.06900134  1
  O  O33  1  0.74419213  0.91056437  0.83583896  1
  O  O34  1  0.90976692  0.61562569  0.82090561  1
  O  O35  1  0.81382297  0.65652310  0.18328470  1
  O  O36  1  0.92352424  0.45988365  0.33476889  1
  O  O37  1  0.99542479  0.25027735  0.06734459  1
  O  O38  1  0.91886579  0.34055655  0.83287405  1
  O  O39  1  0.67358289  0.81685206  0.67234041  1
  O  O40  1  0.61917315  0.91151424  0.32900506  1
  O  O41  1  0.80999627  0.52075874  0.67415427  1
  O  O42  1  0.68135484  0.64001166  0.02681136  1
  O  O43  1  0.67576224  0.67504098  0.52342819  1
  O  O44  1  0.66545269  0.51187054  0.17618711  1
  O  O45  1  0.48009076  0.89933383  0.82351131  1
  O  O46  1  0.51501381  0.81252021  0.16422196  1
  O  O47  1  0.74001624  0.34283924  0.33819427  1
  O  O48  1  0.79284165  0.20708024  0.74969158  1
  O  O49  1  0.77134952  0.20816409  0.56816121  1
  O  O50  1  0.76252324  0.25049756  0.93008591  1
  O  O51  1  0.61878663  0.48069762  0.81765302  1
  O  O52  1  0.50948838  0.67977203  0.66482174  1
  O  O53  1  0.65765998  0.25840118  0.16275758  1
  O  O54  1  0.47157062  0.61744789  0.32598900  1
  O  O55  1  0.34665272  0.91376616  0.32869175  1
  O  O56  1  0.79117115  0.00709776  0.25177669  1
  O  O57  1  0.77995384  0.99597592  0.42985271  1
  O  O58  1  0.20952162  0.99447802  0.58010989  1
  O  O59  1  0.65955415  0.07884623  0.66709821  1
  O  O60  1  0.52801228  0.37881008  0.67155271  1
  O  O61  1  0.33408596  0.74782616  0.84346301  1
  O  O62  1  0.49005373  0.32751038  0.32706934  1
  O  O63  1  0.37910107  0.52177358  0.17986459  1
  O  O64  1  0.24103661  0.75687080  0.07269248  1
  O  O65  1  0.23382930  0.78569990  0.43217787  1
  O  O66  1  0.20419608  0.79295643  0.25130987  1
  O  O67  1  0.25563743  0.66094706  0.66115122  1
  O  O68  1  0.47404655  0.18443868  0.82117949  1
  O  O69  1  0.52764459  0.09031977  0.17537194  1
  O  O70  1  0.32742964  0.48525585  0.83175264  1
  O  O71  1  0.32961827  0.32271273  0.97373684  1
  O  O72  1  0.34503684  0.34086923  0.47459677  1
  O  O73  1  0.18753983  0.48664595  0.32603883  1
  O  O74  1  0.38596134  0.07722581  0.67102465  1
  O  O75  1  0.32785572  0.19330633  0.32595592  1
  O  O76  1  0.08251802  0.65675981  0.16482169  1
  O  O77  1  0.00375395  0.79228194  0.75300792  1
  O  O78  1  0.00358849  0.76044045  0.93031761  1
  O  O79  1  0.08497739  0.53378488  0.66969503  1
  O  O80  1  0.17866793  0.33378275  0.82515893  1
  O  O81  1  0.09612125  0.38224195  0.17993267  1
  O  O82  1  0.24990000  0.08526702  0.15776736  1
  O  O83  1  0.24737018  0.00124517  0.93577875  1
  O  O84  1  0.20280801  0.00875307  0.75870825  1
  O  O85  1  0.08886016  0.25788029  0.66439240  1
  O  O86  1  0.99565739  0.20107960  0.42430462  1
  O  O87  1  0.99029912  0.21188755  0.24405105  1
