# generated using pymatgen
data_Li2P4WO13
_symmetry_space_group_name_H-M   'P 1'
_cell_length_a   5.18531636
_cell_length_b   8.05876464
_cell_length_c   13.67821633
_cell_angle_alpha   78.07331371
_cell_angle_beta   83.93490991
_cell_angle_gamma   79.99530165
_symmetry_Int_Tables_number   1
_chemical_formula_structural   Li2P4WO13
_chemical_formula_sum   'Li4 P8 W2 O26'
_cell_volume   549.28714863
_cell_formula_units_Z   2
loop_
 _symmetry_equiv_pos_site_id
 _symmetry_equiv_pos_as_xyz
  1  'x, y, z'
loop_
 _atom_site_type_symbol
 _atom_site_label
 _atom_site_symmetry_multiplicity
 _atom_site_fract_x
 _atom_site_fract_y
 _atom_site_fract_z
 _atom_site_occupancy
  Li  Li0  1  0.37661235  0.32864255  0.98222616  1
  Li  Li1  1  0.06943886  0.31722235  0.51058945  1
  Li  Li2  1  0.93056114  0.68277765  0.48941055  1
  Li  Li3  1  0.62338765  0.67135745  0.01777384  1
  P  P4  1  0.11921666  0.79529935  0.13384420  1
  P  P5  1  0.00980622  0.90362112  0.64393280  1
  P  P6  1  0.33588045  0.57182877  0.31941471  1
  P  P7  1  0.30603890  0.66188695  0.80098103  1
  P  P8  1  0.69396110  0.33811305  0.19901897  1
  P  P9  1  0.66411955  0.42817123  0.68058529  1
  P  P10  1  0.99019378  0.09637888  0.35606720  1
  P  P11  1  0.88078334  0.20470065  0.86615580  1
  W  W12  1  0.44499516  0.05324654  0.75892802  1
  W  W13  1  0.55500484  0.94675346  0.24107198  1
  O  O14  1  0.12963082  0.64624153  0.23739756  1
  O  O15  1  0.24411915  0.71492303  0.04809538  1
  O  O16  1  0.28889273  0.03188752  0.34548194  1
  O  O17  1  0.16261674  0.04454176  0.65818804  1
  O  O18  1  0.19367822  0.52404493  0.41902415  1
  O  O19  1  0.04926537  0.75120974  0.74657475  1
  O  O20  1  0.08975539  0.82093034  0.55566621  1
  O  O21  1  0.18246734  0.14365606  0.86937623  1
  O  O22  1  0.24997947  0.94104710  0.15368285  1
  O  O23  1  0.56495202  0.19803584  0.16967349  1
  O  O24  1  0.49458990  0.39958140  0.28877706  1
  O  O25  1  0.24949998  0.51951834  0.88308820  1
  O  O26  1  0.46872871  0.30259642  0.68702252  1
  O  O27  1  0.53127129  0.69740358  0.31297748  1
  O  O28  1  0.75050002  0.48048166  0.11691180  1
  O  O29  1  0.50541010  0.60041860  0.71122294  1
  O  O30  1  0.43504798  0.80196416  0.83032651  1
  O  O31  1  0.75002053  0.05895290  0.84631715  1
  O  O32  1  0.81753266  0.85634394  0.13062377  1
  O  O33  1  0.91024461  0.17906966  0.44433379  1
  O  O34  1  0.95073463  0.24879026  0.25342525  1
  O  O35  1  0.80632178  0.47595507  0.58097585  1
  O  O36  1  0.83738326  0.95545824  0.34181196  1
  O  O37  1  0.71110727  0.96811248  0.65451806  1
  O  O38  1  0.75588085  0.28507697  0.95190462  1
  O  O39  1  0.87036918  0.35375847  0.76260244  1
