# generated using pymatgen
data_Fe3Co2Sn(PO4)6
_symmetry_space_group_name_H-M   'P 1'
_cell_length_a   8.51424476
_cell_length_b   8.68829235
_cell_length_c   8.68829187
_cell_angle_alpha   59.99999545
_cell_angle_beta   59.32145238
_cell_angle_gamma   59.32144912
_symmetry_Int_Tables_number   1
_chemical_formula_structural   Fe3Co2Sn(PO4)6
_chemical_formula_sum   'Fe3 Co2 Sn1 P6 O24'
_cell_volume   449.74745791
_cell_formula_units_Z   1
loop_
 _symmetry_equiv_pos_site_id
 _symmetry_equiv_pos_as_xyz
  1  'x, y, z'
loop_
 _atom_site_type_symbol
 _atom_site_label
 _atom_site_symmetry_multiplicity
 _atom_site_fract_x
 _atom_site_fract_y
 _atom_site_fract_z
 _atom_site_occupancy
  Fe  Fe0  1  0.06223482  0.64592173  0.64592173  1
  Fe  Fe1  1  0.43864269  0.85378577  0.85378577  1
  Fe  Fe2  1  0.93301930  0.35565990  0.35565990  1
  Co  Co3  1  0.01699666  0.99433411  0.99433411  1
  Co  Co4  1  0.49743344  0.50085519  0.50085519  1
  Sn  Sn5  1  0.56958565  0.14347112  0.14347112  1
  P  P6  1  0.24622870  0.25303862  0.54970996  1
  P  P7  1  0.24622870  0.95102172  0.25303862  1
  P  P8  1  0.24622870  0.54970996  0.95102172  1
  P  P9  1  0.74894897  0.45764284  0.04747463  1
  P  P10  1  0.74894897  0.04747463  0.74593355  1
  P  P11  1  0.74894897  0.74593355  0.45764284  1
  O  O12  1  0.06877290  0.10996696  0.31941656  1
  O  O13  1  0.06877290  0.50184458  0.10996696  1
  O  O14  1  0.06877290  0.31941656  0.50184458  1
  O  O15  1  0.22130063  0.09352416  0.74729107  1
  O  O16  1  0.43580116  0.18158262  0.39672877  1
  O  O17  1  0.27550956  0.40820340  0.56433220  1
  O  O18  1  0.22130063  0.93788313  0.09352416  1
  O  O19  1  0.27550956  0.75195384  0.40820340  1
  O  O20  1  0.56523844  0.60944891  0.00510002  1
  O  O21  1  0.27550956  0.56433220  0.75195384  1
  O  O22  1  0.78050648  0.25497382  0.05970020  1
  O  O23  1  0.56523844  0.00510002  0.82021163  1
  O  O24  1  0.43580116  0.98588745  0.18158262  1
  O  O25  1  0.22130063  0.74729107  0.93788313  1
  O  O26  1  0.71966033  0.44098124  0.24757507  1
  O  O27  1  0.43580116  0.39672877  0.98588745  1
  O  O28  1  0.71966033  0.24757507  0.59178436  1
  O  O29  1  0.78050648  0.05970020  0.90482049  1
  O  O30  1  0.71966033  0.59178436  0.44098124  1
  O  O31  1  0.56523844  0.82021163  0.60944891  1
  O  O32  1  0.78050648  0.90482049  0.25497382  1
  O  O33  1  0.93205963  0.67766101  0.49759703  1
  O  O34  1  0.93205963  0.49759703  0.89268132  1
  O  O35  1  0.93205963  0.89268132  0.67766101  1
