# generated using pymatgen
data_P(H3C)3
_symmetry_space_group_name_H-M   'P 1'
_cell_length_a   21.97809140
_cell_length_b   9.28288744
_cell_length_c   5.32588282
_cell_angle_alpha   90.00000000
_cell_angle_beta   90.00000000
_cell_angle_gamma   90.00000000
_symmetry_Int_Tables_number   1
_chemical_formula_structural   P(H3C)3
_chemical_formula_sum   'P8 H72 C24'
_cell_volume   1086.58740443
_cell_formula_units_Z   8
loop_
 _symmetry_equiv_pos_site_id
 _symmetry_equiv_pos_as_xyz
  1  'x, y, z'
loop_
 _atom_site_type_symbol
 _atom_site_label
 _atom_site_symmetry_multiplicity
 _atom_site_fract_x
 _atom_site_fract_y
 _atom_site_fract_z
 _atom_site_occupancy
  P  P0  1  0.02309098  0.25000000  0.59419415  1
  P  P1  1  0.22903962  0.25000000  0.42672628  1
  P  P2  1  0.27096038  0.75000000  0.92672628  1
  P  P3  1  0.47690902  0.75000000  0.09419415  1
  P  P4  1  0.52309098  0.25000000  0.90580585  1
  P  P5  1  0.72903962  0.25000000  0.07327372  1
  P  P6  1  0.77096038  0.75000000  0.57327372  1
  P  P7  1  0.97690902  0.75000000  0.40580585  1
  H  H8  1  0.03913234  0.99590301  0.70767469  1
  H  H9  1  0.03913234  0.50409699  0.70767469  1
  H  H10  1  0.05172137  0.11225526  0.97115272  1
  H  H11  1  0.05172137  0.38774474  0.97115272  1
  H  H12  1  0.05110951  0.75000000  0.05168268  1
  H  H13  1  0.07884690  0.65418160  0.31896384  1
  H  H14  1  0.07884690  0.84581840  0.31896384  1
  H  H15  1  0.10791923  0.09706294  0.73072129  1
  H  H16  1  0.10791923  0.40293706  0.73072129  1
  H  H17  1  0.14690129  0.08818035  0.29282419  1
  H  H18  1  0.14690129  0.41181965  0.29282419  1
  H  H19  1  0.16895880  0.65439688  0.84770418  1
  H  H20  1  0.16895880  0.84560312  0.84770418  1
  H  H21  1  0.19687098  0.75000000  0.57842802  1
  H  H22  1  0.20220948  0.10769854  0.04828186  1
  H  H23  1  0.20220948  0.39230146  0.04828186  1
  H  H24  1  0.21769709  0.50371054  0.31469538  1
  H  H25  1  0.21769709  0.99628946  0.31469538  1
  H  H26  1  0.28230291  0.00371054  0.81469538  1
  H  H27  1  0.28230291  0.49628946  0.81469538  1
  H  H28  1  0.29779052  0.60769854  0.54828186  1
  H  H29  1  0.29779052  0.89230146  0.54828186  1
  H  H30  1  0.30312902  0.25000000  0.07842802  1
  H  H31  1  0.33104120  0.15439688  0.34770418  1
  H  H32  1  0.33104120  0.34560312  0.34770418  1
  H  H33  1  0.35309871  0.58818035  0.79282419  1
  H  H34  1  0.35309871  0.91181965  0.79282419  1
  H  H35  1  0.39208077  0.59706294  0.23072129  1
  H  H36  1  0.39208077  0.90293706  0.23072129  1
  H  H37  1  0.42115310  0.15418160  0.81896384  1
  H  H38  1  0.42115310  0.34581840  0.81896384  1
  H  H39  1  0.44889049  0.25000000  0.55168268  1
  H  H40  1  0.44827863  0.61225526  0.47115272  1
  H  H41  1  0.44827863  0.88774474  0.47115272  1
  H  H42  1  0.46086766  0.49590301  0.20767469  1
  H  H43  1  0.46086766  0.00409699  0.20767469  1
  H  H44  1  0.53913234  0.99590301  0.79232531  1
  H  H45  1  0.53913234  0.50409699  0.79232531  1
  H  H46  1  0.55172137  0.11225526  0.52884728  1
  H  H47  1  0.55172137  0.38774474  0.52884728  1
  H  H48  1  0.55110951  0.75000000  0.44831732  1
  H  H49  1  0.57884690  0.65418160  0.18103616  1
  H  H50  1  0.57884690  0.84581840  0.18103616  1
  H  H51  1  0.60791923  0.09706294  0.76927871  1
  H  H52  1  0.60791923  0.40293706  0.76927871  1
  H  H53  1  0.64690129  0.08818035  0.20717581  1
  H  H54  1  0.64690129  0.41181965  0.20717581  1
  H  H55  1  0.66895880  0.65439688  0.65229582  1
  H  H56  1  0.66895880  0.84560312  0.65229582  1
  H  H57  1  0.69687098  0.75000000  0.92157198  1
  H  H58  1  0.70220948  0.10769854  0.45171814  1
  H  H59  1  0.70220948  0.39230146  0.45171814  1
  H  H60  1  0.71769709  0.50371054  0.18530462  1
  H  H61  1  0.71769709  0.99628946  0.18530462  1
  H  H62  1  0.78230291  0.00371054  0.68530462  1
  H  H63  1  0.78230291  0.49628946  0.68530462  1
  H  H64  1  0.79779052  0.60769854  0.95171814  1
  H  H65  1  0.79779052  0.89230146  0.95171814  1
  H  H66  1  0.80312902  0.25000000  0.42157198  1
  H  H67  1  0.83104120  0.15439688  0.15229582  1
  H  H68  1  0.83104120  0.34560312  0.15229582  1
  H  H69  1  0.85309871  0.58818035  0.70717581  1
  H  H70  1  0.85309871  0.91181965  0.70717581  1
  H  H71  1  0.89208077  0.59706294  0.26927871  1
  H  H72  1  0.89208077  0.90293706  0.26927871  1
  H  H73  1  0.92115310  0.15418160  0.68103616  1
  H  H74  1  0.92115310  0.34581840  0.68103616  1
  H  H75  1  0.94889049  0.25000000  0.94831732  1
  H  H76  1  0.94827863  0.61225526  0.02884728  1
  H  H77  1  0.94827863  0.88774474  0.02884728  1
  H  H78  1  0.96086766  0.49590301  0.29232531  1
  H  H79  1  0.96086766  0.00409699  0.29232531  1
  C  C80  1  0.05336208  0.75000000  0.25798326  1
  C  C81  1  0.05863440  0.09928591  0.76796635  1
  C  C82  1  0.05863440  0.40071409  0.76796635  1
  C  C83  1  0.19580082  0.09669884  0.25207847  1
  C  C84  1  0.19580082  0.40330116  0.25207847  1
  C  C85  1  0.19421985  0.75000000  0.78469860  1
  C  C86  1  0.30578015  0.25000000  0.28469860  1
  C  C87  1  0.30419918  0.59669884  0.75207847  1
  C  C88  1  0.30419918  0.90330116  0.75207847  1
  C  C89  1  0.44136560  0.59928591  0.26796635  1
  C  C90  1  0.44136560  0.90071409  0.26796635  1
  C  C91  1  0.44663792  0.25000000  0.75798326  1
  C  C92  1  0.55336208  0.75000000  0.24201674  1
  C  C93  1  0.55863440  0.09928591  0.73203365  1
  C  C94  1  0.55863440  0.40071409  0.73203365  1
  C  C95  1  0.69580082  0.09669884  0.24792153  1
  C  C96  1  0.69580082  0.40330116  0.24792153  1
  C  C97  1  0.69421985  0.75000000  0.71530140  1
  C  C98  1  0.80578015  0.25000000  0.21530140  1
  C  C99  1  0.80419918  0.59669884  0.74792153  1
  C  C100  1  0.80419918  0.90330116  0.74792153  1
  C  C101  1  0.94136560  0.59928591  0.23203365  1
  C  C102  1  0.94136560  0.90071409  0.23203365  1
  C  C103  1  0.94663792  0.25000000  0.74201674  1
