# generated using pymatgen
data_LiCo(CO3)2
_symmetry_space_group_name_H-M   'P 1'
_cell_length_a   7.39915419
_cell_length_b   9.83228490
_cell_length_c   9.06041740
_cell_angle_alpha   90.00000000
_cell_angle_beta   121.96452151
_cell_angle_gamma   90.00000000
_symmetry_Int_Tables_number   1
_chemical_formula_structural   LiCo(CO3)2
_chemical_formula_sum   'Li4 Co4 C8 O24'
_cell_volume   559.20770457
_cell_formula_units_Z   4
loop_
 _symmetry_equiv_pos_site_id
 _symmetry_equiv_pos_as_xyz
  1  'x, y, z'
loop_
 _atom_site_type_symbol
 _atom_site_label
 _atom_site_symmetry_multiplicity
 _atom_site_fract_x
 _atom_site_fract_y
 _atom_site_fract_z
 _atom_site_occupancy
  Li  Li0  1  0.34248985  0.61102119  0.83676825  1
  Li  Li1  1  0.34248985  0.88897881  0.33676825  1
  Li  Li2  1  0.65751015  0.11102119  0.66323175  1
  Li  Li3  1  0.65751015  0.38897881  0.16323175  1
  Co  Co4  1  0.49481906  0.13995495  0.93302363  1
  Co  Co5  1  0.50518094  0.63995495  0.56697637  1
  Co  Co6  1  0.49481906  0.36004505  0.43302363  1
  Co  Co7  1  0.50518094  0.86004505  0.06697637  1
  C  C8  1  0.10257757  0.99040285  0.85934300  1
  C  C9  1  0.10257757  0.50959715  0.35934300  1
  C  C10  1  0.52498343  0.38397868  0.77534011  1
  C  C11  1  0.47501657  0.88397868  0.72465989  1
  C  C12  1  0.52498343  0.11602132  0.27534011  1
  C  C13  1  0.47501657  0.61602132  0.22465989  1
  C  C14  1  0.89742243  0.49040285  0.64065700  1
  C  C15  1  0.89742243  0.00959715  0.14065700  1
  O  O16  1  0.09477537  0.49723152  0.71840557  1
  O  O17  1  0.21526141  0.09359103  0.85600940  1
  O  O18  1  0.20561848  0.88125799  0.94682720  1
  O  O19  1  0.09477537  0.00276848  0.21840557  1
  O  O20  1  0.21526141  0.40640897  0.35600940  1
  O  O21  1  0.20561848  0.61874201  0.44682720  1
  O  O22  1  0.51881224  0.33534905  0.90762161  1
  O  O23  1  0.48175169  0.01402690  0.74039697  1
  O  O24  1  0.46300123  0.80044890  0.82849876  1
  O  O25  1  0.53699777  0.30044890  0.67150124  1
  O  O26  1  0.51824831  0.51402590  0.75960303  1
  O  O27  1  0.48118776  0.83534905  0.59237839  1
  O  O28  1  0.51881224  0.16465095  0.40762161  1
  O  O29  1  0.48175169  0.48597310  0.24039697  1
  O  O30  1  0.46300123  0.69955110  0.32849876  1
  O  O31  1  0.53699777  0.19955110  0.17150124  1
  O  O32  1  0.51824831  0.98597410  0.25960303  1
  O  O33  1  0.48118776  0.66465095  0.09237839  1
  O  O34  1  0.79438152  0.38125799  0.55317280  1
  O  O35  1  0.78473859  0.59359103  0.64399060  1
  O  O36  1  0.90522463  0.99723152  0.78159443  1
  O  O37  1  0.79438152  0.11874201  0.05317280  1
  O  O38  1  0.78473859  0.90640897  0.14399060  1
  O  O39  1  0.90522463  0.50276848  0.28159443  1
