# generated using pymatgen
data_LiP2WO7
_symmetry_space_group_name_H-M   'P 1'
_cell_length_a   7.23915293
_cell_length_b   8.58250076
_cell_length_c   9.10444922
_cell_angle_alpha   90.00000000
_cell_angle_beta   113.37077710
_cell_angle_gamma   90.00000000
_symmetry_Int_Tables_number   1
_chemical_formula_structural   LiP2WO7
_chemical_formula_sum   'Li4 P8 W4 O28'
_cell_volume   519.25136762
_cell_formula_units_Z   4
loop_
 _symmetry_equiv_pos_site_id
 _symmetry_equiv_pos_as_xyz
  1  'x, y, z'
loop_
 _atom_site_type_symbol
 _atom_site_label
 _atom_site_symmetry_multiplicity
 _atom_site_fract_x
 _atom_site_fract_y
 _atom_site_fract_z
 _atom_site_occupancy
  Li  Li0  1  0.11924245  0.95245564  0.83220849  1
  Li  Li1  1  0.38075755  0.45245564  0.66779151  1
  Li  Li2  1  0.61924245  0.54754436  0.33220849  1
  Li  Li3  1  0.88075755  0.04754436  0.16779151  1
  P  P4  1  0.06964415  0.72650800  0.52906161  1
  P  P5  1  0.43035585  0.22650800  0.97093839  1
  P  P6  1  0.18460683  0.73387226  0.24665120  1
  P  P7  1  0.31539317  0.23387226  0.25334880  1
  P  P8  1  0.68460683  0.76612774  0.74665120  1
  P  P9  1  0.81539317  0.26612774  0.75334880  1
  P  P10  1  0.56964415  0.77349200  0.02906161  1
  P  P11  1  0.93035585  0.27349200  0.47093839  1
  W  W12  1  0.12857969  0.57679797  0.88655088  1
  W  W13  1  0.37142031  0.07679797  0.61344912  1
  W  W14  1  0.62857969  0.92320203  0.38655088  1
  W  W15  1  0.87142031  0.42320203  0.11344912  1
  O  O16  1  0.14194417  0.59575352  0.65404184  1
  O  O17  1  0.16040180  0.88620624  0.59137585  1
  O  O18  1  0.33861807  0.76661365  0.94844477  1
  O  O19  1  0.16138193  0.26661365  0.55155523  1
  O  O20  1  0.33959820  0.38620624  0.90862415  1
  O  O21  1  0.14888512  0.66280538  0.39813863  1
  O  O22  1  0.35805583  0.09575352  0.84595816  1
  O  O23  1  0.08470103  0.23562545  0.19776094  1
  O  O24  1  0.07674096  0.88381280  0.19144793  1
  O  O25  1  0.10097641  0.59652239  0.12187568  1
  O  O26  1  0.64888512  0.83719462  0.89813863  1
  O  O27  1  0.39902359  0.09652239  0.37812432  1
  O  O28  1  0.58470103  0.26437455  0.69776094  1
  O  O29  1  0.57674096  0.61618720  0.69144793  1
  O  O30  1  0.42325904  0.38381280  0.30855207  1
  O  O31  1  0.41529897  0.73562545  0.30223906  1
  O  O32  1  0.60097641  0.90347761  0.62187568  1
  O  O33  1  0.35111488  0.16280538  0.10186137  1
  O  O34  1  0.89902359  0.40347761  0.87812432  1
  O  O35  1  0.92325904  0.11618720  0.80855207  1
  O  O36  1  0.91529897  0.76437455  0.80223906  1
  O  O37  1  0.64194417  0.90424648  0.15404184  1
  O  O38  1  0.85111488  0.33719462  0.60186137  1
  O  O39  1  0.66040180  0.61379376  0.09137585  1
  O  O40  1  0.83861807  0.73338635  0.44844477  1
  O  O41  1  0.66138193  0.23338635  0.05155523  1
  O  O42  1  0.83959820  0.11379376  0.40862415  1
  O  O43  1  0.85805583  0.40424648  0.34595816  1
