# generated using pymatgen
data_LiFe4(PO4)3
_symmetry_space_group_name_H-M   'P 1'
_cell_length_a   7.65280280
_cell_length_b   7.90435065
_cell_length_c   9.64457638
_cell_angle_alpha   110.47495881
_cell_angle_beta   110.67758217
_cell_angle_gamma   94.95532644
_symmetry_Int_Tables_number   1
_chemical_formula_structural   LiFe4(PO4)3
_chemical_formula_sum   'Li2 Fe8 P6 O24'
_cell_volume   496.46182394
_cell_formula_units_Z   2
loop_
 _symmetry_equiv_pos_site_id
 _symmetry_equiv_pos_as_xyz
  1  'x, y, z'
loop_
 _atom_site_type_symbol
 _atom_site_label
 _atom_site_symmetry_multiplicity
 _atom_site_fract_x
 _atom_site_fract_y
 _atom_site_fract_z
 _atom_site_occupancy
  Li  Li0  1  0.38654466  0.15155733  0.41778268  1
  Li  Li1  1  0.61345534  0.84844267  0.58221732  1
  Fe  Fe2  1  0.00564120  0.78774575  0.44861091  1
  Fe  Fe3  1  0.27509809  0.91235738  0.92273891  1
  Fe  Fe4  1  0.28693892  0.53620396  0.93261223  1
  Fe  Fe5  1  0.28984820  0.58914454  0.28577862  1
  Fe  Fe6  1  0.71015180  0.41085546  0.71422138  1
  Fe  Fe7  1  0.71306108  0.46379604  0.06738777  1
  Fe  Fe8  1  0.72490191  0.08764262  0.07726109  1
  Fe  Fe9  1  0.99435880  0.21225425  0.55138909  1
  P  P10  1  0.01447854  0.23842017  0.92415454  1
  P  P11  1  0.31072943  0.55126772  0.60915416  1
  P  P12  1  0.40570654  0.13255995  0.74274412  1
  P  P13  1  0.59429346  0.86744005  0.25725588  1
  P  P14  1  0.68927057  0.44873228  0.39084584  1
  P  P15  1  0.98552146  0.76157983  0.07584546  1
  O  O16  1  0.14588460  0.75516284  0.01373970  1
  O  O17  1  0.07479426  0.05478114  0.89442866  1
  O  O18  1  0.18891946  0.04744996  0.62360051  1
  O  O19  1  0.25258559  0.63490677  0.75637668  1
  O  O20  1  0.20571271  0.34077939  0.51396855  1
  O  O21  1  0.05431124  0.72543835  0.23537678  1
  O  O22  1  0.43868246  0.33721479  0.86338831  1
  O  O23  1  0.24079642  0.65681986  0.49647534  1
  O  O24  1  0.47054567  0.01572092  0.84535726  1
  O  O25  1  0.18837305  0.40768333  0.04979771  1
  O  O26  1  0.52949313  0.58260348  0.66620145  1
  O  O27  1  0.52752024  0.13585020  0.64422420  1
  O  O28  1  0.47247976  0.86414980  0.35577580  1
  O  O29  1  0.47050687  0.41739652  0.33379855  1
  O  O30  1  0.81162695  0.59231667  0.95020229  1
  O  O31  1  0.52945433  0.98427908  0.15464274  1
  O  O32  1  0.75920358  0.34318014  0.50352466  1
  O  O33  1  0.56131754  0.66278521  0.13661169  1
  O  O34  1  0.94568876  0.27456165  0.76462322  1
  O  O35  1  0.79428729  0.65922061  0.48603145  1
  O  O36  1  0.74741441  0.36509323  0.24362332  1
  O  O37  1  0.81108054  0.95255004  0.37639949  1
  O  O38  1  0.92520574  0.94521886  0.10557134  1
  O  O39  1  0.85411540  0.24483716  0.98626030  1
