# generated using pymatgen
data_SbP2O7
_symmetry_space_group_name_H-M   'P 1'
_cell_length_a   7.33230147
_cell_length_b   8.58443960
_cell_length_c   9.19781516
_cell_angle_alpha   90.00000000
_cell_angle_beta   66.16746003
_cell_angle_gamma   90.00000000
_symmetry_Int_Tables_number   1
_chemical_formula_structural   SbP2O7
_chemical_formula_sum   'Sb4 P8 O28'
_cell_volume   529.57810512
_cell_formula_units_Z   4
loop_
 _symmetry_equiv_pos_site_id
 _symmetry_equiv_pos_as_xyz
  1  'x, y, z'
loop_
 _atom_site_type_symbol
 _atom_site_label
 _atom_site_symmetry_multiplicity
 _atom_site_fract_x
 _atom_site_fract_y
 _atom_site_fract_z
 _atom_site_occupancy
  O  O0  1  0.02020211  0.09339825  0.37858754  1
  O  O1  1  0.11447070  0.73758980  0.29638699  1
  O  O2  1  0.12659995  0.38242730  0.30356332  1
  O  O3  1  0.24810510  0.15994768  0.09893751  1
  O  O4  1  0.02020211  0.40660175  0.87858754  1
  O  O5  1  0.11447070  0.76241020  0.79638699  1
  O  O6  1  0.12659995  0.11757270  0.80356332  1
  O  O7  1  0.24810510  0.34005232  0.59893751  1
  O  O8  1  0.47874203  0.89711293  0.15276358  1
  O  O9  1  0.58421569  0.60956311  0.09063970  1
  O  O10  1  0.40223095  0.74705998  0.44630652  1
  O  O11  1  0.59776905  0.24705998  0.05369348  1
  O  O12  1  0.41578431  0.10956311  0.40936030  1
  O  O13  1  0.52125797  0.39711293  0.34723642  1
  O  O14  1  0.47874203  0.60288707  0.65276358  1
  O  O15  1  0.58421569  0.89043689  0.59063970  1
  O  O16  1  0.40223095  0.75294002  0.94630652  1
  O  O17  1  0.59776905  0.25294002  0.55369348  1
  O  O18  1  0.41578431  0.39043689  0.90936030  1
  O  O19  1  0.52125797  0.10288707  0.84723642  1
  O  O20  1  0.75189490  0.65994768  0.40106249  1
  O  O21  1  0.87340005  0.88242730  0.19643668  1
  O  O22  1  0.88552930  0.23758980  0.20361301  1
  O  O23  1  0.97979789  0.59339825  0.12141246  1
  O  O24  1  0.75189490  0.84005232  0.90106249  1
  O  O25  1  0.87340005  0.61757270  0.69643668  1
  O  O26  1  0.88552930  0.26241020  0.70361301  1
  O  O27  1  0.97979789  0.90660175  0.62141246  1
  P  P28  1  0.06600790  0.23670257  0.25177730  1
  P  P29  1  0.06600790  0.26329743  0.75177730  1
  P  P30  1  0.55034050  0.76580502  0.02747220  1
  P  P31  1  0.44965950  0.26580502  0.47252780  1
  P  P32  1  0.55034050  0.73419498  0.52747220  1
  P  P33  1  0.44965950  0.23419498  0.97252780  1
  P  P34  1  0.93399210  0.73670257  0.24822270  1
  P  P35  1  0.93399210  0.76329743  0.74822270  1
  Sb  Sb36  1  0.25278287  0.91090906  0.37550674  1
  Sb  Sb37  1  0.25278287  0.58909094  0.87550674  1
  Sb  Sb38  1  0.74721713  0.41090906  0.12449326  1
  Sb  Sb39  1  0.74721713  0.08909094  0.62449326  1
