# generated using pymatgen
data_LiMn3O6
_symmetry_space_group_name_H-M   'P 1'
_cell_length_a   5.13684667
_cell_length_b   5.03583003
_cell_length_c   10.51650574
_cell_angle_alpha   76.14125279
_cell_angle_beta   78.75222912
_cell_angle_gamma   60.64720807
_symmetry_Int_Tables_number   1
_chemical_formula_structural   LiMn3O6
_chemical_formula_sum   'Li2 Mn6 O12'
_cell_volume   229.24480261
_cell_formula_units_Z   2
loop_
 _symmetry_equiv_pos_site_id
 _symmetry_equiv_pos_as_xyz
  1  'x, y, z'
loop_
 _atom_site_type_symbol
 _atom_site_label
 _atom_site_symmetry_multiplicity
 _atom_site_fract_x
 _atom_site_fract_y
 _atom_site_fract_z
 _atom_site_occupancy
  Li  Li0  1  0.60514194  0.90090733  0.24353103  1
  Li  Li1  1  0.10495140  0.75011358  0.74362227  1
  Mn  Mn2  1  0.98592033  0.67835943  0.00727911  1
  Mn  Mn3  1  0.48594485  0.82850384  0.50722414  1
  Mn  Mn4  1  0.65903750  0.34252201  0.99732438  1
  Mn  Mn5  1  0.82286876  0.16891787  0.49311818  1
  Mn  Mn6  1  0.15906143  0.50118161  0.49726029  1
  Mn  Mn7  1  0.32286396  0.01510748  0.99319870  1
  O  O8  1  0.92355432  0.97781056  0.10748047  1
  O  O9  1  0.81624489  0.79261534  0.59495679  1
  O  O10  1  0.83254543  0.55330645  0.40355869  1
  O  O11  1  0.33252124  0.71066878  0.90364950  1
  O  O12  1  0.63311048  0.64684747  0.09545211  1
  O  O13  1  0.72749681  0.04047856  0.89537894  1
  O  O14  1  0.42362189  0.49112405  0.60740596  1
  O  O15  1  0.22751686  0.83668929  0.39537358  1
  O  O16  1  0.50357947  0.19748466  0.40415748  1
  O  O17  1  0.00355234  0.39489914  0.90417985  1
  O  O18  1  0.31620384  0.29610261  0.09503915  1
  O  O19  1  0.13304426  0.12470693  0.59533339  1
