# generated using pymatgen
data_Li3Fe(Ni2O5)2
_symmetry_space_group_name_H-M   'P 1'
_cell_length_a   2.86157845
_cell_length_b   5.04770110
_cell_length_c   24.26773201
_cell_angle_alpha   93.78880064
_cell_angle_beta   90.00000000
_cell_angle_gamma   90.00000000
_symmetry_Int_Tables_number   1
_chemical_formula_structural   Li3Fe(Ni2O5)2
_chemical_formula_sum   'Li6 Fe2 Ni8 O20'
_cell_volume   349.76652789
_cell_formula_units_Z   2
loop_
 _symmetry_equiv_pos_site_id
 _symmetry_equiv_pos_as_xyz
  1  'x, y, z'
loop_
 _atom_site_type_symbol
 _atom_site_label
 _atom_site_symmetry_multiplicity
 _atom_site_fract_x
 _atom_site_fract_y
 _atom_site_fract_z
 _atom_site_occupancy
  Li  Li0  1  0.50000000  0.80286928  0.90155134  1
  Li  Li1  1  0.50000000  0.00001957  0.49901447  1
  Li  Li2  1  0.50000000  0.19998043  0.10098553  1
  Li  Li3  1  0.50000000  0.60000000  0.30000000  1
  Li  Li4  1  0.50000000  0.39713072  0.69844866  1
  Li  Li5  1  0.00000000  0.10000000  0.30000000  1
  Fe  Fe6  1  0.50000000  0.10000000  0.80000000  1
  Fe  Fe7  1  0.00000000  0.60000000  0.80000000  1
  Ni  Ni8  1  0.50000000  0.30389261  0.40158101  1
  Ni  Ni9  1  0.50000000  0.50039618  0.00077679  1
  Ni  Ni10  1  0.50000000  0.69960382  0.59922321  1
  Ni  Ni11  1  0.50000000  0.89610739  0.19841899  1
  Ni  Ni12  1  0.00000000  0.00048497  0.00100541  1
  Ni  Ni13  1  0.00000000  0.19951503  0.59899459  1
  Ni  Ni14  1  0.00000000  0.39839136  0.20249172  1
  Ni  Ni15  1  0.00000000  0.80160864  0.39750828  1
  O  O16  1  0.50000000  0.07514800  0.64086444  1
  O  O17  1  0.50000000  0.12485200  0.95913556  1
  O  O18  1  0.50000000  0.26613640  0.24615633  1
  O  O19  1  0.50000000  0.32440476  0.55708621  1
  O  O20  1  0.50000000  0.45618479  0.84435505  1
  O  O21  1  0.50000000  0.51935903  0.16038357  1
  O  O22  1  0.50000000  0.68064097  0.43961643  1
  O  O23  1  0.50000000  0.74381521  0.75564495  1
  O  O24  1  0.50000000  0.87559524  0.04291379  1
  O  O25  1  0.50000000  0.93386360  0.35384367  1
  O  O26  1  0.00000000  0.07903424  0.15896524  1
  O  O27  1  0.00000000  0.12096576  0.44103476  1
  O  O28  1  0.00000000  0.26484654  0.75449584  1
  O  O29  1  0.00000000  0.33193678  0.04084522  1
  O  O30  1  0.00000000  0.46538276  0.35609275  1
  O  O31  1  0.00000000  0.53040505  0.63910288  1
  O  O32  1  0.00000000  0.66959495  0.96089712  1
  O  O33  1  0.00000000  0.73461724  0.24390725  1
  O  O34  1  0.00000000  0.86806322  0.55915478  1
  O  O35  1  0.00000000  0.93515346  0.84550416  1
