# generated using pymatgen
data_Li2FeSiO4
_symmetry_space_group_name_H-M   'P 1'
_cell_length_a   5.10395988
_cell_length_b   5.10393975
_cell_length_c   11.64121534
_cell_angle_alpha   90.00058977
_cell_angle_beta   89.99899292
_cell_angle_gamma   120.00331853
_symmetry_Int_Tables_number   1
_chemical_formula_structural   Li2FeSiO4
_chemical_formula_sum   'Li6 Fe3 Si3 O12'
_cell_volume   262.61965213
_cell_formula_units_Z   3
loop_
 _symmetry_equiv_pos_site_id
 _symmetry_equiv_pos_as_xyz
  1  'x, y, z'
loop_
 _atom_site_type_symbol
 _atom_site_label
 _atom_site_symmetry_multiplicity
 _atom_site_fract_x
 _atom_site_fract_y
 _atom_site_fract_z
 _atom_site_occupancy
  Li  Li0  1  0.33270523  0.89478366  0.58614794  1
  Li  Li1  1  0.10531652  0.43792971  0.91960340  1
  Li  Li2  1  0.56200466  0.66735449  0.25284542  1
  Li  Li3  1  0.43793895  0.10532206  0.08039814  1
  Li  Li4  1  0.66736450  0.56198521  0.74714166  1
  Li  Li5  1  0.89479371  0.33270100  0.41385921  1
  Fe  Fe6  1  0.99989040  0.44972936  0.16668228  1
  Fe  Fe7  1  0.55023957  0.55026551  0.49999259  1
  Fe  Fe8  1  0.44964964  0.99982394  0.83329509  1
  Si  Si9  1  0.00001013  0.19830531  0.66671043  1
  Si  Si10  1  0.19831475  0.00002182  0.33329347  1
  Si  Si11  1  0.80167751  0.80169256  0.99999495  1
  O  O12  1  0.13412260  0.85008643  0.95956417  1
  O  O13  1  0.12258703  0.44315600  0.55903097  1
  O  O14  1  0.32049442  0.87746942  0.22558747  1
  O  O15  1  0.14997507  0.28416003  0.29293045  1
  O  O16  1  0.28413504  0.14996205  0.70707999  1
  O  O17  1  0.71591440  0.86582483  0.62628436  1
  O  O18  1  0.55686331  0.67945957  0.89230883  1
  O  O19  1  0.67939451  0.55683881  0.10766705  1
  O  O20  1  0.44317344  0.12256296  0.44096841  1
  O  O21  1  0.86584029  0.71591918  0.37372245  1
  O  O22  1  0.85013007  0.13414323  0.04044733  1
  O  O23  1  0.87746326  0.32050384  0.77440994  1
