# generated using pymatgen
data_Li2FeP2O7
_symmetry_space_group_name_H-M   'P 1'
_cell_length_a   5.34140163
_cell_length_b   6.56328328
_cell_length_c   8.91541003
_cell_angle_alpha   109.75830390
_cell_angle_beta   94.77210712
_cell_angle_gamma   107.76486803
_symmetry_Int_Tables_number   1
_chemical_formula_structural   Li2FeP2O7
_chemical_formula_sum   'Li4 Fe2 P4 O14'
_cell_volume   274.00103090
_cell_formula_units_Z   2
loop_
 _symmetry_equiv_pos_site_id
 _symmetry_equiv_pos_as_xyz
  1  'x, y, z'
loop_
 _atom_site_type_symbol
 _atom_site_label
 _atom_site_symmetry_multiplicity
 _atom_site_fract_x
 _atom_site_fract_y
 _atom_site_fract_z
 _atom_site_occupancy
  Li  Li0  1  0.10686832  0.75823132  0.00194700  1
  Li  Li1  1  0.32844702  0.21288614  0.75054897  1
  Li  Li2  1  0.67155298  0.78711386  0.24945103  1
  Li  Li3  1  0.89313168  0.24176868  0.99805300  1
  Fe  Fe4  1  0.10834517  0.60443992  0.36457422  1
  Fe  Fe5  1  0.89165483  0.39556008  0.63542578  1
  P  P6  1  0.23735821  0.14936319  0.39129717  1
  P  P7  1  0.58197642  0.70115117  0.88372161  1
  P  P8  1  0.41802358  0.29884883  0.11627839  1
  P  P9  1  0.76264179  0.85063681  0.60870283  1
  O  O10  1  0.06266395  0.89166984  0.33343439  1
  O  O11  1  0.06342015  0.30353605  0.41719798  1
  O  O12  1  0.27826998  0.56690438  0.84249861  1
  O  O13  1  0.25553684  0.46279336  0.15356784  1
  O  O14  1  0.30650957  0.11573838  0.94483601  1
  O  O15  1  0.53717337  0.77055790  0.46258258  1
  O  O16  1  0.63386583  0.84625944  0.76580902  1
  O  O17  1  0.36613417  0.15374056  0.23419098  1
  O  O18  1  0.46282663  0.22944210  0.53741742  1
  O  O19  1  0.69349043  0.88426162  0.05516399  1
  O  O20  1  0.74446316  0.53720664  0.84643216  1
  O  O21  1  0.72173002  0.43309562  0.15750139  1
  O  O22  1  0.93657985  0.69646395  0.58280202  1
  O  O23  1  0.93733605  0.10833016  0.66656561  1
