# generated using pymatgen
data_Li4Ti3Cr3(SbO8)2
_symmetry_space_group_name_H-M   'P 1'
_cell_length_a   5.98354427
_cell_length_b   6.00554849
_cell_length_c   10.15504860
_cell_angle_alpha   90.00054332
_cell_angle_beta   89.72092553
_cell_angle_gamma   120.12159549
_symmetry_Int_Tables_number   1
_chemical_formula_structural   Li4Ti3Cr3(SbO8)2
_chemical_formula_sum   'Li4 Ti3 Cr3 Sb2 O16'
_cell_volume   315.63380865
_cell_formula_units_Z   1
loop_
 _symmetry_equiv_pos_site_id
 _symmetry_equiv_pos_as_xyz
  1  'x, y, z'
loop_
 _atom_site_type_symbol
 _atom_site_label
 _atom_site_symmetry_multiplicity
 _atom_site_fract_x
 _atom_site_fract_y
 _atom_site_fract_z
 _atom_site_occupancy
  Li  Li0  1  0.33127519  0.66564443  0.89816105  1
  Li  Li1  1  0.99890462  0.99946516  0.99187358  1
  Li  Li2  1  0.99945654  0.99973756  0.49601918  1
  Li  Li3  1  0.66618397  0.33310358  0.39297314  1
  Ti  Ti4  1  0.17810046  0.83263779  0.21759062  1
  Ti  Ti5  1  0.17813097  0.34550435  0.21757848  1
  Ti  Ti6  1  0.34374842  0.17187598  0.72290986  1
  Cr  Cr7  1  0.66241443  0.83123020  0.20697839  1
  Cr  Cr8  1  0.83146136  0.66180865  0.72074901  1
  Cr  Cr9  1  0.83145490  0.16965181  0.72076157  1
  Sb  Sb10  1  0.33884630  0.66942335  0.51096177  1
  Sb  Sb11  1  0.67255121  0.33629260  0.99288549  1
  O  O12  1  0.16262026  0.84795729  0.61082331  1
  O  O13  1  0.02139365  0.51071612  0.31552519  1
  O  O14  1  0.32327208  0.66165711  0.10664187  1
  O  O15  1  0.00182123  0.00093212  0.30749735  1
  O  O16  1  0.00471727  0.00236321  0.81240015  1
  O  O17  1  0.16262265  0.31467134  0.61083098  1
  O  O18  1  0.47954266  0.98051690  0.31531176  1
  O  O19  1  0.47955892  0.49906811  0.31530309  1
  O  O20  1  0.31228911  0.15616675  0.09655959  1
  O  O21  1  0.68803610  0.84401957  0.60981205  1
  O  O22  1  0.50939680  0.47694355  0.83721199  1
  O  O23  1  0.50938887  0.03246352  0.83721354  1
  O  O24  1  0.65772602  0.32886399  0.61368127  1
  O  O25  1  0.84446041  0.68550304  0.09607679  1
  O  O26  1  0.96616366  0.48308582  0.83743224  1
  O  O27  1  0.84446196  0.15899711  0.09607772  1
