# generated using pymatgen
data_Li4Fe2Ni5O12
_symmetry_space_group_name_H-M   'P 1'
_cell_length_a   5.03498398
_cell_length_b   8.88174715
_cell_length_c   9.77686874
_cell_angle_alpha   89.89073646
_cell_angle_beta   100.64837694
_cell_angle_gamma   90.15305010
_symmetry_Int_Tables_number   1
_chemical_formula_structural   Li4Fe2Ni5O12
_chemical_formula_sum   'Li8 Fe4 Ni10 O24'
_cell_volume   429.68525793
_cell_formula_units_Z   2
loop_
 _symmetry_equiv_pos_site_id
 _symmetry_equiv_pos_as_xyz
  1  'x, y, z'
loop_
 _atom_site_type_symbol
 _atom_site_label
 _atom_site_symmetry_multiplicity
 _atom_site_fract_x
 _atom_site_fract_y
 _atom_site_fract_z
 _atom_site_occupancy
  Li  Li0  1  0.24879185  0.08885865  0.99793589  1
  Li  Li1  1  0.74865959  0.07894372  0.50395353  1
  Li  Li2  1  0.49297481  0.41575122  0.75151865  1
  Li  Li3  1  0.74601557  0.41697687  0.50080947  1
  Li  Li4  1  0.25386347  0.58742056  0.50121598  1
  Li  Li5  1  0.74653527  0.58018737  0.99826164  1
  Li  Li6  1  0.00563453  0.91580327  0.74768592  1
  Li  Li7  1  0.75276446  0.91552092  0.99960450  1
  Fe  Fe8  1  0.00204268  0.25372404  0.75207567  1
  Fe  Fe9  1  0.50221583  0.25382219  0.24697868  1
  Fe  Fe10  1  0.00348672  0.75146263  0.25378780  1
  Fe  Fe11  1  0.50115957  0.75417974  0.74832845  1
  Ni  Ni12  1  -0.00008408  0.08144409  0.25283304  1
  Ni  Ni13  1  0.49918473  0.07912560  0.74782340  1
  Ni  Ni14  1  0.24886382  0.24706539  0.50164658  1
  Ni  Ni15  1  0.75197405  0.25775999  0.99674597  1
  Ni  Ni16  1  0.00658109  0.41825852  0.25068697  1
  Ni  Ni17  1  0.99916837  0.58118063  0.75138478  1
  Ni  Ni18  1  0.50137231  0.58197039  0.24666250  1
  Ni  Ni19  1  0.24559981  0.74952472  0.99753555  1
  Ni  Ni20  1  0.75197507  0.75632333  0.50276188  1
  Ni  Ni21  1  0.49482070  0.91757953  0.24958461  1
  O  O22  1  0.11381714  0.10323308  0.63642298  1
  O  O23  1  0.36654871  0.09382939  0.36264724  1
  O  O24  1  0.38812814  0.23192427  0.86355580  1
  O  O25  1  0.11819591  0.24015577  0.13681309  1
  O  O26  1  0.63903544  0.09132804  0.13154872  1
  O  O27  1  0.88083177  0.10464122  0.86963526  1
  O  O28  1  0.10658845  0.40476376  0.63376527  1
  O  O29  1  0.61484475  0.23555399  0.62918990  1
  O  O30  1  0.87402729  0.24944832  0.37214869  1
  O  O31  1  0.37531734  0.40959780  0.37213126  1
  O  O32  1  0.88368885  0.41005094  0.85725900  1
  O  O33  1  0.63877956  0.41275281  0.13186231  1
  O  O34  1  0.12550674  0.59574287  0.13521468  1
  O  O35  1  0.37357932  0.60587741  0.86203726  1
  O  O36  1  0.11496610  0.73081658  0.63711794  1
  O  O37  1  0.62662428  0.60148233  0.63270766  1
  O  O38  1  0.38463103  0.74207597  0.36627352  1
  O  O39  1  0.87133244  0.59121601  0.37119652  1
  O  O40  1  0.87479230  0.74085478  0.87241968  1
  O  O41  1  0.39250749  0.91027571  0.86373855  1
  O  O42  1  0.12934956  0.91090089  0.12807791  1
  O  O43  1  0.62173109  0.75191075  0.12814035  1
  O  O44  1  0.61792128  0.90980367  0.64069719  1
  O  O45  1  0.86365581  0.91415726  0.36557975  1
