# generated using pymatgen
data_Li15(FeO6)2
_symmetry_space_group_name_H-M   'P 1'
_cell_length_a   5.44830341
_cell_length_b   8.09213217
_cell_length_c   5.82502041
_cell_angle_alpha   93.91290126
_cell_angle_beta   90.43887894
_cell_angle_gamma   89.14808555
_symmetry_Int_Tables_number   1
_chemical_formula_structural   Li15(FeO6)2
_chemical_formula_sum   'Li15 Fe2 O12'
_cell_volume   256.18311981
_cell_formula_units_Z   1
loop_
 _symmetry_equiv_pos_site_id
 _symmetry_equiv_pos_as_xyz
  1  'x, y, z'
loop_
 _atom_site_type_symbol
 _atom_site_label
 _atom_site_symmetry_multiplicity
 _atom_site_fract_x
 _atom_site_fract_y
 _atom_site_fract_z
 _atom_site_occupancy
  Li  Li0  1  0.98097590  0.65261814  0.68938674  1
  Li  Li1  1  0.85410901  0.63708323  0.27417368  1
  Li  Li2  1  0.85786492  0.93410461  0.56187769  1
  Li  Li3  1  0.77955314  0.27350068  0.96782085  1
  Li  Li4  1  0.63244234  0.89937112  0.20296203  1
  Li  Li5  1  0.68731094  0.20710791  0.51933946  1
  Li  Li6  1  0.65838415  0.56511603  0.93345929  1
  Li  Li7  1  0.51690648  0.83896067  0.80682403  1
  Li  Li8  1  0.34045219  0.40802232  0.10176168  1
  Li  Li9  1  0.30295585  0.79508002  0.43731869  1
  Li  Li10  1  0.37319325  0.12757396  0.80521910  1
  Li  Li11  1  0.19172597  0.69883619  0.05431762  1
  Li  Li12  1  0.20710605  0.08622661  0.38467439  1
  Li  Li13  1  0.12546184  0.37151645  0.74299906  1
  Li  Li14  1  0.00248301  0.35170933  0.31938836  1
  Fe  Fe15  1  0.49617806  0.50302718  0.51035825  1
  Fe  Fe16  1  0.00490563  0.99499101  0.98989364  1
  O  O17  1  0.84974368  0.76091888  0.99710040  1
  O  O18  1  0.86126984  0.06528697  0.29394684  1
  O  O19  1  0.78660886  0.42635427  0.67133207  1
  O  O20  1  0.64202874  0.73240538  0.50332569  1
  O  O21  1  0.71415245  0.06035932  0.81982052  1
  O  O22  1  0.66876343  0.43975031  0.21508581  1
  O  O23  1  0.33078470  0.56586630  0.80493934  1
  O  O24  1  0.29492396  0.91434149  0.14863688  1
  O  O25  1  0.34867661  0.28208526  0.51618838  1
  O  O26  1  0.20022677  0.57263786  0.34162684  1
  O  O27  1  0.17876628  0.93500181  0.69654528  1
  O  O28  1  0.12973294  0.23674170  0.00155642  1
