# generated using pymatgen
data_Li2Fe2Si2O7
_symmetry_space_group_name_H-M   'P 1'
_cell_length_a   8.37788425
_cell_length_b   13.37143855
_cell_length_c   5.53153586
_cell_angle_alpha   90.00000000
_cell_angle_beta   89.51424455
_cell_angle_gamma   90.00000000
_symmetry_Int_Tables_number   1
_chemical_formula_structural   Li2Fe2Si2O7
_chemical_formula_sum   'Li8 Fe8 Si8 O28'
_cell_volume   619.64451943
_cell_formula_units_Z   4
loop_
 _symmetry_equiv_pos_site_id
 _symmetry_equiv_pos_as_xyz
  1  'x, y, z'
loop_
 _atom_site_type_symbol
 _atom_site_label
 _atom_site_symmetry_multiplicity
 _atom_site_fract_x
 _atom_site_fract_y
 _atom_site_fract_z
 _atom_site_occupancy
  Li  Li0  1  0.10561853  0.37364316  0.13379084  1
  Li  Li1  1  0.16743461  0.75357140  0.80446042  1
  Li  Li2  1  0.33256539  0.25357140  0.69553958  1
  Li  Li3  1  0.39438147  0.87364316  0.36620916  1
  Li  Li4  1  0.60561853  0.12635684  0.63379084  1
  Li  Li5  1  0.66743461  0.74642860  0.30446042  1
  Li  Li6  1  0.83256539  0.24642860  0.19553958  1
  Li  Li7  1  0.89438147  0.62635684  0.86620916  1
  Fe  Fe8  1  0.11780130  0.08665324  0.33071510  1
  Fe  Fe9  1  0.20497690  0.49195604  0.62364444  1
  Fe  Fe10  1  0.29502310  0.99195604  0.87635556  1
  Fe  Fe11  1  0.38219870  0.58665324  0.16928490  1
  Fe  Fe12  1  0.61780130  0.41334676  0.83071510  1
  Fe  Fe13  1  0.70497690  0.00804396  0.12364444  1
  Fe  Fe14  1  0.79502310  0.50804396  0.37635556  1
  Fe  Fe15  1  0.88219870  0.91334676  0.66928490  1
  Si  Si16  1  0.03432550  0.88261023  0.19950230  1
  Si  Si17  1  0.03560293  0.67068235  0.33259666  1
  Si  Si18  1  0.46439707  0.17068235  0.16740334  1
  Si  Si19  1  0.46567450  0.38261023  0.30049770  1
  Si  Si20  1  0.53432550  0.61738977  0.69950230  1
  Si  Si21  1  0.53560293  0.82931765  0.83259666  1
  Si  Si22  1  0.96439707  0.32931765  0.66740334  1
  Si  Si23  1  0.96567450  0.11738977  0.80049770  1
  O  O24  1  0.02935474  0.79238270  0.40879967  1
  O  O25  1  0.00871744  0.16238742  0.06363796  1
  O  O26  1  0.09497211  0.03489813  0.69555971  1
  O  O27  1  0.06769528  0.61626742  0.59506961  1
  O  O28  1  0.14073249  0.36009936  0.77534078  1
  O  O29  1  0.17103227  0.65596399  0.12258984  1
  O  O30  1  0.20992711  0.93815824  0.20557844  1
  O  O31  1  0.29007289  0.43815824  0.29442156  1
  O  O32  1  0.32896773  0.15596399  0.37741016  1
  O  O33  1  0.35926751  0.86009936  0.72465922  1
  O  O34  1  0.43230472  0.11626742  0.90493039  1
  O  O35  1  0.40502789  0.53489813  0.80444029  1
  O  O36  1  0.49128256  0.66238742  0.43636204  1
  O  O37  1  0.47064526  0.29238270  0.09120033  1
  O  O38  1  0.52935474  0.70761730  0.90879967  1
  O  O39  1  0.50871744  0.33761258  0.56363796  1
  O  O40  1  0.59497211  0.46510187  0.19555971  1
  O  O41  1  0.56769528  0.88373258  0.09506961  1
  O  O42  1  0.64073249  0.13990064  0.27534078  1
  O  O43  1  0.67103227  0.84403601  0.62258984  1
  O  O44  1  0.70992711  0.56184176  0.70557844  1
  O  O45  1  0.79007289  0.06184176  0.79442156  1
  O  O46  1  0.82896773  0.34403601  0.87741016  1
  O  O47  1  0.85926751  0.63990064  0.22465922  1
  O  O48  1  0.93230472  0.38373258  0.40493039  1
  O  O49  1  0.90502789  0.96510187  0.30444029  1
  O  O50  1  0.99128256  0.83761258  0.93636204  1
  O  O51  1  0.97064526  0.20761730  0.59120033  1
