# generated using pymatgen
data_Li2Fe3(SiO4)2
_symmetry_space_group_name_H-M   'P 1'
_cell_length_a   5.06315726
_cell_length_b   8.94267930
_cell_length_c   13.58591748
_cell_angle_alpha   69.85444734
_cell_angle_beta   80.13441802
_cell_angle_gamma   89.03940748
_symmetry_Int_Tables_number   1
_chemical_formula_structural   Li2Fe3(SiO4)2
_chemical_formula_sum   'Li6 Fe9 Si6 O24'
_cell_volume   568.37785137
_cell_formula_units_Z   3
loop_
 _symmetry_equiv_pos_site_id
 _symmetry_equiv_pos_as_xyz
  1  'x, y, z'
loop_
 _atom_site_type_symbol
 _atom_site_label
 _atom_site_symmetry_multiplicity
 _atom_site_fract_x
 _atom_site_fract_y
 _atom_site_fract_z
 _atom_site_occupancy
  Li  Li0  1  0.45592058  0.41537643  0.22226924  1
  Li  Li1  1  0.38562133  0.06231215  0.31410899  1
  Li  Li2  1  0.25743422  0.94673405  0.53105636  1
  Li  Li3  1  0.48108250  0.75998493  0.14356573  1
  Li  Li4  1  0.73246672  0.01156989  0.64151628  1
  Li  Li5  1  0.62738672  0.86900113  0.90115807  1
  Fe  Fe6  1  0.01237918  0.98082301  0.00535474  1
  Fe  Fe7  1  0.27453518  0.28376228  0.50634269  1
  Fe  Fe8  1  0.20053840  0.73622683  0.81346005  1
  Fe  Fe9  1  0.28769755  0.48223976  0.65410884  1
  Fe  Fe10  1  0.92957855  0.23427275  0.16701817  1
  Fe  Fe11  1  0.59487273  0.50187496  0.96410595  1
  Fe  Fe12  1  0.69136552  0.26302222  0.81047458  1
  Fe  Fe13  1  0.92334283  0.56544297  0.30902273  1
  Fe  Fe14  1  0.84997359  0.82797974  0.45969708  1
  Si  Si15  1  0.02699929  0.61369652  0.06600289  1
  Si  Si16  1  0.49345924  0.13276605  0.06524489  1
  Si  Si17  1  0.19758937  0.09653487  0.74936945  1
  Si  Si18  1  0.37850273  0.67659822  0.39808708  1
  Si  Si19  1  0.82532958  0.18851141  0.40614928  1
  Si  Si20  1  0.75726225  0.64839996  0.71370444  1
  O  O21  1  0.04356165  0.04898689  0.41116187  1
  O  O22  1  0.00696335  0.34435882  0.40200614  1
  O  O23  1  0.17427740  0.57953544  0.17010773  1
  O  O24  1  0.07134675  0.71330884  0.37433868  1
  O  O25  1  0.37827800  0.97930735  0.04162341  1
  O  O26  1  0.07120246  0.11751944  0.64248165  1
  O  O27  1  0.31326008  0.18076194  0.16202056  1
  O  O28  1  0.37940068  0.50803459  0.50097946  1
  O  O29  1  0.39965804  0.94568667  0.77770799  1
  O  O30  1  0.47620830  0.82910652  0.42791076  1
  O  O31  1  0.55858061  0.64895963  0.29298123  1
  O  O32  1  0.38267422  0.25474083  0.73588482  1
  O  O33  1  0.27958046  0.64379008  0.96515497  1
  O  O34  1  0.42964717  0.62935987  0.72023444  1
  O  O35  1  0.78793083  0.08609721  0.10036171  1
  O  O36  1  0.57989206  0.12889486  0.51017036  1
  O  O37  1  0.67884479  0.23627983  0.29973221  1
  O  O38  1  0.82235677  0.46048394  0.08182218  1
  O  O39  1  0.83062913  0.76618982  0.03921517  1
  O  O40  1  0.53124159  0.29025429  0.95218342  1
  O  O41  1  0.89206068  0.80341187  0.61343752  1
  O  O42  1  0.80863513  0.67454801  0.82550998  1
  O  O43  1  0.88126424  0.47739842  0.71101321  1
  O  O44  1  0.93626753  0.06875373  0.84934099  1
