# generated using pymatgen
data_Li4Mn5(FeO6)2
_symmetry_space_group_name_H-M   'P 1'
_cell_length_a   5.15396224
_cell_length_b   9.21855791
_cell_length_c   10.04089036
_cell_angle_alpha   90.00000099
_cell_angle_beta   102.65510915
_cell_angle_gamma   90.00000212
_symmetry_Int_Tables_number   1
_chemical_formula_structural   Li4Mn5(FeO6)2
_chemical_formula_sum   'Li8 Mn10 Fe4 O24'
_cell_volume   465.47422770
_cell_formula_units_Z   2
loop_
 _symmetry_equiv_pos_site_id
 _symmetry_equiv_pos_as_xyz
  1  'x, y, z'
loop_
 _atom_site_type_symbol
 _atom_site_label
 _atom_site_symmetry_multiplicity
 _atom_site_fract_x
 _atom_site_fract_y
 _atom_site_fract_z
 _atom_site_occupancy
  Li  Li0  1  0.24688762  0.08586307  0.98833554  1
  Li  Li1  1  0.75455908  0.06897123  0.50810494  1
  Li  Li2  1  0.48881228  0.41961341  0.75731973  1
  Li  Li3  1  0.74556276  0.41931894  0.51381657  1
  Li  Li4  1  0.25311238  0.58586307  0.51166446  1
  Li  Li5  1  0.74544092  0.56897123  0.99189506  1
  Li  Li6  1  0.01118772  0.91961341  0.74268027  1
  Li  Li7  1  0.75443724  0.91931894  0.98618343  1
  Mn  Mn8  1  0.99242621  0.08426615  0.24310356  1
  Mn  Mn9  1  0.50434412  0.07656954  0.73979377  1
  Mn  Mn10  1  0.24985522  0.25327606  0.50852615  1
  Mn  Mn11  1  0.00944108  0.41970634  0.25949216  1
  Mn  Mn12  1  0.73727075  0.25186235  0.99286002  1
  Mn  Mn13  1  0.99565588  0.57656954  0.76020623  1
  Mn  Mn14  1  0.50757379  0.58426615  0.25689644  1
  Mn  Mn15  1  0.25014478  0.75327606  0.99147385  1
  Mn  Mn16  1  0.76272925  0.75186235  0.50713998  1
  Mn  Mn17  1  0.49055892  0.91970634  0.24050784  1
  Fe  Fe18  1  0.01529320  0.25502083  0.76519064  1
  Fe  Fe19  1  0.49447389  0.25463526  0.24470327  1
  Fe  Fe20  1  0.00552611  0.75463526  0.25529673  1
  Fe  Fe21  1  0.48470680  0.75502083  0.73480936  1
  O  O22  1  0.13568511  0.11243363  0.62930448  1
  O  O23  1  0.36833228  0.07860110  0.34444383  1
  O  O24  1  0.08879687  0.23527830  0.12815057  1
  O  O25  1  0.38071723  0.23988105  0.87510433  1
  O  O26  1  0.64124551  0.09604811  0.11788220  1
  O  O27  1  0.86716817  0.08764890  0.85647293  1
  O  O28  1  0.10160937  0.41889144  0.64946841  1
  O  O29  1  0.60663507  0.23033329  0.62235688  1
  O  O30  1  0.35814805  0.40430677  0.38686628  1
  O  O31  1  0.90229172  0.26543257  0.37736236  1
  O  O32  1  0.64511779  0.43014132  0.15157777  1
  O  O33  1  0.13166772  0.57860110  0.15555617  1
  O  O34  1  0.85178618  0.39753734  0.87590111  1
  O  O35  1  0.36431489  0.61243363  0.87069552  1
  O  O36  1  0.11928277  0.73988105  0.62489567  1
  O  O37  1  0.63283183  0.58764890  0.64352707  1
  O  O38  1  0.41120313  0.73527830  0.37184943  1
  O  O39  1  0.85875449  0.59604811  0.38211780  1
  O  O40  1  0.14185195  0.90430677  0.11313372  1
  O  O41  1  0.59770828  0.76543257  0.12263764  1
  O  O42  1  0.89336493  0.73033329  0.87764312  1
  O  O43  1  0.39839063  0.91889144  0.85053159  1
  O  O44  1  0.64821382  0.89753734  0.62409889  1
  O  O45  1  0.85488221  0.93014132  0.34842223  1
