# generated using pymatgen
data_LiFe4(PO4)3
_symmetry_space_group_name_H-M   'P 1'
_cell_length_a   9.35551588
_cell_length_b   6.46609037
_cell_length_c   14.92721306
_cell_angle_alpha   90.00000000
_cell_angle_beta   89.34624483
_cell_angle_gamma   90.00000000
_symmetry_Int_Tables_number   1
_chemical_formula_structural   LiFe4(PO4)3
_chemical_formula_sum   'Li4 Fe16 P12 O48'
_cell_volume   902.94224116
_cell_formula_units_Z   4
loop_
 _symmetry_equiv_pos_site_id
 _symmetry_equiv_pos_as_xyz
  1  'x, y, z'
loop_
 _atom_site_type_symbol
 _atom_site_label
 _atom_site_symmetry_multiplicity
 _atom_site_fract_x
 _atom_site_fract_y
 _atom_site_fract_z
 _atom_site_occupancy
  Li  Li0  1  0.16309270  0.75000000  0.15517490  1
  Li  Li1  1  0.33600233  0.25000000  0.32209918  1
  Li  Li2  1  0.33508913  0.25000000  0.65601249  1
  Li  Li3  1  0.33028932  0.25000000  0.99625501  1
  Fe  Fe4  1  0.02011516  0.50688535  0.66548778  1
  Fe  Fe5  1  0.00604650  0.50855743  0.00101675  1
  Fe  Fe6  1  0.00430149  0.51307245  0.33505869  1
  Fe  Fe7  1  0.00604650  0.99144257  0.00101675  1
  Fe  Fe8  1  0.00430149  0.98692755  0.33505869  1
  Fe  Fe9  1  0.02011516  0.99311465  0.66548778  1
  Fe  Fe10  1  0.49888825  0.98780732  0.16303406  1
  Fe  Fe11  1  0.49888825  0.51219268  0.16303406  1
  Fe  Fe12  1  0.48298547  0.98531033  0.48869714  1
  Fe  Fe13  1  0.48821782  0.99502987  0.83572601  1
  Fe  Fe14  1  0.48298547  0.51468967  0.48869714  1
  Fe  Fe15  1  0.48821782  0.50497013  0.83572601  1
  Fe  Fe16  1  0.65131825  0.75000000  0.67642437  1
  Fe  Fe17  1  0.85208917  0.25000000  0.84207230  1
  Fe  Fe18  1  0.85821388  0.25000000  0.50193710  1
  Fe  Fe19  1  0.84401450  0.25000000  0.17497409  1
  P  P20  1  0.17921627  0.25000000  0.16020456  1
  P  P21  1  0.17439242  0.25000000  0.48871450  1
  P  P22  1  0.17449270  0.25000000  0.82518271  1
  P  P23  1  0.32450494  0.75000000  0.32125897  1
  P  P24  1  0.32820773  0.75000000  0.65750068  1
  P  P25  1  0.32080219  0.75000000  0.99335061  1
  P  P26  1  0.67486508  0.25000000  0.34679920  1
  P  P27  1  0.67491314  0.25000000  0.01085299  1
  P  P28  1  0.68435772  0.25000000  0.67489946  1
  P  P29  1  0.82016968  0.75000000  0.17255869  1
  P  P30  1  0.81656510  0.75000000  0.84007363  1
  P  P31  1  0.82535303  0.75000000  0.50948984  1
  O  O32  1  0.11431378  0.05419427  0.11753560  1
  O  O33  1  0.10947981  0.05569366  0.78311551  1
  O  O34  1  0.10656650  0.05582731  0.44849562  1
  O  O35  1  0.10656650  0.44417269  0.44849562  1
  O  O36  1  0.10947981  0.44430634  0.78311551  1
  O  O37  1  0.11431378  0.44580573  0.11753560  1
  O  O38  1  0.14107560  0.25000000  0.26246085  1
  O  O39  1  0.14307481  0.25000000  0.59294958  1
  O  O40  1  0.13741183  0.25000000  0.92837172  1
  O  O41  1  0.15819692  0.75000000  0.30147015  1
  O  O42  1  0.15394636  0.75000000  0.98576812  1
  O  O43  1  0.16360301  0.75000000  0.64795028  1
  O  O44  1  0.34419541  0.25000000  0.13935246  1
  O  O45  1  0.34002136  0.25000000  0.46773308  1
  O  O46  1  0.34157979  0.25000000  0.80525293  1
  O  O47  1  0.36180039  0.75000000  0.42221287  1
  O  O48  1  0.36141007  0.75000000  0.09493433  1
  O  O49  1  0.38242645  0.75000000  0.75611346  1
  O  O50  1  0.37733926  0.95056087  0.94940920  1
  O  O51  1  0.38378057  0.95062027  0.27796462  1
  O  O52  1  0.38958058  0.94844075  0.61187709  1
  O  O53  1  0.38958058  0.55155925  0.61187709  1
  O  O54  1  0.37733926  0.54943913  0.94940920  1
  O  O55  1  0.38378057  0.54937973  0.27796462  1
  O  O56  1  0.61728237  0.05287909  0.05327685  1
  O  O57  1  0.61858149  0.05319418  0.39063020  1
  O  O58  1  0.61756326  0.05484985  0.71883254  1
  O  O59  1  0.61728237  0.44712091  0.05327685  1
  O  O60  1  0.61858149  0.44680582  0.39063020  1
  O  O61  1  0.61756326  0.44515015  0.71883254  1
  O  O62  1  0.64639380  0.25000000  0.24307604  1
  O  O63  1  0.64705637  0.25000000  0.90634578  1
  O  O64  1  0.66024650  0.25000000  0.57299672  1
  O  O65  1  0.65655566  0.75000000  0.18303691  1
  O  O66  1  0.64987767  0.75000000  0.84355944  1
  O  O67  1  0.65909909  0.75000000  0.53306572  1
  O  O68  1  0.84872289  0.25000000  0.69894516  1
  O  O69  1  0.84612269  0.25000000  0.02745524  1
  O  O70  1  0.84545853  0.25000000  0.36150363  1
  O  O71  1  0.86050581  0.75000000  0.73781390  1
  O  O72  1  0.86819021  0.75000000  0.41033358  1
  O  O73  1  0.88145416  0.75000000  0.07561368  1
  O  O74  1  0.87512136  0.55276929  0.88608934  1
  O  O75  1  0.87512136  0.94723071  0.88608934  1
  O  O76  1  0.88333767  0.55098559  0.55736348  1
  O  O77  1  0.88004482  0.55157565  0.22098056  1
  O  O78  1  0.88004482  0.94842435  0.22098056  1
  O  O79  1  0.88333767  0.94901441  0.55736348  1
