# generated using pymatgen
data_Li3V3P8O29
_symmetry_space_group_name_H-M   'P 1'
_cell_length_a   9.78610096
_cell_length_b   9.79279406
_cell_length_c   14.33745581
_cell_angle_alpha   90.74897725
_cell_angle_beta   89.90412422
_cell_angle_gamma   59.86341412
_symmetry_Int_Tables_number   1
_chemical_formula_structural   Li3V3P8O29
_chemical_formula_sum   'Li6 V6 P16 O58'
_cell_volume   1188.12696429
_cell_formula_units_Z   2
loop_
 _symmetry_equiv_pos_site_id
 _symmetry_equiv_pos_as_xyz
  1  'x, y, z'
loop_
 _atom_site_type_symbol
 _atom_site_label
 _atom_site_symmetry_multiplicity
 _atom_site_fract_x
 _atom_site_fract_y
 _atom_site_fract_z
 _atom_site_occupancy
  Li  Li0  1  0.09047882  0.69061599  0.44557222  1
  Li  Li1  1  0.22677551  0.69262309  0.93726318  1
  Li  Li2  1  0.77772628  0.30647367  0.05953511  1
  Li  Li3  1  0.91691644  0.30553834  0.55836745  1
  Li  Li4  1  0.77221304  0.91738887  0.56073520  1
  Li  Li5  1  0.91150424  0.77611805  0.05227733  1
  V  V6  1  0.99857419  0.56419539  0.24839718  1
  V  V7  1  0.43324509  0.99767479  0.24891506  1
  V  V8  1  0.43718421  0.57133877  0.74302008  1
  V  V9  1  0.56269439  0.43229413  0.25371163  1
  V  V10  1  0.55952524  0.00428264  0.75394011  1
  V  V11  1  0.00459104  0.42637233  0.75373205  1
  P  P12  1  0.08979749  0.22363643  0.16221589  1
  P  P13  1  0.23067633  0.08061811  0.65711870  1
  P  P14  1  0.08916538  0.67658836  0.66058901  1
  P  P15  1  0.32878668  0.33579114  0.36792930  1
  P  P16  1  0.33193782  0.34234787  0.86921780  1
  P  P17  1  0.23136792  0.67871853  0.15608894  1
  P  P18  1  0.31186263  0.77565786  0.33609786  1
  P  P19  1  0.68648528  0.08359397  0.16364524  1
  P  P20  1  0.31072750  0.91727480  0.84112114  1
  P  P21  1  0.68546387  0.22619004  0.66315674  1
  P  P22  1  0.76477532  0.32110559  0.84294425  1
  P  P23  1  0.66898314  0.66255143  0.13125138  1
  P  P24  1  0.67624039  0.66417850  0.63019434  1
  P  P25  1  0.91018187  0.32013833  0.34129403  1
  P  P26  1  0.76773232  0.91341490  0.34386037  1
  P  P27  1  0.90812063  0.77078892  0.83858113  1
  O  O28  1  0.98054737  0.25981219  0.43317261  1
  O  O29  1  0.08519665  0.25309693  0.66490821  1
  O  O30  1  0.20904850  0.99916186  0.74922974  1
  O  O31  1  0.23594386  0.99874611  0.92912996  1
  O  O32  1  0.09758881  0.37883942  0.17919011  1
  O  O33  1  0.26001068  0.08214174  0.16553539  1
  O  O34  1  0.18325100  0.33950094  0.82381426  1
  O  O35  1  0.09684838  0.51800925  0.67744506  1
  O  O36  1  0.99536755  0.76154445  0.92615570  1
  O  O37  1  0.08264883  0.65933772  0.16474256  1
  O  O38  1  0.33441044  0.18641535  0.32379549  1
  O  O39  1  0.17964121  0.48702829  0.32668491  1
  O  O40  1  0.38336175  0.09017240  0.67971365  1
  O  O41  1  0.32684504  0.34677084  0.47106320  1
  O  O42  1  0.32363709  0.34455548  0.97235402  1
  O  O43  1  0.52584358  0.09021519  0.17771451  1
  O  O44  1  0.33163592  0.49022732  0.82908196  1
  O  O45  1  0.47895425  0.18938904  0.82453236  1
  O  O46  1  0.25699247  0.65458906  0.66625688  1
  O  O47  1  0.21360078  0.79515762  0.24118839  1
  O  O48  1  0.23659604  0.74351482  0.06418475  1
  O  O49  1  0.22642552  0.76746298  0.41891625  1
  O  O50  1  0.38237295  0.52001588  0.17886925  1
  O  O51  1  0.47836500  0.33758057  0.32374485  1
  O  O52  1  0.65803221  0.08367013  0.66216018  1
  O  O53  1  0.33885654  0.74519120  0.83285500  1
  O  O54  1  0.52310858  0.38229831  0.67713035  1
  O  O55  1  0.23723086  0.99895364  0.56930310  1
  O  O56  1  0.76385762  0.98508065  0.43636336  1
  O  O57  1  0.47505463  0.61918017  0.32082704  1
  O  O58  1  0.65957236  0.25411768  0.16300553  1
  O  O59  1  0.78341315  0.01169334  0.25956692  1
  O  O60  1  0.34213399  0.91549844  0.33227562  1
  O  O61  1  0.52457284  0.66410140  0.67481094  1
  O  O62  1  0.61449784  0.48056645  0.81990639  1
  O  O63  1  0.75941252  0.25723465  0.93456569  1
  O  O64  1  0.77472412  0.23271221  0.58147731  1
  O  O65  1  0.78037076  0.20301231  0.75943991  1
  O  O66  1  0.74258876  0.34295525  0.32757164  1
  O  O67  1  0.52239115  0.81255387  0.17605625  1
  O  O68  1  0.47516519  0.90700384  0.82091760  1
  O  O69  1  0.66796260  0.51370227  0.16903735  1
  O  O70  1  0.67689196  0.65743803  0.52673533  1
  O  O71  1  0.68120324  0.66472210  0.02807359  1
  O  O72  1  0.61648626  0.90565461  0.32197559  1
  O  O73  1  0.82210017  0.51363397  0.67148274  1
  O  O74  1  0.67263772  0.81590285  0.67075561  1
  O  O75  1  0.91047056  0.34326633  0.82834822  1
  O  O76  1  0.01233597  0.20289861  0.25767176  1
  O  O77  1  0.99397932  0.23519594  0.08034845  1
  O  O78  1  0.90008574  0.48086982  0.31840343  1
  O  O79  1  0.81901600  0.66555510  0.17452869  1
  O  O80  1  0.74061704  0.91497172  0.83319252  1
  O  O81  1  0.90197074  0.61721599  0.82168108  1
  O  O82  1  0.77762624  0.98844190  0.08106065  1
  O  O83  1  0.91702985  0.74489310  0.33434309  1
  O  O84  1  0.00312162  0.75521746  0.57329789  1
  O  O85  1  0.99897913  0.78902439  0.74988539  1
