# generated using pymatgen
data_Mn3(OF2)2
_symmetry_space_group_name_H-M   'P 1'
_cell_length_a   4.83727817
_cell_length_b   7.94437053
_cell_length_c   5.78563523
_cell_angle_alpha   94.34614637
_cell_angle_beta   94.69088788
_cell_angle_gamma   86.54238133
_symmetry_Int_Tables_number   1
_chemical_formula_structural   Mn3(OF2)2
_chemical_formula_sum   'Mn6 O4 F8'
_cell_volume   220.62718292
_cell_formula_units_Z   2
loop_
 _symmetry_equiv_pos_site_id
 _symmetry_equiv_pos_as_xyz
  1  'x, y, z'
loop_
 _atom_site_type_symbol
 _atom_site_label
 _atom_site_symmetry_multiplicity
 _atom_site_fract_x
 _atom_site_fract_y
 _atom_site_fract_z
 _atom_site_occupancy
  Mn  Mn0  1  0.51516570  0.99934200  0.51331583  1
  Mn  Mn1  1  0.50000000  0.66666700  0.16666700  1
  Mn  Mn2  1  0.48483430  0.33399100  0.82001817  1
  Mn  Mn3  1  0.00000000  0.66666700  0.66666700  1
  Mn  Mn4  1  0.01870768  0.32519778  0.34470087  1
  Mn  Mn5  1  0.98129232  0.00813522  0.98863313  1
  O  O6  1  0.68742239  0.10904488  0.79627090  1
  O  O7  1  0.69856492  0.76960674  0.46665917  1
  O  O8  1  0.30143508  0.56372626  0.86667383  1
  O  O9  1  0.31257761  0.22428812  0.53706210  1
  F  F10  1  0.81299661  0.43923352  0.62700970  1
  F  F11  1  0.80463186  0.76791135  0.96640001  1
  F  F12  1  0.80479748  0.10089940  0.29127790  1
  F  F13  1  0.70319520  0.42452730  0.12887256  1
  F  F14  1  0.29680480  0.90880570  0.20446044  1
  F  F15  1  0.19536814  0.56542165  0.36693299  1
  F  F16  1  0.19520252  0.23243360  0.04205610  1
  F  F17  1  0.18700339  0.89409948  0.70632330  1
