# generated using pymatgen
data_LiFeSiO4
_symmetry_space_group_name_H-M   'P 1'
_cell_length_a   8.74980343
_cell_length_b   8.08128132
_cell_length_c   15.19865637
_cell_angle_alpha   90.00000000
_cell_angle_beta   89.64103347
_cell_angle_gamma   90.00000000
_symmetry_Int_Tables_number   1
_chemical_formula_structural   LiFeSiO4
_chemical_formula_sum   'Li12 Fe12 Si12 O48'
_cell_volume   1074.67016968
_cell_formula_units_Z   12
loop_
 _symmetry_equiv_pos_site_id
 _symmetry_equiv_pos_as_xyz
  1  'x, y, z'
loop_
 _atom_site_type_symbol
 _atom_site_label
 _atom_site_symmetry_multiplicity
 _atom_site_fract_x
 _atom_site_fract_y
 _atom_site_fract_z
 _atom_site_occupancy
  Li  Li0  1  0.21953058  0.02474800  0.55942618  1
  Li  Li1  1  0.22331309  0.96199070  0.90805383  1
  Li  Li2  1  0.24897354  0.15524509  0.24995964  1
  Li  Li3  1  0.25102646  0.65524509  0.25004036  1
  Li  Li4  1  0.27668691  0.46199070  0.59194617  1
  Li  Li5  1  0.28046942  0.52474800  0.94057382  1
  Li  Li6  1  0.71953058  0.47525200  0.05942618  1
  Li  Li7  1  0.72331309  0.53800930  0.40805383  1
  Li  Li8  1  0.74897354  0.34475491  0.74995964  1
  Li  Li9  1  0.75102646  0.84475491  0.75004036  1
  Li  Li10  1  0.77668691  0.03800930  0.09194617  1
  Li  Li11  1  0.78046942  0.97525200  0.44057382  1
  Fe  Fe12  1  0.04611339  0.72436062  0.09409604  1
  Fe  Fe13  1  0.08681160  0.79013171  0.72991849  1
  Fe  Fe14  1  0.11172125  0.71946460  0.42784590  1
  Fe  Fe15  1  0.38827875  0.21946460  0.07215410  1
  Fe  Fe16  1  0.41318840  0.29013171  0.77008151  1
  Fe  Fe17  1  0.45388661  0.22436062  0.40590396  1
  Fe  Fe18  1  0.54611339  0.77563938  0.59409604  1
  Fe  Fe19  1  0.58681160  0.70986829  0.22991849  1
  Fe  Fe20  1  0.61172125  0.78053540  0.92784590  1
  Fe  Fe21  1  0.88827875  0.28053540  0.57215410  1
  Fe  Fe22  1  0.91318840  0.20986829  0.27008151  1
  Fe  Fe23  1  0.95388661  0.27563938  0.90590396  1
  Si  Si24  1  0.05436224  0.32847966  0.09169942  1
  Si  Si25  1  0.08639019  0.17579170  0.72699939  1
  Si  Si26  1  0.11090868  0.32656926  0.42475496  1
  Si  Si27  1  0.38909132  0.82656926  0.07524504  1
  Si  Si28  1  0.41360981  0.67579170  0.77300061  1
  Si  Si29  1  0.44563776  0.82847966  0.40830058  1
  Si  Si30  1  0.55436224  0.17152034  0.59169942  1
  Si  Si31  1  0.58639019  0.32420830  0.22699939  1
  Si  Si32  1  0.61090868  0.17343074  0.92475496  1
  Si  Si33  1  0.88909132  0.67343074  0.57524504  1
  Si  Si34  1  0.91360981  0.82420830  0.27300061  1
  Si  Si35  1  0.94563776  0.67152034  0.90830058  1
  O  O36  1  0.03233182  0.49284469  0.89188361  1
  O  O37  1  0.04262342  0.64627859  0.63575015  1
  O  O38  1  0.05622676  0.78311522  0.97331773  1
  O  O39  1  0.06899717  0.72611944  0.30432649  1
  O  O40  1  0.06980781  0.21362620  0.51252350  1
  O  O41  1  0.09333424  0.99878338  0.67322309  1
  O  O42  1  0.08394175  0.14015834  0.83444603  1
  O  O43  1  0.07741178  0.22930660  0.18561211  1
  O  O44  1  0.17706464  0.50494178  0.46119514  1
  O  O45  1  0.22226636  0.36065926  0.04373912  1
  O  O46  1  0.24600968  0.23153411  0.36740016  1
  O  O47  1  0.23731888  0.28529499  0.69852299  1
  O  O48  1  0.25399032  0.73153411  0.13259984  1
  O  O49  1  0.26268112  0.78529499  0.80147701  1
  O  O50  1  0.27773364  0.86065926  0.45626088  1
  O  O51  1  0.32293536  0.00494178  0.03880486  1
  O  O52  1  0.42258822  0.72930660  0.31438789  1
  O  O53  1  0.41605825  0.64015834  0.66555397  1
  O  O54  1  0.40666576  0.49878338  0.82677691  1
  O  O55  1  0.43100283  0.22611944  0.19567351  1
  O  O56  1  0.43019219  0.71362620  0.98747650  1
  O  O57  1  0.44377324  0.28311522  0.52668227  1
  O  O58  1  0.45737658  0.14627859  0.86424985  1
  O  O59  1  0.46766818  0.99284469  0.60811639  1
  O  O60  1  0.53233182  0.00715531  0.39188361  1
  O  O61  1  0.54262342  0.85372141  0.13575015  1
  O  O62  1  0.55622676  0.71688478  0.47331773  1
  O  O63  1  0.56980781  0.28637380  0.01252350  1
  O  O64  1  0.56899717  0.77388056  0.80432649  1
  O  O65  1  0.59333424  0.50121662  0.17322309  1
  O  O66  1  0.58394175  0.35984166  0.33444603  1
  O  O67  1  0.57741178  0.27069340  0.68561211  1
  O  O68  1  0.67706464  0.99505822  0.96119514  1
  O  O69  1  0.72226636  0.13934074  0.54373912  1
  O  O70  1  0.73731888  0.21470501  0.19852299  1
  O  O71  1  0.74600968  0.26846589  0.86740016  1
  O  O72  1  0.76268112  0.71470501  0.30147701  1
  O  O73  1  0.75399032  0.76846589  0.63259984  1
  O  O74  1  0.77773364  0.63934074  0.95626088  1
  O  O75  1  0.82293536  0.49505822  0.53880486  1
  O  O76  1  0.92258822  0.77069340  0.81438789  1
  O  O77  1  0.91605825  0.85984166  0.16555397  1
  O  O78  1  0.90666576  0.00121662  0.32677691  1
  O  O79  1  0.93019219  0.78637380  0.48747650  1
  O  O80  1  0.93100283  0.27388056  0.69567351  1
  O  O81  1  0.94377324  0.21688478  0.02668227  1
  O  O82  1  0.95737658  0.35372141  0.36424985  1
  O  O83  1  0.96766818  0.50715531  0.10811639  1
