# generated using pymatgen
data_VH10(CO5)2
_symmetry_space_group_name_H-M   'P 1'
_cell_length_a   7.22942689
_cell_length_b   8.92901295
_cell_length_c   14.13084973
_cell_angle_alpha   90.00000000
_cell_angle_beta   95.15109118
_cell_angle_gamma   90.00000000
_symmetry_Int_Tables_number   1
_chemical_formula_structural   VH10(CO5)2
_chemical_formula_sum   'V4 H40 C8 O40'
_cell_volume   908.48572661
_cell_formula_units_Z   4
loop_
 _symmetry_equiv_pos_site_id
 _symmetry_equiv_pos_as_xyz
  1  'x, y, z'
loop_
 _atom_site_type_symbol
 _atom_site_label
 _atom_site_symmetry_multiplicity
 _atom_site_fract_x
 _atom_site_fract_y
 _atom_site_fract_z
 _atom_site_occupancy
  V  V0  1  0.31182202  0.76828977  0.98888564  1
  V  V1  1  0.31182202  0.73171023  0.48888564  1
  V  V2  1  0.68817798  0.26828977  0.51111436  1
  V  V3  1  0.68817798  0.23171023  0.01111436  1
  H  H4  1  0.03813724  0.25139510  0.95415327  1
  H  H5  1  0.98970597  0.95270366  0.74353582  1
  H  H6  1  0.05020417  0.30700089  0.56500953  1
  H  H7  1  0.03813724  0.24860490  0.45415327  1
  H  H8  1  0.10443419  0.10104197  0.75451547  1
  H  H9  1  0.98970597  0.54729634  0.24353582  1
  H  H10  1  0.16484139  0.59783635  0.84837257  1
  H  H11  1  0.05020417  0.19299911  0.06500953  1
  H  H12  1  0.10443419  0.39895803  0.25451547  1
  H  H13  1  0.20040794  0.97261518  0.62039075  1
  H  H14  1  0.23643282  0.46743554  0.64065467  1
  H  H15  1  0.16484139  0.90216365  0.34837257  1
  H  H16  1  0.26479364  0.30635537  0.68583627  1
  H  H17  1  0.20040794  0.52738482  0.12039075  1
  H  H18  1  0.31203365  0.04276869  0.53883142  1
  H  H19  1  0.38001909  0.63632892  0.82870257  1
  H  H20  1  0.23643282  0.03256446  0.14065467  1
  H  H21  1  0.26479364  0.19364463  0.18583627  1
  H  H22  1  0.31203365  0.45723131  0.03883142  1
  H  H23  1  0.38001909  0.86367108  0.32870257  1
  H  H24  1  0.61998091  0.13632892  0.67129743  1
  H  H25  1  0.68796635  0.54276869  0.96116858  1
  H  H26  1  0.73520636  0.80635537  0.81416373  1
  H  H27  1  0.76356718  0.96743554  0.85934533  1
  H  H28  1  0.61998091  0.36367108  0.17129743  1
  H  H29  1  0.68796635  0.95723131  0.46116858  1
  H  H30  1  0.79959206  0.47261518  0.87960925  1
  H  H31  1  0.73520636  0.69364463  0.31416373  1
  H  H32  1  0.83515861  0.09783635  0.65162743  1
  H  H33  1  0.76356718  0.53256446  0.35934533  1
  H  H34  1  0.79959206  0.02738482  0.37960925  1
  H  H35  1  0.89556581  0.60104197  0.74548453  1
  H  H36  1  0.94979583  0.80700089  0.93499047  1
  H  H37  1  0.83515861  0.40216365  0.15162743  1
  H  H38  1  0.01029403  0.45270366  0.75646418  1
  H  H39  1  0.89556581  0.89895803  0.24548453  1
  H  H40  1  0.96186276  0.75139510  0.54584673  1
  H  H41  1  0.94979583  0.69299911  0.43499047  1
  H  H42  1  0.01029403  0.04729634  0.25646418  1
  H  H43  1  0.96186276  0.74860490  0.04584673  1
  C  C44  1  0.34648985  0.24441307  0.89595090  1
  C  C45  1  0.34648985  0.25558693  0.39595090  1
  C  C46  1  0.49377409  0.18876766  0.83086324  1
  C  C47  1  0.50622591  0.68876766  0.66913676  1
  C  C48  1  0.49377409  0.31123234  0.33086324  1
  C  C49  1  0.50622591  0.81123234  0.16913676  1
  C  C50  1  0.65351015  0.74441307  0.60404910  1
  C  C51  1  0.65351015  0.75558693  0.10404910  1
  O  O52  1  0.03082740  0.75761202  0.98785992  1
  O  O53  1  0.04265988  0.03324133  0.70641408  1
  O  O54  1  0.03082740  0.74238798  0.48785992  1
  O  O55  1  0.04265988  0.46675867  0.20641408  1
  O  O56  1  0.18033905  0.25028316  0.86466699  1
  O  O57  1  0.16916797  0.37659459  0.65777520  1
  O  O58  1  0.18033905  0.24971684  0.36466699  1
  O  O59  1  0.29276960  0.61878635  0.87891410  1
  O  O60  1  0.32425282  0.92439339  0.92962985  1
  O  O61  1  0.16916797  0.12340541  0.15777520  1
  O  O62  1  0.28516905  0.94883487  0.57107781  1
  O  O63  1  0.29276960  0.88121365  0.37891410  1
  O  O64  1  0.34616690  0.65618554  0.62604265  1
  O  O65  1  0.41230127  0.28078367  0.98104521  1
  O  O66  1  0.32425282  0.57560661  0.42962985  1
  O  O67  1  0.28516905  0.55116513  0.07107781  1
  O  O68  1  0.45250066  0.17822048  0.74331841  1
  O  O69  1  0.34616690  0.84381446  0.12604265  1
  O  O70  1  0.41230127  0.21921633  0.48104521  1
  O  O71  1  0.54749934  0.67822048  0.75668159  1
  O  O72  1  0.45250066  0.32177952  0.24331841  1
  O  O73  1  0.58769873  0.78078367  0.51895479  1
  O  O74  1  0.65383310  0.15618554  0.87395735  1
  O  O75  1  0.54749934  0.82177952  0.25668159  1
  O  O76  1  0.71483095  0.44883487  0.92892219  1
  O  O77  1  0.67574718  0.42439339  0.57037015  1
  O  O78  1  0.58769873  0.71921633  0.01895479  1
  O  O79  1  0.65383310  0.34381446  0.37395735  1
  O  O80  1  0.70723040  0.11878635  0.62108590  1
  O  O81  1  0.71483095  0.05116513  0.42892219  1
  O  O82  1  0.83083203  0.87659459  0.84222480  1
  O  O83  1  0.67574718  0.07560661  0.07037015  1
  O  O84  1  0.70723040  0.38121365  0.12108590  1
  O  O85  1  0.81966095  0.75028316  0.63533301  1
  O  O86  1  0.83083203  0.62340541  0.34222480  1
  O  O87  1  0.81966095  0.74971684  0.13533301  1
  O  O88  1  0.95734012  0.53324133  0.79358592  1
  O  O89  1  0.96917260  0.25761202  0.51214008  1
  O  O90  1  0.95734012  0.96675867  0.29358592  1
  O  O91  1  0.96917260  0.24238798  0.01214008  1
