# generated using pymatgen
data_LiMn2(PO3)5
_symmetry_space_group_name_H-M   'P 1'
_cell_length_a   5.17412358
_cell_length_b   13.18595406
_cell_length_c   8.74285239
_cell_angle_alpha   90.00000000
_cell_angle_beta   103.46174617
_cell_angle_gamma   90.00000000
_symmetry_Int_Tables_number   1
_chemical_formula_structural   LiMn2(PO3)5
_chemical_formula_sum   'Li2 Mn4 P10 O30'
_cell_volume   580.09954927
_cell_formula_units_Z   2
loop_
 _symmetry_equiv_pos_site_id
 _symmetry_equiv_pos_as_xyz
  1  'x, y, z'
loop_
 _atom_site_type_symbol
 _atom_site_label
 _atom_site_symmetry_multiplicity
 _atom_site_fract_x
 _atom_site_fract_y
 _atom_site_fract_z
 _atom_site_occupancy
  Li  Li0  1  0.50000000  0.00000000  0.50000000  1
  Li  Li1  1  0.50000000  0.50000000  0.50000000  1
  Mn  Mn2  1  0.13075191  0.09736601  0.15491454  1
  Mn  Mn3  1  0.13075191  0.40263399  0.15491454  1
  Mn  Mn4  1  0.86924809  0.59736601  0.84508546  1
  Mn  Mn5  1  0.86924809  0.90263399  0.84508546  1
  P  P6  1  0.02832433  0.63853402  0.50040601  1
  P  P7  1  0.02832433  0.86146598  0.50040601  1
  P  P8  1  0.34319557  0.07037980  0.81262127  1
  P  P9  1  0.34319557  0.42962020  0.81262127  1
  P  P10  1  0.44065486  0.75000000  0.98065378  1
  P  P11  1  0.55934514  0.25000000  0.01934622  1
  P  P12  1  0.65680443  0.57037980  0.18737873  1
  P  P13  1  0.65680443  0.92962020  0.18737873  1
  P  P14  1  0.97167567  0.36146598  0.49959399  1
  P  P15  1  0.97167567  0.13853402  0.49959399  1
  O  O16  1  0.04635399  0.25000000  0.45358861  1
  O  O17  1  0.16626834  0.03625214  0.92008584  1
  O  O18  1  0.16626834  0.46374786  0.92008584  1
  O  O19  1  0.16634893  0.75000000  0.87467153  1
  O  O20  1  0.17463173  0.13391846  0.67276901  1
  O  O21  1  0.17463173  0.36608154  0.67276901  1
  O  O22  1  0.08087749  0.42745552  0.38683922  1
  O  O23  1  0.08087749  0.07254448  0.38683922  1
  O  O24  1  0.30674273  0.62906085  0.48557431  1
  O  O25  1  0.30674273  0.87093915  0.48557431  1
  O  O26  1  0.54784621  0.15495782  0.90413125  1
  O  O27  1  0.54784621  0.34504118  0.90413125  1
  O  O28  1  0.51045048  0.99146101  0.75830837  1
  O  O29  1  0.51045048  0.50853899  0.75830837  1
  O  O30  1  0.31926047  0.25000000  0.09204548  1
  O  O31  1  0.68073953  0.75000000  0.90795452  1
  O  O32  1  0.48954952  0.49146101  0.24169163  1
  O  O33  1  0.48954952  0.00853899  0.24169163  1
  O  O34  1  0.45215379  0.65495782  0.09586875  1
  O  O35  1  0.45215379  0.84504218  0.09586875  1
  O  O36  1  0.69325727  0.12906085  0.51442569  1
  O  O37  1  0.69325727  0.37093915  0.51442569  1
  O  O38  1  0.91912251  0.57254448  0.61316078  1
  O  O39  1  0.91912251  0.92745552  0.61316078  1
  O  O40  1  0.82536827  0.63391846  0.32723099  1
  O  O41  1  0.82536827  0.86608154  0.32723099  1
  O  O42  1  0.83365107  0.25000000  0.12532847  1
  O  O43  1  0.83373166  0.53625214  0.07991416  1
  O  O44  1  0.83373166  0.96374786  0.07991416  1
  O  O45  1  0.95364601  0.75000000  0.54641139  1
