# generated using pymatgen
data_Li4V3P8O29
_symmetry_space_group_name_H-M   'P 1'
_cell_length_a   9.78756931
_cell_length_b   9.78625024
_cell_length_c   14.07521753
_cell_angle_alpha   90.11177627
_cell_angle_beta   90.12750599
_cell_angle_gamma   60.10848289
_symmetry_Int_Tables_number   1
_chemical_formula_structural   Li4V3P8O29
_chemical_formula_sum   'Li8 V6 P16 O58'
_cell_volume   1168.82460204
_cell_formula_units_Z   2
loop_
 _symmetry_equiv_pos_site_id
 _symmetry_equiv_pos_as_xyz
  1  'x, y, z'
loop_
 _atom_site_type_symbol
 _atom_site_label
 _atom_site_symmetry_multiplicity
 _atom_site_fract_x
 _atom_site_fract_y
 _atom_site_fract_z
 _atom_site_occupancy
  Li  Li0  1  0.09169947  0.68020186  0.43927230  1
  Li  Li1  1  0.32068457  0.77662275  0.55803744  1
  Li  Li2  1  0.68098424  0.09175312  0.93932203  1
  Li  Li3  1  0.31400550  0.91145951  0.05726737  1
  Li  Li4  1  0.77606702  0.32161390  0.05829947  1
  Li  Li5  1  0.91151805  0.31321069  0.55730683  1
  Li  Li6  1  0.76931487  0.91436083  0.55974621  1
  Li  Li7  1  0.91419804  0.76983925  0.05945532  1
  V  V8  1  0.99977476  0.56686011  0.24751486  1
  V  V9  1  0.43040096  0.00133119  0.25291273  1
  V  V10  1  0.43163981  0.56706718  0.75305673  1
  V  V11  1  0.56681837  0.43118747  0.25344860  1
  V  V12  1  0.56681791  0.99988301  0.74867247  1
  V  V13  1  0.00145376  0.43014198  0.75258779  1
  P  P14  1  0.08707567  0.22967781  0.15949548  1
  P  P15  1  0.23002434  0.08709054  0.65931663  1
  P  P16  1  0.08779439  0.68063302  0.65949261  1
  P  P17  1  0.33266454  0.33464325  0.37142226  1
  P  P18  1  0.33445800  0.33343006  0.87135545  1
  P  P19  1  0.23249817  0.68215819  0.15761819  1
  P  P20  1  0.31787009  0.76874328  0.34135457  1
  P  P21  1  0.68062028  0.08775258  0.15940676  1
  P  P22  1  0.31973170  0.91348917  0.84198186  1
  P  P23  1  0.68240676  0.23189448  0.65797100  1
  P  P24  1  0.76898401  0.31786528  0.84145696  1
  P  P25  1  0.66360525  0.66861599  0.12880268  1
  P  P26  1  0.66844674  0.66395374  0.62855589  1
  P  P27  1  0.91348810  0.32024097  0.34207675  1
  P  P28  1  0.76918194  0.91248072  0.34273472  1
  P  P29  1  0.91270267  0.76874841  0.84279697  1
  O  O30  1  0.98770471  0.24866401  0.43409335  1
  O  O31  1  0.08077531  0.25617891  0.66207267  1
  O  O32  1  0.20600339  0.00850742  0.75508189  1
  O  O33  1  0.24953268  0.98765898  0.93392761  1
  O  O34  1  0.10021828  0.37863563  0.17538133  1
  O  O35  1  0.25621842  0.08091787  0.16198802  1
  O  O36  1  0.18467552  0.33578688  0.82493232  1
  O  O37  1  0.09666569  0.52052942  0.67695615  1
  O  O38  1  0.99587603  0.75423696  0.93355016  1
  O  O39  1  0.08554264  0.66129539  0.15853835  1
  O  O40  1  0.33580973  0.18454404  0.32475182  1
  O  O41  1  0.18550209  0.48608247  0.33279530  1
  O  O42  1  0.37782131  0.10092431  0.67566433  1
  O  O43  1  0.34070787  0.32971564  0.47652890  1
  O  O44  1  0.33035419  0.34108885  0.97649683  1
  O  O45  1  0.52072116  0.09631334  0.17703911  1
  O  O46  1  0.33367700  0.48270222  0.82443322  1
  O  O47  1  0.48634630  0.18546514  0.83322394  1
  O  O48  1  0.25494406  0.66176034  0.65983910  1
  O  O49  1  0.20595978  0.78701332  0.25390301  1
  O  O50  1  0.24333977  0.76627900  0.07338132  1
  O  O51  1  0.24514536  0.75602378  0.43201312  1
  O  O52  1  0.38302140  0.52214149  0.17800605  1
  O  O53  1  0.48218622  0.33389292  0.32475492  1
  O  O54  1  0.66052664  0.08548765  0.65944123  1
  O  O55  1  0.34225133  0.74437529  0.82948005  1
  O  O56  1  0.52278808  0.38302593  0.67797490  1
  O  O57  1  0.23254704  0.99531288  0.57474354  1
  O  O58  1  0.75487831  0.99532304  0.43358243  1
  O  O59  1  0.47944613  0.61700004  0.32379652  1
  O  O60  1  0.66166779  0.25488013  0.15962788  1
  O  O61  1  0.78928675  0.00127460  0.25091388  1
  O  O62  1  0.34119835  0.91338611  0.33575049  1
  O  O63  1  0.51655975  0.66753070  0.67106668  1
  O  O64  1  0.61714306  0.47933774  0.82375986  1
  O  O65  1  0.75638830  0.24537570  0.93219158  1
  O  O66  1  0.76682727  0.24150932  0.57347457  1
  O  O67  1  0.78725440  0.20557275  0.75414911  1
  O  O68  1  0.74450062  0.34200342  0.32922348  1
  O  O69  1  0.51184371  0.81837578  0.17153848  1
  O  O70  1  0.48076176  0.90245034  0.82174575  1
  O  O71  1  0.66651913  0.51692964  0.17048177  1
  O  O72  1  0.66846633  0.65687965  0.52272798  1
  O  O73  1  0.65780902  0.67034236  0.02295202  1
  O  O74  1  0.61781228  0.90222143  0.32042955  1
  O  O75  1  0.81826681  0.51168917  0.67115572  1
  O  O76  1  0.67550670  0.81100424  0.66676535  1
  O  O77  1  0.91351823  0.34121555  0.83564724  1
  O  O78  1  0.00871239  0.20607916  0.25515441  1
  O  O79  1  0.99527620  0.23317208  0.07471508  1
  O  O80  1  0.90227068  0.48059633  0.32198422  1
  O  O81  1  0.81105994  0.67528693  0.16739804  1
  O  O82  1  0.74695999  0.91700215  0.83907707  1
  O  O83  1  0.90230278  0.61758568  0.82023673  1
  O  O84  1  0.75766884  0.00031887  0.06956508  1
  O  O85  1  0.91717806  0.74649098  0.33851510  1
  O  O86  1  0.00067262  0.75777817  0.56954335  1
  O  O87  1  0.00097383  0.78938252  0.75081309  1
