# generated using pymatgen
data_Li3Mn(Si2O5)3
_symmetry_space_group_name_H-M   'P 1'
_cell_length_a   11.19034556
_cell_length_b   11.19034556
_cell_length_c   10.06164410
_cell_angle_alpha   90.00000000
_cell_angle_beta   90.00000000
_cell_angle_gamma   78.79511492
_symmetry_Int_Tables_number   1
_chemical_formula_structural   Li3Mn(Si2O5)3
_chemical_formula_sum   'Li12 Mn4 Si24 O60'
_cell_volume   1235.94107949
_cell_formula_units_Z   4
loop_
 _symmetry_equiv_pos_site_id
 _symmetry_equiv_pos_as_xyz
  1  'x, y, z'
loop_
 _atom_site_type_symbol
 _atom_site_label
 _atom_site_symmetry_multiplicity
 _atom_site_fract_x
 _atom_site_fract_y
 _atom_site_fract_z
 _atom_site_occupancy
  Li  Li0  1  0.23826427  0.76173573  0.00000000  1
  Li  Li1  1  0.48919596  0.98919596  0.25000000  1
  Li  Li2  1  0.01080404  0.51080404  0.75000000  1
  Li  Li3  1  0.26173573  0.73826427  0.50000000  1
  Li  Li4  1  0.06808997  0.06808997  0.77220905  1
  Li  Li5  1  0.56808997  0.56808997  0.72779095  1
  Li  Li6  1  0.43191003  0.43191003  0.27220905  1
  Li  Li7  1  0.93191003  0.93191003  0.22779095  1
  Li  Li8  1  0.73826427  0.26173573  0.50000000  1
  Li  Li9  1  0.51080404  0.01080404  0.75000000  1
  Li  Li10  1  0.98919596  0.48919596  0.25000000  1
  Li  Li11  1  0.76173573  0.23826427  0.00000000  1
  Mn  Mn12  1  0.16021883  0.66021883  0.25000000  1
  Mn  Mn13  1  0.33978117  0.83978117  0.75000000  1
  Mn  Mn14  1  0.83978117  0.33978117  0.75000000  1
  Mn  Mn15  1  0.66021883  0.16021883  0.25000000  1
  Si  Si16  1  0.18823701  0.95966659  0.19726870  1
  Si  Si17  1  0.04033341  0.81176299  0.80273130  1
  Si  Si18  1  0.31176299  0.54033341  0.69726870  1
  Si  Si19  1  0.45966659  0.68823701  0.30273130  1
  Si  Si20  1  0.51987508  0.74026224  0.00768253  1
  Si  Si21  1  0.01987508  0.24026224  0.49231747  1
  Si  Si22  1  0.25973776  0.48012492  0.99231747  1
  Si  Si23  1  0.75973776  0.98012492  0.50768253  1
  Si  Si24  1  0.20069461  0.42011405  0.45759533  1
  Si  Si25  1  0.70069461  0.92011405  0.04240467  1
  Si  Si26  1  0.07988595  0.29930539  0.95759533  1
  Si  Si27  1  0.57988595  0.79930539  0.54240467  1
  Si  Si28  1  0.42011405  0.20069461  0.45759533  1
  Si  Si29  1  0.29930539  0.07988595  0.95759533  1
  Si  Si30  1  0.92011405  0.70069461  0.04240467  1
  Si  Si31  1  0.79930539  0.57988595  0.54240467  1
  Si  Si32  1  0.74026224  0.51987508  0.00768253  1
  Si  Si33  1  0.24026224  0.01987508  0.49231747  1
  Si  Si34  1  0.48012492  0.25973776  0.99231747  1
  Si  Si35  1  0.98012492  0.75973776  0.50768253  1
  Si  Si36  1  0.54033341  0.31176299  0.69726870  1
  Si  Si37  1  0.68823701  0.45966659  0.30273130  1
  Si  Si38  1  0.95966659  0.18823701  0.19726870  1
  Si  Si39  1  0.81176299  0.04033341  0.80273130  1
  O  O40  1  0.28074567  0.99186380  0.08284207  1
  O  O41  1  0.00813620  0.71925433  0.91715793  1
  O  O42  1  0.02841986  0.73934462  0.66243079  1
  O  O43  1  0.26065538  0.97158014  0.33756921  1
  O  O44  1  0.15046828  0.83216165  0.16497182  1
  O  O45  1  0.16783835  0.84953172  0.83502818  1
  O  O46  1  0.25666215  0.90346700  0.58846382  1
  O  O47  1  0.09653300  0.74333785  0.41153618  1
  O  O48  1  0.64555108  0.99025322  0.17300041  1
  O  O49  1  0.00974678  0.35444892  0.82699959  1
  O  O50  1  0.14555108  0.49025322  0.32699959  1
  O  O51  1  0.50974678  0.85444892  0.67300041  1
  O  O52  1  0.24333785  0.59653300  0.08846382  1
  O  O53  1  0.40346700  0.75666215  0.91153618  1
  O  O54  1  0.34953172  0.66783835  0.66497182  1
  O  O55  1  0.33216165  0.65046828  0.33502818  1
  O  O56  1  0.23934462  0.52841986  0.83756921  1
  O  O57  1  0.47158014  0.76065538  0.16243079  1
  O  O58  1  0.49186380  0.78074567  0.41715793  1
  O  O59  1  0.21925433  0.50813620  0.58284207  1
  O  O60  1  0.10929709  0.33653980  0.51938788  1
  O  O61  1  0.16346020  0.39070291  0.01938788  1
  O  O62  1  0.66346020  0.89070291  0.48061212  1
  O  O63  1  0.60929709  0.83653980  0.98061212  1
  O  O64  1  0.60175824  0.60175824  0.98388373  1
  O  O65  1  0.33672431  0.33672431  0.41977588  1
  O  O66  1  0.05938828  0.05938828  0.20338143  1
  O  O67  1  0.16327569  0.16327569  0.91977588  1
  O  O68  1  0.10175824  0.10175824  0.51611627  1
  O  O69  1  0.44061172  0.44061172  0.70338143  1
  O  O70  1  0.39824176  0.39824176  0.01611627  1
  O  O71  1  0.55938828  0.55938828  0.29661857  1
  O  O72  1  0.66327569  0.66327569  0.58022412  1
  O  O73  1  0.94061172  0.94061172  0.79661857  1
  O  O74  1  0.83672431  0.83672431  0.08022412  1
  O  O75  1  0.89824176  0.89824176  0.48388373  1
  O  O76  1  0.89070291  0.66346020  0.48061212  1
  O  O77  1  0.33653980  0.10929709  0.51938788  1
  O  O78  1  0.39070291  0.16346020  0.01938788  1
  O  O79  1  0.83653980  0.60929709  0.98061212  1
  O  O80  1  0.50813620  0.21925433  0.58284207  1
  O  O81  1  0.78074567  0.49186380  0.41715793  1
  O  O82  1  0.52841986  0.23934462  0.83756921  1
  O  O83  1  0.76065538  0.47158014  0.16243079  1
  O  O84  1  0.66783835  0.34953172  0.66497182  1
  O  O85  1  0.65046828  0.33216165  0.33502818  1
  O  O86  1  0.59653300  0.24333785  0.08846382  1
  O  O87  1  0.75666215  0.40346700  0.91153618  1
  O  O88  1  0.35444892  0.00974678  0.82699959  1
  O  O89  1  0.49025322  0.14555108  0.32699959  1
  O  O90  1  0.99025322  0.64555108  0.17300041  1
  O  O91  1  0.85444892  0.50974678  0.67300041  1
  O  O92  1  0.74333785  0.09653300  0.41153618  1
  O  O93  1  0.90346700  0.25666215  0.58846382  1
  O  O94  1  0.84953172  0.16783835  0.83502818  1
  O  O95  1  0.83216165  0.15046828  0.16497182  1
  O  O96  1  0.73934462  0.02841986  0.66243079  1
  O  O97  1  0.97158014  0.26065538  0.33756921  1
  O  O98  1  0.71925433  0.00813620  0.91715793  1
  O  O99  1  0.99186380  0.28074567  0.08284207  1
