# generated using pymatgen
data_LiFeSiO4
_symmetry_space_group_name_H-M   'P 1'
_cell_length_a   8.75019073
_cell_length_b   8.11741681
_cell_length_c   15.20981776
_cell_angle_alpha   90.00000000
_cell_angle_beta   90.34453099
_cell_angle_gamma   90.00000000
_symmetry_Int_Tables_number   1
_chemical_formula_structural   LiFeSiO4
_chemical_formula_sum   'Li12 Fe12 Si12 O48'
_cell_volume   1080.31778250
_cell_formula_units_Z   12
loop_
 _symmetry_equiv_pos_site_id
 _symmetry_equiv_pos_as_xyz
  1  'x, y, z'
loop_
 _atom_site_type_symbol
 _atom_site_label
 _atom_site_symmetry_multiplicity
 _atom_site_fract_x
 _atom_site_fract_y
 _atom_site_fract_z
 _atom_site_occupancy
  Li  Li0  1  0.20104891  0.99399073  0.94018713  1
  Li  Li1  1  0.21574410  0.01603606  0.58491424  1
  Li  Li2  1  0.25136199  0.84356721  0.24702726  1
  Li  Li3  1  0.24863801  0.34356721  0.25297274  1
  Li  Li4  1  0.28425590  0.51603606  0.91508576  1
  Li  Li5  1  0.29895109  0.49399073  0.55981287  1
  Li  Li6  1  0.70104891  0.50600927  0.44018713  1
  Li  Li7  1  0.71574410  0.48396394  0.08491424  1
  Li  Li8  1  0.75136199  0.65643279  0.74702726  1
  Li  Li9  1  0.74863801  0.15643279  0.75297274  1
  Li  Li10  1  0.78425590  0.98396394  0.41508576  1
  Li  Li11  1  0.79895109  0.00600927  0.05981287  1
  Fe  Fe12  1  0.05542862  0.65941092  0.40566787  1
  Fe  Fe13  1  0.08029067  0.83344775  0.76688652  1
  Fe  Fe14  1  0.10289551  0.66015258  0.07726649  1
  Fe  Fe15  1  0.39710449  0.16015258  0.42273351  1
  Fe  Fe16  1  0.41970933  0.33344775  0.73311348  1
  Fe  Fe17  1  0.44457138  0.15941092  0.09433213  1
  Fe  Fe18  1  0.55542862  0.84058908  0.90566787  1
  Fe  Fe19  1  0.58029067  0.66655225  0.26688652  1
  Fe  Fe20  1  0.60289551  0.83984742  0.57726649  1
  Fe  Fe21  1  0.89710449  0.33984742  0.92273351  1
  Fe  Fe22  1  0.91970933  0.16655225  0.23311348  1
  Fe  Fe23  1  0.94457138  0.34058908  0.59433213  1
  Si  Si24  1  0.05016487  0.26314344  0.41168904  1
  Si  Si25  1  0.08492905  0.21856372  0.77145991  1
  Si  Si26  1  0.10969352  0.27015389  0.07178017  1
  Si  Si27  1  0.39030648  0.77015389  0.42821983  1
  Si  Si28  1  0.41507095  0.71856372  0.72854009  1
  Si  Si29  1  0.44983513  0.76314344  0.08831096  1
  Si  Si30  1  0.55016487  0.23685656  0.91168904  1
  Si  Si31  1  0.58492905  0.28143628  0.27145991  1
  Si  Si32  1  0.60969352  0.22984611  0.57178017  1
  Si  Si33  1  0.89030648  0.72984611  0.92821983  1
  Si  Si34  1  0.91507095  0.78143628  0.22854009  1
  Si  Si35  1  0.94983513  0.73685656  0.58831096  1
  O  O36  1  0.03026558  0.55390260  0.60066138  1
  O  O37  1  0.05902425  0.86808221  0.64332529  1
  O  O38  1  0.05408736  0.78504215  0.97405553  1
  O  O39  1  0.08673145  0.04063674  0.82443886  1
  O  O40  1  0.07097405  0.35972223  0.84876605  1
  O  O41  1  0.06602917  0.76808777  0.29438395  1
  O  O42  1  0.06727695  0.21398034  0.51621456  1
  O  O43  1  0.08558878  0.28034769  0.17936593  1
  O  O44  1  0.16730413  0.45131876  0.03472582  1
  O  O45  1  0.23324208  0.23109222  0.70649175  1
  O  O46  1  0.22367014  0.26296944  0.36863189  1
  O  O47  1  0.24279187  0.13535759  0.04686996  1
  O  O48  1  0.25720813  0.63535759  0.45313004  1
  O  O49  1  0.27632986  0.76296944  0.13136811  1
  O  O50  1  0.26675792  0.73109222  0.79350825  1
  O  O51  1  0.33269587  0.95131876  0.46527418  1
  O  O52  1  0.41441122  0.78034769  0.32063407  1
  O  O53  1  0.43272305  0.71398034  0.98378544  1
  O  O54  1  0.42902595  0.85972223  0.65123395  1
  O  O55  1  0.43397083  0.26808777  0.20561605  1
  O  O56  1  0.41326855  0.54063674  0.67556114  1
  O  O57  1  0.44591264  0.28504215  0.52594447  1
  O  O58  1  0.44097575  0.36808221  0.85667471  1
  O  O59  1  0.46973442  0.05390260  0.89933862  1
  O  O60  1  0.53026558  0.94609740  0.10066138  1
  O  O61  1  0.55902425  0.63191779  0.14332529  1
  O  O62  1  0.55408736  0.71495785  0.47405553  1
  O  O63  1  0.58673145  0.45936326  0.32443886  1
  O  O64  1  0.56602917  0.73191223  0.79438395  1
  O  O65  1  0.57097405  0.14027777  0.34876605  1
  O  O66  1  0.56727695  0.28601966  0.01621456  1
  O  O67  1  0.58558878  0.21965231  0.67936593  1
  O  O68  1  0.66730413  0.04868124  0.53472582  1
  O  O69  1  0.73324208  0.26890778  0.20649175  1
  O  O70  1  0.72367014  0.23703056  0.86863189  1
  O  O71  1  0.74279187  0.36464241  0.54686996  1
  O  O72  1  0.75720813  0.86464241  0.95313004  1
  O  O73  1  0.77632986  0.73703056  0.63136811  1
  O  O74  1  0.76675792  0.76890778  0.29350825  1
  O  O75  1  0.83269587  0.54868124  0.96527418  1
  O  O76  1  0.91441122  0.71965231  0.82063407  1
  O  O77  1  0.93272305  0.78601966  0.48378544  1
  O  O78  1  0.93397083  0.23191223  0.70561605  1
  O  O79  1  0.92902595  0.64027777  0.15123395  1
  O  O80  1  0.91326855  0.95936326  0.17556114  1
  O  O81  1  0.94591264  0.21495785  0.02594447  1
  O  O82  1  0.94097575  0.13191779  0.35667471  1
  O  O83  1  0.96973442  0.44609740  0.39933862  1
