# generated using pymatgen
data_Li4Ti3Fe2Co3O16
_symmetry_space_group_name_H-M   'P 1'
_cell_length_a   5.77606681
_cell_length_b   5.83056839
_cell_length_c   9.53070013
_cell_angle_alpha   90.09252846
_cell_angle_beta   89.76961978
_cell_angle_gamma   120.57200659
_symmetry_Int_Tables_number   1
_chemical_formula_structural   Li4Ti3Fe2Co3O16
_chemical_formula_sum   'Li4 Ti3 Fe2 Co3 O16'
_cell_volume   276.35209926
_cell_formula_units_Z   1
loop_
 _symmetry_equiv_pos_site_id
 _symmetry_equiv_pos_as_xyz
  1  'x, y, z'
loop_
 _atom_site_type_symbol
 _atom_site_label
 _atom_site_symmetry_multiplicity
 _atom_site_fract_x
 _atom_site_fract_y
 _atom_site_fract_z
 _atom_site_occupancy
  Li  Li0  1  0.33982060  0.66797987  0.88968813  1
  Li  Li1  1  0.97918309  0.98957029  0.99486058  1
  Li  Li2  1  0.98915903  0.99163959  0.49808005  1
  Li  Li3  1  0.67228930  0.33618335  0.39645184  1
  Ti  Ti4  1  0.17510711  0.83410942  0.21568460  1
  Ti  Ti5  1  0.17483986  0.34108758  0.21505947  1
  Ti  Ti6  1  0.34565171  0.17310708  0.71771300  1
  Fe  Fe7  1  0.33298563  0.67098637  0.49383519  1
  Fe  Fe8  1  0.67519561  0.33973119  0.99017748  1
  Co  Co9  1  0.65618573  0.82824591  0.21322364  1
  Co  Co10  1  0.83040073  0.66029867  0.71315507  1
  Co  Co11  1  0.83108118  0.16832645  0.71226877  1
  O  O12  1  0.16356343  0.83988427  0.60124213  1
  O  O13  1  0.03625599  0.51750148  0.33546113  1
  O  O14  1  0.32806824  0.66465196  0.10050901  1
  O  O15  1  0.99152812  0.99540009  0.31064401  1
  O  O16  1  0.99146763  0.99626124  0.80891088  1
  O  O17  1  0.15503095  0.32183695  0.60337177  1
  O  O18  1  0.48580774  0.96570839  0.33829071  1
  O  O19  1  0.48465585  0.51951022  0.33933732  1
  O  O20  1  0.32692520  0.16326672  0.09947267  1
  O  O21  1  0.67722912  0.84501403  0.61014037  1
  O  O22  1  0.52019798  0.48261553  0.83809389  1
  O  O23  1  0.52661778  0.03638567  0.83511802  1
  O  O24  1  0.67316007  0.33591991  0.60454112  1
  O  O25  1  0.83684450  0.67489409  0.10356281  1
  O  O26  1  0.96401076  0.47803234  0.82591193  1
  O  O27  1  0.83673806  0.16215032  0.10303941  1
