# generated using pymatgen
data_Li3Fe2(CO3)4
_symmetry_space_group_name_H-M   'P 1'
_cell_length_a   8.49120389
_cell_length_b   6.19435995
_cell_length_c   5.54726444
_cell_angle_alpha   63.17586499
_cell_angle_beta   107.01509788
_cell_angle_gamma   99.80338085
_symmetry_Int_Tables_number   1
_chemical_formula_structural   Li3Fe2(CO3)4
_chemical_formula_sum   'Li3 Fe2 C4 O12'
_cell_volume   248.72953634
_cell_formula_units_Z   1
loop_
 _symmetry_equiv_pos_site_id
 _symmetry_equiv_pos_as_xyz
  1  'x, y, z'
loop_
 _atom_site_type_symbol
 _atom_site_label
 _atom_site_symmetry_multiplicity
 _atom_site_fract_x
 _atom_site_fract_y
 _atom_site_fract_z
 _atom_site_occupancy
  Li  Li0  1  0.66541431  0.08197347  0.45387992  1
  Li  Li1  1  0.34782567  0.92511143  0.86430627  1
  Li  Li2  1  0.14097281  0.43974264  0.26415731  1
  Fe  Fe3  1  0.50392066  0.50526746  0.82130239  1
  Fe  Fe4  1  0.99514496  0.98054277  0.11295005  1
  C  C5  1  0.79109427  0.57934148  0.05425157  1
  C  C6  1  0.70487219  0.08280109  0.00225841  1
  C  C7  1  0.29491053  0.92183040  0.38208289  1
  C  C8  1  0.20350962  0.41118196  0.85280494  1
  O  O9  1  0.94359797  0.64389767  0.16176479  1
  O  O10  1  0.74877552  0.61127173  0.79904004  1
  O  O11  1  0.76502408  0.06542242  0.82296377  1
  O  O12  1  0.81094502  0.05009237  0.24069853  1
  O  O13  1  0.55342352  0.12537279  0.95713262  1
  O  O14  1  0.68473329  0.48679573  0.20471392  1
  O  O15  1  0.44405963  0.88666836  0.52685379  1
  O  O16  1  0.24836147  0.40187458  0.65248643  1
  O  O17  1  0.18509861  0.97768516  0.46735166  1
  O  O18  1  0.23917924  0.90152886  0.14746336  1
  O  O19  1  0.30697498  0.50700674  0.00611570  1
  O  O20  1  0.06191266  0.32490787  0.90938562  1
