# generated using pymatgen
data_Li2Cr3(CO3)6
_symmetry_space_group_name_H-M   'P 1'
_cell_length_a   4.72407875
_cell_length_b   6.03546113
_cell_length_c   12.15376005
_cell_angle_alpha   101.03170189
_cell_angle_beta   89.93228462
_cell_angle_gamma   113.10457718
_symmetry_Int_Tables_number   1
_chemical_formula_structural   Li2Cr3(CO3)6
_chemical_formula_sum   'Li2 Cr3 C6 O18'
_cell_volume   311.79318879
_cell_formula_units_Z   1
loop_
 _symmetry_equiv_pos_site_id
 _symmetry_equiv_pos_as_xyz
  1  'x, y, z'
loop_
 _atom_site_type_symbol
 _atom_site_label
 _atom_site_symmetry_multiplicity
 _atom_site_fract_x
 _atom_site_fract_y
 _atom_site_fract_z
 _atom_site_occupancy
  Li  Li0  1  0.40770317  0.81765987  0.39789843  1
  Li  Li1  1  0.25896383  0.51567413  0.93543557  1
  Cr  Cr2  1  0.67009809  0.33756193  0.33123582  1
  Cr  Cr3  1  0.33333300  0.66666700  0.66666700  1
  Cr  Cr4  1  0.99656891  0.99577107  0.00209718  1
  C  C5  1  0.86965568  0.74260938  0.53133425  1
  C  C6  1  0.53918739  0.08410507  0.86603313  1
  C  C7  1  0.79701132  0.59072362  0.80199875  1
  C  C8  1  0.21006066  0.41093574  0.19826409  1
  C  C9  1  0.45660534  0.92239826  0.13506891  1
  C  C10  1  0.12747861  0.24922793  0.46729987  1
  O  O11  1  0.82214798  0.10862807  0.88149535  1
  O  O12  1  0.84451902  0.22470493  0.45183765  1
  O  O13  1  0.90891206  0.50839859  0.71579780  1
  O  O14  1  0.95803751  0.67610637  0.89962349  1
  O  O15  1  0.70862849  0.65722663  0.43370951  1
  O  O16  1  0.38891569  0.98210135  0.76993838  1
  O  O17  1  0.75775494  0.82493441  0.61753520  1
  O  O18  1  0.41438395  0.17732537  0.94704925  1
  O  O19  1  0.48572530  0.42105170  0.20794421  1
  O  O20  1  0.51676077  0.57958839  0.79620547  1
  O  O21  1  0.56657916  0.82789438  0.04851805  1
  O  O22  1  0.25228205  0.15600763  0.38628375  1
  O  O23  1  0.61635319  0.01212277  0.23117154  1
  O  O24  1  0.27775131  0.35123165  0.56339562  1
  O  O25  1  0.05031381  0.32121023  0.10216246  1
  O  O26  1  0.10008784  0.50543862  0.28481495  1
  O  O27  1  0.14990523  0.75374461  0.53712853  1
  O  O28  1  0.18094170  0.91228130  0.12538879  1
