# generated using pymatgen
data_LiP2WO7
_symmetry_space_group_name_H-M   'P 1'
_cell_length_a   6.57583993
_cell_length_b   6.62684507
_cell_length_c   6.86391605
_cell_angle_alpha   113.74632535
_cell_angle_beta   97.00128330
_cell_angle_gamma   81.18078546
_symmetry_Int_Tables_number   1
_chemical_formula_structural   LiP2WO7
_chemical_formula_sum   'Li2 P4 W2 O14'
_cell_volume   269.95007050
_cell_formula_units_Z   2
loop_
 _symmetry_equiv_pos_site_id
 _symmetry_equiv_pos_as_xyz
  1  'x, y, z'
loop_
 _atom_site_type_symbol
 _atom_site_label
 _atom_site_symmetry_multiplicity
 _atom_site_fract_x
 _atom_site_fract_y
 _atom_site_fract_z
 _atom_site_occupancy
  Li  Li0  1  0.09977832  0.68201629  0.16033061  1
  Li  Li1  1  0.90022168  0.31798371  0.83966939  1
  P  P2  1  0.13881929  0.22436029  0.23766770  1
  P  P3  1  0.39190209  0.35368868  0.66236835  1
  P  P4  1  0.60809791  0.64631132  0.33763165  1
  P  P5  1  0.86118071  0.77563971  0.76233230  1
  W  W6  1  0.34307631  0.89948207  0.77193355  1
  W  W7  1  0.65692369  0.10051793  0.22806645  1
  O  O8  1  0.00896543  0.92117106  0.73684664  1
  O  O9  1  0.04860761  0.37885034  0.13103270  1
  O  O10  1  0.23186311  0.37531258  0.46841563  1
  O  O11  1  0.29715130  0.21552255  0.75015609  1
  O  O12  1  0.32964877  0.06115990  0.12417613  1
  O  O13  1  0.39597473  0.59292839  0.82069586  1
  O  O14  1  0.39636142  0.75092378  0.43145787  1
  O  O15  1  0.60363858  0.24907622  0.56854213  1
  O  O16  1  0.60402527  0.40707161  0.17930414  1
  O  O17  1  0.67035123  0.93884010  0.87582387  1
  O  O18  1  0.70284870  0.78447745  0.24984391  1
  O  O19  1  0.76813689  0.62468742  0.53158437  1
  O  O20  1  0.95139239  0.62114966  0.86896730  1
  O  O21  1  0.99103457  0.07882894  0.26315336  1
