# generated using pymatgen
data_Li2CrO4
_symmetry_space_group_name_H-M   'P 1'
_cell_length_a   7.79852694
_cell_length_b   5.39032881
_cell_length_c   5.17030849
_cell_angle_alpha   65.18400537
_cell_angle_beta   109.70091367
_cell_angle_gamma   99.22716366
_symmetry_Int_Tables_number   1
_chemical_formula_structural   Li2CrO4
_chemical_formula_sum   'Li4 Cr2 O8'
_cell_volume   185.68041024
_cell_formula_units_Z   2
loop_
 _symmetry_equiv_pos_site_id
 _symmetry_equiv_pos_as_xyz
  1  'x, y, z'
loop_
 _atom_site_type_symbol
 _atom_site_label
 _atom_site_symmetry_multiplicity
 _atom_site_fract_x
 _atom_site_fract_y
 _atom_site_fract_z
 _atom_site_occupancy
  Li  Li0  1  0.18131033  0.28346319  0.42596275  1
  Li  Li1  1  0.44342275  0.74131072  0.47901150  1
  Li  Li2  1  0.55657725  0.25868928  0.52098850  1
  Li  Li3  1  0.81868967  0.71653681  0.57403725  1
  Cr  Cr4  1  0.24688909  0.70613242  0.83957705  1
  Cr  Cr5  1  0.75311091  0.29386758  0.16042295  1
  O  O6  1  0.05391976  0.81139413  0.81458621  1
  O  O7  1  0.21118558  0.50398458  0.66056779  1
  O  O8  1  0.36813735  0.97631322  0.66544039  1
  O  O9  1  0.36002745  0.53852249  0.20536096  1
  O  O10  1  0.63997255  0.46147751  0.79463904  1
  O  O11  1  0.63186265  0.02368678  0.33455961  1
  O  O12  1  0.78881442  0.49601542  0.33943221  1
  O  O13  1  0.94608024  0.18860587  0.18541379  1
