# generated using pymatgen
data_NdCl2
_symmetry_space_group_name_H-M   'P 1'
_cell_length_a   3.60158768
_cell_length_b   10.08942504
_cell_length_c   8.76235745
_cell_angle_alpha   90.00000000
_cell_angle_beta   90.00000000
_cell_angle_gamma   90.00000000
_symmetry_Int_Tables_number   1
_chemical_formula_structural   NdCl2
_chemical_formula_sum   'Nd4 Cl8'
_cell_volume   318.40609746
_cell_formula_units_Z   4
loop_
 _symmetry_equiv_pos_site_id
 _symmetry_equiv_pos_as_xyz
  1  'x, y, z'
loop_
 _atom_site_type_symbol
 _atom_site_label
 _atom_site_symmetry_multiplicity
 _atom_site_fract_x
 _atom_site_fract_y
 _atom_site_fract_z
 _atom_site_occupancy
  Nd  Nd0  1  0.75000000  0.82109372  0.87236269  1
  Nd  Nd1  1  0.25000000  0.17890628  0.12763731  1
  Nd  Nd2  1  0.75000000  0.32109372  0.62763731  1
  Nd  Nd3  1  0.25000000  0.67890628  0.37236269  1
  Cl  Cl4  1  0.75000000  0.83832335  0.54989015  1
  Cl  Cl5  1  0.25000000  0.16167665  0.45010985  1
  Cl  Cl6  1  0.75000000  0.33832335  0.95010985  1
  Cl  Cl7  1  0.25000000  0.66167665  0.04989015  1
  Cl  Cl8  1  0.75000000  0.95304702  0.16701811  1
  Cl  Cl9  1  0.25000000  0.04695298  0.83298189  1
  Cl  Cl10  1  0.75000000  0.45304702  0.33298189  1
  Cl  Cl11  1  0.25000000  0.54695298  0.66701811  1
