# generated using pymatgen
data_Li2V3(P2O7)2
_symmetry_space_group_name_H-M   'P 1'
_cell_length_a   5.33850702
_cell_length_b   6.62527340
_cell_length_c   16.03223430
_cell_angle_alpha   81.67600390
_cell_angle_beta   83.46847750
_cell_angle_gamma   72.26609999
_symmetry_Int_Tables_number   1
_chemical_formula_structural   Li2V3(P2O7)2
_chemical_formula_sum   'Li4 V6 P8 O28'
_cell_volume   532.94866751
_cell_formula_units_Z   2
loop_
 _symmetry_equiv_pos_site_id
 _symmetry_equiv_pos_as_xyz
  1  'x, y, z'
loop_
 _atom_site_type_symbol
 _atom_site_label
 _atom_site_symmetry_multiplicity
 _atom_site_fract_x
 _atom_site_fract_y
 _atom_site_fract_z
 _atom_site_occupancy
  Li  Li0  1  0.07285280  0.21531750  0.99288094  1
  Li  Li1  1  0.36161375  0.68321325  0.11993282  1
  Li  Li2  1  0.63838625  0.31678675  0.88006718  1
  Li  Li3  1  0.92714720  0.78468250  0.00711906  1
  V  V4  1  0.16058855  0.28608819  0.57841232  1
  V  V5  1  0.03527717  0.62186858  0.81517430  1
  V  V6  1  0.25125455  0.97011844  0.33237179  1
  V  V7  1  0.74874545  0.02988156  0.66762821  1
  V  V8  1  0.96472283  0.37813142  0.18482570  1
  V  V9  1  0.83941145  0.71391181  0.42158768  1
  P  P10  1  0.16715297  0.09543186  0.78988360  1
  P  P11  1  0.37408292  0.44457248  0.31763105  1
  P  P12  1  0.56133388  0.24278744  0.07340725  1
  P  P13  1  0.27757397  0.78434369  0.53894404  1
  P  P14  1  0.72242603  0.21565631  0.46105596  1
  P  P15  1  0.43866612  0.75721256  0.92659275  1
  P  P16  1  0.62591708  0.55542752  0.68236895  1
  P  P17  1  0.83284703  0.90456814  0.21011640  1
  O  O18  1  0.02339613  0.03479024  0.21691788  1
  O  O19  1  0.25994506  0.32097266  0.07199645  1
  O  O20  1  0.21777233  0.30680964  0.29062980  1
  O  O21  1  0.02438132  0.28807462  0.83951061  1
  O  O22  1  0.18950999  0.66192058  0.33911767  1
  O  O23  1  0.12398063  0.62540865  0.53368495  1
  O  O24  1  0.32435638  0.14386754  0.70757030  1
  O  O25  1  0.60316816  0.05161150  0.15096519  1
  O  O26  1  0.10983123  0.97376168  0.58503137  1
  O  O27  1  0.71271128  0.14214688  0.99460009  1
  O  O28  1  0.47012082  0.32762569  0.40806993  1
  O  O29  1  0.32502283  0.58317049  0.90743368  1
  O  O30  1  0.58303205  0.15025971  0.54534617  1
  O  O31  1  0.60055287  0.47056816  0.25714392  1
  O  O32  1  0.39944713  0.52943184  0.74285608  1
  O  O33  1  0.41696795  0.84974029  0.45465383  1
  O  O34  1  0.67497717  0.41682951  0.09256632  1
  O  O35  1  0.52987918  0.67237431  0.59193007  1
  O  O36  1  0.28728872  0.85785312  0.00539991  1
  O  O37  1  0.89016877  0.02623832  0.41496863  1
  O  O38  1  0.39683184  0.94838850  0.84903481  1
  O  O39  1  0.67564362  0.85613246  0.29242970  1
  O  O40  1  0.87601937  0.37459135  0.46631505  1
  O  O41  1  0.81049001  0.33807942  0.66088233  1
  O  O42  1  0.97561868  0.71192538  0.16048939  1
  O  O43  1  0.78222767  0.69319036  0.70937020  1
  O  O44  1  0.74005494  0.67902734  0.92800355  1
  O  O45  1  0.97660387  0.96520976  0.78308212  1
