# generated using pymatgen
data_Li4Co13O28
_symmetry_space_group_name_H-M   'P 1'
_cell_length_a   8.22592541
_cell_length_b   8.51550195
_cell_length_c   7.44741165
_cell_angle_alpha   104.53278603
_cell_angle_beta   105.47353764
_cell_angle_gamma   100.70836162
_symmetry_Int_Tables_number   1
_chemical_formula_structural   Li4Co13O28
_chemical_formula_sum   'Li4 Co13 O28'
_cell_volume   468.47763128
_cell_formula_units_Z   1
loop_
 _symmetry_equiv_pos_site_id
 _symmetry_equiv_pos_as_xyz
  1  'x, y, z'
loop_
 _atom_site_type_symbol
 _atom_site_label
 _atom_site_symmetry_multiplicity
 _atom_site_fract_x
 _atom_site_fract_y
 _atom_site_fract_z
 _atom_site_occupancy
  Li  Li0  1  0.14628224  0.32866698  0.19790916  1
  Li  Li1  1  0.49468120  0.01011805  0.99847763  1
  Li  Li2  1  0.86466118  0.65271646  0.77802822  1
  Li  Li3  1  0.73281359  0.79370334  0.08091005  1
  Co  Co4  1  0.14022106  0.86265164  0.71752798  1
  Co  Co5  1  0.07683672  0.93659878  0.35634075  1
  Co  Co6  1  0.20902811  0.79049472  0.07168141  1
  Co  Co7  1  0.34805520  0.63613797  0.77859836  1
  Co  Co8  1  0.29443508  0.72162129  0.43080377  1
  Co  Co9  1  0.43126828  0.57405151  0.14426520  1
  Co  Co10  1  0.50126785  0.50127353  0.50100232  1
  Co  Co11  1  0.56279585  0.42082860  0.85277331  1
  Co  Co12  1  0.70546668  0.27764463  0.56893984  1
  Co  Co13  1  0.65328841  0.36444186  0.22108362  1
  Co  Co14  1  0.78728985  0.20643850  0.92925478  1
  Co  Co15  1  0.92468368  0.06809186  0.64625297  1
  Co  Co16  1  0.86195390  0.14251953  0.28576788  1
  O  O17  1  0.99614140  0.19923042  0.90542344  1
  O  O18  1  0.12662910  0.66517201  0.79608814  1
  O  O19  1  0.07483174  0.74519079  0.44338693  1
  O  O20  1  0.24296395  0.96744836  0.98053276  1
  O  O21  1  0.08007871  0.13315104  0.29630200  1
  O  O22  1  0.36568986  0.83399712  0.70603439  1
  O  O23  1  0.14814141  0.04968204  0.63145672  1
  O  O24  1  0.29730554  0.91042621  0.34250121  1
  O  O25  1  0.27748102  0.52418217  0.50720048  1
  O  O26  1  0.21284805  0.59651639  0.16085463  1
  O  O27  1  0.34520954  0.45142661  0.87074030  1
  O  O28  1  0.43470227  0.76362244  0.04999102  1
  O  O29  1  0.51078376  0.69177303  0.41215610  1
  O  O30  1  0.57846616  0.61967908  0.77854171  1
  O  O31  1  0.42528151  0.38397091  0.22951332  1
  O  O32  1  0.48841938  0.30838194  0.58615799  1
  O  O33  1  0.56565822  0.23741086  0.95118529  1
  O  O34  1  0.65182502  0.55271888  0.12516543  1
  O  O35  1  0.78419036  0.40076803  0.83950593  1
  O  O36  1  0.72473951  0.47704463  0.49521766  1
  O  O37  1  0.70282781  0.08750740  0.65592526  1
  O  O38  1  0.85178121  0.94795422  0.36682637  1
  O  O39  1  0.63517839  0.16927029  0.29539607  1
  O  O40  1  0.92160256  0.86744591  0.70556844  1
  O  O41  1  0.75318087  0.02775546  0.02403395  1
  O  O42  1  0.92625059  0.25519122  0.55980736  1
  O  O43  1  0.87123922  0.33648739  0.20206226  1
  O  O44  1  0.99674294  0.79741989  0.09347660  1
