# generated using pymatgen
data_Co2H21I7(N2O)3
_symmetry_space_group_name_H-M   'P 1'
_cell_length_a   26.24112661
_cell_length_b   8.29301565
_cell_length_c   11.40078518
_cell_angle_alpha   90.00000000
_cell_angle_beta   90.00000000
_cell_angle_gamma   90.00000000
_symmetry_Int_Tables_number   1
_chemical_formula_structural   Co2H21I7(N2O)3
_chemical_formula_sum   'Co8 H84 I28 N24 O12'
_cell_volume   2481.01690897
_cell_formula_units_Z   4
loop_
 _symmetry_equiv_pos_site_id
 _symmetry_equiv_pos_as_xyz
  1  'x, y, z'
loop_
 _atom_site_type_symbol
 _atom_site_label
 _atom_site_symmetry_multiplicity
 _atom_site_fract_x
 _atom_site_fract_y
 _atom_site_fract_z
 _atom_site_occupancy
  Co  Co0  1  0.10485412  0.25000000  0.76925429  1
  Co  Co1  1  0.18786004  0.25000000  0.89322558  1
  Co  Co2  1  0.31213996  0.75000000  0.39322558  1
  Co  Co3  1  0.39514588  0.75000000  0.26925429  1
  Co  Co4  1  0.60485412  0.25000000  0.73074571  1
  Co  Co5  1  0.68786004  0.25000000  0.60677442  1
  Co  Co6  1  0.81213996  0.75000000  0.10677442  1
  Co  Co7  1  0.89514588  0.75000000  0.23074571  1
  H  H8  1  0.00693960  0.25000000  0.78314057  1
  H  H9  1  0.03575962  0.15040439  0.89180116  1
  H  H10  1  0.03575962  0.34959561  0.89180116  1
  H  H11  1  0.05125706  0.08370603  0.62484008  1
  H  H12  1  0.05125706  0.41629397  0.62484008  1
  H  H13  1  0.09357005  0.53147645  0.69347792  1
  H  H14  1  0.09357005  0.96852355  0.69347792  1
  H  H15  1  0.11181725  0.41340799  0.58526989  1
  H  H16  1  0.11181725  0.08659201  0.58526989  1
  H  H17  1  0.13397425  0.50517594  0.87747108  1
  H  H18  1  0.13397425  0.99482406  0.87747108  1
  H  H19  1  0.16673171  0.15063359  0.08799036  1
  H  H20  1  0.16673171  0.34936641  0.08799036  1
  H  H21  1  0.19592424  0.25000000  0.65989610  1
  H  H22  1  0.22206426  0.25000000  0.10460214  1
  H  H23  1  0.22750395  0.61208919  0.34176118  1
  H  H24  1  0.22750395  0.88791081  0.34176118  1
  H  H25  1  0.22425961  0.51372518  0.83043697  1
  H  H26  1  0.22425961  0.98627482  0.83043697  1
  H  H27  1  0.24895554  0.02942825  0.96102836  1
  H  H28  1  0.24895554  0.47057175  0.96102836  1
  H  H29  1  0.25104446  0.52942825  0.46102836  1
  H  H30  1  0.25104446  0.97057175  0.46102836  1
  H  H31  1  0.27574039  0.01372518  0.33043697  1
  H  H32  1  0.27574039  0.48627482  0.33043697  1
  H  H33  1  0.27249605  0.11208919  0.84176118  1
  H  H34  1  0.27249605  0.38791081  0.84176118  1
  H  H35  1  0.27793574  0.75000000  0.60460214  1
  H  H36  1  0.30407576  0.75000000  0.15989610  1
  H  H37  1  0.33326829  0.65063359  0.58799036  1
  H  H38  1  0.33326829  0.84936641  0.58799036  1
  H  H39  1  0.36602575  0.00517594  0.37747108  1
  H  H40  1  0.36602575  0.49482406  0.37747108  1
  H  H41  1  0.38818275  0.58659201  0.08526989  1
  H  H42  1  0.38818275  0.91340799  0.08526989  1
  H  H43  1  0.40642995  0.03147645  0.19347792  1
  H  H44  1  0.40642995  0.46852355  0.19347792  1
  H  H45  1  0.44874294  0.58370603  0.12484008  1
  H  H46  1  0.44874294  0.91629397  0.12484008  1
  H  H47  1  0.46424038  0.65040439  0.39180116  1
  H  H48  1  0.46424038  0.84959561  0.39180116  1
  H  H49  1  0.49306040  0.75000000  0.28314057  1
  H  H50  1  0.50693960  0.25000000  0.71685943  1
  H  H51  1  0.53575962  0.15040439  0.60819884  1
  H  H52  1  0.53575962  0.34959561  0.60819884  1
  H  H53  1  0.55125706  0.08370603  0.87515992  1
  H  H54  1  0.55125706  0.41629397  0.87515992  1
  H  H55  1  0.59357005  0.53147645  0.80652208  1
  H  H56  1  0.59357005  0.96852355  0.80652208  1
  H  H57  1  0.61181725  0.08659201  0.91473011  1
  H  H58  1  0.61181725  0.41340799  0.91473011  1
  H  H59  1  0.63397425  0.50517594  0.62252892  1
  H  H60  1  0.63397425  0.99482406  0.62252892  1
  H  H61  1  0.66673171  0.15063359  0.41200964  1
  H  H62  1  0.66673171  0.34936641  0.41200964  1
  H  H63  1  0.69592424  0.25000000  0.84010390  1
  H  H64  1  0.72206426  0.25000000  0.39539786  1
  H  H65  1  0.72750395  0.61208919  0.15823882  1
  H  H66  1  0.72750395  0.88791081  0.15823882  1
  H  H67  1  0.72425961  0.51372518  0.66956303  1
  H  H68  1  0.72425961  0.98627482  0.66956303  1
  H  H69  1  0.74895554  0.02942825  0.53897164  1
  H  H70  1  0.74895554  0.47057175  0.53897164  1
  H  H71  1  0.75104446  0.52942825  0.03897164  1
  H  H72  1  0.75104446  0.97057175  0.03897164  1
  H  H73  1  0.77574039  0.01372518  0.16956303  1
  H  H74  1  0.77574039  0.48627482  0.16956303  1
  H  H75  1  0.77249605  0.11208919  0.65823882  1
  H  H76  1  0.77249605  0.38791081  0.65823882  1
  H  H77  1  0.77793574  0.75000000  0.89539786  1
  H  H78  1  0.80407576  0.75000000  0.34010390  1
  H  H79  1  0.83326829  0.65063359  0.91200964  1
  H  H80  1  0.83326829  0.84936641  0.91200964  1
  H  H81  1  0.86602575  0.00517594  0.12252892  1
  H  H82  1  0.86602575  0.49482406  0.12252892  1
  H  H83  1  0.88818275  0.58659201  0.41473011  1
  H  H84  1  0.88818275  0.91340799  0.41473011  1
  H  H85  1  0.90642995  0.03147645  0.30652208  1
  H  H86  1  0.90642995  0.46852355  0.30652208  1
  H  H87  1  0.94874294  0.58370603  0.37515992  1
  H  H88  1  0.94874294  0.91629397  0.37515992  1
  H  H89  1  0.96424038  0.65040439  0.10819884  1
  H  H90  1  0.96424038  0.84959561  0.10819884  1
  H  H91  1  0.99306040  0.75000000  0.21685943  1
  I  I92  1  0.18862770  0.75000000  0.67997624  1
  I  I93  1  0.31137230  0.25000000  0.17997624  1
  I  I94  1  0.68862770  0.75000000  0.82002376  1
  I  I95  1  0.81137230  0.25000000  0.32002376  1
  I  I96  1  0.03704964  0.75000000  0.88165859  1
  I  I97  1  0.03764541  0.75000000  0.45442023  1
  I  I98  1  0.05724285  0.25000000  0.25666866  1
  I  I99  1  0.11540502  0.75000000  0.27338638  1
  I  I100  1  0.15464449  0.25000000  0.38743560  1
  I  I101  1  0.19356505  0.75000000  0.08334106  1
  I  I102  1  0.30643495  0.25000000  0.58334106  1
  I  I103  1  0.34535551  0.75000000  0.88743560  1
  I  I104  1  0.38459498  0.25000000  0.77338638  1
  I  I105  1  0.44275715  0.75000000  0.75666866  1
  I  I106  1  0.46235459  0.25000000  0.95442023  1
  I  I107  1  0.46295036  0.25000000  0.38165859  1
  I  I108  1  0.53704964  0.75000000  0.61834141  1
  I  I109  1  0.53764541  0.75000000  0.04557977  1
  I  I110  1  0.55724285  0.25000000  0.24333134  1
  I  I111  1  0.61540502  0.75000000  0.22661362  1
  I  I112  1  0.65464449  0.25000000  0.11256440  1
  I  I113  1  0.69356505  0.75000000  0.41665894  1
  I  I114  1  0.80643495  0.25000000  0.91665894  1
  I  I115  1  0.84535551  0.75000000  0.61256440  1
  I  I116  1  0.88459498  0.25000000  0.72661362  1
  I  I117  1  0.94275715  0.75000000  0.74333134  1
  I  I118  1  0.96235459  0.25000000  0.54557977  1
  I  I119  1  0.96295036  0.25000000  0.11834141  1
  N  N120  1  0.03764488  0.25000000  0.83889013  1
  N  N121  1  0.08790850  0.41996279  0.65662315  1
  N  N122  1  0.08790850  0.08003721  0.65662315  1
  N  N123  1  0.18703405  0.25000000  0.06256008  1
  N  N124  1  0.23912089  0.07796289  0.88152611  1
  N  N125  1  0.23912089  0.42203711  0.88152611  1
  N  N126  1  0.26087911  0.57796289  0.38152611  1
  N  N127  1  0.26087911  0.92203711  0.38152611  1
  N  N128  1  0.31296595  0.75000000  0.56256008  1
  N  N129  1  0.41209150  0.58003721  0.15662315  1
  N  N130  1  0.41209150  0.91996279  0.15662315  1
  N  N131  1  0.46235512  0.75000000  0.33889013  1
  N  N132  1  0.53764488  0.25000000  0.66110987  1
  N  N133  1  0.58790850  0.08003721  0.84337685  1
  N  N134  1  0.58790850  0.41996279  0.84337685  1
  N  N135  1  0.68703405  0.25000000  0.43743992  1
  N  N136  1  0.73912089  0.07796289  0.61847389  1
  N  N137  1  0.73912089  0.42203711  0.61847389  1
  N  N138  1  0.76087911  0.57796289  0.11847389  1
  N  N139  1  0.76087911  0.92203711  0.11847389  1
  N  N140  1  0.81296595  0.75000000  0.93743992  1
  N  N141  1  0.91209150  0.58003721  0.34337685  1
  N  N142  1  0.91209150  0.91996279  0.34337685  1
  N  N143  1  0.96235512  0.75000000  0.16110987  1
  O  O144  1  0.12835618  0.10840493  0.89567818  1
  O  O145  1  0.12835618  0.39159507  0.89567818  1
  O  O146  1  0.17490943  0.25000000  0.73001166  1
  O  O147  1  0.32509057  0.75000000  0.23001166  1
  O  O148  1  0.37164382  0.60840493  0.39567818  1
  O  O149  1  0.37164382  0.89159507  0.39567818  1
  O  O150  1  0.62835618  0.10840493  0.60432182  1
  O  O151  1  0.62835618  0.39159507  0.60432182  1
  O  O152  1  0.67490943  0.25000000  0.76998834  1
  O  O153  1  0.82509057  0.75000000  0.26998834  1
  O  O154  1  0.87164382  0.60840493  0.10432182  1
  O  O155  1  0.87164382  0.89159507  0.10432182  1
