# generated using pymatgen
data_K4Li5(FeO4)2
_symmetry_space_group_name_H-M   'P 1'
_cell_length_a   5.60363615
_cell_length_b   8.91281040
_cell_length_c   10.88302390
_cell_angle_alpha   91.32737863
_cell_angle_beta   98.65963989
_cell_angle_gamma   90.39181915
_symmetry_Int_Tables_number   1
_chemical_formula_structural   K4Li5(FeO4)2
_chemical_formula_sum   'K8 Li10 Fe4 O16'
_cell_volume   537.17353375
_cell_formula_units_Z   2
loop_
 _symmetry_equiv_pos_site_id
 _symmetry_equiv_pos_as_xyz
  1  'x, y, z'
loop_
 _atom_site_type_symbol
 _atom_site_label
 _atom_site_symmetry_multiplicity
 _atom_site_fract_x
 _atom_site_fract_y
 _atom_site_fract_z
 _atom_site_occupancy
  K  K0  1  0.17339510  0.99453001  0.87526417  1
  K  K1  1  0.09519282  0.74175196  0.36274742  1
  K  K2  1  0.42161498  0.50849556  0.65051111  1
  K  K3  1  0.32634173  0.25951057  0.13565677  1
  K  K4  1  0.67828739  0.72819128  0.86884885  1
  K  K5  1  0.56168780  0.53666005  0.31645930  1
  K  K6  1  0.88413136  0.25242067  0.65726123  1
  K  K7  1  0.78698866  0.96413218  0.14560284  1
  Li  Li8  1  0.09978891  0.75402747  0.69562877  1
  Li  Li9  1  0.27493010  0.48407003  0.92514442  1
  Li  Li10  1  0.19698688  0.98858546  0.57089140  1
  Li  Li11  1  0.40390863  0.24403898  0.80436411  1
  Li  Li12  1  0.37845096  0.97140137  0.29489604  1
  Li  Li13  1  0.59250360  0.01563727  0.69895641  1
  Li  Li14  1  0.72064555  0.50841712  0.06712987  1
  Li  Li15  1  0.80141327  0.02869880  0.43207023  1
  Li  Li16  1  0.91430223  0.25389174  0.30399455  1
  Li  Li17  1  0.95368126  0.47237495  0.49270336  1
  Fe  Fe18  1  0.33674135  0.21784863  0.45029220  1
  Fe  Fe19  1  0.67336722  0.79738451  0.55156580  1
  Fe  Fe20  1  0.20451236  0.71840850  0.05871906  1
  Fe  Fe21  1  0.81279786  0.27031337  0.94421571  1
  O  O22  1  0.11338396  0.28350508  0.89456285  1
  O  O23  1  0.18089777  0.70248187  0.88225286  1
  O  O24  1  0.12236552  0.05844375  0.38098787  1
  O  O25  1  0.16727014  0.39835627  0.40511011  1
  O  O26  1  0.37553258  0.18885738  0.62664895  1
  O  O27  1  0.27755160  0.91387076  0.11340710  1
  O  O28  1  0.40244620  0.82061076  0.63758122  1
  O  O29  1  0.38759137  0.55430669  0.09426550  1
  O  O30  1  0.59403382  0.41694303  0.88178076  1
  O  O31  1  0.62062110  0.20813338  0.37504318  1
  O  O32  1  0.66898856  0.09908294  0.86705895  1
  O  O33  1  0.61444089  0.83694868  0.38128104  1
  O  O34  1  0.84665452  0.61327104  0.58786528  1
  O  O35  1  0.88742152  0.95235844  0.62525480  1
  O  O36  1  0.83594730  0.29802281  0.11317545  1
  O  O37  1  0.92681416  0.68240464  0.11793845  1
