# generated using pymatgen
data_LiV2(CO3)4
_symmetry_space_group_name_H-M   'P 1'
_cell_length_a   8.61533883
_cell_length_b   8.61533872
_cell_length_c   8.61533868
_cell_angle_alpha   106.37559390
_cell_angle_beta   108.20217471
_cell_angle_gamma   113.93476413
_symmetry_Int_Tables_number   1
_chemical_formula_structural   LiV2(CO3)4
_chemical_formula_sum   'Li2 V4 C8 O24'
_cell_volume   489.88704963
_cell_formula_units_Z   2
loop_
 _symmetry_equiv_pos_site_id
 _symmetry_equiv_pos_as_xyz
  1  'x, y, z'
loop_
 _atom_site_type_symbol
 _atom_site_label
 _atom_site_symmetry_multiplicity
 _atom_site_fract_x
 _atom_site_fract_y
 _atom_site_fract_z
 _atom_site_occupancy
  Li  Li0  1  0.37500000  0.69172877  0.81672877  1
  Li  Li1  1  0.87500000  0.55827123  0.18327123  1
  V  V2  1  0.15710754  0.62500000  0.03210754  1
  V  V3  1  0.37500000  0.39367925  0.51867925  1
  V  V4  1  0.59289246  0.12500000  0.96789246  1
  V  V5  1  0.87500000  0.85632075  0.48132075  1
  C  C6  1  0.15230579  0.81935250  0.76401175  1
  C  C7  1  0.18071302  0.94850611  0.33901442  1
  C  C8  1  0.14050931  0.30149389  0.73220791  1
  C  C9  1  0.05534175  0.38829404  0.23598825  1
  C  C10  1  0.60949069  0.84169860  0.66098558  1
  C  C11  1  0.59769421  0.86170596  0.16704671  1
  C  C12  1  0.69465825  0.43064750  0.83295329  1
  C  C13  1  0.56928698  0.40830140  0.26779209  1
  O  O14  1  0.04147753  0.83223603  0.35875824  1
  O  O15  1  0.16253081  0.71131805  0.84195890  1
  O  O16  1  0.08543764  0.36276979  0.84148264  1
  O  O17  1  0.30729918  0.94853755  0.78004138  1
  O  O18  1  0.22871285  0.88723021  0.22266785  1
  O  O19  1  0.06517623  0.11724993  0.64423568  1
  O  O20  1  0.11829965  0.32119042  0.33909535  1
  O  O21  1  0.27652221  0.41776397  0.70924250  1
  O  O22  1  0.16849716  0.52725780  0.21995862  1
  O  O23  1  0.47347779  0.68272029  0.64124176  1
  O  O24  1  0.27698675  0.13275007  0.44792730  1
  O  O25  1  0.44270082  0.72274220  0.14123937  1
  O  O26  1  0.68482377  0.82905945  0.55207270  1
  O  O27  1  0.58746919  0.92942809  0.04878724  1
  O  O28  1  0.47301325  0.42094055  0.35576432  1
  O  O29  1  0.58150284  0.30146245  0.85876063  1
  O  O30  1  0.63170035  0.47079570  0.70289077  1
  O  O31  1  0.76790493  0.92880958  0.29710923  1
  O  O32  1  0.88064085  0.53868195  0.95121276  1
  O  O33  1  0.52128715  0.24395500  0.15851736  1
  O  O34  1  0.70852247  0.56727971  0.29075750  1
  O  O35  1  0.66456236  0.00604500  0.77733215  1
  O  O36  1  0.98209507  0.77920430  0.66090465  1
  O  O37  1  0.86935915  0.32057191  0.15804110  1
