# generated using pymatgen
data_V4O7F5
_symmetry_space_group_name_H-M   'P 1'
_cell_length_a   5.20031207
_cell_length_b   7.58222365
_cell_length_c   5.31326795
_cell_angle_alpha   91.70111799
_cell_angle_beta   88.31674343
_cell_angle_gamma   90.41545037
_symmetry_Int_Tables_number   1
_chemical_formula_structural   V4O7F5
_chemical_formula_sum   'V4 O7 F5'
_cell_volume   209.31481840
_cell_formula_units_Z   1
loop_
 _symmetry_equiv_pos_site_id
 _symmetry_equiv_pos_as_xyz
  1  'x, y, z'
loop_
 _atom_site_type_symbol
 _atom_site_label
 _atom_site_symmetry_multiplicity
 _atom_site_fract_x
 _atom_site_fract_y
 _atom_site_fract_z
 _atom_site_occupancy
  V  V0  1  0.46304823  0.53140756  0.51361320  1
  V  V1  1  0.53163589  0.03296045  0.47787704  1
  V  V2  1  0.98596833  0.46395940  0.99449458  1
  V  V3  1  0.03595765  0.96984441  0.98394181  1
  O  O4  1  0.92137987  0.24972820  0.00269841  1
  O  O5  1  0.71327006  0.96767483  0.22236169  1
  O  O6  1  0.58387752  0.24780893  0.49873109  1
  O  O7  1  0.41805701  0.74587304  0.50249655  1
  O  O8  1  0.27867515  0.03240779  0.78527156  1
  O  O9  1  0.21398969  0.46261553  0.70350742  1
  O  O10  1  0.07636742  0.75372218  0.00155472  1
  F  F11  1  0.78903417  0.53978532  0.30053513  1
  F  F12  1  0.78115666  0.95743646  0.71922493  1
  F  F13  1  0.69790913  0.54375183  0.79367812  1
  F  F14  1  0.30085115  0.45976816  0.20473989  1
  F  F15  1  0.20882206  0.04125592  0.29527585  1
