# generated using pymatgen
data_LiV2(CO3)4
_symmetry_space_group_name_H-M   'P 1'
_cell_length_a   4.74576112
_cell_length_b   7.54242858
_cell_length_c   5.88158611
_cell_angle_alpha   106.40597796
_cell_angle_beta   89.61140361
_cell_angle_gamma   89.82684390
_symmetry_Int_Tables_number   1
_chemical_formula_structural   LiV2(CO3)4
_chemical_formula_sum   'Li1 V2 C4 O12'
_cell_volume   201.94970824
_cell_formula_units_Z   1
loop_
 _symmetry_equiv_pos_site_id
 _symmetry_equiv_pos_as_xyz
  1  'x, y, z'
loop_
 _atom_site_type_symbol
 _atom_site_label
 _atom_site_symmetry_multiplicity
 _atom_site_fract_x
 _atom_site_fract_y
 _atom_site_fract_z
 _atom_site_occupancy
  Li  Li0  1  0.50000000  0.50000000  0.50000000  1
  V  V1  1  0.50000000  0.00000000  0.50000000  1
  V  V2  1  0.00000000  0.50000000  0.00000000  1
  C  C3  1  0.49063419  0.73864804  0.01798589  1
  C  C4  1  0.50936581  0.26135196  0.98201411  1
  C  C5  1  0.00690434  0.24044528  0.51672424  1
  C  C6  1  0.99309566  0.75955472  0.48327576  1
  O  O7  1  0.87706708  0.61180789  0.35043678  1
  O  O8  1  0.83445235  0.89420477  0.60249581  1
  O  O9  1  0.77891576  0.27668001  0.99655701  1
  O  O10  1  0.73410842  0.22866573  0.50098419  1
  O  O11  1  0.65402035  0.61869413  0.87817260  1
  O  O12  1  0.59748600  0.88097670  0.17398447  1
  O  O13  1  0.40251400  0.11902330  0.82601553  1
  O  O14  1  0.34597965  0.38130587  0.12182740  1
  O  O15  1  0.26589158  0.77133427  0.49901581  1
  O  O16  1  0.22108424  0.72331999  0.00344299  1
  O  O17  1  0.16554765  0.10579523  0.39750419  1
  O  O18  1  0.12293292  0.38819211  0.64956322  1
