# generated using pymatgen
data_Li3V3P8O29
_symmetry_space_group_name_H-M   'P 1'
_cell_length_a   9.74030737
_cell_length_b   9.72726676
_cell_length_c   14.01147640
_cell_angle_alpha   90.13008137
_cell_angle_beta   90.23438611
_cell_angle_gamma   60.12872048
_symmetry_Int_Tables_number   1
_chemical_formula_structural   Li3V3P8O29
_chemical_formula_sum   'Li6 V6 P16 O58'
_cell_volume   1151.16140776
_cell_formula_units_Z   2
loop_
 _symmetry_equiv_pos_site_id
 _symmetry_equiv_pos_as_xyz
  1  'x, y, z'
loop_
 _atom_site_type_symbol
 _atom_site_label
 _atom_site_symmetry_multiplicity
 _atom_site_fract_x
 _atom_site_fract_y
 _atom_site_fract_z
 _atom_site_occupancy
  Li  Li0  1  0.90568652  0.32918712  0.55918681  1
  Li  Li1  1  0.32920459  0.90386772  0.05856130  1
  Li  Li2  1  0.32926671  0.76526839  0.56006972  1
  Li  Li3  1  0.33164702  0.33642816  0.10923116  1
  Li  Li4  1  0.96210275  0.01420164  0.00082787  1
  Li  Li5  1  0.97253575  0.98624007  0.50043823  1
  V  V6  1  0.57400470  0.42903280  0.24995136  1
  V  V7  1  0.43550198  0.56283510  0.75460961  1
  V  V8  1  0.57032227  0.99637803  0.74716488  1
  V  V9  1  0.43293812  0.00171843  0.25616274  1
  V  V10  1  0.99725351  0.57204677  0.24973739  1
  V  V11  1  0.00126425  0.43811474  0.75457011  1
  P  P12  1  0.91622512  0.77986739  0.84379339  1
  P  P13  1  0.77756629  0.91794806  0.34302203  1
  P  P14  1  0.91783394  0.31101006  0.34264079  1
  P  P15  1  0.66424101  0.66874537  0.12899782  1
  P  P16  1  0.66576364  0.66448906  0.62945649  1
  P  P17  1  0.77767732  0.30781032  0.84495124  1
  P  P18  1  0.69060241  0.22500089  0.65829199  1
  P  P19  1  0.31531408  0.91393622  0.84374505  1
  P  P20  1  0.69005525  0.08565483  0.15541708  1
  P  P21  1  0.31390478  0.77004012  0.34394554  1
  P  P22  1  0.22383026  0.68840124  0.15879727  1
  P  P23  1  0.33252233  0.33801063  0.37095984  1
  P  P24  1  0.33712021  0.32879051  0.86978710  1
  P  P25  1  0.08535661  0.69199163  0.65638314  1
  P  P26  1  0.22346178  0.08637345  0.65957564  1
  P  P27  1  0.08795599  0.22172471  0.15649369  1
  O  O28  1  0.00729278  0.78431452  0.56935206  1
  O  O29  1  0.91488281  0.74268801  0.33239945  1
  O  O30  1  0.78197512  0.00601325  0.06933202  1
  O  O31  1  0.74172385  0.91511209  0.83171314  1
  O  O32  1  0.91449025  0.61970783  0.82760034  1
  O  O33  1  0.81577883  0.66106635  0.17448611  1
  O  O34  1  0.91305018  0.47021209  0.32423207  1
  O  O35  1  0.00456151  0.20716323  0.07247918  1
  O  O36  1  0.91329660  0.34750773  0.83173487  1
  O  O37  1  0.66696252  0.81264691  0.67485944  1
  O  O38  1  0.61910655  0.91638719  0.32724001  1
  O  O39  1  0.81551164  0.51376500  0.67032362  1
  O  O40  1  0.65817234  0.66923974  0.02338114  1
  O  O41  1  0.65978728  0.66542200  0.52312244  1
  O  O42  1  0.65915053  0.52342683  0.17590058  1
  O  O43  1  0.47388946  0.90974920  0.82542092  1
  O  O44  1  0.51742519  0.81970775  0.17252621  1
  O  O45  1  0.74532617  0.34022330  0.33198784  1
  O  O46  1  0.79596049  0.20219604  0.75226476  1
  O  O47  1  0.78605910  0.21762557  0.57350481  1
  O  O48  1  0.78883750  0.21934523  0.93249996  1
  O  O49  1  0.61870787  0.46745426  0.82873449  1
  O  O50  1  0.51398499  0.66890659  0.67268507  1
  O  O51  1  0.65427212  0.26151822  0.16535972  1
  O  O52  1  0.47133142  0.61630488  0.32575397  1
  O  O53  1  0.34368824  0.91350896  0.33216807  1
  O  O54  1  0.79489345  0.00248881  0.24948166  1
  O  O55  1  0.78981650  0.99587723  0.43031325  1
  O  O56  1  0.21708957  0.99321884  0.57689940  1
  O  O57  1  0.65504194  0.08666572  0.66399501  1
  O  O58  1  0.53293324  0.38283491  0.67271928  1
  O  O59  1  0.34480242  0.74160189  0.83153330  1
  O  O60  1  0.47848320  0.33787728  0.32409157  1
  O  O61  1  0.37515801  0.52320318  0.16886062  1
  O  O62  1  0.21919718  0.78750064  0.07710145  1
  O  O63  1  0.23509511  0.77921457  0.43609380  1
  O  O64  1  0.20046896  0.78852787  0.25636239  1
  O  O65  1  0.26134483  0.65421455  0.66367719  1
  O  O66  1  0.48129108  0.18302637  0.82529379  1
  O  O67  1  0.52561192  0.09751375  0.16972069  1
  O  O68  1  0.33552297  0.47921343  0.82660706  1
  O  O69  1  0.33355723  0.33114096  0.97601115  1
  O  O70  1  0.33055978  0.33546011  0.47629141  1
  O  O71  1  0.18348035  0.48064130  0.32274112  1
  O  O72  1  0.38186510  0.08605263  0.67219515  1
  O  O73  1  0.33569931  0.18593031  0.32407022  1
  O  O74  1  0.08158109  0.65726574  0.16236004  1
  O  O75  1  0.00275034  0.79645858  0.75040161  1
  O  O76  1  0.99518030  0.78883723  0.93159119  1
  O  O77  1  0.08315648  0.53442454  0.67287005  1
  O  O78  1  0.18510135  0.33403547  0.82553677  1
  O  O79  1  0.09954883  0.37520760  0.16890847  1
  O  O80  1  0.26425850  0.07998649  0.16211859  1
  O  O81  1  0.23929744  0.98498122  0.93621476  1
  O  O82  1  0.19941368  0.01056888  0.75714350  1
  O  O83  1  0.08288407  0.25960067  0.66087560  1
  O  O84  1  0.98848381  0.23417728  0.43533495  1
  O  O85  1  0.01162844  0.19923867  0.25459539  1
