# generated using pymatgen
data_LiV2(CO3)4
_symmetry_space_group_name_H-M   'P 1'
_cell_length_a   7.50353683
_cell_length_b   7.50353683
_cell_length_c   8.98964817
_cell_angle_alpha   71.43025444
_cell_angle_beta   71.43025444
_cell_angle_gamma   106.13034134
_symmetry_Int_Tables_number   1
_chemical_formula_structural   LiV2(CO3)4
_chemical_formula_sum   'Li2 V4 C8 O24'
_cell_volume   412.32337001
_cell_formula_units_Z   2
loop_
 _symmetry_equiv_pos_site_id
 _symmetry_equiv_pos_as_xyz
  1  'x, y, z'
loop_
 _atom_site_type_symbol
 _atom_site_label
 _atom_site_symmetry_multiplicity
 _atom_site_fract_x
 _atom_site_fract_y
 _atom_site_fract_z
 _atom_site_occupancy
  Li  Li0  1  0.25281973  0.75008928  0.99936819  1
  Li  Li1  1  0.50008928  0.50281973  0.49936819  1
  V  V2  1  0.25481934  0.24999320  0.99964205  1
  V  V3  1  0.49997234  0.99490122  0.50023443  1
  V  V4  1  -0.00000680  0.50481934  0.49964205  1
  V  V5  1  0.74490122  0.74997234  0.00023443  1
  C  C6  1  0.44041686  0.30323755  0.24573012  1
  C  C7  1  0.05728245  0.19478118  0.75689946  1
  C  C8  1  0.44356024  0.80139019  0.25899976  1
  C  C9  1  0.94478118  0.30728245  0.25689946  1
  C  C10  1  0.55810399  0.20147440  0.73862207  1
  C  C11  1  0.05323755  0.69041686  0.74573012  1
  C  C12  1  0.95147440  0.80810399  0.23862207  1
  C  C13  1  0.55139019  0.69356024  0.75899976  1
  O  O14  1  0.11141782  0.40033251  0.10644747  1
  O  O15  1  0.42780746  0.29227065  0.10626661  1
  O  O16  1  0.35309222  0.13385719  0.38672518  1
  O  O17  1  0.15033251  0.36141782  0.60644747  1
  O  O18  1  0.08354711  0.21830921  0.88758571  1
  O  O19  1  0.26228725  0.71192522  0.26904212  1
  O  O20  1  0.77056732  0.19771536  0.27556876  1
  O  O21  1  0.54059669  0.47947091  0.23494341  1
  O  O22  1  0.04688772  0.98797104  0.22202177  1
  O  O23  1  0.52547843  0.20295238  0.60515254  1
  O  O24  1  0.04227065  0.67780746  0.60626661  1
  O  O25  1  0.39820704  0.10166667  0.89534189  1
  O  O26  1  0.60518590  0.89716696  0.11022167  1
  O  O27  1  0.46195439  0.78649258  0.40118579  1
  O  O28  1  0.96830921  0.33354711  0.38758571  1
  O  O29  1  0.46192522  0.51228725  0.76904212  1
  O  O30  1  0.94771536  0.02056732  0.77556876  1
  O  O31  1  0.73797104  0.29688772  0.72202177  1
  O  O32  1  0.22947091  0.79059669  0.73494341  1
  O  O33  1  0.95295238  0.77547843  0.10515254  1
  O  O34  1  0.85166667  0.64820704  0.39534189  1
  O  O35  1  0.64716696  0.85518590  0.61022167  1
  O  O36  1  0.53649258  0.71195439  0.90118579  1
  O  O37  1  0.88385719  0.60309222  0.88672518  1
