# generated using pymatgen
data_LiMn(CO3)2
_symmetry_space_group_name_H-M   'P 1'
_cell_length_a   8.57340777
_cell_length_b   6.51088793
_cell_length_c   5.39710854
_cell_angle_alpha   65.37374830
_cell_angle_beta   69.75699029
_cell_angle_gamma   81.67131704
_symmetry_Int_Tables_number   1
_chemical_formula_structural   LiMn(CO3)2
_chemical_formula_sum   'Li2 Mn2 C4 O12'
_cell_volume   256.95152317
_cell_formula_units_Z   2
loop_
 _symmetry_equiv_pos_site_id
 _symmetry_equiv_pos_as_xyz
  1  'x, y, z'
loop_
 _atom_site_type_symbol
 _atom_site_label
 _atom_site_symmetry_multiplicity
 _atom_site_fract_x
 _atom_site_fract_y
 _atom_site_fract_z
 _atom_site_occupancy
  Li  Li0  1  0.65164864  0.01891606  0.81558071  1
  Li  Li1  1  0.15357415  0.48134519  0.08547878  1
  Mn  Mn2  1  0.50292883  0.51163675  0.36283270  1
  Mn  Mn3  1  0.00185575  0.98616937  0.12221358  1
  C  C4  1  0.79131337  0.59068729  0.25353096  1
  C  C5  1  0.70715879  0.09708858  0.29113129  1
  C  C6  1  0.28973627  0.90591948  0.09602768  1
  C  C7  1  0.20811620  0.40007668  0.64004152  1
  O  O8  1  0.94024984  0.64112623  0.20111211  1
  O  O9  1  0.82013086  0.04746961  0.42589590  1
  O  O10  1  0.68008904  0.53307235  0.51049092  1
  O  O11  1  0.73196988  0.59532307  0.05866462  1
  O  O12  1  0.75889000  0.07034927  0.05134548  1
  O  O13  1  0.56423948  0.16143087  0.40762067  1
  O  O14  1  0.43928870  0.85700262  0.09511538  1
  O  O15  1  0.23236983  0.90409107  0.90253349  1
  O  O16  1  0.32087022  0.44543374  0.72931309  1
  O  O17  1  0.26203162  0.43169752  0.37037283  1
  O  O18  1  0.17702283  0.95897036  0.29752674  1
  O  O19  1  0.06534370  0.33605790  0.81551154  1
