# generated using pymatgen
data_KNaMg14
_symmetry_space_group_name_H-M   'P 1'
_cell_length_a   6.68134920
_cell_length_b   6.68134861
_cell_length_c   10.40584901
_cell_angle_alpha   90.00000000
_cell_angle_beta   90.00000000
_cell_angle_gamma   120.00000291
_symmetry_Int_Tables_number   1
_chemical_formula_structural   KNaMg14
_chemical_formula_sum   'K1 Na1 Mg14'
_cell_volume   402.28741094
_cell_formula_units_Z   1
loop_
 _symmetry_equiv_pos_site_id
 _symmetry_equiv_pos_as_xyz
  1  'x, y, z'
loop_
 _atom_site_type_symbol
 _atom_site_label
 _atom_site_symmetry_multiplicity
 _atom_site_fract_x
 _atom_site_fract_y
 _atom_site_fract_z
 _atom_site_occupancy
  K  K0  1  0.16666700  0.33333300  0.12500000  1
  Na  Na1  1  0.16666700  0.33333300  0.62500000  1
  Mg  Mg2  1  0.17122175  0.83561038  0.12500000  1
  Mg  Mg3  1  0.16859181  0.83429541  0.62500000  1
  Mg  Mg4  1  0.66438962  0.32877825  0.12500000  1
  Mg  Mg5  1  0.66570459  0.33140819  0.62500000  1
  Mg  Mg6  1  0.66438962  0.83561038  0.12500000  1
  Mg  Mg7  1  0.66570459  0.83429541  0.62500000  1
  Mg  Mg8  1  0.33974860  0.16025140  0.38165984  1
  Mg  Mg9  1  0.33974860  0.16025140  0.86834016  1
  Mg  Mg10  1  0.33974860  0.67949819  0.38165984  1
  Mg  Mg11  1  0.33974860  0.67949819  0.86834016  1
  Mg  Mg12  1  0.82050181  0.16025140  0.38165984  1
  Mg  Mg13  1  0.82050181  0.16025140  0.86834016  1
  Mg  Mg14  1  0.83333300  0.66666700  0.37321590  1
  Mg  Mg15  1  0.83333300  0.66666700  0.87678410  1
