# generated using pymatgen
data_Li3Mn2F7
_symmetry_space_group_name_H-M   'P 1'
_cell_length_a   5.17427643
_cell_length_b   6.03131973
_cell_length_c   10.39465960
_cell_angle_alpha   99.08493958
_cell_angle_beta   90.04771972
_cell_angle_gamma   64.48016349
_symmetry_Int_Tables_number   1
_chemical_formula_structural   Li3Mn2F7
_chemical_formula_sum   'Li6 Mn4 F14'
_cell_volume   288.24915889
_cell_formula_units_Z   2
loop_
 _symmetry_equiv_pos_site_id
 _symmetry_equiv_pos_as_xyz
  1  'x, y, z'
loop_
 _atom_site_type_symbol
 _atom_site_label
 _atom_site_symmetry_multiplicity
 _atom_site_fract_x
 _atom_site_fract_y
 _atom_site_fract_z
 _atom_site_occupancy
  Li  Li0  1  0.29392170  0.88128003  0.87302729  1
  Li  Li1  1  0.82430099  0.88224478  0.37382563  1
  Li  Li2  1  0.50595521  0.49546072  0.50407354  1
  Li  Li3  1  0.99967309  0.49577583  0.00288451  1
  Li  Li4  1  0.17743369  0.11498458  0.62520484  1
  Li  Li5  1  0.70677709  0.11757127  0.12730508  1
  Mn  Mn6  1  0.90417570  0.67491522  0.65865292  1
  Mn  Mn7  1  0.41864053  0.67733737  0.15881561  1
  Mn  Mn8  1  0.57933394  0.32393427  0.84190592  1
  Mn  Mn9  1  0.09705241  0.32565011  0.34235531  1
  F  F10  1  0.58585287  0.67675467  0.96858501  1
  F  F11  1  0.16453532  0.60324822  0.82082983  1
  F  F12  1  0.17295192  0.81298290  0.59768664  1
  F  F13  1  0.73510765  0.67807091  0.46833896  1
  F  F14  1  0.23180837  0.60472301  0.32135295  1
  F  F15  1  0.01213457  0.81340514  0.09633722  1
  F  F16  1  0.98728060  0.18484964  0.90285225  1
  F  F17  1  0.76377840  0.39701585  0.67711284  1
  F  F18  1  0.26844079  0.31909229  0.53213137  1
  F  F19  1  0.83534442  0.18186604  0.40476699  1
  F  F20  1  0.52542856  0.99884077  0.75077084  1
  F  F21  1  0.83554136  0.39696590  0.17921108  1
  F  F22  1  0.41401445  0.31926295  0.03206634  1
  F  F23  1  0.47693738  0.00055155  0.25064004  1
