# generated using pymatgen
data_VOF3
_symmetry_space_group_name_H-M   'P 1'
_cell_length_a   4.60213377
_cell_length_b   12.04144991
_cell_length_c   4.82735365
_cell_angle_alpha   90.00000000
_cell_angle_beta   90.00000000
_cell_angle_gamma   89.32741161
_symmetry_Int_Tables_number   1
_chemical_formula_structural   VOF3
_chemical_formula_sum   'V4 O4 F12'
_cell_volume   267.49595185
_cell_formula_units_Z   4
loop_
 _symmetry_equiv_pos_site_id
 _symmetry_equiv_pos_as_xyz
  1  'x, y, z'
loop_
 _atom_site_type_symbol
 _atom_site_label
 _atom_site_symmetry_multiplicity
 _atom_site_fract_x
 _atom_site_fract_y
 _atom_site_fract_z
 _atom_site_occupancy
  V  V0  1  0.02662674  0.68122915  0.69990845  1
  V  V1  1  0.47337326  0.81877085  0.19990845  1
  V  V2  1  0.52662674  0.18122915  0.80009155  1
  V  V3  1  0.97337326  0.31877085  0.30009155  1
  O  O4  1  0.23456628  0.80327016  0.94877829  1
  O  O5  1  0.26543372  0.69672984  0.44877829  1
  O  O6  1  0.73456628  0.30327016  0.55122171  1
  O  O7  1  0.76543372  0.19672984  0.05122171  1
  F  F8  1  0.29195782  0.91073320  0.42840068  1
  F  F9  1  0.20804218  0.58926680  0.92840068  1
  F  F10  1  0.21354966  0.42042934  0.41892504  1
  F  F11  1  0.22863500  0.20506443  0.40846825  1
  F  F12  1  0.27136500  0.29493557  0.90846825  1
  F  F13  1  0.28645034  0.07957066  0.91892504  1
  F  F14  1  0.71354966  0.92042934  0.08107496  1
  F  F15  1  0.72863500  0.70506443  0.09153175  1
  F  F16  1  0.77136500  0.79493557  0.59153175  1
  F  F17  1  0.78645034  0.57957066  0.58107496  1
  F  F18  1  0.79195782  0.41073320  0.07159932  1
  F  F19  1  0.70804218  0.08926680  0.57159932  1
