# generated using pymatgen
data_Mn3(OF2)2
_symmetry_space_group_name_H-M   'P 1'
_cell_length_a   4.79367136
_cell_length_b   7.99210889
_cell_length_c   5.73933358
_cell_angle_alpha   92.54982151
_cell_angle_beta   90.00000000
_cell_angle_gamma   90.00000000
_symmetry_Int_Tables_number   1
_chemical_formula_structural   Mn3(OF2)2
_chemical_formula_sum   'Mn6 O4 F8'
_cell_volume   219.66502521
_cell_formula_units_Z   2
loop_
 _symmetry_equiv_pos_site_id
 _symmetry_equiv_pos_as_xyz
  1  'x, y, z'
loop_
 _atom_site_type_symbol
 _atom_site_label
 _atom_site_symmetry_multiplicity
 _atom_site_fract_x
 _atom_site_fract_y
 _atom_site_fract_z
 _atom_site_occupancy
  Mn  Mn0  1  0.46087536  0.99026801  0.49722807  1
  Mn  Mn1  1  0.50000000  0.66666700  0.16666700  1
  Mn  Mn2  1  0.53912464  0.34306599  0.83610593  1
  Mn  Mn3  1  0.00000000  0.66666700  0.66666700  1
  Mn  Mn4  1  0.96087536  0.34306599  0.33610593  1
  Mn  Mn5  1  0.03912464  0.99026801  0.99722807  1
  O  O6  1  0.81396448  0.44887099  0.62924354  1
  O  O7  1  0.68603552  0.44887099  0.12924354  1
  O  O8  1  0.31396448  0.88446301  0.20408946  1
  O  O9  1  0.18603552  0.88446301  0.70408946  1
  F  F10  1  0.78936459  0.76409415  0.96972903  1
  F  F11  1  0.80258824  0.09170008  0.29362405  1
  F  F12  1  0.69741176  0.09170008  0.79362405  1
  F  F13  1  0.71063541  0.76409415  0.46972903  1
  F  F14  1  0.28936459  0.56923885  0.86360497  1
  F  F15  1  0.30258824  0.24163292  0.53970895  1
  F  F16  1  0.21063541  0.56923885  0.36360497  1
  F  F17  1  0.19741176  0.24163292  0.03970895  1
