# generated using pymatgen
data_Li3V3P8O29
_symmetry_space_group_name_H-M   'P 1'
_cell_length_a   9.74045559
_cell_length_b   9.79344662
_cell_length_c   14.26219912
_cell_angle_alpha   90.36089321
_cell_angle_beta   90.25264143
_cell_angle_gamma   60.00947040
_symmetry_Int_Tables_number   1
_chemical_formula_structural   Li3V3P8O29
_chemical_formula_sum   'Li6 V6 P16 O58'
_cell_volume   1178.32290452
_cell_formula_units_Z   2
loop_
 _symmetry_equiv_pos_site_id
 _symmetry_equiv_pos_as_xyz
  1  'x, y, z'
loop_
 _atom_site_type_symbol
 _atom_site_label
 _atom_site_symmetry_multiplicity
 _atom_site_fract_x
 _atom_site_fract_y
 _atom_site_fract_z
 _atom_site_occupancy
  Li  Li0  1  0.77451383  0.90979325  0.55384917  1
  Li  Li1  1  0.76646044  0.33043382  0.05635787  1
  Li  Li2  1  0.69873116  0.22129058  0.44162679  1
  Li  Li3  1  0.30033570  0.78368464  0.55126918  1
  Li  Li4  1  0.23112620  0.67220990  0.94750666  1
  Li  Li5  1  0.99851821  0.99926099  0.00730890  1
  V  V6  1  0.56586718  0.43637203  0.25027760  1
  V  V7  1  0.43539722  0.56454109  0.74905865  1
  V  V8  1  0.56051301  0.00151802  0.76063107  1
  V  V9  1  0.43426255  0.00007711  0.24242987  1
  V  V10  1  0.99579868  0.56437374  0.25225110  1
  V  V11  1  0.00373416  0.43296778  0.74695226  1
  P  P12  1  0.92022170  0.77284183  0.84063687  1
  P  P13  1  0.76918034  0.91354667  0.33865140  1
  P  P14  1  0.91686100  0.31105724  0.34703827  1
  P  P15  1  0.66774486  0.66305686  0.13166211  1
  P  P16  1  0.66480228  0.67097072  0.63394109  1
  P  P17  1  0.77697095  0.31471519  0.83867497  1
  P  P18  1  0.67996210  0.22472069  0.66057407  1
  P  P19  1  0.30114826  0.91549830  0.84450301  1
  P  P20  1  0.69701118  0.08527042  0.15672285  1
  P  P21  1  0.31808910  0.77602978  0.33787223  1
  P  P22  1  0.22184807  0.68462983  0.16138489  1
  P  P23  1  0.33704494  0.32998002  0.36591169  1
  P  P24  1  0.33060125  0.33952213  0.86786875  1
  P  P25  1  0.08471915  0.68675489  0.65590132  1
  P  P26  1  0.22946794  0.08419564  0.66064866  1
  P  P27  1  0.07960810  0.22440808  0.16113310  1
  O  O28  1  0.99360050  0.77020066  0.57118507  1
  O  O29  1  0.91201674  0.74419933  0.33380335  1
  O  O30  1  0.80191937  0.00929328  0.07516987  1
  O  O31  1  0.74412086  0.90827384  0.83387012  1
  O  O32  1  0.92470231  0.61368969  0.82904553  1
  O  O33  1  0.81173069  0.66669757  0.17856855  1
  O  O34  1  0.90915428  0.47142681  0.32512344  1
  O  O35  1  0.99249241  0.20833753  0.07935126  1
  O  O36  1  0.91630102  0.34583654  0.82780817  1
  O  O37  1  0.66074717  0.81990743  0.67782099  1
  O  O38  1  0.61702288  0.90656226  0.31834461  1
  O  O39  1  0.81443151  0.52658588  0.67851132  1
  O  O40  1  0.67181193  0.65020480  0.02785088  1
  O  O41  1  0.66018705  0.67218740  0.53000181  1
  O  O42  1  0.67431744  0.50851217  0.17317871  1
  O  O43  1  0.46064171  0.91882504  0.83326942  1
  O  O44  1  0.51680929  0.81116406  0.17224453  1
  O  O45  1  0.74279877  0.34005339  0.33786737  1
  O  O46  1  0.79175170  0.20622913  0.74939958  1
  O  O47  1  0.74610165  0.23822340  0.57008618  1
  O  O48  1  0.78055760  0.23878703  0.92924152  1
  O  O49  1  0.61815941  0.47306423  0.82267892  1
  O  O50  1  0.51505647  0.66656858  0.67573736  1
  O  O51  1  0.65589982  0.26194429  0.16355268  1
  O  O52  1  0.47971762  0.62211030  0.31709305  1
  O  O53  1  0.34378006  0.91835150  0.32825364  1
  O  O54  1  0.79057711  0.00981642  0.25472346  1
  O  O55  1  0.75764058  0.99818738  0.42901234  1
  O  O56  1  0.24065337  0.99453183  0.57470676  1
  O  O57  1  0.65897503  0.07842412  0.66641750  1
  O  O58  1  0.51886285  0.37829834  0.68264615  1
  O  O59  1  0.34150012  0.73952424  0.83500491  1
  O  O60  1  0.48676339  0.33513997  0.32429990  1
  O  O61  1  0.38137232  0.52796600  0.17578893  1
  O  O62  1  0.21410893  0.76480683  0.07143599  1
  O  O63  1  0.25073710  0.76189950  0.42757783  1
  O  O64  1  0.20483485  0.79401641  0.25024536  1
  O  O65  1  0.25655651  0.66057885  0.65837376  1
  O  O66  1  0.48368304  0.18968841  0.82695944  1
  O  O67  1  0.54212915  0.07690168  0.16499665  1
  O  O68  1  0.32547433  0.49271696  0.82606808  1
  O  O69  1  0.32955739  0.34966540  0.97162038  1
  O  O70  1  0.34813555  0.32489282  0.46953855  1
  O  O71  1  0.18623139  0.47302055  0.32239811  1
  O  O72  1  0.38352771  0.08987632  0.68296566  1
  O  O73  1  0.34649626  0.18168156  0.31658370  1
  O  O74  1  0.08414940  0.65094170  0.17155629  1
  O  O75  1  0.00203757  0.79343582  0.74763371  1
  O  O76  1  0.00465384  0.78932511  0.92334051  1
  O  O77  1  0.09274754  0.52649911  0.67399691  1
  O  O78  1  0.18868543  0.33301354  0.82143496  1
  O  O79  1  0.07509008  0.38425204  0.17050680  1
  O  O80  1  0.25573345  0.08977415  0.16461900  1
  O  O81  1  0.20646377  0.98834177  0.92973907  1
  O  O82  1  0.20390987  0.99859653  0.75054711  1
  O  O83  1  0.08925547  0.25602603  0.66625686  1
  O  O84  1  0.99501952  0.23511165  0.43534193  1
  O  O85  1  0.00317126  0.20296359  0.25585807  1
