# generated using pymatgen
data_LiV2OF5
_symmetry_space_group_name_H-M   'P 1'
_cell_length_a   5.18372916
_cell_length_b   5.51925171
_cell_length_c   5.15546515
_cell_angle_alpha   117.37048098
_cell_angle_beta   118.63541184
_cell_angle_gamma   91.18102402
_symmetry_Int_Tables_number   1
_chemical_formula_structural   LiV2OF5
_chemical_formula_sum   'Li1 V2 O1 F5'
_cell_volume   109.33521581
_cell_formula_units_Z   1
loop_
 _symmetry_equiv_pos_site_id
 _symmetry_equiv_pos_as_xyz
  1  'x, y, z'
loop_
 _atom_site_type_symbol
 _atom_site_label
 _atom_site_symmetry_multiplicity
 _atom_site_fract_x
 _atom_site_fract_y
 _atom_site_fract_z
 _atom_site_occupancy
  Li  Li0  1  0.34279557  0.08583605  0.70131781  1
  V  V1  1  0.67480058  0.98705471  0.31879164  1
  V  V2  1  0.14642422  0.45414401  0.31725599  1
  O  O3  1  0.02023026  0.21812690  0.42651751  1
  F  F4  1  0.31380242  0.74584175  0.24590328  1
  F  F5  1  0.39389635  0.22157072  0.15720547  1
  F  F6  1  0.51679454  0.72350710  0.81946931  1
  F  F7  1  0.94543212  0.74982399  0.46141687  1
  F  F8  1  0.75635695  0.22723975  0.80595213  1
