# generated using pymatgen
data_Na3(NiO2)2
_symmetry_space_group_name_H-M   'P 1'
_cell_length_a   4.88586454
_cell_length_b   4.88586454
_cell_length_c   10.48284913
_cell_angle_alpha   90.00000000
_cell_angle_beta   90.00000000
_cell_angle_gamma   70.64967497
_symmetry_Int_Tables_number   1
_chemical_formula_structural   Na3(NiO2)2
_chemical_formula_sum   'Na6 Ni4 O8'
_cell_volume   236.10697513
_cell_formula_units_Z   2
loop_
 _symmetry_equiv_pos_site_id
 _symmetry_equiv_pos_as_xyz
  1  'x, y, z'
loop_
 _atom_site_type_symbol
 _atom_site_label
 _atom_site_symmetry_multiplicity
 _atom_site_fract_x
 _atom_site_fract_y
 _atom_site_fract_z
 _atom_site_occupancy
  Na  Na0  1  0.35126739  0.35126739  0.06474841  1
  Na  Na1  1  0.35126739  0.35126739  0.43525159  1
  Na  Na2  1  0.64873261  0.64873261  0.56474841  1
  Na  Na3  1  0.68584329  0.68584329  0.25000000  1
  Na  Na4  1  0.31415671  0.31415671  0.75000000  1
  Na  Na5  1  0.64873261  0.64873261  0.93525159  1
  Ni  Ni6  1  0.00000000  0.00000000  0.00000000  1
  Ni  Ni7  1  0.07185875  0.07185875  0.25000000  1
  Ni  Ni8  1  0.00000000  0.00000000  0.50000000  1
  Ni  Ni9  1  0.92814125  0.92814125  0.75000000  1
  O  O10  1  0.29629584  0.86011308  0.11937369  1
  O  O11  1  0.29629584  0.86011308  0.38062631  1
  O  O12  1  0.13988692  0.70370416  0.88062631  1
  O  O13  1  0.13988692  0.70370416  0.61937369  1
  O  O14  1  0.86011308  0.29629584  0.38062631  1
  O  O15  1  0.86011308  0.29629584  0.11937369  1
  O  O16  1  0.70370416  0.13988692  0.61937369  1
  O  O17  1  0.70370416  0.13988692  0.88062631  1
