# generated using pymatgen
data_VOF3
_symmetry_space_group_name_H-M   'P 1'
_cell_length_a   4.73183642
_cell_length_b   7.08523673
_cell_length_c   4.65098697
_cell_angle_alpha   71.60929882
_cell_angle_beta   90.12791282
_cell_angle_gamma   69.98068815
_symmetry_Int_Tables_number   1
_chemical_formula_structural   VOF3
_chemical_formula_sum   'V2 O2 F6'
_cell_volume   137.95879294
_cell_formula_units_Z   2
loop_
 _symmetry_equiv_pos_site_id
 _symmetry_equiv_pos_as_xyz
  1  'x, y, z'
loop_
 _atom_site_type_symbol
 _atom_site_label
 _atom_site_symmetry_multiplicity
 _atom_site_fract_x
 _atom_site_fract_y
 _atom_site_fract_z
 _atom_site_occupancy
  V  V0  1  0.02527859  0.36478140  0.04012128  1
  V  V1  1  0.38847612  0.63314825  0.45975187  1
  O  O2  1  0.16306683  0.60161548  0.72513984  1
  O  O3  1  0.76951589  0.39633740  0.76898288  1
  F  F4  1  0.36043597  0.18690077  0.96841970  1
  F  F5  1  0.36726471  0.41363553  0.32459770  1
  F  F6  1  0.15038396  0.82837760  0.13393744  1
  F  F7  1  0.53995935  0.81013271  0.53849611  1
  F  F8  1  0.77992449  0.58574291  0.17143171  1
  F  F9  1  0.97992009  0.17138595  0.36193647  1
