# generated using pymatgen
data_Li3FeO4
_symmetry_space_group_name_H-M   'P 1'
_cell_length_a   5.03878403
_cell_length_b   10.25109730
_cell_length_c   9.81999797
_cell_angle_alpha   16.38407143
_cell_angle_beta   29.31266171
_cell_angle_gamma   33.15635730
_symmetry_Int_Tables_number   1
_chemical_formula_structural   Li3FeO4
_chemical_formula_sum   'Li3 Fe1 O4'
_cell_volume   70.04652401
_cell_formula_units_Z   1
loop_
 _symmetry_equiv_pos_site_id
 _symmetry_equiv_pos_as_xyz
  1  'x, y, z'
loop_
 _atom_site_type_symbol
 _atom_site_label
 _atom_site_symmetry_multiplicity
 _atom_site_fract_x
 _atom_site_fract_y
 _atom_site_fract_z
 _atom_site_occupancy
  Li  Li0  1  0.00655230  0.99463757  0.00196132  1
  Li  Li1  1  0.98672659  0.49313676  0.01060715  1
  Li  Li2  1  0.50200950  0.99692804  0.49961970  1
  Fe  Fe3  1  0.50451329  0.49235290  0.50603082  1
  O  O4  1  0.27376157  0.99013614  0.23810275  1
  O  O5  1  0.19171378  0.48899644  0.27936496  1
  O  O6  1  0.73639408  0.99364855  0.77329857  1
  O  O7  1  0.82059688  0.49738759  0.72792874  1
