# generated using pymatgen
data_Li3V3P8O29
_symmetry_space_group_name_H-M   'P 1'
_cell_length_a   9.76259785
_cell_length_b   9.74721495
_cell_length_c   14.24304061
_cell_angle_alpha   89.92920186
_cell_angle_beta   90.44771888
_cell_angle_gamma   60.04614194
_symmetry_Int_Tables_number   1
_chemical_formula_structural   Li3V3P8O29
_chemical_formula_sum   'Li6 V6 P16 O58'
_cell_volume   1174.24882398
_cell_formula_units_Z   2
loop_
 _symmetry_equiv_pos_site_id
 _symmetry_equiv_pos_as_xyz
  1  'x, y, z'
loop_
 _atom_site_type_symbol
 _atom_site_label
 _atom_site_symmetry_multiplicity
 _atom_site_fract_x
 _atom_site_fract_y
 _atom_site_fract_z
 _atom_site_occupancy
  Li  Li0  1  0.67701253  0.66614897  0.39324563  1
  Li  Li1  1  0.30740007  0.77254729  0.55448423  1
  Li  Li2  1  0.67742382  0.09117783  0.94314926  1
  Li  Li3  1  0.22924506  0.68007520  0.95017976  1
  Li  Li4  1  0.02456758  0.02889355  0.00651997  1
  Li  Li5  1  0.94438813  0.04004262  0.48693061  1
  V  V6  1  0.57172254  0.42796495  0.24953274  1
  V  V7  1  0.43791236  0.55932625  0.74901651  1
  V  V8  1  0.56281785  0.99613204  0.74741986  1
  V  V9  1  0.43039021  0.00273128  0.24789063  1
  V  V10  1  0.00124681  0.56517208  0.24911425  1
  V  V11  1  0.00216933  0.43564744  0.74837296  1
  P  P12  1  0.91767404  0.77631179  0.83895088  1
  P  P13  1  0.78267346  0.90893270  0.33949400  1
  P  P14  1  0.91464261  0.30429636  0.34483473  1
  P  P15  1  0.66463075  0.66743971  0.13231070  1
  P  P16  1  0.66470326  0.66493703  0.63128015  1
  P  P17  1  0.78144568  0.30633429  0.83833772  1
  P  P18  1  0.69140370  0.22065868  0.65620073  1
  P  P19  1  0.30837335  0.91308864  0.84434037  1
  P  P20  1  0.69070887  0.08286908  0.15716327  1
  P  P21  1  0.31811766  0.77619064  0.34142427  1
  P  P22  1  0.22491313  0.68910322  0.16145412  1
  P  P23  1  0.33583839  0.33234955  0.36904699  1
  P  P24  1  0.33520507  0.33244165  0.86698712  1
  P  P25  1  0.08242039  0.69498062  0.65439557  1
  P  P26  1  0.22006906  0.08490770  0.66070594  1
  P  P27  1  0.07886288  0.22349050  0.16011881  1
  O  O28  1  0.00998703  0.78616449  0.56768079  1
  O  O29  1  0.91880473  0.73193261  0.33389403  1
  O  O30  1  0.76808247  0.01805664  0.06561273  1
  O  O31  1  0.74278669  0.91400175  0.83746957  1
  O  O32  1  0.91946593  0.61672469  0.82522551  1
  O  O33  1  0.81279537  0.66383819  0.17977338  1
  O  O34  1  0.90626650  0.46735327  0.33454555  1
  O  O35  1  0.00401933  0.20241260  0.07520747  1
  O  O36  1  0.91534438  0.34670145  0.83193094  1
  O  O37  1  0.66248804  0.81421056  0.67718427  1
  O  O38  1  0.62725477  0.90237660  0.33163331  1
  O  O39  1  0.81231958  0.51992297  0.67477557  1
  O  O40  1  0.66144882  0.67050908  0.02859907  1
  O  O41  1  0.65842636  0.67234914  0.52675021  1
  O  O42  1  0.66274090  0.52046430  0.17734813  1
  O  O43  1  0.46349340  0.91915087  0.82938314  1
  O  O44  1  0.52028894  0.81596340  0.17901632  1
  O  O45  1  0.73765916  0.34470251  0.33379430  1
  O  O46  1  0.80081536  0.20415304  0.74536644  1
  O  O47  1  0.77599698  0.20531125  0.56856288  1
  O  O48  1  0.78951196  0.21013667  0.92149897  1
  O  O49  1  0.62010310  0.46419675  0.82495867  1
  O  O50  1  0.51246572  0.66872521  0.67025811  1
  O  O51  1  0.65774384  0.25592081  0.17022496  1
  O  O52  1  0.48176121  0.62524868  0.32903576  1
  O  O53  1  0.34662683  0.91962676  0.33327067  1
  O  O54  1  0.80425009  0.98558179  0.24294075  1
  O  O55  1  0.80171333  0.99237319  0.42032528  1
  O  O56  1  0.21820984  0.99545082  0.57725036  1
  O  O57  1  0.64993337  0.08696719  0.67257771  1
  O  O58  1  0.53429859  0.38091834  0.67231771  1
  O  O59  1  0.34917996  0.73634958  0.83386205  1
  O  O60  1  0.47519461  0.34580288  0.32351763  1
  O  O61  1  0.38254599  0.53369989  0.17457690  1
  O  O62  1  0.20934065  0.77533237  0.07191562  1
  O  O63  1  0.23471443  0.78295211  0.42955078  1
  O  O64  1  0.20732591  0.79665403  0.25127008  1
  O  O65  1  0.25907082  0.65653007  0.66498532  1
  O  O66  1  0.48702731  0.18330890  0.83025533  1
  O  O67  1  0.53406597  0.08324362  0.17283495  1
  O  O68  1  0.33214002  0.48391754  0.82082093  1
  O  O69  1  0.33264679  0.34933566  0.97069877  1
  O  O70  1  0.33527649  0.33520532  0.47258871  1
  O  O71  1  0.18314014  0.47032380  0.32076997  1
  O  O72  1  0.38002775  0.08528972  0.67538839  1
  O  O73  1  0.34791259  0.18026069  0.32309792  1
  O  O74  1  0.08540683  0.65489136  0.17032694  1
  O  O75  1  0.99530748  0.80066556  0.74545284  1
  O  O76  1  0.00784889  0.78285612  0.92176858  1
  O  O77  1  0.08029104  0.53713331  0.67075195  1
  O  O78  1  0.18893041  0.33293803  0.82025496  1
  O  O79  1  0.07257584  0.38413780  0.17142229  1
  O  O80  1  0.25649296  0.08930317  0.16964172  1
  O  O81  1  0.21613606  0.98418013  0.93009690  1
  O  O82  1  0.20066554  0.00167991  0.75331913  1
  O  O83  1  0.08525871  0.25888424  0.66644975  1
  O  O84  1  0.98968373  0.20479717  0.42877364  1
  O  O85  1  0.99777786  0.20204970  0.25223562  1
