# generated using pymatgen
data_Ba10Ga
_symmetry_space_group_name_H-M   'P 1'
_cell_length_a   15.43702428
_cell_length_b   15.43702428
_cell_length_c   15.43702427
_cell_angle_alpha   59.99999999
_cell_angle_beta   59.99999999
_cell_angle_gamma   59.99999999
_symmetry_Int_Tables_number   1
_chemical_formula_structural   Ba10Ga
_chemical_formula_sum   'Ba40 Ga4'
_cell_volume   2601.21208641
_cell_formula_units_Z   4
loop_
 _symmetry_equiv_pos_site_id
 _symmetry_equiv_pos_as_xyz
  1  'x, y, z'
loop_
 _atom_site_type_symbol
 _atom_site_label
 _atom_site_symmetry_multiplicity
 _atom_site_fract_x
 _atom_site_fract_y
 _atom_site_fract_z
 _atom_site_occupancy
  Ga  Ga0  1  0.00000000  0.50000000  0.00000000  1
  Ga  Ga1  1  0.50000000  0.00000000  0.00000000  1
  Ga  Ga2  1  0.00000000  0.00000000  0.50000000  1
  Ga  Ga3  1  0.00000000  0.00000000  0.00000000  1
  Ba  Ba4  1  0.00685821  0.74314179  0.74314179  1
  Ba  Ba5  1  0.25685821  0.25685821  0.99314179  1
  Ba  Ba6  1  0.99314179  0.99314179  0.25685821  1
  Ba  Ba7  1  0.25685821  0.99314179  0.99314179  1
  Ba  Ba8  1  0.25685821  0.99314179  0.25685821  1
  Ba  Ba9  1  0.99314179  0.25685821  0.99314179  1
  Ba  Ba10  1  0.74314179  0.00685821  0.74314179  1
  Ba  Ba11  1  0.74314179  0.74314179  0.00685821  1
  Ba  Ba12  1  0.00685821  0.00685821  0.74314179  1
  Ba  Ba13  1  0.00685821  0.74314179  0.00685821  1
  Ba  Ba14  1  0.99314179  0.25685821  0.25685821  1
  Ba  Ba15  1  0.74314179  0.00685821  0.00685821  1
  Ba  Ba16  1  0.83313879  0.83313879  0.27926757  1
  Ba  Ba17  1  0.16686121  0.72073243  0.44554515  1
  Ba  Ba18  1  0.44554515  0.16686121  0.16686121  1
  Ba  Ba19  1  0.16686121  0.44554515  0.16686121  1
  Ba  Ba20  1  0.72073243  0.16686121  0.44554515  1
  Ba  Ba21  1  0.72073243  0.44554515  0.16686121  1
  Ba  Ba22  1  0.44554515  0.72073243  0.16686121  1
  Ba  Ba23  1  0.27926757  0.83313879  0.83313879  1
  Ba  Ba24  1  0.83313879  0.27926757  0.83313879  1
  Ba  Ba25  1  0.55445485  0.83313879  0.27926757  1
  Ba  Ba26  1  0.83313879  0.55445485  0.27926757  1
  Ba  Ba27  1  0.55445485  0.83313879  0.83313879  1
  Ba  Ba28  1  0.27926757  0.83313879  0.55445485  1
  Ba  Ba29  1  0.83313879  0.27926757  0.55445485  1
  Ba  Ba30  1  0.83313879  0.55445485  0.83313879  1
  Ba  Ba31  1  0.44554515  0.16686121  0.72073243  1
  Ba  Ba32  1  0.16686121  0.44554515  0.72073243  1
  Ba  Ba33  1  0.16686121  0.16686121  0.44554515  1
  Ba  Ba34  1  0.16686121  0.16686121  0.72073243  1
  Ba  Ba35  1  0.72073243  0.16686121  0.16686121  1
  Ba  Ba36  1  0.16686121  0.72073243  0.16686121  1
  Ba  Ba37  1  0.27926757  0.55445485  0.83313879  1
  Ba  Ba38  1  0.55445485  0.27926757  0.83313879  1
  Ba  Ba39  1  0.83313879  0.83313879  0.55445485  1
  Ba  Ba40  1  0.50000000  0.00000000  0.50000000  1
  Ba  Ba41  1  0.00000000  0.50000000  0.50000000  1
  Ba  Ba42  1  0.50000000  0.50000000  0.00000000  1
  Ba  Ba43  1  0.50000000  0.50000000  0.50000000  1
