# generated using pymatgen
data_Li3V3P8O29
_symmetry_space_group_name_H-M   'P 1'
_cell_length_a   9.75308419
_cell_length_b   9.77960326
_cell_length_c   14.21554915
_cell_angle_alpha   90.04793140
_cell_angle_beta   89.99483089
_cell_angle_gamma   60.07010555
_symmetry_Int_Tables_number   1
_chemical_formula_structural   Li3V3P8O29
_chemical_formula_sum   'Li6 V6 P16 O58'
_cell_volume   1175.06968316
_cell_formula_units_Z   2
loop_
 _symmetry_equiv_pos_site_id
 _symmetry_equiv_pos_as_xyz
  1  'x, y, z'
loop_
 _atom_site_type_symbol
 _atom_site_label
 _atom_site_symmetry_multiplicity
 _atom_site_fract_x
 _atom_site_fract_y
 _atom_site_fract_z
 _atom_site_occupancy
  Li  Li0  1  0.78010267  0.91938896  0.55147970  1
  Li  Li1  1  0.76893268  0.33116189  0.05845453  1
  Li  Li2  1  0.31280222  0.77304914  0.56017594  1
  Li  Li3  1  0.67589923  0.09012354  0.94436164  1
  Li  Li4  1  0.22238757  0.09404168  0.44173799  1
  Li  Li5  1  0.07332263  0.94295195  0.00006510  1
  V  V6  1  0.56395199  0.43530012  0.25621495  1
  V  V7  1  0.43240428  0.56068522  0.75232461  1
  V  V8  1  0.56436456  0.99923647  0.75169520  1
  V  V9  1  0.43513875  0.99568049  0.24118967  1
  V  V10  1  0.99753465  0.56678646  0.24803163  1
  V  V11  1  -0.00006786  0.43688611  0.75240099  1
  P  P12  1  0.91800933  0.77736066  0.84501305  1
  P  P13  1  0.76976674  0.91078879  0.33818935  1
  P  P14  1  0.91492963  0.31480820  0.34297079  1
  P  P15  1  0.66923753  0.66114658  0.12993324  1
  P  P16  1  0.66473087  0.66803219  0.63217655  1
  P  P17  1  0.77286956  0.31354741  0.83919615  1
  P  P18  1  0.68606712  0.22715213  0.65626717  1
  P  P19  1  0.30766749  0.91251588  0.84032848  1
  P  P20  1  0.68558138  0.09200348  0.15919485  1
  P  P21  1  0.31616830  0.77404192  0.34310521  1
  P  P22  1  0.22504694  0.68930454  0.16229080  1
  P  P23  1  0.32931007  0.32929949  0.36750069  1
  P  P24  1  0.33517036  0.33032553  0.86959758  1
  P  P25  1  0.08354517  0.68723537  0.65910682  1
  P  P26  1  0.22687244  0.09156349  0.66032852  1
  P  P27  1  0.08035496  0.22555145  0.15814632  1
  O  O28  1  0.99303821  0.76916754  0.57382869  1
  O  O29  1  0.91395333  0.74243893  0.32990431  1
  O  O30  1  0.76495841  0.01806324  0.06873240  1
  O  O31  1  0.74138779  0.91555354  0.83654569  1
  O  O32  1  0.92112877  0.61720031  0.83131722  1
  O  O33  1  0.81198950  0.66792713  0.17622998  1
  O  O34  1  0.90826472  0.47402271  0.32365129  1
  O  O35  1  0.99557123  0.20963852  0.07532748  1
  O  O36  1  0.91283917  0.34448069  0.83337715  1
  O  O37  1  0.66106208  0.81975511  0.67867376  1
  O  O38  1  0.61721684  0.90405345  0.31508181  1
  O  O39  1  0.81360009  0.52713623  0.68037200  1
  O  O40  1  0.67153713  0.66064885  0.02554605  1
  O  O41  1  0.66864421  0.67977065  0.52832387  1
  O  O42  1  0.67323252  0.50998465  0.17077208  1
  O  O43  1  0.46405816  0.91773529  0.82822788  1
  O  O44  1  0.51606866  0.81206129  0.17219700  1
  O  O45  1  0.74189243  0.34636928  0.33463993  1
  O  O46  1  0.79064673  0.20348177  0.75168296  1
  O  O47  1  0.76581230  0.23170730  0.56998328  1
  O  O48  1  0.76700259  0.23642847  0.92919969  1
  O  O49  1  0.61655580  0.47344399  0.82393991  1
  O  O50  1  0.51398229  0.66727017  0.66928653  1
  O  O51  1  0.65687551  0.26298391  0.16531474  1
  O  O52  1  0.47865776  0.62192217  0.32238211  1
  O  O53  1  0.33837346  0.92044421  0.33521854  1
  O  O54  1  0.79082098  0.00434383  0.24992641  1
  O  O55  1  0.75812947  0.99148080  0.42828623  1
  O  O56  1  0.24319882  0.00556477  0.57015308  1
  O  O57  1  0.65824300  0.08246950  0.66362853  1
  O  O58  1  0.52544112  0.38093266  0.67851343  1
  O  O59  1  0.34782482  0.73841826  0.82856500  1
  O  O60  1  0.47539381  0.33908895  0.32263274  1
  O  O61  1  0.38599271  0.53521180  0.17454555  1
  O  O62  1  0.21212299  0.78454658  0.07890171  1
  O  O63  1  0.25045583  0.76480366  0.43535594  1
  O  O64  1  0.20309220  0.79116026  0.25730368  1
  O  O65  1  0.25507010  0.65985918  0.66089957  1
  O  O66  1  0.49081007  0.18340276  0.82830293  1
  O  O67  1  0.52570361  0.09344622  0.17267163  1
  O  O68  1  0.33197435  0.48073545  0.82366266  1
  O  O69  1  0.34614967  0.32812995  0.97356335  1
  O  O70  1  0.33029798  0.32980965  0.47174972  1
  O  O71  1  0.18278618  0.47251564  0.32054602  1
  O  O72  1  0.38021680  0.09880249  0.68109755  1
  O  O73  1  0.33571259  0.17727334  0.32631618  1
  O  O74  1  0.08969866  0.64998474  0.16897468  1
  O  O75  1  0.00120156  0.79424925  0.75095380  1
  O  O76  1  0.99280215  0.79903879  0.92977983  1
  O  O77  1  0.09171120  0.52634705  0.67860367  1
  O  O78  1  0.18880069  0.32939817  0.82548039  1
  O  O79  1  0.07762391  0.38420381  0.16782946  1
  O  O80  1  0.25559429  0.08879922  0.16494970  1
  O  O81  1  0.21275218  0.98886395  0.92504098  1
  O  O82  1  0.20743086  0.99516719  0.74550506  1
  O  O83  1  0.08435820  0.25979564  0.66750891  1
  O  O84  1  0.00232531  0.23238447  0.42892883  1
  O  O85  1  0.00092299  0.20440345  0.25249187  1
