# generated using pymatgen
data_Li4V3P8O29
_symmetry_space_group_name_H-M   'P 1'
_cell_length_a   9.75752589
_cell_length_b   9.78506673
_cell_length_c   14.10735478
_cell_angle_alpha   89.80986322
_cell_angle_beta   90.09256912
_cell_angle_gamma   59.94005479
_symmetry_Int_Tables_number   1
_chemical_formula_structural   Li4V3P8O29
_chemical_formula_sum   'Li8 V6 P16 O58'
_cell_volume   1165.76648755
_cell_formula_units_Z   2
loop_
 _symmetry_equiv_pos_site_id
 _symmetry_equiv_pos_as_xyz
  1  'x, y, z'
loop_
 _atom_site_type_symbol
 _atom_site_label
 _atom_site_symmetry_multiplicity
 _atom_site_fract_x
 _atom_site_fract_y
 _atom_site_fract_z
 _atom_site_occupancy
  Li  Li0  1  0.76562167  0.90323716  0.55570541  1
  Li  Li1  1  0.76804615  0.32390209  0.06152689  1
  Li  Li2  1  0.31662623  0.90619837  0.05717156  1
  Li  Li3  1  0.32826927  0.76440955  0.55936631  1
  Li  Li4  1  0.69444648  0.08061593  0.94207309  1
  Li  Li5  1  0.23074166  0.10049789  0.44025198  1
  Li  Li6  1  0.09146203  0.22711343  0.93915242  1
  Li  Li7  1  0.94573847  0.04722777  0.49037217  1
  V  V8  1  0.56251902  0.43353203  0.25806239  1
  V  V9  1  0.43347869  0.56315210  0.75032048  1
  V  V10  1  0.57110143  0.99789527  0.75140518  1
  V  V11  1  0.43425671  0.99969239  0.24701024  1
  V  V12  1  0.00369579  0.56718505  0.24935895  1
  V  V13  1  0.99341729  0.44267810  0.74413046  1
  P  P14  1  0.92078038  0.76715706  0.84882014  1
  P  P15  1  0.77652286  0.91091615  0.34076163  1
  P  P16  1  0.91783614  0.30623337  0.33824545  1
  P  P17  1  0.66810848  0.65927870  0.13192200  1
  P  P18  1  0.66203801  0.67030357  0.62869893  1
  P  P19  1  0.77106772  0.31760067  0.84184810  1
  P  P20  1  0.69422232  0.22281712  0.65758939  1
  P  P21  1  0.32038938  0.90842280  0.83888675  1
  P  P22  1  0.68108001  0.09251140  0.16017637  1
  P  P23  1  0.31246774  0.77519929  0.34453944  1
  P  P24  1  0.22709311  0.68670629  0.16142786  1
  P  P25  1  0.32869468  0.33367734  0.37101195  1
  P  P26  1  0.33325538  0.33016583  0.86884670  1
  P  P27  1  0.08126281  0.69720919  0.66043693  1
  P  P28  1  0.22670284  0.09065631  0.65936254  1
  P  P29  1  0.08576130  0.23323756  0.15393980  1
  O  O30  1  0.99100060  0.79604096  0.57771464  1
  O  O31  1  0.91761215  0.73981492  0.32931553  1
  O  O32  1  0.75155330  0.01410568  0.06931360  1
  O  O33  1  0.75058479  0.91365556  0.84146275  1
  O  O34  1  0.90895569  0.61737199  0.82022946  1
  O  O35  1  0.81538380  0.65581854  0.18076615  1
  O  O36  1  0.92657369  0.45826128  0.33208796  1
  O  O37  1  0.99707903  0.24793407  0.06368576  1
  O  O38  1  0.91724848  0.33916112  0.83978889  1
  O  O39  1  0.67594446  0.81242401  0.66671336  1
  O  O40  1  0.61948929  0.91268872  0.32995857  1
  O  O41  1  0.80837206  0.51783997  0.67623583  1
  O  O42  1  0.67762622  0.64780427  0.02689756  1
  O  O43  1  0.66281019  0.66477208  0.52355019  1
  O  O44  1  0.66634304  0.51137671  0.17567557  1
  O  O45  1  0.48131464  0.89937953  0.82147120  1
  O  O46  1  0.51567785  0.81283729  0.16707645  1
  O  O47  1  0.74287308  0.34400697  0.33582461  1
  O  O48  1  0.79117611  0.20323899  0.75573791  1
  O  O49  1  0.79360157  0.20539675  0.57491406  1
  O  O50  1  0.75614490  0.24633801  0.93278492  1
  O  O51  1  0.61899141  0.47873475  0.82070742  1
  O  O52  1  0.50789812  0.67720972  0.67005437  1
  O  O53  1  0.65900045  0.26110878  0.16533348  1
  O  O54  1  0.47269560  0.61890795  0.32904802  1
  O  O55  1  0.34041011  0.91778452  0.33396696  1
  O  O56  1  0.79298810  0.00343567  0.25006093  1
  O  O57  1  0.79529287  0.98075218  0.43030136  1
  O  O58  1  0.21911221  0.00982050  0.57075145  1
  O  O59  1  0.65806904  0.08451227  0.66307499  1
  O  O60  1  0.53805090  0.38382460  0.66977111  1
  O  O61  1  0.34323239  0.74052137  0.83295307  1
  O  O62  1  0.48138411  0.32996256  0.32611537  1
  O  O63  1  0.38196335  0.52734044  0.18092575  1
  O  O64  1  0.23533930  0.77277223  0.07773794  1
  O  O65  1  0.23653774  0.78163687  0.43669090  1
  O  O66  1  0.20118564  0.79031364  0.25721760  1
  O  O67  1  0.25654066  0.66003685  0.66017492  1
  O  O68  1  0.48835920  0.18261437  0.83160355  1
  O  O69  1  0.51939050  0.10203948  0.18046780  1
  O  O70  1  0.33914017  0.47535675  0.81864828  1
  O  O71  1  0.33155157  0.33665404  0.97378746  1
  O  O72  1  0.32701489  0.34391120  0.47561650  1
  O  O73  1  0.18740577  0.48281661  0.32178121  1
  O  O74  1  0.38181555  0.09072544  0.67220638  1
  O  O75  1  0.32256546  0.18680797  0.33385061  1
  O  O76  1  0.08559976  0.65685983  0.16387459  1
  O  O77  1  0.00812262  0.79083990  0.75659964  1
  O  O78  1  0.00809253  0.75051864  0.93639916  1
  O  O79  1  0.08139366  0.53718798  0.67023746  1
  O  O80  1  0.18420150  0.33157715  0.82574041  1
  O  O81  1  0.09814488  0.38055151  0.17517316  1
  O  O82  1  0.25224795  0.08352382  0.15486784  1
  O  O83  1  0.24436516  0.99539939  0.92845977  1
  O  O84  1  0.20597245  0.00055183  0.75047361  1
  O  O85  1  0.08370891  0.26085629  0.66766439  1
  O  O86  1  0.00593816  0.19521459  0.41808396  1
  O  O87  1  0.99027434  0.21143707  0.23985107  1
