# generated using pymatgen
data_LiV3O5F3
_symmetry_space_group_name_H-M   'P 1'
_cell_length_a   7.20267887
_cell_length_b   7.20267887
_cell_length_c   5.09511347
_cell_angle_alpha   89.23130704
_cell_angle_beta   90.76869296
_cell_angle_gamma   78.52229106
_symmetry_Int_Tables_number   1
_chemical_formula_structural   LiV3O5F3
_chemical_formula_sum   'Li2 V6 O10 F6'
_cell_volume   258.98308934
_cell_formula_units_Z   2
loop_
 _symmetry_equiv_pos_site_id
 _symmetry_equiv_pos_as_xyz
  1  'x, y, z'
loop_
 _atom_site_type_symbol
 _atom_site_label
 _atom_site_symmetry_multiplicity
 _atom_site_fract_x
 _atom_site_fract_y
 _atom_site_fract_z
 _atom_site_occupancy
  Li  Li0  1  0.15897265  0.17189769  0.74723494  1
  Li  Li1  1  0.82810231  0.84102735  0.24723494  1
  V  V2  1  0.19505365  0.69188859  0.73888359  1
  V  V3  1  0.30811141  0.80494635  0.23888359  1
  V  V4  1  0.68455541  0.66876572  0.77837045  1
  V  V5  1  0.33123428  0.31544459  0.27837045  1
  V  V6  1  0.66129873  0.17496658  0.77931216  1
  V  V7  1  0.82503342  0.33870127  0.27931216  1
  O  O8  1  0.19370646  0.90645878  0.56652955  1
  O  O9  1  0.09354122  0.80629354  0.06652955  1
  O  O10  1  0.43200233  0.69045119  0.91355954  1
  O  O11  1  0.30954881  0.56799767  0.41355954  1
  O  O12  1  0.68190927  0.93626668  0.87072212  1
  O  O13  1  0.06373332  0.31809073  0.37072212  1
  O  O14  1  0.42887353  0.20368649  0.56645696  1
  O  O15  1  0.79631351  0.57112647  0.06645696  1
  O  O16  1  0.69865423  0.42304488  0.59457204  1
  O  O17  1  0.57695512  0.30134577  0.09457204  1
  F  F18  1  0.20315994  0.43239962  0.91586141  1
  F  F19  1  0.56760038  0.79684006  0.41586141  1
  F  F20  1  0.92793580  0.68748749  0.59233701  1
  F  F21  1  0.31251251  0.07206420  0.09233701  1
  F  F22  1  0.91419608  0.19300439  0.93616022  1
  F  F23  1  0.80699561  0.08580392  0.43616022  1
