# generated using pymatgen
data_LiFe2(BO3)2
_symmetry_space_group_name_H-M   'P 1'
_cell_length_a   5.31321101
_cell_length_b   9.07500270
_cell_length_c   11.34970263
_cell_angle_alpha   113.61029022
_cell_angle_beta   77.76356385
_cell_angle_gamma   89.83331471
_symmetry_Int_Tables_number   1
_chemical_formula_structural   LiFe2(BO3)2
_chemical_formula_sum   'Li4 Fe8 B8 O24'
_cell_volume   487.68988267
_cell_formula_units_Z   4
loop_
 _symmetry_equiv_pos_site_id
 _symmetry_equiv_pos_as_xyz
  1  'x, y, z'
loop_
 _atom_site_type_symbol
 _atom_site_label
 _atom_site_symmetry_multiplicity
 _atom_site_fract_x
 _atom_site_fract_y
 _atom_site_fract_z
 _atom_site_occupancy
  Li  Li0  1  0.35309665  0.29255167  0.58311501  1
  Li  Li1  1  0.61294405  0.04811960  0.09754327  1
  Li  Li2  1  0.10777175  0.55052080  0.09719038  1
  Li  Li3  1  0.42367535  0.93359385  0.84186694  1
  Fe  Fe4  1  0.40363418  0.28267624  0.87162238  1
  Fe  Fe5  1  0.10268455  0.21932429  0.12192419  1
  Fe  Fe6  1  0.84507706  0.13909521  0.62366816  1
  Fe  Fe7  1  0.65847965  0.35509337  0.36835363  1
  Fe  Fe8  1  0.34798714  0.65366518  0.61661334  1
  Fe  Fe9  1  0.15303991  0.85270710  0.36707250  1
  Fe  Fe10  1  0.90816535  0.75986686  0.86651619  1
  Fe  Fe11  1  0.60566515  0.71810082  0.12400907  1
  B  B12  1  0.64056029  0.02093509  0.37607591  1
  B  B13  1  0.90599785  0.09191742  0.86745488  1
  B  B14  1  0.15268726  0.51665843  0.36801819  1
  B  B15  1  0.39339355  0.61864019  0.87844172  1
  B  B16  1  0.84645860  0.47015503  0.62396155  1
  B  B17  1  0.60243863  0.39128768  0.12323348  1
  B  B18  1  0.35194947  0.99117954  0.62358933  1
  B  B19  1  0.10750516  0.89178806  0.11951302  1
  O  O20  1  0.13831443  0.12275910  0.90533034  1
  O  O21  1  0.46295145  0.13956295  0.65135620  1
  O  O22  1  0.25303921  0.01337921  0.11302773  1
  O  O23  1  0.53991631  0.16255084  0.38063923  1
  O  O24  1  0.86361011  0.01796558  0.42197439  1
  O  O25  1  0.79407551  0.18328505  0.81499559  1
  O  O26  1  0.26634101  0.49280563  0.88810390  1
  O  O27  1  0.02232505  0.37795493  0.33374465  1
  O  O28  1  0.69221447  0.27613627  0.16538320  1
  O  O29  1  0.61807601  0.45935894  0.57907155  1
  O  O30  1  0.97260775  0.33441152  0.61998491  1
  O  O31  1  0.36853361  0.37154709  0.08414748  1
  O  O32  1  0.62565049  0.65088175  0.91699180  1
  O  O33  1  0.37482671  0.51619184  0.41492153  1
  O  O34  1  0.28672189  0.72712573  0.83714884  1
  O  O35  1  0.95171168  0.61748613  0.67218877  1
  O  O36  1  0.74695652  0.51342818  0.11922432  1
  O  O37  1  0.18974044  0.78160440  0.16572609  1
  O  O38  1  0.13706167  0.97527864  0.56765815  1
  O  O39  1  0.44394034  0.87401587  0.65185022  1
  O  O40  1  0.06678552  0.64892476  0.35523469  1
  O  O41  1  0.76717507  0.96895242  0.88577694  1
  O  O42  1  0.51992165  0.88109820  0.32993957  1
  O  O43  1  0.87474051  0.87015455  0.07770181  1
