# generated using pymatgen
data_FeOF
_symmetry_space_group_name_H-M   'P 1'
_cell_length_a   9.46097333
_cell_length_b   14.24753002
_cell_length_c   3.08523331
_cell_angle_alpha   90.00000000
_cell_angle_beta   90.00000000
_cell_angle_gamma   90.29495363
_symmetry_Int_Tables_number   1
_chemical_formula_structural   FeOF
_chemical_formula_sum   'Fe12 O12 F12'
_cell_volume   415.87006076
_cell_formula_units_Z   12
loop_
 _symmetry_equiv_pos_site_id
 _symmetry_equiv_pos_as_xyz
  1  'x, y, z'
loop_
 _atom_site_type_symbol
 _atom_site_label
 _atom_site_symmetry_multiplicity
 _atom_site_fract_x
 _atom_site_fract_y
 _atom_site_fract_z
 _atom_site_occupancy
  Fe  Fe0  1  0.00041659  0.00076116  0.00000000  1
  Fe  Fe1  1  0.01939123  0.33172402  0.00000000  1
  Fe  Fe2  1  0.00317720  0.66701198  0.00000000  1
  Fe  Fe3  1  0.25659065  0.18226212  0.50000000  1
  Fe  Fe4  1  0.25175459  0.48348037  0.50000000  1
  Fe  Fe5  1  0.22175025  0.83302320  0.50000000  1
  Fe  Fe6  1  0.48836934  0.33721638  0.00000000  1
  Fe  Fe7  1  0.51534487  0.00125523  0.00000000  1
  Fe  Fe8  1  0.51445996  0.66180259  0.00000000  1
  Fe  Fe9  1  0.75265957  0.15184955  0.50000000  1
  Fe  Fe10  1  0.75799874  0.51567804  0.50000000  1
  Fe  Fe11  1  0.71940957  0.83212396  0.50000000  1
  O  O12  1  0.09596663  0.26710687  0.50000000  1
  O  O13  1  0.09490472  0.93594518  0.50000000  1
  O  O14  1  0.14643934  0.76216772  0.00000000  1
  O  O15  1  0.15170116  0.43500112  0.00000000  1
  O  O16  1  0.35644620  0.23217609  0.00000000  1
  O  O17  1  0.40944532  0.40308411  0.50000000  1
  O  O18  1  0.59176124  0.93651169  0.50000000  1
  O  O19  1  0.59232625  0.59606582  0.50000000  1
  O  O20  1  0.64553033  0.10669358  0.00000000  1
  O  O21  1  0.64874886  0.76527755  0.00000000  1
  O  O22  1  0.85736371  0.56964009  0.00000000  1
  O  O23  1  0.90554118  0.06454718  0.50000000  1
  F  F24  1  0.10313817  0.59993143  0.50000000  1
  F  F25  1  0.16173152  0.10367143  0.00000000  1
  F  F26  1  0.34287260  0.56760690  0.00000000  1
  F  F27  1  0.34458891  0.89487516  0.00000000  1
  F  F28  1  0.39330392  0.06187671  0.50000000  1
  F  F29  1  0.39751467  0.72828636  0.50000000  1
  F  F30  1  0.60470108  0.27681231  0.50000000  1
  F  F31  1  0.66393999  0.43518042  0.00000000  1
  F  F32  1  0.84462328  0.23598715  0.00000000  1
  F  F33  1  0.84241802  0.89199767  0.00000000  1
  F  F34  1  0.90086703  0.39949779  0.50000000  1
  F  F35  1  0.90280231  0.73187007  0.50000000  1
