# generated using pymatgen
data_LiFe2(BO3)2
_symmetry_space_group_name_H-M   'P 1'
_cell_length_a   5.27942657
_cell_length_b   9.05528920
_cell_length_c   11.42175443
_cell_angle_alpha   66.46521912
_cell_angle_beta   77.45117100
_cell_angle_gamma   89.63655265
_symmetry_Int_Tables_number   1
_chemical_formula_structural   LiFe2(BO3)2
_chemical_formula_sum   'Li4 Fe8 B8 O24'
_cell_volume   486.68036822
_cell_formula_units_Z   4
loop_
 _symmetry_equiv_pos_site_id
 _symmetry_equiv_pos_as_xyz
  1  'x, y, z'
loop_
 _atom_site_type_symbol
 _atom_site_label
 _atom_site_symmetry_multiplicity
 _atom_site_fract_x
 _atom_site_fract_y
 _atom_site_fract_z
 _atom_site_occupancy
  Li  Li0  1  0.73110341  0.73482990  0.87398921  1
  Li  Li1  1  0.51402150  0.48988406  0.66236020  1
  Li  Li2  1  0.73457954  0.75608417  0.15917118  1
  Li  Li3  1  0.22434604  0.24928463  0.16700126  1
  Fe  Fe4  1  0.99257590  0.64726046  0.37990337  1
  Fe  Fe5  1  0.73421377  0.07092855  0.88074379  1
  Fe  Fe6  1  0.50452554  0.84917018  0.63178197  1
  Fe  Fe7  1  0.74894270  0.43856132  0.12807947  1
  Fe  Fe8  1  0.22596953  0.55315245  0.88658260  1
  Fe  Fe9  1  0.48917892  0.14968720  0.37977561  1
  Fe  Fe10  1  0.03612174  0.33767748  0.63067889  1
  Fe  Fe11  1  0.25012838  0.94191838  0.12626138  1
  B  B12  1  0.98419916  0.31681284  0.37339036  1
  B  B13  1  0.73376878  0.40023075  0.87320204  1
  B  B14  1  0.53665491  0.18648831  0.63105688  1
  B  B15  1  0.75900906  0.10309847  0.13028088  1
  B  B16  1  0.48373300  0.81550367  0.37735568  1
  B  B17  1  0.23084462  0.89668937  0.87884767  1
  B  B18  1  0.00366617  0.68213801  0.63041719  1
  B  B19  1  0.26365867  0.60228353  0.12862516  1
  O  O20  1  0.96754907  0.89931053  0.88713704  1
  O  O21  1  0.88655832  0.28319156  0.84661194  1
  O  O22  1  0.83739671  0.50152676  0.91983775  1
  O  O23  1  0.83887514  0.78646648  0.65986842  1
  O  O24  1  0.91835336  0.57816482  0.57991576  1
  O  O25  1  0.75013875  0.15121071  0.68724507  1
  O  O26  1  0.74937315  0.32342212  0.33473566  1
  O  O27  1  0.49382914  0.41454926  0.84834663  1
  O  O28  1  0.37273098  0.79078361  0.82940164  1
  O  O29  1  0.54138476  0.91929942  0.43452337  1
  O  O30  1  0.66015840  0.71500244  0.35272054  1
  O  O31  1  0.36578027  0.98588724  0.92301799  1
  O  O32  1  0.65556522  0.99892997  0.08414887  1
  O  O33  1  0.40787212  0.31800854  0.62301705  1
  O  O34  1  0.45914513  0.08054153  0.57854375  1
  O  O35  1  0.58719905  0.19854671  0.17680671  1
  O  O36  1  0.52948040  0.62409625  0.11077217  1
  O  O37  1  0.25508498  0.66858533  0.65605897  1
  O  O38  1  0.24990450  0.82269840  0.33968435  1
  O  O39  1  0.04296462  0.42223496  0.42569375  1
  O  O40  1  0.15445822  0.20867206  0.35659015  1
  O  O41  1  0.15541201  0.48850160  0.09532123  1
  O  O42  1  0.09789076  0.69960797  0.17626431  1
  O  O43  1  0.01439263  0.10937699  0.13311009  1
