# generated using pymatgen
data_LuMn5
_symmetry_space_group_name_H-M   'P 1'
_cell_length_a   4.84504943
_cell_length_b   4.84504943
_cell_length_c   7.95778085
_cell_angle_alpha   90.00000000
_cell_angle_beta   90.00000000
_cell_angle_gamma   119.99999994
_symmetry_Int_Tables_number   1
_chemical_formula_structural   LuMn5
_chemical_formula_sum   'Lu2 Mn10'
_cell_volume   161.77783942
_cell_formula_units_Z   2
loop_
 _symmetry_equiv_pos_site_id
 _symmetry_equiv_pos_as_xyz
  1  'x, y, z'
loop_
 _atom_site_type_symbol
 _atom_site_label
 _atom_site_symmetry_multiplicity
 _atom_site_fract_x
 _atom_site_fract_y
 _atom_site_fract_z
 _atom_site_occupancy
  Mn  Mn0  1  0.82874634  0.17125366  0.44897185  1
  Mn  Mn1  1  0.65749267  0.82874634  0.94897185  1
  Mn  Mn2  1  0.00000000  0.00000000  0.20255860  1
  Mn  Mn3  1  0.00000000  0.00000000  0.70255860  1
  Mn  Mn4  1  0.33333333  0.66666667  0.62887830  1
  Mn  Mn5  1  0.66666667  0.33333333  0.12887830  1
  Mn  Mn6  1  0.17125366  0.82874634  0.94897185  1
  Mn  Mn7  1  0.34250733  0.17125366  0.44897185  1
  Mn  Mn8  1  0.82874634  0.65749267  0.44897185  1
  Mn  Mn9  1  0.17125366  0.34250733  0.94897185  1
  Lu  Lu10  1  0.66666667  0.33333333  0.75764754  1
  Lu  Lu11  1  0.33333333  0.66666667  0.25764754  1
