# generated using pymatgen
data_LiFe2(BO3)2
_symmetry_space_group_name_H-M   'P 1'
_cell_length_a   5.25601185
_cell_length_b   9.13807397
_cell_length_c   10.11748506
_cell_angle_alpha   91.26208858
_cell_angle_beta   91.02395846
_cell_angle_gamma   89.39302811
_symmetry_Int_Tables_number   1
_chemical_formula_structural   LiFe2(BO3)2
_chemical_formula_sum   'Li4 Fe8 B8 O24'
_cell_volume   485.72027975
_cell_formula_units_Z   4
loop_
 _symmetry_equiv_pos_site_id
 _symmetry_equiv_pos_as_xyz
  1  'x, y, z'
loop_
 _atom_site_type_symbol
 _atom_site_label
 _atom_site_symmetry_multiplicity
 _atom_site_fract_x
 _atom_site_fract_y
 _atom_site_fract_z
 _atom_site_occupancy
  Li  Li0  1  0.81928948  0.83118097  0.15556388  1
  Li  Li1  1  0.66867612  0.67004361  0.87590808  1
  Li  Li2  1  0.34249032  0.32729807  0.65235427  1
  Li  Li3  1  0.16542084  0.16838899  0.38471027  1
  Fe  Fe4  1  0.83860252  0.16192857  0.63342938  1
  Fe  Fe5  1  0.82973956  0.49385399  0.13277115  1
  Fe  Fe6  1  0.68545193  0.00758177  0.87831179  1
  Fe  Fe7  1  0.65551861  0.34556191  0.37755206  1
  Fe  Fe8  1  0.32368068  0.66595375  0.62945886  1
  Fe  Fe9  1  0.32972755  0.00222590  0.12576539  1
  Fe  Fe10  1  0.16914322  0.83653368  0.38157115  1
  Fe  Fe11  1  0.17669052  0.49313790  0.88484975  1
  B  B12  1  0.82706953  0.49444900  0.63728026  1
  B  B13  1  0.83003987  0.16538164  0.13496715  1
  B  B14  1  0.67263121  0.00821484  0.37078529  1
  B  B15  1  0.67578149  0.33670323  0.87023582  1
  B  B16  1  0.34263279  0.00342730  0.62482192  1
  B  B17  1  0.33082795  0.67021113  0.12586515  1
  B  B18  1  0.15971094  0.49819989  0.38485676  1
  B  B19  1  0.16789491  0.83009843  0.88405755  1
  O  O20  1  0.91489864  0.50468007  0.32755353  1
  O  O21  1  0.90927726  0.82979034  0.89262750  1
  O  O22  1  0.82497468  0.21534887  0.83021960  1
  O  O23  1  0.78284805  0.13437246  0.42910140  1
  O  O24  1  0.81069629  0.88617799  0.34461594  1
  O  O25  1  0.79825051  0.45858621  0.93044009  1
  O  O26  1  0.67183639  0.61242223  0.65975722  1
  O  O27  1  0.68856632  0.04319142  0.09199405  1
  O  O28  1  0.72026494  0.36206639  0.59238546  1
  O  O29  1  0.70585445  0.29670716  0.16384174  1
  O  O30  1  0.59255300  0.66109683  0.11760943  1
  O  O31  1  0.59277340  0.01268705  0.66925718  1
  O  O32  1  0.41328130  0.01589990  0.33312132  1
  O  O33  1  0.42337818  0.33869418  0.84529492  1
  O  O34  1  0.29888519  0.70656335  0.83202651  1
  O  O35  1  0.27090537  0.62674989  0.43387411  1
  O  O36  1  0.28373041  0.36636025  0.39661304  1
  O  O37  1  0.31536767  0.94712069  0.93084162  1
  O  O38  1  0.17817520  0.55319791  0.08963866  1
  O  O39  1  0.19928008  0.13070516  0.61139117  1
  O  O40  1  0.23996094  0.86931076  0.58987118  1
  O  O41  1  0.21192922  0.80154015  0.16546223  1
  O  O42  1  0.08604829  0.15149201  0.15250444  1
  O  O43  1  0.08881721  0.49843416  0.66332774  1
