# generated using pymatgen
data_Li4V3P8O29
_symmetry_space_group_name_H-M   'P 1'
_cell_length_a   9.76057827
_cell_length_b   9.76874289
_cell_length_c   14.13992844
_cell_angle_alpha   90.22843428
_cell_angle_beta   90.74728287
_cell_angle_gamma   60.16384884
_symmetry_Int_Tables_number   1
_chemical_formula_structural   Li4V3P8O29
_chemical_formula_sum   'Li8 V6 P16 O58'
_cell_volume   1169.41322616
_cell_formula_units_Z   2
loop_
 _symmetry_equiv_pos_site_id
 _symmetry_equiv_pos_as_xyz
  1  'x, y, z'
loop_
 _atom_site_type_symbol
 _atom_site_label
 _atom_site_symmetry_multiplicity
 _atom_site_fract_x
 _atom_site_fract_y
 _atom_site_fract_z
 _atom_site_occupancy
  Li  Li0  1  0.90899131  0.32516412  0.55533086  1
  Li  Li1  1  0.77050209  0.31951438  0.06184980  1
  Li  Li2  1  0.31818043  0.90581562  0.06061201  1
  Li  Li3  1  0.66760036  0.23286822  0.43928961  1
  Li  Li4  1  0.33339382  0.76626194  0.55774421  1
  Li  Li5  1  0.68782731  0.08281925  0.93677377  1
  Li  Li6  1  0.09135545  0.22386670  0.94387868  1
  Li  Li7  1  0.01752856  0.94793714  0.49132449  1
  V  V8  1  0.56342360  0.43516254  0.24791555  1
  V  V9  1  0.43032094  0.56957132  0.75463511  1
  V  V10  1  0.57041044  0.99581793  0.74463663  1
  V  V11  1  0.43341707  0.00592282  0.25563529  1
  V  V12  1  0.99981928  0.56998340  0.25113771  1
  V  V13  1  0.99954015  0.44230368  0.74612477  1
  P  P14  1  0.91819194  0.77253635  0.84443738  1
  P  P15  1  0.78128462  0.91635446  0.33692561  1
  P  P16  1  0.91292999  0.31383407  0.34201666  1
  P  P17  1  0.66558787  0.66860112  0.13135687  1
  P  P18  1  0.66354567  0.66374567  0.63070883  1
  P  P19  1  0.77316244  0.32001003  0.84134686  1
  P  P20  1  0.68240463  0.23139396  0.65969450  1
  P  P21  1  0.31996591  0.91551199  0.84293559  1
  P  P22  1  0.67955555  0.08790758  0.15324499  1
  P  P23  1  0.31548396  0.77279140  0.34310830  1
  P  P24  1  0.22346629  0.68751250  0.16162926  1
  P  P25  1  0.33271883  0.33483829  0.37093558  1
  P  P26  1  0.33756797  0.32893201  0.86798384  1
  P  P27  1  0.08269826  0.69858911  0.65809253  1
  P  P28  1  0.22099484  0.08615846  0.66021574  1
  P  P29  1  0.08723256  0.22991982  0.16068366  1
  O  O30  1  0.00604238  0.79174260  0.57200107  1
  O  O31  1  0.91653658  0.74291731  0.33593210  1
  O  O32  1  0.74311101  0.00964141  0.06151233  1
  O  O33  1  0.74907843  0.91607586  0.83731936  1
  O  O34  1  0.90794554  0.61919407  0.81723047  1
  O  O35  1  0.81589765  0.66299438  0.17978168  1
  O  O36  1  0.91354593  0.47000562  0.32757538  1
  O  O37  1  0.99881078  0.23820441  0.07084622  1
  O  O38  1  0.92080407  0.33968518  0.84089103  1
  O  O39  1  0.67565048  0.80311288  0.67271953  1
  O  O40  1  0.61940694  0.92042868  0.33048264  1
  O  O41  1  0.81334250  0.50622870  0.67219127  1
  O  O42  1  0.66785658  0.66892575  0.02619423  1
  O  O43  1  0.66037328  0.65033731  0.52579499  1
  O  O44  1  0.66915020  0.51503319  0.16863826  1
  O  O45  1  0.47861347  0.90651494  0.82266960  1
  O  O46  1  0.51879090  0.81847589  0.17337443  1
  O  O47  1  0.74199188  0.34106674  0.33438818  1
  O  O48  1  0.79360163  0.21029132  0.75111898  1
  O  O49  1  0.76548500  0.23223431  0.57092680  1
  O  O50  1  0.76043116  0.24371538  0.93011993  1
  O  O51  1  0.62108465  0.48098724  0.82275757  1
  O  O52  1  0.50970156  0.67170890  0.67299837  1
  O  O53  1  0.66279539  0.25419433  0.15953939  1
  O  O54  1  0.46976942  0.61844031  0.33177941  1
  O  O55  1  0.34562782  0.91423774  0.32822566  1
  O  O56  1  0.79871920  0.98943891  0.23900847  1
  O  O57  1  0.79727864  0.00673014  0.41783614  1
  O  O58  1  0.20300268  0.99327182  0.58154204  1
  O  O59  1  0.65534220  0.08943049  0.66446484  1
  O  O60  1  0.52624438  0.38676746  0.67502768  1
  O  O61  1  0.34220521  0.74658957  0.83500048  1
  O  O62  1  0.48721122  0.32453062  0.33395925  1
  O  O63  1  0.37771814  0.52615374  0.17819593  1
  O  O64  1  0.23175819  0.77367787  0.07824633  1
  O  O65  1  0.23098787  0.79347105  0.43432238  1
  O  O66  1  0.19938250  0.78956281  0.25722888  1
  O  O67  1  0.25891747  0.65894730  0.66464082  1
  O  O68  1  0.48694927  0.18320330  0.82867424  1
  O  O69  1  0.52024315  0.09891225  0.17977002  1
  O  O70  1  0.33866201  0.47845415  0.82291049  1
  O  O71  1  0.33300795  0.33293099  0.97290792  1
  O  O72  1  0.32883952  0.32717596  0.47562417  1
  O  O73  1  0.18708934  0.48214057  0.32443748  1
  O  O74  1  0.37714462  0.08575485  0.66829982  1
  O  O75  1  0.32784896  0.18695181  0.32389437  1
  O  O76  1  0.08176411  0.65813848  0.16545792  1
  O  O77  1  0.00334042  0.79534234  0.75220746  1
  O  O78  1  0.00707679  0.75283965  0.93260198  1
  O  O79  1  0.08031401  0.53900374  0.66920973  1
  O  O80  1  0.18498861  0.33320132  0.82291482  1
  O  O81  1  0.09368679  0.38231091  0.17778253  1
  O  O82  1  0.25532579  0.08360569  0.16042233  1
  O  O83  1  0.24853852  0.99617251  0.93452555  1
  O  O84  1  0.19866177  0.01483727  0.75965220  1
  O  O85  1  0.07917423  0.25982715  0.66114119  1
  O  O86  1  0.98797603  0.22904316  0.43219440  1
  O  O87  1  0.00116305  0.20584180  0.25057558  1
