# generated using pymatgen
data_Li5Fe7O3F13
_symmetry_space_group_name_H-M   'P 1'
_cell_length_a   6.19522996
_cell_length_b   6.26298914
_cell_length_c   10.76777406
_cell_angle_alpha   106.44503228
_cell_angle_beta   90.22596922
_cell_angle_gamma   59.38717402
_symmetry_Int_Tables_number   1
_chemical_formula_structural   Li5Fe7O3F13
_chemical_formula_sum   'Li5 Fe7 O3 F13'
_cell_volume   339.84603897
_cell_formula_units_Z   1
loop_
 _symmetry_equiv_pos_site_id
 _symmetry_equiv_pos_as_xyz
  1  'x, y, z'
loop_
 _atom_site_type_symbol
 _atom_site_label
 _atom_site_symmetry_multiplicity
 _atom_site_fract_x
 _atom_site_fract_y
 _atom_site_fract_z
 _atom_site_occupancy
  Li  Li0  1  0.62849254  0.73874195  0.11104025  1
  Li  Li1  1  0.99465021  0.01071584  0.01819812  1
  Li  Li2  1  0.14883829  0.72821678  0.61133143  1
  Li  Li3  1  0.48890149  0.01182100  0.51186290  1
  Li  Li4  1  0.05839695  0.36995662  0.80864199  1
  Fe  Fe5  1  0.05994322  0.87555570  0.31341582  1
  Fe  Fe6  1  0.30696870  0.37137260  0.05867165  1
  Fe  Fe7  1  0.56411836  0.37427196  0.31227052  1
  Fe  Fe8  1  0.05834646  0.37798782  0.31326191  1
  Fe  Fe9  1  0.55615965  0.86161241  0.80462828  1
  Fe  Fe10  1  0.79460301  0.38800728  0.57174238  1
  Fe  Fe11  1  0.55706258  0.38069528  0.80543510  1
  O  O12  1  0.19998706  0.59735352  0.40050626  1
  O  O13  1  0.92943119  0.14678285  0.22064307  1
  O  O14  1  0.46228803  0.60820753  0.69424433  1
  F  F15  1  0.94278758  0.61851807  0.17666263  1
  F  F16  1  0.43958440  0.60964301  0.17242190  1
  F  F17  1  0.44193111  0.12026241  0.16964927  1
  F  F18  1  0.68346633  0.63151762  0.44348385  1
  F  F19  1  0.15822322  0.14703753  0.45426136  1
  F  F20  1  0.68526137  0.12807198  0.44444104  1
  F  F21  1  0.93866203  0.61370801  0.69265510  1
  F  F22  1  0.93733036  0.13320171  0.69455528  1
  F  F23  1  0.70623618  0.61222309  0.92290399  1
  F  F24  1  0.42379358  0.13283066  0.70515880  1
  F  F25  1  0.19337655  0.60443576  0.94060878  1
  F  F26  1  0.66977368  0.13028560  0.92703027  1
  F  F27  1  0.19034487  0.13329242  0.93711572  1
