# generated using pymatgen
data_LiVF5
_symmetry_space_group_name_H-M   'P 1'
_cell_length_a   6.49120048
_cell_length_b   7.46263237
_cell_length_c   14.81682063
_cell_angle_alpha   90.01041660
_cell_angle_beta   94.74393170
_cell_angle_gamma   89.99333406
_symmetry_Int_Tables_number   1
_chemical_formula_structural   LiVF5
_chemical_formula_sum   'Li8 V8 F40'
_cell_volume   715.28934080
_cell_formula_units_Z   8
loop_
 _symmetry_equiv_pos_site_id
 _symmetry_equiv_pos_as_xyz
  1  'x, y, z'
loop_
 _atom_site_type_symbol
 _atom_site_label
 _atom_site_symmetry_multiplicity
 _atom_site_fract_x
 _atom_site_fract_y
 _atom_site_fract_z
 _atom_site_occupancy
  Li  Li0  1  0.00205388  0.26913474  0.90080624  1
  Li  Li1  1  0.00206614  0.23086619  0.40081423  1
  Li  Li2  1  0.32938142  0.94553875  0.93298537  1
  Li  Li3  1  0.32940088  0.55445947  0.43299632  1
  Li  Li4  1  0.67059912  0.44554053  0.56700368  1
  Li  Li5  1  0.67061858  0.05446125  0.06701463  1
  Li  Li6  1  0.99793386  0.76913381  0.59918577  1
  Li  Li7  1  0.99794612  0.73086526  0.09919376  1
  V  V8  1  0.17921220  0.30842956  0.62804380  1
  V  V9  1  0.17918158  0.19162911  0.12808918  1
  V  V10  1  0.49442509  0.37348752  0.84462862  1
  V  V11  1  0.50558354  0.87346048  0.65535356  1
  V  V12  1  0.49441646  0.12653952  0.34464644  1
  V  V13  1  0.50557491  0.62651248  0.15537138  1
  V  V14  1  0.82081842  0.80837089  0.87191082  1
  V  V15  1  0.82078780  0.69157044  0.37195620  1
  F  F16  1  0.01656658  0.99738167  0.89660708  1
  F  F17  1  0.03397738  0.19914155  0.70781616  1
  F  F18  1  0.01656328  0.50261265  0.39658917  1
  F  F19  1  0.05996481  0.19195141  0.52767301  1
  F  F20  1  0.03401010  0.30078905  0.20778890  1
  F  F21  1  0.05998303  0.30804995  0.02766698  1
  F  F22  1  0.27930764  0.46303946  0.90095115  1
  F  F23  1  0.31556790  0.44185416  0.72886061  1
  F  F24  1  0.31496643  0.83230639  0.73405390  1
  F  F25  1  0.36509433  0.15151653  0.84804277  1
  F  F26  1  0.31431147  0.80345388  0.56168570  1
  F  F27  1  0.27932533  0.03699099  0.40094321  1
  F  F28  1  0.36160526  0.41956949  0.55020169  1
  F  F29  1  0.39630423  0.12707318  0.64454816  1
  F  F30  1  0.31556443  0.05815803  0.22883634  1
  F  F31  1  0.31494126  0.66768153  0.23405223  1
  F  F32  1  0.36508103  0.34848476  0.34804254  1
  F  F33  1  0.31429748  0.69656695  0.06168307  1
  F  F34  1  0.36165640  0.08037538  0.05017171  1
  F  F35  1  0.39629743  0.37291038  0.14453164  1
  F  F36  1  0.60370257  0.62708962  0.85546836  1
  F  F37  1  0.63834360  0.91962462  0.94982829  1
  F  F38  1  0.68570252  0.30343305  0.93831693  1
  F  F39  1  0.63491897  0.65151524  0.65195746  1
  F  F40  1  0.68505874  0.33231847  0.76594777  1
  F  F41  1  0.68443557  0.94184197  0.77116366  1
  F  F42  1  0.60369577  0.87292682  0.35545184  1
  F  F43  1  0.63839574  0.58043051  0.44979831  1
  F  F44  1  0.72067467  0.96300901  0.59905679  1
  F  F45  1  0.68568853  0.19654612  0.43831430  1
  F  F46  1  0.63490567  0.84848347  0.15195723  1
  F  F47  1  0.68503357  0.16769361  0.26594610  1
  F  F48  1  0.68443210  0.55814584  0.27113939  1
  F  F49  1  0.72069236  0.53696054  0.09904885  1
  F  F50  1  0.94001697  0.69195005  0.97233302  1
  F  F51  1  0.96598990  0.69921095  0.79221110  1
  F  F52  1  0.94003519  0.80804859  0.47232699  1
  F  F53  1  0.98343672  0.49738735  0.60341083  1
  F  F54  1  0.96602262  0.80085845  0.29218384  1
  F  F55  1  0.98343342  0.00261833  0.10339292  1
