# generated using pymatgen
data_Li2VF5
_symmetry_space_group_name_H-M   'P 1'
_cell_length_a   7.48201575
_cell_length_b   6.95050681
_cell_length_c   7.81795253
_cell_angle_alpha   90.00000000
_cell_angle_beta   90.59776480
_cell_angle_gamma   90.00000000
_symmetry_Int_Tables_number   1
_chemical_formula_structural   Li2VF5
_chemical_formula_sum   'Li8 V4 F20'
_cell_volume   406.54112435
_cell_formula_units_Z   4
loop_
 _symmetry_equiv_pos_site_id
 _symmetry_equiv_pos_as_xyz
  1  'x, y, z'
loop_
 _atom_site_type_symbol
 _atom_site_label
 _atom_site_symmetry_multiplicity
 _atom_site_fract_x
 _atom_site_fract_y
 _atom_site_fract_z
 _atom_site_occupancy
  Li  Li0  1  0.24903289  0.73177845  0.98076307  1
  Li  Li1  1  0.24903289  0.76822155  0.48076307  1
  Li  Li2  1  0.47059224  0.98789077  0.81437907  1
  Li  Li3  1  0.47059224  0.51210923  0.31437907  1
  Li  Li4  1  0.73789580  0.24746157  0.54090248  1
  Li  Li5  1  0.73789580  0.25253843  0.04090248  1
  Li  Li6  1  0.99811109  0.44094248  0.79918524  1
  Li  Li7  1  0.99811109  0.05905752  0.29918524  1
  V  V8  1  0.25699734  0.23763719  0.59640246  1
  V  V9  1  0.25699734  0.26236281  0.09640246  1
  V  V10  1  0.74639935  0.73117536  0.89911274  1
  V  V11  1  0.74639935  0.76882464  0.39911274  1
  F  F12  1  0.00864366  0.70436353  0.88203965  1
  F  F13  1  0.00864366  0.79563647  0.38203965  1
  F  F14  1  0.23592450  0.34590877  0.84392068  1
  F  F15  1  0.23592450  0.15409123  0.34392068  1
  F  F16  1  0.24527640  0.96694804  0.65756236  1
  F  F17  1  0.24527640  0.53305196  0.15756236  1
  F  F18  1  0.29961216  0.49509629  0.51716379  1
  F  F19  1  0.29961216  0.00490371  0.01716379  1
  F  F20  1  0.48693322  0.71732618  0.87660283  1
  F  F21  1  0.48693322  0.78267382  0.37660283  1
  F  F22  1  0.51006509  0.19388311  0.63934272  1
  F  F23  1  0.51006509  0.30611689  0.13934272  1
  F  F24  1  0.70803775  0.00640897  0.93797965  1
  F  F25  1  0.70803775  0.49359103  0.43797965  1
  F  F26  1  0.76081283  0.44733245  0.86179160  1
  F  F27  1  0.76081283  0.05266755  0.36179160  1
  F  F28  1  0.74777960  0.81324062  0.64987163  1
  F  F29  1  0.74777960  0.68675938  0.14987163  1
  F  F30  1  0.99854009  0.27198461  0.59686103  1
  F  F31  1  0.99854009  0.22801539  0.09686103  1
