# generated using pymatgen
data_Li4V3P8O29
_symmetry_space_group_name_H-M   'P 1'
_cell_length_a   9.77913143
_cell_length_b   9.76418627
_cell_length_c   14.07859766
_cell_angle_alpha   90.25225168
_cell_angle_beta   90.32105319
_cell_angle_gamma   60.06497143
_symmetry_Int_Tables_number   1
_chemical_formula_structural   Li4V3P8O29
_chemical_formula_sum   'Li8 V6 P16 O58'
_cell_volume   1164.93786654
_cell_formula_units_Z   2
loop_
 _symmetry_equiv_pos_site_id
 _symmetry_equiv_pos_as_xyz
  1  'x, y, z'
loop_
 _atom_site_type_symbol
 _atom_site_label
 _atom_site_symmetry_multiplicity
 _atom_site_fract_x
 _atom_site_fract_y
 _atom_site_fract_z
 _atom_site_occupancy
  Li  Li0  1  0.90452043  0.77101242  0.05787523  1
  Li  Li1  1  0.77743676  0.31096023  0.05852870  1
  Li  Li2  1  0.31866325  0.91242358  0.06330390  1
  Li  Li3  1  0.66573633  0.23582874  0.43982706  1
  Li  Li4  1  0.33249178  0.76905780  0.55424864  1
  Li  Li5  1  0.22486394  0.68593066  0.94339585  1
  Li  Li6  1  0.09207042  0.67189473  0.43860826  1
  Li  Li7  1  0.99663542  0.03872623  0.49921024  1
  V  V8  1  0.57046448  0.42964156  0.24821783  1
  V  V9  1  0.43846858  0.56338942  0.75003275  1
  V  V10  1  0.56791021  0.99629013  0.75034970  1
  V  V11  1  0.43194285  0.00648909  0.25562020  1
  V  V12  1  0.99806354  0.56355285  0.25093084  1
  V  V13  1  0.00095075  0.43081304  0.74629585  1
  P  P14  1  0.91285375  0.77006698  0.83852111  1
  P  P15  1  0.77570863  0.91736095  0.34167526  1
  P  P16  1  0.91705529  0.30734397  0.34496990  1
  P  P17  1  0.66252317  0.67046945  0.13041567  1
  P  P18  1  0.66532273  0.66720081  0.63045134  1
  P  P19  1  0.77548552  0.31607219  0.84066622  1
  P  P20  1  0.68621948  0.22295819  0.65929548  1
  P  P21  1  0.31775079  0.91209571  0.84576277  1
  P  P22  1  0.68479592  0.08273048  0.15530004  1
  P  P23  1  0.31702223  0.77189185  0.33978143  1
  P  P24  1  0.23036982  0.67849776  0.15938642  1
  P  P25  1  0.33593841  0.33598748  0.37285229  1
  P  P26  1  0.33208487  0.33450884  0.86788505  1
  P  P27  1  0.08939685  0.68560155  0.65612185  1
  P  P28  1  0.22433454  0.08263136  0.66128413  1
  P  P29  1  0.08555792  0.22821844  0.15974665  1
  O  O30  1  0.01547032  0.76850283  0.56540318  1
  O  O31  1  0.91490782  0.74464230  0.33901092  1
  O  O32  1  0.76427369  0.99089700  0.06916528  1
  O  O33  1  0.74436462  0.91412708  0.83459923  1
  O  O34  1  0.90637645  0.61749580  0.82031826  1
  O  O35  1  0.81276797  0.67145974  0.17078943  1
  O  O36  1  0.91817387  0.46288270  0.33381501  1
  O  O37  1  0.99678029  0.23597931  0.07269342  1
  O  O38  1  0.91814319  0.34214656  0.83147639  1
  O  O39  1  0.66760116  0.81328630  0.67650504  1
  O  O40  1  0.61729140  0.91635118  0.32909169  1
  O  O41  1  0.81302375  0.51836239  0.67279525  1
  O  O42  1  0.65669503  0.67677262  0.02457732  1
  O  O43  1  0.65252707  0.67247416  0.52530390  1
  O  O44  1  0.66919787  0.51513870  0.16829068  1
  O  O45  1  0.47697996  0.90395709  0.82346604  1
  O  O46  1  0.51296290  0.81768919  0.17526731  1
  O  O47  1  0.74236499  0.34070454  0.33421137  1
  O  O48  1  0.79469959  0.20482832  0.75038575  1
  O  O49  1  0.76543448  0.21875848  0.56835207  1
  O  O50  1  0.76199451  0.24901491  0.93159317  1
  O  O51  1  0.62179815  0.47748733  0.81912464  1
  O  O52  1  0.51085733  0.67242281  0.67238122  1
  O  O53  1  0.66301867  0.25155267  0.15756301  1
  O  O54  1  0.47269238  0.61792574  0.32796073  1
  O  O55  1  0.34201327  0.91640883  0.33395761  1
  O  O56  1  0.79481292  0.99768103  0.24721325  1
  O  O57  1  0.78374967  0.00667583  0.42555237  1
  O  O58  1  0.21005009  0.99294458  0.57910489  1
  O  O59  1  0.65466524  0.08364035  0.66855600  1
  O  O60  1  0.52842098  0.38080892  0.67496909  1
  O  O61  1  0.33910777  0.74237680  0.83778162  1
  O  O62  1  0.49067560  0.32334798  0.33212316  1
  O  O63  1  0.38089119  0.51817167  0.17951313  1
  O  O64  1  0.24616013  0.75411097  0.07068631  1
  O  O65  1  0.22742956  0.77875686  0.42835897  1
  O  O66  1  0.20671814  0.79188307  0.24903868  1
  O  O67  1  0.26099249  0.65766230  0.66265436  1
  O  O68  1  0.47498465  0.18448766  0.82306934  1
  O  O69  1  0.52416367  0.09276827  0.17773934  1
  O  O70  1  0.33484308  0.48521077  0.82580572  1
  O  O71  1  0.32750586  0.34478884  0.97291378  1
  O  O72  1  0.34208812  0.32609880  0.47815202  1
  O  O73  1  0.18978394  0.48833348  0.33378396  1
  O  O74  1  0.38311852  0.07978370  0.67100001  1
  O  O75  1  0.33051200  0.18874336  0.32482455  1
  O  O76  1  0.08225212  0.66124981  0.15896073  1
  O  O77  1  0.00264219  0.79295317  0.74868086  1
  O  O78  1  0.00011153  0.76003292  0.92865355  1
  O  O79  1  0.08850950  0.52919216  0.67086528  1
  O  O80  1  0.18242469  0.34109317  0.82072232  1
  O  O81  1  0.09400301  0.38127976  0.17940106  1
  O  O82  1  0.25653107  0.08381441  0.16267491  1
  O  O83  1  0.24884698  0.98662155  0.93818837  1
  O  O84  1  0.20255054  0.00719205  0.75870129  1
  O  O85  1  0.08638238  0.25591701  0.66412425  1
  O  O86  1  0.99074570  0.20999354  0.43009720  1
  O  O87  1  0.00286530  0.20386118  0.25132500  1
