# generated using pymatgen
data_Li2VF5
_symmetry_space_group_name_H-M   'P 1'
_cell_length_a   6.39868343
_cell_length_b   8.12987166
_cell_length_c   7.61986912
_cell_angle_alpha   90.00000000
_cell_angle_beta   90.00000000
_cell_angle_gamma   90.00000000
_symmetry_Int_Tables_number   1
_chemical_formula_structural   Li2VF5
_chemical_formula_sum   'Li8 V4 F20'
_cell_volume   396.38921166
_cell_formula_units_Z   4
loop_
 _symmetry_equiv_pos_site_id
 _symmetry_equiv_pos_as_xyz
  1  'x, y, z'
loop_
 _atom_site_type_symbol
 _atom_site_label
 _atom_site_symmetry_multiplicity
 _atom_site_fract_x
 _atom_site_fract_y
 _atom_site_fract_z
 _atom_site_occupancy
  Li  Li0  1  0.01295805  0.77521807  0.41131428  1
  Li  Li1  1  0.21003813  0.46786801  0.74884712  1
  Li  Li2  1  0.28996187  0.96786801  0.25115288  1
  Li  Li3  1  0.48704195  0.27521807  0.58868572  1
  Li  Li4  1  0.51295805  0.72478193  0.08868572  1
  Li  Li5  1  0.71003813  0.03213199  0.75115288  1
  Li  Li6  1  0.78996187  0.53213199  0.24884712  1
  Li  Li7  1  0.98704195  0.22478193  0.91131428  1
  V  V8  1  0.23250377  0.39826607  0.24698059  1
  V  V9  1  0.26749623  0.89826607  0.75301941  1
  V  V10  1  0.73250377  0.10173393  0.25301941  1
  V  V11  1  0.76749623  0.60173393  0.74698059  1
  F  F12  1  0.01006629  0.02507476  0.76781163  1
  F  F13  1  0.08441392  0.60542015  0.25212212  1
  F  F14  1  0.08158545  0.69026199  0.74781215  1
  F  F15  1  0.20895667  0.36018862  0.99621183  1
  F  F16  1  0.23876248  0.37247405  0.49906803  1
  F  F17  1  0.29104333  0.86018862  0.00378817  1
  F  F18  1  0.26123752  0.87247405  0.50093197  1
  F  F19  1  0.41841455  0.19026199  0.25218785  1
  F  F20  1  0.41558608  0.10542015  0.74787788  1
  F  F21  1  0.48993371  0.52507476  0.23218837  1
  F  F22  1  0.51006629  0.47492524  0.73218837  1
  F  F23  1  0.58441392  0.89457985  0.24787788  1
  F  F24  1  0.58158545  0.80973801  0.75218785  1
  F  F25  1  0.70895667  0.13981138  0.50378817  1
  F  F26  1  0.73876248  0.12752595  0.00093197  1
  F  F27  1  0.76123752  0.62752595  0.99906803  1
  F  F28  1  0.79104333  0.63981138  0.49621183  1
  F  F29  1  0.91841455  0.30973801  0.24781215  1
  F  F30  1  0.91558608  0.39457985  0.75212212  1
  F  F31  1  0.98993371  0.97492524  0.26781163  1
