# generated using pymatgen
data_Li4V3P8O29
_symmetry_space_group_name_H-M   'P 1'
_cell_length_a   9.80215072
_cell_length_b   9.79114659
_cell_length_c   13.95652731
_cell_angle_alpha   89.95469610
_cell_angle_beta   89.98978861
_cell_angle_gamma   59.96515089
_symmetry_Int_Tables_number   1
_chemical_formula_structural   Li4V3P8O29
_chemical_formula_sum   'Li8 V6 P16 O58'
_cell_volume   1159.60522994
_cell_formula_units_Z   2
loop_
 _symmetry_equiv_pos_site_id
 _symmetry_equiv_pos_as_xyz
  1  'x, y, z'
loop_
 _atom_site_type_symbol
 _atom_site_label
 _atom_site_symmetry_multiplicity
 _atom_site_fract_x
 _atom_site_fract_y
 _atom_site_fract_z
 _atom_site_occupancy
  Li  Li0  1  0.90890383  0.77235602  0.05890629  1
  Li  Li1  1  0.77234897  0.31785504  0.06043020  1
  Li  Li2  1  0.32180544  0.90345720  0.05798477  1
  Li  Li3  1  0.68103937  0.22771936  0.44113671  1
  Li  Li4  1  0.32246002  0.77168872  0.56014960  1
  Li  Li5  1  0.09019951  0.68213470  0.43956265  1
  Li  Li6  1  0.22541350  0.09663148  0.44201858  1
  Li  Li7  1  0.09403587  0.22834992  0.93979911  1
  V  V8  1  0.56799016  0.43256285  0.24790587  1
  V  V9  1  0.43238277  0.56269003  0.75632838  1
  V  V10  1  0.57132625  0.00005361  0.75001652  1
  V  V11  1  0.43604751  0.99998338  0.24996390  1
  V  V12  1  0.00048952  0.56743383  0.25215138  1
  V  V13  1  0.99505568  0.43734832  0.74364104  1
  P  P14  1  0.91320209  0.76964478  0.84220634  1
  P  P15  1  0.76972915  0.91608740  0.34379867  1
  P  P16  1  0.91399639  0.31618650  0.34155970  1
  P  P17  1  0.66769762  0.66758941  0.12669875  1
  P  P18  1  0.66060157  0.67080695  0.62816856  1
  P  P19  1  0.77305651  0.31579843  0.84208462  1
  P  P20  1  0.68293013  0.23033841  0.65775954  1
  P  P21  1  0.31956904  0.91192736  0.84122189  1
  P  P22  1  0.68587748  0.08394078  0.15619553  1
  P  P23  1  0.32042642  0.76797788  0.34256667  1
  P  P24  1  0.23026883  0.68369910  0.15848362  1
  P  P25  1  0.33524071  0.33238920  0.37327863  1
  P  P26  1  0.33125111  0.32924328  0.87181249  1
  P  P27  1  0.08882108  0.68420043  0.65790800  1
  P  P28  1  0.23149855  0.08817592  0.65880242  1
  P  P29  1  0.08837202  0.23199415  0.15744114  1
  O  O30  1  0.00828408  0.75427632  0.56627161  1
  O  O31  1  0.91538161  0.74862637  0.34236429  1
  O  O32  1  0.76359779  0.99161025  0.06899015  1
  O  O33  1  0.74397372  0.91321739  0.83364075  1
  O  O34  1  0.90632554  0.61668288  0.82045216  1
  O  O35  1  0.81224954  0.67531309  0.16663173  1
  O  O36  1  0.90469926  0.47747911  0.32347818  1
  O  O37  1  0.00355983  0.23844655  0.06605789  1
  O  O38  1  0.91870942  0.33927613  0.83711949  1
  O  O39  1  0.66319920  0.81614457  0.67458053  1
  O  O40  1  0.61784456  0.90514190  0.32253187  1
  O  O41  1  0.81340471  0.52070625  0.67264657  1
  O  O42  1  0.65712866  0.67508116  0.01982824  1
  O  O43  1  0.66237031  0.67036043  0.52209833  1
  O  O44  1  0.67392909  0.51356902  0.16593945  1
  O  O45  1  0.47765561  0.90561192  0.82400015  1
  O  O46  1  0.51223342  0.81718724  0.17084407  1
  O  O47  1  0.74560868  0.33884392  0.33913820  1
  O  O48  1  0.79336933  0.20891382  0.74969412  1
  O  O49  1  0.75358117  0.24008167  0.56657422  1
  O  O50  1  0.76269556  0.24571374  0.93369850  1
  O  O51  1  0.61975759  0.47810947  0.82269079  1
  O  O52  1  0.51200147  0.66890405  0.66950055  1
  O  O53  1  0.66399990  0.25145426  0.15767323  1
  O  O54  1  0.47995898  0.62155885  0.32432201  1
  O  O55  1  0.33624024  0.91893400  0.33934469  1
  O  O56  1  0.79158370  0.00002472  0.25000404  1
  O  O57  1  0.75500371  0.00849643  0.43101077  1
  O  O58  1  0.24047251  0.00054026  0.56894657  1
  O  O59  1  0.65725957  0.08676400  0.66638376  1
  O  O60  1  0.52302096  0.38329979  0.67950302  1
  O  O61  1  0.34302288  0.74363749  0.83606222  1
  O  O62  1  0.48755908  0.32466944  0.33337323  1
  O  O63  1  0.38221064  0.52241537  0.17656919  1
  O  O64  1  0.23865147  0.76801387  0.07230413  1
  O  O65  1  0.24206812  0.76147367  0.43399119  1
  O  O66  1  0.20638241  0.78830914  0.25424924  1
  O  O67  1  0.25795648  0.66076974  0.66280537  1
  O  O68  1  0.47923942  0.18387024  0.82540208  1
  O  O69  1  0.52302576  0.09486247  0.17741053  1
  O  O70  1  0.33397888  0.47931086  0.82732932  1
  O  O71  1  0.33270424  0.32956683  0.97789796  1
  O  O72  1  0.33212174  0.32488141  0.48015784  1
  O  O73  1  0.18746401  0.48640390  0.33406691  1
  O  O74  1  0.38330327  0.09440807  0.67596190  1
  O  O75  1  0.32941972  0.18280445  0.32911810  1
  O  O76  1  0.08445701  0.66112190  0.16096737  1
  O  O77  1  0.00225074  0.79109765  0.75027821  1
  O  O78  1  0.99363464  0.75985041  0.93341321  1
  O  O79  1  0.09784504  0.52191764  0.67729840  1
  O  O80  1  0.18083285  0.33110643  0.83053057  1
  O  O81  1  0.10147046  0.37842335  0.17568533  1
  O  O82  1  0.25517504  0.08104110  0.16067196  1
  O  O83  1  0.24094197  0.99951461  0.93102165  1
  O  O84  1  0.20761261  0.00001544  0.74999299  1
  O  O85  1  0.08673421  0.25639785  0.66394608  1
  O  O86  1  0.00680998  0.23190554  0.42773606  1
  O  O87  1  0.99472053  0.21158615  0.24581244  1
