# generated using pymatgen
data_MnFeO3
_symmetry_space_group_name_H-M   'P 1'
_cell_length_a   8.26695799
_cell_length_b   8.38660209
_cell_length_c   8.26158862
_cell_angle_alpha   109.26888257
_cell_angle_beta   109.34927012
_cell_angle_gamma   110.24933781
_symmetry_Int_Tables_number   1
_chemical_formula_structural   MnFeO3
_chemical_formula_sum   'Mn8 Fe8 O24'
_cell_volume   438.41716159
_cell_formula_units_Z   8
loop_
 _symmetry_equiv_pos_site_id
 _symmetry_equiv_pos_as_xyz
  1  'x, y, z'
loop_
 _atom_site_type_symbol
 _atom_site_label
 _atom_site_symmetry_multiplicity
 _atom_site_fract_x
 _atom_site_fract_y
 _atom_site_fract_z
 _atom_site_occupancy
  Mn  Mn0  1  0.50338431  0.00695904  0.00193678  1
  Mn  Mn1  1  0.97132435  0.25078371  0.21943671  1
  Mn  Mn2  1  0.77973134  0.03054516  0.75019350  1
  Mn  Mn3  1  0.74977232  0.78018487  0.03021214  1
  Mn  Mn4  1  0.74658833  0.27961695  0.53290297  1
  Mn  Mn5  1  0.00709263  0.49974715  0.99909963  1
  Mn  Mn6  1  0.53287060  0.74230673  0.27645808  1
  Mn  Mn7  1  0.49814584  0.49688804  0.49890004  1
  Fe  Fe8  1  0.71529316  0.46451818  0.25340988  1
  Fe  Fe9  1  0.45880678  0.25280890  0.71154346  1
  Fe  Fe10  1  0.99697851  0.99901805  0.50253520  1
  Fe  Fe11  1  0.25078298  0.71304047  0.46009559  1
  Fe  Fe12  1  0.24995874  0.20771248  0.95823730  1
  Fe  Fe13  1  0.21114492  0.96563822  0.24917571  1
  Fe  Fe14  1  0.28953691  0.54000530  0.75338988  1
  Fe  Fe15  1  0.03987303  0.74924893  0.78902912  1
  O  O16  1  0.99601945  0.04498034  0.26816964  1
  O  O17  1  0.97045841  0.49465593  0.22173413  1
  O  O18  1  0.95621288  0.74204443  0.99956071  1
  O  O19  1  0.77857814  0.05453306  0.51376208  1
  O  O20  1  0.72709405  0.22503346  0.27933418  1
  O  O21  1  0.43494528  0.44002883  0.23495013  1
  O  O22  1  0.77013245  0.73240471  0.28517582  1
  O  O23  1  0.43191184  0.23493393  0.44693374  1
  O  O24  1  0.72290348  0.01403013  0.95753778  1
  O  O25  1  0.76332342  0.53937281  0.56082199  1
  O  O26  1  0.72475428  0.28807130  0.76819909  1
  O  O27  1  0.50305202  0.75699000  0.03863139  1
  O  O28  1  0.23072464  0.45393423  0.46159778  1
  O  O29  1  0.28294457  0.74109993  0.22960315  1
  O  O30  1  0.49650944  0.23402111  0.94789796  1
  O  O31  1  0.54290464  0.76417915  0.54210037  1
  O  O32  1  0.28487485  0.99948510  0.04902131  1
  O  O33  1  0.22381483  0.27596280  0.72643334  1
  O  O34  1  0.54790866  0.54792977  0.76786234  1
  O  O35  1  0.03763149  0.25353796  0.97877583  1
  O  O36  1  0.27162354  0.76933501  0.72205527  1
  O  O37  1  0.22996179  0.95510323  0.49804423  1
  O  O38  1  0.06265218  0.51634507  0.79306111  1
  O  O39  1  0.00777893  0.94296854  0.72218162  1
