# generated using pymatgen
data_Li2VF4
_symmetry_space_group_name_H-M   'P 1'
_cell_length_a   8.20699853
_cell_length_b   8.20699812
_cell_length_c   8.20699821
_cell_angle_alpha   98.92066331
_cell_angle_beta   98.92066586
_cell_angle_gamma   98.92066031
_symmetry_Int_Tables_number   1
_chemical_formula_structural   Li2VF4
_chemical_formula_sum   'Li12 V6 F24'
_cell_volume   530.32568074
_cell_formula_units_Z   6
loop_
 _symmetry_equiv_pos_site_id
 _symmetry_equiv_pos_as_xyz
  1  'x, y, z'
loop_
 _atom_site_type_symbol
 _atom_site_label
 _atom_site_symmetry_multiplicity
 _atom_site_fract_x
 _atom_site_fract_y
 _atom_site_fract_z
 _atom_site_occupancy
  Li  Li0  1  0.16950134  0.71936921  0.88823071  1
  Li  Li1  1  0.11176929  0.83049866  0.28063079  1
  Li  Li2  1  0.24308497  0.56068974  0.47278542  1
  Li  Li3  1  0.28063079  0.11176929  0.83049866  1
  Li  Li4  1  0.43931026  0.52721458  0.75691503  1
  Li  Li5  1  0.47278542  0.24308497  0.56068974  1
  Li  Li6  1  0.52721458  0.75691503  0.43931026  1
  Li  Li7  1  0.56068974  0.47278542  0.24308497  1
  Li  Li8  1  0.71936921  0.88823071  0.16950134  1
  Li  Li9  1  0.75691503  0.43931026  0.52721458  1
  Li  Li10  1  0.88823071  0.16950134  0.71936921  1
  Li  Li11  1  0.83049866  0.28063079  0.11176929  1
  V  V12  1  0.08497234  0.18006541  0.44497743  1
  V  V13  1  0.18006541  0.44497743  0.08497234  1
  V  V14  1  0.55502257  0.91502766  0.81993459  1
  V  V15  1  0.44497743  0.08497234  0.18006541  1
  V  V16  1  0.81993459  0.55502257  0.91502766  1
  V  V17  1  0.91502766  0.81993459  0.55502257  1
  F  F18  1  0.09292807  0.70637353  0.44921255  1
  F  F19  1  0.05729150  0.66664572  0.08194335  1
  F  F20  1  0.33335428  0.91805665  0.94270850  1
  F  F21  1  0.08194335  0.05729150  0.66664572  1
  F  F22  1  0.29362647  0.55078745  0.90707193  1
  F  F23  1  0.04830186  0.32320003  0.25211850  1
  F  F24  1  0.43101618  0.71192244  0.63160695  1
  F  F25  1  0.28807756  0.36839305  0.56898382  1
  F  F26  1  0.36839305  0.56898382  0.28807756  1
  F  F27  1  0.25211850  0.04830186  0.32320003  1
  F  F28  1  0.44921255  0.09292807  0.70637353  1
  F  F29  1  0.32320003  0.25211850  0.04830186  1
  F  F30  1  0.67679997  0.74788150  0.95169814  1
  F  F31  1  0.55078745  0.90707193  0.29362647  1
  F  F32  1  0.74788150  0.95169814  0.67679997  1
  F  F33  1  0.63160695  0.43101618  0.71192244  1
  F  F34  1  0.71192244  0.63160695  0.43101618  1
  F  F35  1  0.56898382  0.28807756  0.36839305  1
  F  F36  1  0.95169814  0.67679997  0.74788150  1
  F  F37  1  0.70637353  0.44921255  0.09292807  1
  F  F38  1  0.91805665  0.94270850  0.33335428  1
  F  F39  1  0.66664572  0.08194335  0.05729150  1
  F  F40  1  0.94270850  0.33335428  0.91805665  1
  F  F41  1  0.90707193  0.29362647  0.55078745  1
