# generated using pymatgen
data_Li2Fe2C2O7
_symmetry_space_group_name_H-M   'P 1'
_cell_length_a   6.60875682
_cell_length_b   9.11094639
_cell_length_c   10.70430441
_cell_angle_alpha   101.69635007
_cell_angle_beta   90.00573320
_cell_angle_gamma   89.95192968
_symmetry_Int_Tables_number   1
_chemical_formula_structural   Li2Fe2C2O7
_chemical_formula_sum   'Li8 Fe8 C8 O28'
_cell_volume   631.14451119
_cell_formula_units_Z   4
loop_
 _symmetry_equiv_pos_site_id
 _symmetry_equiv_pos_as_xyz
  1  'x, y, z'
loop_
 _atom_site_type_symbol
 _atom_site_label
 _atom_site_symmetry_multiplicity
 _atom_site_fract_x
 _atom_site_fract_y
 _atom_site_fract_z
 _atom_site_occupancy
  Li  Li0  1  0.70611271  0.95172194  0.98458586  1
  Li  Li1  1  0.79332390  0.95178590  0.48472446  1
  Li  Li2  1  0.68760268  0.37511633  0.92145449  1
  Li  Li3  1  0.18765167  0.62507326  0.57861096  1
  Li  Li4  1  0.81253373  0.37503278  0.42140423  1
  Li  Li5  1  0.31244976  0.62488926  0.07852593  1
  Li  Li6  1  0.20656414  0.04828413  0.51548331  1
  Li  Li7  1  0.29370004  0.04829929  0.01532032  1
  Fe  Fe8  1  0.60284503  0.97866822  0.74028568  1
  Fe  Fe9  1  0.92055324  0.71633946  0.82501346  1
  Fe  Fe10  1  0.89766724  0.97775416  0.24024544  1
  Fe  Fe11  1  0.57949944  0.71637793  0.32506450  1
  Fe  Fe12  1  0.42027071  0.28372303  0.67489174  1
  Fe  Fe13  1  0.10256934  0.02184586  0.75986783  1
  Fe  Fe14  1  0.07928924  0.28351869  0.17485274  1
  Fe  Fe15  1  0.39733230  0.02171452  0.25968287  1
  C  C16  1  0.30494886  0.78187900  0.85664850  1
  C  C17  1  0.25430918  0.32743250  0.94839507  1
  C  C18  1  0.75409527  0.67276344  0.55146241  1
  C  C19  1  0.19505698  0.78180001  0.35677240  1
  C  C20  1  0.80506517  0.21816154  0.64331793  1
  C  C21  1  0.24585417  0.32736507  0.44842970  1
  C  C22  1  0.74584566  0.67265648  0.05154999  1
  C  C23  1  0.69498739  0.21801950  0.14338567  1
  O  O24  1  0.85870205  0.93743479  0.82872151  1
  O  O25  1  0.45716868  0.86999133  0.89596852  1
  O  O26  1  0.21484844  0.70639472  0.92930343  1
  O  O27  1  0.77510283  0.58873147  0.93807470  1
  O  O28  1  0.22970443  0.77969912  0.74286752  1
  O  O29  1  0.67438091  0.80540373  0.57514149  1
  O  O30  1  0.86564610  0.62135203  0.63263396  1
  O  O31  1  0.36517320  0.37857876  0.86739911  1
  O  O32  1  0.64120427  0.93730523  0.32864433  1
  O  O33  1  0.04248548  0.87029642  0.39576970  1
  O  O34  1  0.17428108  0.19470192  0.92487909  1
  O  O35  1  0.28482047  0.70668572  0.42942909  1
  O  O36  1  0.72490298  0.58871651  0.43814955  1
  O  O37  1  0.27027196  0.77952680  0.24285020  1
  O  O38  1  0.72976671  0.22033783  0.75712265  1
  O  O39  1  0.27472553  0.41128145  0.56183963  1
  O  O40  1  0.71509194  0.29336071  0.57059089  1
  O  O41  1  0.82571501  0.80542186  0.07505484  1
  O  O42  1  0.95771914  0.12990828  0.60427349  1
  O  O43  1  0.35878539  0.06269239  0.67143656  1
  O  O44  1  0.63483212  0.62155866  0.13259942  1
  O  O45  1  0.13478016  0.37874141  0.36716434  1
  O  O46  1  0.32565313  0.19462402  0.42486007  1
  O  O47  1  0.77012678  0.22030910  0.25722167  1
  O  O48  1  0.22519170  0.41125053  0.06200368  1
  O  O49  1  0.78495020  0.29323368  0.07063875  1
  O  O50  1  0.54265331  0.12977693  0.10416120  1
  O  O51  1  0.14117718  0.06246432  0.17122510  1
