# generated using pymatgen
data_LiVTe(WO6)2
_symmetry_space_group_name_H-M   'P 1'
_cell_length_a   5.34609718
_cell_length_b   10.76675338
_cell_length_c   9.41624185
_cell_angle_alpha   28.58482545
_cell_angle_beta   52.45411625
_cell_angle_gamma   57.51908604
_symmetry_Int_Tables_number   1
_chemical_formula_structural   LiVTe(WO6)2
_chemical_formula_sum   'Li1 V1 Te1 W2 O12'
_cell_volume   205.60720796
_cell_formula_units_Z   1
loop_
 _symmetry_equiv_pos_site_id
 _symmetry_equiv_pos_as_xyz
  1  'x, y, z'
loop_
 _atom_site_type_symbol
 _atom_site_label
 _atom_site_symmetry_multiplicity
 _atom_site_fract_x
 _atom_site_fract_y
 _atom_site_fract_z
 _atom_site_occupancy
  Li  Li0  1  0.75225453  0.99900156  0.77404097  1
  V  V1  1  0.99294925  0.99348583  0.97739727  1
  Te  Te2  1  0.99505952  0.50218768  0.00123367  1
  W  W3  1  0.45273880  0.49789202  0.51349519  1
  W  W4  1  0.52899003  0.99609651  0.47714011  1
  O  O5  1  0.35437838  0.30516164  0.13924515  1
  O  O6  1  0.24416402  0.08966365  0.65771688  1
  O  O7  1  0.14692237  0.29515673  0.75223495  1
  O  O8  1  0.85448485  0.20008364  0.24663046  1
  O  O9  1  0.35738213  0.80464944  0.13925729  1
  O  O10  1  0.75296801  0.38024937  0.36709296  1
  O  O11  1  0.24307004  0.60812603  0.64678874  1
  O  O12  1  0.66709608  0.20489522  0.82919553  1
  O  O13  1  0.12895215  0.80941210  0.75104887  1
  O  O14  1  0.84231832  0.71447628  0.23312132  1
  O  O15  1  0.75343532  0.89922596  0.34529670  1
  O  O16  1  0.64003421  0.70023632  0.85626093  1
