# generated using pymatgen
data_ZnNi9O10
_symmetry_space_group_name_H-M   'P 1'
_cell_length_a   5.99848092
_cell_length_b   5.19494860
_cell_length_c   6.70847343
_cell_angle_alpha   75.01823823
_cell_angle_beta   77.09430924
_cell_angle_gamma   73.21405905
_symmetry_Int_Tables_number   1
_chemical_formula_structural   ZnNi9O10
_chemical_formula_sum   'Zn1 Ni9 O10'
_cell_volume   190.82248119
_cell_formula_units_Z   1
loop_
 _symmetry_equiv_pos_site_id
 _symmetry_equiv_pos_as_xyz
  1  'x, y, z'
loop_
 _atom_site_type_symbol
 _atom_site_label
 _atom_site_symmetry_multiplicity
 _atom_site_fract_x
 _atom_site_fract_y
 _atom_site_fract_z
 _atom_site_occupancy
  Zn  Zn0  1  0.50000000  0.00000000  0.00000000  1
  Ni  Ni1  1  0.90056911  0.60005196  0.79915380  1
  Ni  Ni2  1  0.40000671  0.59865301  0.79985783  1
  Ni  Ni3  1  0.80081614  0.19997152  0.59810748  1
  Ni  Ni4  1  0.70043381  0.79901843  0.40109789  1
  Ni  Ni5  1  0.29956619  0.20098157  0.59890211  1
  Ni  Ni6  1  0.19918386  0.80002848  0.40189252  1
  Ni  Ni7  1  0.59999329  0.40134699  0.20014217  1
  Ni  Ni8  1  0.09943089  0.39994804  0.20084620  1
  Ni  Ni9  1  0.00000000  0.00000000  0.00000000  1
  O  O10  1  0.70193861  0.30406615  0.89993510  1
  O  O11  1  0.60126347  0.89946540  0.69596062  1
  O  O12  1  0.19657599  0.30275551  0.89907281  1
  O  O13  1  0.09945966  0.90093778  0.70021512  1
  O  O14  1  0.90054034  0.09906222  0.29978488  1
  O  O15  1  0.50000000  0.50000000  0.50000000  1
  O  O16  1  0.80342401  0.69724449  0.10092719  1
  O  O17  1  0.39873653  0.10053460  0.30403938  1
  O  O18  1  0.00000000  0.50000000  0.50000000  1
  O  O19  1  0.29806139  0.69593385  0.10006490  1
