# generated using pymatgen
data_NaMnO4
_symmetry_space_group_name_H-M   'P 1'
_cell_length_a   5.73517963
_cell_length_b   8.49504575
_cell_length_c   7.22191803
_cell_angle_alpha   90.00000000
_cell_angle_beta   92.11264449
_cell_angle_gamma   90.00000000
_symmetry_Int_Tables_number   1
_chemical_formula_structural   NaMnO4
_chemical_formula_sum   'Na4 Mn4 O16'
_cell_volume   351.61711296
_cell_formula_units_Z   4
loop_
 _symmetry_equiv_pos_site_id
 _symmetry_equiv_pos_as_xyz
  1  'x, y, z'
loop_
 _atom_site_type_symbol
 _atom_site_label
 _atom_site_symmetry_multiplicity
 _atom_site_fract_x
 _atom_site_fract_y
 _atom_site_fract_z
 _atom_site_occupancy
  Na  Na0  1  0.24925500  0.53272879  0.33629884  1
  Na  Na1  1  0.25074500  0.03272879  0.16370116  1
  Na  Na2  1  0.74925500  0.96727121  0.83629884  1
  Na  Na3  1  0.75074500  0.46727121  0.66370116  1
  Mn  Mn4  1  0.24366654  0.68754316  0.83792771  1
  Mn  Mn5  1  0.25633346  0.18754316  0.66207229  1
  Mn  Mn6  1  0.74366654  0.81245684  0.33792771  1
  Mn  Mn7  1  0.75633346  0.31245684  0.16207229  1
  O  O8  1  0.00967364  0.77558344  0.28361788  1
  O  O9  1  0.09831999  0.61886985  0.65838424  1
  O  O10  1  0.11835192  0.84734386  0.90751872  1
  O  O11  1  0.25336002  0.05894494  0.49792300  1
  O  O12  1  0.24663998  0.55894494  0.00207700  1
  O  O13  1  0.38164808  0.34734386  0.59248128  1
  O  O14  1  0.40168001  0.11886985  0.84161576  1
  O  O15  1  0.50967364  0.72441656  0.78361788  1
  O  O16  1  0.49032636  0.27558344  0.21638212  1
  O  O17  1  0.59831999  0.88113015  0.15838424  1
  O  O18  1  0.61835192  0.65265614  0.40751872  1
  O  O19  1  0.75336002  0.44105506  0.99792300  1
  O  O20  1  0.74663998  0.94105506  0.50207700  1
  O  O21  1  0.88164808  0.15265614  0.09248128  1
  O  O22  1  0.90168001  0.38113015  0.34161576  1
  O  O23  1  0.99032636  0.22441656  0.71638212  1
