# generated using pymatgen
data_Mn2OF3
_symmetry_space_group_name_H-M   'P 1'
_cell_length_a   4.88659541
_cell_length_b   4.88659541
_cell_length_c   15.87682677
_cell_angle_alpha   90.00000000
_cell_angle_beta   90.00000000
_cell_angle_gamma   93.59887310
_symmetry_Int_Tables_number   1
_chemical_formula_structural   Mn2OF3
_chemical_formula_sum   'Mn10 O5 F15'
_cell_volume   378.37216638
_cell_formula_units_Z   5
loop_
 _symmetry_equiv_pos_site_id
 _symmetry_equiv_pos_as_xyz
  1  'x, y, z'
loop_
 _atom_site_type_symbol
 _atom_site_label
 _atom_site_symmetry_multiplicity
 _atom_site_fract_x
 _atom_site_fract_y
 _atom_site_fract_z
 _atom_site_occupancy
  Mn  Mn0  1  0.02761272  0.02761272  0.39942494  1
  Mn  Mn1  1  0.96695572  0.96695572  0.19963666  1
  Mn  Mn2  1  0.96695572  0.96695572  0.00036334  1
  Mn  Mn3  1  0.02429997  0.02429997  0.60000000  1
  Mn  Mn4  1  0.02761272  0.02761272  0.80057506  1
  Mn  Mn5  1  0.49324177  0.49324177  0.49968678  1
  Mn  Mn6  1  0.49711010  0.49711010  0.10000000  1
  Mn  Mn7  1  0.49763008  0.49763008  0.29954927  1
  Mn  Mn8  1  0.49763008  0.49763008  0.90045073  1
  Mn  Mn9  1  0.49324177  0.49324177  0.70031322  1
  O  O10  1  0.32329886  0.32329886  0.39781711  1
  O  O11  1  0.31522619  0.31522619  0.60000000  1
  O  O12  1  0.32329886  0.32329886  0.80218289  1
  O  O13  1  0.67046578  0.67046578  0.00000585  1
  O  O14  1  0.67046578  0.67046578  0.19999415  1
  F  F15  1  0.19884884  0.79711166  0.90042289  1
  F  F16  1  0.17334793  0.78383041  0.10000000  1
  F  F17  1  0.19884884  0.79711166  0.29957711  1
  F  F18  1  0.20759951  0.82005423  0.50091375  1
  F  F19  1  0.20759951  0.82005423  0.69908625  1
  F  F20  1  0.28489949  0.28489949  0.00479780  1
  F  F21  1  0.28489949  0.28489949  0.19520220  1
  F  F22  1  0.71130122  0.71130122  0.40403280  1
  F  F23  1  0.70814562  0.70814562  0.60000000  1
  F  F24  1  0.71130122  0.71130122  0.79596720  1
  F  F25  1  0.78383041  0.17334793  0.10000000  1
  F  F26  1  0.79711166  0.19884884  0.29957711  1
  F  F27  1  0.82005423  0.20759951  0.50091375  1
  F  F28  1  0.79711166  0.19884884  0.90042289  1
  F  F29  1  0.82005423  0.20759951  0.69908625  1
