# generated using pymatgen
data_Mn6OF11
_symmetry_space_group_name_H-M   'P 1'
_cell_length_a   5.28401611
_cell_length_b   5.28401611
_cell_length_c   15.57780270
_cell_angle_alpha   92.10924653
_cell_angle_beta   92.10924653
_cell_angle_gamma   88.53846490
_symmetry_Int_Tables_number   1
_chemical_formula_structural   Mn6OF11
_chemical_formula_sum   'Mn12 O2 F22'
_cell_volume   434.22890521
_cell_formula_units_Z   2
loop_
 _symmetry_equiv_pos_site_id
 _symmetry_equiv_pos_as_xyz
  1  'x, y, z'
loop_
 _atom_site_type_symbol
 _atom_site_label
 _atom_site_symmetry_multiplicity
 _atom_site_fract_x
 _atom_site_fract_y
 _atom_site_fract_z
 _atom_site_occupancy
  Mn  Mn0  1  0.05659826  0.05659826  0.00011224  1
  Mn  Mn1  1  0.98579909  0.48252859  0.16300225  1
  Mn  Mn2  1  0.99973582  0.99973582  0.33029064  1
  Mn  Mn3  1  0.99935460  0.50151423  0.49988212  1
  Mn  Mn4  1  0.00821454  0.00821454  0.66699748  1
  Mn  Mn5  1  0.01659104  0.51352128  0.83684134  1
  Mn  Mn6  1  0.48252859  0.98579909  0.16300225  1
  Mn  Mn7  1  0.44312098  0.44312098  0.99940591  1
  Mn  Mn8  1  0.49951215  0.49951215  0.66958573  1
  Mn  Mn9  1  0.50151423  0.99935460  0.49988212  1
  Mn  Mn10  1  0.49121918  0.49121918  0.33294988  1
  Mn  Mn11  1  0.51352128  0.01659104  0.83684134  1
  O  O12  1  0.24354037  0.24354037  0.91881537  1
  O  O13  1  0.25663217  0.25663217  0.08080939  1
  F  F14  1  0.22703028  0.22703028  0.24995492  1
  F  F15  1  0.14573404  0.76737104  0.08106321  1
  F  F16  1  0.23300310  0.23300310  0.58192961  1
  F  F17  1  0.23052112  0.76667056  0.41673982  1
  F  F18  1  0.22514824  0.77382007  0.75488602  1
  F  F19  1  0.27436757  0.72698864  0.24621455  1
  F  F20  1  0.26919159  0.73406423  0.58451802  1
  F  F21  1  0.35412688  0.73402981  0.91979972  1
  F  F22  1  0.27274614  0.27274614  0.74929955  1
  F  F23  1  0.26700649  0.26700649  0.41716622  1
  F  F24  1  0.73402981  0.35412688  0.91979972  1
  F  F25  1  0.73406423  0.26919159  0.58451802  1
  F  F26  1  0.72698864  0.27436757  0.24621455  1
  F  F27  1  0.63928579  0.63928579  0.08389174  1
  F  F28  1  0.73160675  0.73160675  0.41437098  1
  F  F29  1  0.72500311  0.72500311  0.75760063  1
  F  F30  1  0.76667056  0.23052112  0.41673982  1
  F  F31  1  0.76737104  0.14573404  0.08106321  1
  F  F32  1  0.77382007  0.22514824  0.75488602  1
  F  F33  1  0.76881579  0.76881579  0.58400422  1
  F  F34  1  0.86043230  0.86043230  0.91573745  1
  F  F35  1  0.77515315  0.77515315  0.24118593  1
