# generated using pymatgen
data_Na3Li5Mn5O9
_symmetry_space_group_name_H-M   'P 1'
_cell_length_a   5.91144769
_cell_length_b   5.90764997
_cell_length_c   9.04844080
_cell_angle_alpha   101.78919345
_cell_angle_beta   94.85950781
_cell_angle_gamma   59.81276987
_symmetry_Int_Tables_number   1
_chemical_formula_structural   Na3Li5Mn5O9
_chemical_formula_sum   'Na3 Li5 Mn5 O9'
_cell_volume   267.32094012
_cell_formula_units_Z   1
loop_
 _symmetry_equiv_pos_site_id
 _symmetry_equiv_pos_as_xyz
  1  'x, y, z'
loop_
 _atom_site_type_symbol
 _atom_site_label
 _atom_site_symmetry_multiplicity
 _atom_site_fract_x
 _atom_site_fract_y
 _atom_site_fract_z
 _atom_site_occupancy
  Na  Na0  1  0.92098003  0.54685962  0.56645594  1
  Na  Na1  1  0.60596942  0.16430800  0.57368912  1
  Na  Na2  1  0.27245006  0.84840927  0.55943895  1
  Li  Li3  1  0.98374862  0.93837751  0.81867763  1
  Li  Li4  1  0.61245296  0.79369665  0.34787023  1
  Li  Li5  1  0.29076246  0.44197769  0.36377389  1
  Li  Li6  1  0.93555467  0.13075985  0.37402957  1
  Li  Li7  1  0.63140387  0.98698273  0.96533959  1
  Mn  Mn8  1  0.98129495  0.70138001  0.14832383  1
  Mn  Mn9  1  0.58545033  0.58545452  0.81944685  1
  Mn  Mn10  1  0.22759627  0.29360552  0.81868332  1
  Mn  Mn11  1  0.62753047  0.39595093  0.14483122  1
  Mn  Mn12  1  0.25483453  0.05139180  0.14450425  1
  O  O13  1  0.92223029  0.24417290  0.72619786  1
  O  O14  1  0.57487025  0.91783310  0.75546883  1
  O  O15  1  0.26038406  0.57208670  0.72935131  1
  O  O16  1  0.61114631  0.46785574  0.37357688  1
  O  O17  1  0.27455311  0.12328866  0.37362363  1
  O  O18  1  0.94861188  0.78997500  0.37729274  1
  O  O19  1  0.62505680  0.71071803  0.06432105  1
  O  O20  1  0.31152660  0.33143654  0.06012615  1
  O  O21  1  0.93500006  0.01617523  0.04984516  1
