# generated using pymatgen
data_LiV6O7F5
_symmetry_space_group_name_H-M   'P 1'
_cell_length_a   6.13815296
_cell_length_b   5.81366436
_cell_length_c   6.09138716
_cell_angle_alpha   98.79544545
_cell_angle_beta   100.73310288
_cell_angle_gamma   100.40312057
_symmetry_Int_Tables_number   1
_chemical_formula_structural   LiV6O7F5
_chemical_formula_sum   'Li1 V6 O7 F5'
_cell_volume   206.10792536
_cell_formula_units_Z   1
loop_
 _symmetry_equiv_pos_site_id
 _symmetry_equiv_pos_as_xyz
  1  'x, y, z'
loop_
 _atom_site_type_symbol
 _atom_site_label
 _atom_site_symmetry_multiplicity
 _atom_site_fract_x
 _atom_site_fract_y
 _atom_site_fract_z
 _atom_site_occupancy
  Li  Li0  1  0.00066648  0.99363096  0.98123773  1
  V  V1  1  0.13447830  0.30100119  0.60805219  1
  V  V2  1  0.38096454  0.85037453  0.66158662  1
  V  V3  1  0.34068993  0.59548599  0.15806744  1
  V  V4  1  0.66352283  0.40356271  0.85194999  1
  V  V5  1  0.60375740  0.15244052  0.34800141  1
  V  V6  1  0.87041316  0.68593975  0.40934873  1
  O  O7  1  0.07706514  0.93235782  0.65737754  1
  O  O8  1  0.17808673  0.56603133  0.41358791  1
  O  O9  1  0.41156436  0.57947865  0.82948671  1
  O  O10  1  0.42147972  0.18790056  0.57537991  1
  O  O11  1  0.58830486  0.82151605  0.42740338  1
  O  O12  1  0.58689825  0.41340701  0.17756302  1
  O  O13  1  0.82953648  0.42029148  0.59397475  1
  F  F14  1  0.09410594  0.32320443  0.94912073  1
  F  F15  1  0.31892430  0.93419312  0.10784276  1
  F  F16  1  0.67362408  0.05787096  0.88877280  1
  F  F17  1  0.90012464  0.68242411  0.06340384  1
  F  F18  1  0.92579385  0.09888783  0.29784456  1
