# generated using pymatgen
data_V3OF11
_symmetry_space_group_name_H-M   'P 1'
_cell_length_a   7.32589955
_cell_length_b   5.99007590
_cell_length_c   5.42947969
_cell_angle_alpha   97.52179518
_cell_angle_beta   99.24876131
_cell_angle_gamma   94.54921602
_symmetry_Int_Tables_number   1
_chemical_formula_structural   V3OF11
_chemical_formula_sum   'V3 O1 F11'
_cell_volume   231.90988122
_cell_formula_units_Z   1
loop_
 _symmetry_equiv_pos_site_id
 _symmetry_equiv_pos_as_xyz
  1  'x, y, z'
loop_
 _atom_site_type_symbol
 _atom_site_label
 _atom_site_symmetry_multiplicity
 _atom_site_fract_x
 _atom_site_fract_y
 _atom_site_fract_z
 _atom_site_occupancy
  V  V0  1  0.02898995  0.98816120  0.05805200  1
  V  V1  1  0.37081250  0.17033904  0.62630162  1
  V  V2  1  0.63352602  0.84035365  0.39635914  1
  O  O3  1  0.15956979  0.98328640  0.33246655  1
  F  F4  1  0.03626502  0.72387571  0.87405860  1
  F  F5  1  0.25361058  0.40104348  0.54635586  1
  F  F6  1  0.22283885  0.10513985  0.88582684  1
  F  F7  1  0.45885898  0.86567952  0.63618948  1
  F  F8  1  0.45392705  0.73338076  0.14023480  1
  F  F9  1  0.55834947  0.28980145  0.86508172  1
  F  F10  1  0.52296927  0.15539714  0.37248339  1
  F  F11  1  0.79605101  0.87819352  0.12781169  1
  F  F12  1  0.71385420  0.57884129  0.46677300  1
  F  F13  1  0.82435217  0.00722180  0.61679434  1
  F  F14  1  0.95892415  0.26338619  0.07146797  1
