# generated using pymatgen
data_Li3TiV3O8
_symmetry_space_group_name_H-M   'P 1'
_cell_length_a   5.91512032
_cell_length_b   5.91538088
_cell_length_c   9.66869879
_cell_angle_alpha   89.99606353
_cell_angle_beta   90.00202935
_cell_angle_gamma   60.00568797
_symmetry_Int_Tables_number   1
_chemical_formula_structural   Li3TiV3O8
_chemical_formula_sum   'Li6 Ti2 V6 O16'
_cell_volume   293.00150124
_cell_formula_units_Z   2
loop_
 _symmetry_equiv_pos_site_id
 _symmetry_equiv_pos_as_xyz
  1  'x, y, z'
loop_
 _atom_site_type_symbol
 _atom_site_label
 _atom_site_symmetry_multiplicity
 _atom_site_fract_x
 _atom_site_fract_y
 _atom_site_fract_z
 _atom_site_occupancy
  Li  Li0  1  0.17243426  0.17270574  0.55769255  1
  Li  Li1  1  0.65462437  0.17274311  0.55768472  1
  Li  Li2  1  0.17286004  0.65429854  0.55779705  1
  Li  Li3  1  0.82749286  0.34521895  0.05774940  1
  Li  Li4  1  0.34561228  0.82721796  0.05787442  1
  Li  Li5  1  0.82713455  0.82750743  0.05787392  1
  Ti  Ti6  1  0.33332564  0.33341025  0.00489227  1
  Ti  Ti7  1  0.66665343  0.66668759  0.50491477  1
  V  V8  1  0.16945301  0.16915146  0.28564083  1
  V  V9  1  0.66152952  0.16944731  0.28565577  1
  V  V10  1  0.16910861  0.66147449  0.28563924  1
  V  V11  1  0.83069035  0.33847885  0.78566289  1
  V  V12  1  0.33850684  0.83082791  0.78565780  1
  V  V13  1  0.83074042  0.83064818  0.78565157  1
  O  O14  1  0.00001773  0.99999826  0.17788513  1
  O  O15  1  0.99996606  0.00000698  0.67787731  1
  O  O16  1  0.16666508  0.16728489  0.91119069  1
  O  O17  1  0.48129664  0.03578304  0.15358192  1
  O  O18  1  0.03566767  0.48306831  0.15356048  1
  O  O19  1  0.33341485  0.33336426  0.40009420  1
  O  O20  1  0.66588698  0.16663502  0.91107580  1
  O  O21  1  0.48301983  0.48123435  0.15345789  1
  O  O22  1  0.16731972  0.66589204  0.91103235  1
  O  O23  1  0.83367009  0.33401241  0.41114210  1
  O  O24  1  0.51841479  0.51740032  0.65342534  1
  O  O25  1  0.96431001  0.51830020  0.65353959  1
  O  O26  1  0.66661586  0.66657112  0.90004143  1
  O  O27  1  0.33412629  0.83237899  0.41104689  1
  O  O28  1  0.51730370  0.96430611  0.65350721  1
  O  O29  1  0.83248651  0.83359093  0.41118148  1
