# generated using pymatgen
data_Li3Mn3(OF)4
_symmetry_space_group_name_H-M   'P 1'
_cell_length_a   5.79075075
_cell_length_b   6.04071180
_cell_length_c   6.06731496
_cell_angle_alpha   61.12457121
_cell_angle_beta   90.00000000
_cell_angle_gamma   118.64036617
_symmetry_Int_Tables_number   1
_chemical_formula_structural   Li3Mn3(OF)4
_chemical_formula_sum   'Li3 Mn3 O4 F4'
_cell_volume   155.53637387
_cell_formula_units_Z   1
loop_
 _symmetry_equiv_pos_site_id
 _symmetry_equiv_pos_as_xyz
  1  'x, y, z'
loop_
 _atom_site_type_symbol
 _atom_site_label
 _atom_site_symmetry_multiplicity
 _atom_site_fract_x
 _atom_site_fract_y
 _atom_site_fract_z
 _atom_site_occupancy
  Li  Li0  1  0.97293969  0.94587839  0.04110330  1
  Li  Li1  1  0.62500000  0.25000000  0.62500000  1
  Li  Li2  1  0.27706031  0.55412161  0.20889670  1
  Mn  Mn3  1  0.62500000  0.25000000  0.12500000  1
  Mn  Mn4  1  0.62500000  0.75000000  0.62500000  1
  Mn  Mn5  1  0.12500000  0.75000000  0.62500000  1
  O  O6  1  0.86447176  0.72894353  0.43040605  1
  O  O7  1  0.84018398  0.68036896  0.88027276  1
  O  O8  1  0.40981602  0.81963104  0.36972724  1
  O  O9  1  0.38552824  0.77105647  0.81959395  1
  F  F10  1  0.87774362  0.27286617  0.36310278  1
  F  F11  1  0.39512255  0.27286617  0.36310278  1
  F  F12  1  0.85487745  0.22713383  0.88689722  1
  F  F13  1  0.37225638  0.22713383  0.88689722  1
