# generated using pymatgen
data_LiVF6
_symmetry_space_group_name_H-M   'P 1'
_cell_length_a   5.33509797
_cell_length_b   10.45250350
_cell_length_c   10.36803693
_cell_angle_alpha   90.00000000
_cell_angle_beta   79.43880656
_cell_angle_gamma   90.00000000
_symmetry_Int_Tables_number   1
_chemical_formula_structural   LiVF6
_chemical_formula_sum   'Li4 V4 F24'
_cell_volume   568.38048108
_cell_formula_units_Z   4
loop_
 _symmetry_equiv_pos_site_id
 _symmetry_equiv_pos_as_xyz
  1  'x, y, z'
loop_
 _atom_site_type_symbol
 _atom_site_label
 _atom_site_symmetry_multiplicity
 _atom_site_fract_x
 _atom_site_fract_y
 _atom_site_fract_z
 _atom_site_occupancy
  Li  Li0  1  0.38978510  0.32357733  0.12005790  1
  Li  Li1  1  0.38978510  0.17642267  0.62005790  1
  Li  Li2  1  0.61021490  0.82357733  0.37994210  1
  Li  Li3  1  0.61021490  0.67642267  0.87994210  1
  V  V4  1  0.25286696  0.64718638  0.19828586  1
  V  V5  1  0.25286696  0.85281362  0.69828586  1
  V  V6  1  0.74713304  0.14718638  0.30171414  1
  V  V7  1  0.74713304  0.35281362  0.80171414  1
  F  F8  1  0.00275730  0.08777183  0.37249134  1
  F  F9  1  0.08340004  0.79171145  0.25344991  1
  F  F10  1  0.14945935  0.57391350  0.35309465  1
  F  F11  1  0.00275730  0.41222817  0.87249134  1
  F  F12  1  0.08340004  0.70828855  0.75344991  1
  F  F13  1  0.39142537  0.72095494  0.03837930  1
  F  F14  1  0.14945935  0.92608650  0.85309465  1
  F  F15  1  0.43371398  0.49942964  0.14360518  1
  F  F16  1  0.45975188  0.20834097  0.24541050  1
  F  F17  1  0.39142537  0.77904506  0.53837930  1
  F  F18  1  0.54024812  0.70834097  0.25458950  1
  F  F19  1  0.43371398  0.00057036  0.64360518  1
  F  F20  1  0.56628602  0.99942964  0.35639482  1
  F  F21  1  0.45975188  0.29165903  0.74541050  1
  F  F22  1  0.60857463  0.22095494  0.46162070  1
  F  F23  1  0.54024812  0.79165903  0.75458950  1
  F  F24  1  0.56628602  0.50057036  0.85639482  1
  F  F25  1  0.85054065  0.07391350  0.14690535  1
  F  F26  1  0.60857463  0.27904506  0.96162070  1
  F  F27  1  0.91659996  0.29171145  0.24655009  1
  F  F28  1  0.99724270  0.58777183  0.12750866  1
  F  F29  1  0.85054065  0.42608650  0.64690535  1
  F  F30  1  0.91659996  0.20828855  0.74655009  1
  F  F31  1  0.99724270  0.91222817  0.62750866  1
