# generated using pymatgen
data_Nb2O5
_symmetry_space_group_name_H-M   'P 1'
_cell_length_a   11.57883381
_cell_length_b   7.78651459
_cell_length_c   11.48582723
_cell_angle_alpha   99.73815405
_cell_angle_beta   91.98050723
_cell_angle_gamma   80.32455935
_symmetry_Int_Tables_number   1
_chemical_formula_structural   Nb2O5
_chemical_formula_sum   'Nb20 O50'
_cell_volume   1006.08892406
_cell_formula_units_Z   10
loop_
 _symmetry_equiv_pos_site_id
 _symmetry_equiv_pos_as_xyz
  1  'x, y, z'
loop_
 _atom_site_type_symbol
 _atom_site_label
 _atom_site_symmetry_multiplicity
 _atom_site_fract_x
 _atom_site_fract_y
 _atom_site_fract_z
 _atom_site_occupancy
  Nb  Nb0  1  0.88244975  0.10829311  0.32078035  1
  Nb  Nb1  1  0.89038899  0.61008988  0.32572813  1
  Nb  Nb2  1  0.55883394  0.16994529  0.20702151  1
  Nb  Nb3  1  0.56111844  0.65425437  0.20904232  1
  Nb  Nb4  1  0.80090555  0.43775990  0.55364075  1
  Nb  Nb5  1  0.78645049  0.94254850  0.55598808  1
  Nb  Nb6  1  0.32396157  0.94631946  0.11354035  1
  Nb  Nb7  1  0.32210481  0.44864889  0.11366600  1
  Nb  Nb8  1  0.47788139  0.98439226  0.41459654  1
  Nb  Nb9  1  0.00106086  0.99918377  0.99782196  1
  Nb  Nb10  1  0.99893914  0.50081623  0.00217804  1
  Nb  Nb11  1  0.52211861  0.51560774  0.58540346  1
  Nb  Nb12  1  0.67603843  0.55368054  0.88645965  1
  Nb  Nb13  1  0.67789519  0.05135111  0.88633400  1
  Nb  Nb14  1  0.19909445  0.06224010  0.44635925  1
  Nb  Nb15  1  0.21354951  0.55745150  0.44401192  1
  Nb  Nb16  1  0.44116606  0.33005471  0.79297849  1
  Nb  Nb17  1  0.43888156  0.84574563  0.79095768  1
  Nb  Nb18  1  0.11755025  0.39170689  0.67921965  1
  Nb  Nb19  1  0.10961101  0.88991012  0.67427187  1
  O  O20  1  0.93196051  0.55835832  0.16451862  1
  O  O21  1  0.93196175  0.05835219  0.16525120  1
  O  O22  1  0.60921710  0.10156917  0.03902497  1
  O  O23  1  0.60825521  0.61276232  0.03747419  1
  O  O24  1  0.86174292  0.87571916  0.36099136  1
  O  O25  1  0.86303796  0.37450186  0.36405479  1
  O  O26  1  0.70844631  0.14407726  0.26815065  1
  O  O27  1  0.70967626  0.63529526  0.26777437  1
  O  O28  1  0.95953085  0.41328390  0.61291497  1
  O  O29  1  0.95871008  0.91273130  0.61118590  1
  O  O30  1  0.51001141  0.42054851  0.19164330  1
  O  O31  1  0.51186636  0.92332580  0.20651703  1
  O  O32  1  0.81165850  0.17300001  0.51051700  1
  O  O33  1  0.81210579  0.67592346  0.50959196  1
  O  O34  1  0.36311797  0.19287728  0.13550007  1
  O  O35  1  0.36170280  0.69380684  0.13706831  1
  O  O36  1  0.63845677  0.45793460  0.47109790  1
  O  O37  1  0.63241693  0.96147126  0.47801440  1
  O  O38  1  0.47859843  0.73443001  0.36029010  1
  O  O39  1  0.47835441  0.20635476  0.35976306  1
  O  O40  1  0.16512983  0.47521334  0.06733051  1
  O  O41  1  0.16615944  0.97643785  0.07208163  1
  O  O42  1  0.71511550  0.49491543  0.69456475  1
  O  O43  1  0.73079655  0.99387833  0.70685336  1
  O  O44  1  0.00000000  0.25000000  0.00000000  1
  O  O45  1  0.00000000  0.75000000  0.00000000  1
  O  O46  1  0.28488450  0.00508457  0.30543525  1
  O  O47  1  0.26920345  0.50612167  0.29314664  1
  O  O48  1  0.83487017  0.02478666  0.93266949  1
  O  O49  1  0.83384056  0.52356215  0.92791837  1
  O  O50  1  0.52164559  0.29364524  0.64023694  1
  O  O51  1  0.52140157  0.76556999  0.63970990  1
  O  O52  1  0.36154323  0.04206540  0.52890210  1
  O  O53  1  0.36758307  0.53852874  0.52198560  1
  O  O54  1  0.63829720  0.80619316  0.86293169  1
  O  O55  1  0.63688203  0.30712272  0.86449993  1
  O  O56  1  0.18834150  0.32699999  0.48948300  1
  O  O57  1  0.18789421  0.82407654  0.49040804  1
  O  O58  1  0.48813364  0.57667420  0.79348297  1
  O  O59  1  0.48998859  0.07945149  0.80835670  1
  O  O60  1  0.04046915  0.08671610  0.38708503  1
  O  O61  1  0.04128992  0.58726870  0.38881410  1
  O  O62  1  0.29155369  0.35592274  0.73184935  1
  O  O63  1  0.29032374  0.86470474  0.73222563  1
  O  O64  1  0.13696204  0.12549814  0.63594521  1
  O  O65  1  0.13825708  0.62428084  0.63900864  1
  O  O66  1  0.39078290  0.39843083  0.96097503  1
  O  O67  1  0.39174479  0.88723768  0.96252581  1
  O  O68  1  0.06803825  0.44164781  0.83474880  1
  O  O69  1  0.06803949  0.94164168  0.83548138  1
