# generated using pymatgen
data_Bi24Br10O31
_symmetry_space_group_name_H-M   'P 1'
_cell_length_a   10.57780450
_cell_length_b   15.50291891
_cell_length_c   8.06187435
_cell_angle_alpha   97.59866442
_cell_angle_beta   90.27949266
_cell_angle_gamma   90.28126266
_symmetry_Int_Tables_number   1
_chemical_formula_structural   Bi24Br10O31
_chemical_formula_sum   'Bi24 Br10 O31'
_cell_volume   1310.39583724
_cell_formula_units_Z   1
loop_
 _symmetry_equiv_pos_site_id
 _symmetry_equiv_pos_as_xyz
  1  'x, y, z'
loop_
 _atom_site_type_symbol
 _atom_site_label
 _atom_site_symmetry_multiplicity
 _atom_site_fract_x
 _atom_site_fract_y
 _atom_site_fract_z
 _atom_site_occupancy
  Bi  Bi0  1  0.08269111  0.69592261  0.67849061  1
  Bi  Bi1  1  0.05856651  0.69141870  0.14693053  1
  Bi  Bi2  1  0.06753970  0.09500663  0.46355646  1
  Bi  Bi3  1  0.07427249  0.08793411  0.98369123  1
  Bi  Bi4  1  0.25026538  0.93134275  0.72482570  1
  Bi  Bi5  1  0.20718422  0.93012798  0.22443651  1
  Bi  Bi6  1  0.25147729  0.35220240  0.61023265  1
  Bi  Bi7  1  0.25427471  0.35277275  0.11167164  1
  Bi  Bi8  1  0.38684400  0.17178922  0.80136704  1
  Bi  Bi9  1  0.39008279  0.17273817  0.29972523  1
  Bi  Bi10  1  0.43530685  0.59164006  0.15053050  1
  Bi  Bi11  1  0.44896850  0.59391856  0.65219222  1
  Bi  Bi12  1  0.54936652  0.40768169  0.85695037  1
  Bi  Bi13  1  0.54996783  0.40879812  0.35688066  1
  Bi  Bi14  1  0.61160971  0.82452128  0.71001622  1
  Bi  Bi15  1  0.60214824  0.83039018  0.21336502  1
  Bi  Bi16  1  0.74776006  0.65248686  0.94573119  1
  Bi  Bi17  1  0.75097767  0.65412333  0.41445701  1
  Bi  Bi18  1  0.79109088  0.06460952  0.76492992  1
  Bi  Bi19  1  0.75227793  0.06660308  0.27688416  1
  Bi  Bi20  1  0.89825356  0.89834938  0.99915788  1
  Bi  Bi21  1  0.94302479  0.88524353  0.51716386  1
  Bi  Bi22  1  0.91085925  0.31208547  0.81265606  1
  Bi  Bi23  1  0.91072136  0.30598710  0.31971338  1
  Br  Br24  1  0.20613453  0.53050148  0.88123003  1
  Br  Br25  1  0.19917827  0.53101802  0.38036083  1
  Br  Br26  1  0.35715286  0.75617888  0.43886631  1
  Br  Br27  1  0.34323632  0.75789728  0.93986842  1
  Br  Br28  1  0.49964527  0.00263280  0.00302531  1
  Br  Br29  1  0.50915231  0.99833584  0.50611199  1
  Br  Br30  1  0.65199186  0.24531308  0.06890611  1
  Br  Br31  1  0.65734674  0.24584098  0.57024886  1
  Br  Br32  1  0.83673534  0.46720696  0.59864496  1
  Br  Br33  1  0.84472884  0.45469816  0.09999268  1
  O  O34  1  0.97718421  0.00747440  0.76671046  1
  O  O35  1  0.02898543  0.00120191  0.23339968  1
  O  O36  1  0.08926505  0.83373226  0.68901760  1
  O  O37  1  0.05284528  0.82619852  0.23125668  1
  O  O38  1  0.15420452  0.95224615  0.96437936  1
  O  O39  1  0.14094129  0.96022153  0.50338637  1
  O  O40  1  0.10646598  0.31947392  0.80654059  1
  O  O41  1  0.10664278  0.31061947  0.31822050  1
  O  O42  1  0.23040669  0.08143274  0.77834849  1
  O  O43  1  0.23519344  0.08572615  0.27785942  1
  O  O44  1  0.30565737  0.21392166  0.56003297  1
  O  O45  1  0.30279355  0.21345175  0.05786317  1
  O  O46  1  0.37277727  0.32918360  0.83609322  1
  O  O47  1  0.37431148  0.32880829  0.33318173  1
  O  O48  1  0.46447141  0.44329654  0.61517159  1
  O  O49  1  0.45857679  0.44138424  0.11424895  1
  O  O50  1  0.52807389  0.55345121  0.38906660  1
  O  O51  1  0.53399393  0.55333327  0.89489795  1
  O  O52  1  0.62958448  0.67687705  0.68032936  1
  O  O53  1  0.61190934  0.67533955  0.16386119  1
  O  O54  1  0.70610301  0.79181668  0.96151902  1
  O  O55  1  0.68882355  0.79090423  0.44560888  1
  O  O56  1  0.76566833  0.91753294  0.22258788  1
  O  O57  1  0.78287654  0.90274492  0.73990565  1
  O  O58  1  0.91951097  0.71751908  0.53887617  1
  O  O59  1  0.86129583  0.68064733  0.18779845  1
  O  O60  1  0.84205276  0.03976292  0.03151154  1
  O  O61  1  0.86143988  0.03733756  0.49408922  1
  O  O62  1  0.92539976  0.17922995  0.83238244  1
  O  O63  1  0.91571152  0.16974090  0.30629793  1
  O  O64  1  0.97449796  0.70643837  0.90583235  1
