# generated using pymatgen
data_LiNi(PO3)3
_symmetry_space_group_name_H-M   'P 1'
_cell_length_a   7.10640699
_cell_length_b   7.23101155
_cell_length_c   6.79298027
_cell_angle_alpha   101.59827232
_cell_angle_beta   96.40158880
_cell_angle_gamma   83.80993073
_symmetry_Int_Tables_number   1
_chemical_formula_structural   LiNi(PO3)3
_chemical_formula_sum   'Li2 Ni2 P6 O18'
_cell_volume   338.49755149
_cell_formula_units_Z   2
loop_
 _symmetry_equiv_pos_site_id
 _symmetry_equiv_pos_as_xyz
  1  'x, y, z'
loop_
 _atom_site_type_symbol
 _atom_site_label
 _atom_site_symmetry_multiplicity
 _atom_site_fract_x
 _atom_site_fract_y
 _atom_site_fract_z
 _atom_site_occupancy
  Li  Li0  1  0.27579607  0.12908517  0.91418339  1
  Li  Li1  1  0.72420393  0.87091483  0.08581661  1
  Ni  Ni2  1  0.16231477  0.14770745  0.43860612  1
  Ni  Ni3  1  0.83768523  0.85229255  0.56139388  1
  P  P4  1  0.15009428  0.54674926  0.76379722  1
  P  P5  1  0.29358264  0.77881486  0.14348855  1
  P  P6  1  0.37962728  0.77917681  0.57556568  1
  P  P7  1  0.62037272  0.22082319  0.42443432  1
  P  P8  1  0.70641736  0.22118514  0.85651145  1
  P  P9  1  0.84990572  0.45325074  0.23620278  1
  O  O10  1  0.02927284  0.33475606  0.28109233  1
  O  O11  1  0.15418979  0.33356715  0.71090526  1
  O  O12  1  0.13435999  0.93344642  0.18854302  1
  O  O13  1  0.23241802  0.94809542  0.62270216  1
  O  O14  1  0.21018186  0.59137616  0.00252148  1
  O  O15  1  0.32694626  0.60707591  0.66805422  1
  O  O16  1  0.35479160  0.68607645  0.34047427  1
  O  O17  1  0.41665837  0.18907123  0.36167819  1
  O  O18  1  0.53824116  0.17628365  0.94493821  1
  O  O19  1  0.46175884  0.82371635  0.05506179  1
  O  O20  1  0.58334163  0.81092877  0.63832181  1
  O  O21  1  0.64520840  0.31392355  0.65952573  1
  O  O22  1  0.67305374  0.39292409  0.33194578  1
  O  O23  1  0.78981814  0.40862384  0.99747852  1
  O  O24  1  0.76758198  0.05190458  0.37729784  1
  O  O25  1  0.86564001  0.06655358  0.81145698  1
  O  O26  1  0.84581021  0.66643285  0.28909474  1
  O  O27  1  0.97072716  0.66524394  0.71890767  1
