# generated using pymatgen
data_Li4V3P8O29
_symmetry_space_group_name_H-M   'P 1'
_cell_length_a   9.79163537
_cell_length_b   9.77219942
_cell_length_c   14.10927178
_cell_angle_alpha   89.92652341
_cell_angle_beta   90.10579400
_cell_angle_gamma   59.87008464
_symmetry_Int_Tables_number   1
_chemical_formula_structural   Li4V3P8O29
_chemical_formula_sum   'Li8 V6 P16 O58'
_cell_volume   1167.64438881
_cell_formula_units_Z   2
loop_
 _symmetry_equiv_pos_site_id
 _symmetry_equiv_pos_as_xyz
  1  'x, y, z'
loop_
 _atom_site_type_symbol
 _atom_site_label
 _atom_site_symmetry_multiplicity
 _atom_site_fract_x
 _atom_site_fract_y
 _atom_site_fract_z
 _atom_site_occupancy
  Li  Li0  1  0.90345534  0.77164189  0.05965717  1
  Li  Li1  1  0.77487208  0.31298861  0.05769420  1
  Li  Li2  1  0.31283464  0.91468449  0.06215898  1
  Li  Li3  1  0.66985527  0.23215584  0.43954679  1
  Li  Li4  1  0.32799410  0.76433715  0.55591195  1
  Li  Li5  1  0.22355535  0.68677908  0.94500325  1
  Li  Li6  1  0.23466593  0.10003560  0.43992029  1
  Li  Li7  1  0.97706757  0.97245064  0.49580315  1
  V  V8  1  0.56874186  0.43183545  0.25006250  1
  V  V9  1  0.43755941  0.56264107  0.74880468  1
  V  V10  1  0.56984992  0.99606416  0.75219828  1
  V  V11  1  0.43450179  0.00242503  0.24769362  1
  V  V12  1  0.00317135  0.56316404  0.25751638  1
  V  V13  1  0.99929266  0.43462345  0.74520798  1
  P  P14  1  0.91479306  0.76852041  0.84126696  1
  P  P15  1  0.77474160  0.91682824  0.34066589  1
  P  P16  1  0.91854429  0.30551111  0.34264033  1
  P  P17  1  0.66986614  0.66514989  0.13097393  1
  P  P18  1  0.66322652  0.66928743  0.63069057  1
  P  P19  1  0.77570668  0.31660979  0.83972995  1
  P  P20  1  0.68768817  0.22179945  0.65927295  1
  P  P21  1  0.31841053  0.90971149  0.84401858  1
  P  P22  1  0.68499221  0.08545403  0.15597480  1
  P  P23  1  0.31647930  0.77370887  0.34206498  1
  P  P24  1  0.22911781  0.68035345  0.16186087  1
  P  P25  1  0.33519674  0.33110477  0.37230495  1
  P  P26  1  0.33167993  0.33438341  0.86728121  1
  P  P27  1  0.08506247  0.69429618  0.65705904  1
  P  P28  1  0.22894989  0.08532474  0.66105201  1
  P  P29  1  0.08316697  0.23284915  0.15650301  1
  O  O30  1  0.00476853  0.79669549  0.57447525  1
  O  O31  1  0.91498783  0.74306188  0.33366285  1
  O  O32  1  0.76492505  0.99305840  0.07040888  1
  O  O33  1  0.74568985  0.91282837  0.83545670  1
  O  O34  1  0.90682179  0.61721549  0.82088700  1
  O  O35  1  0.81670912  0.66766095  0.17639921  1
  O  O36  1  0.91672068  0.46576502  0.33099499  1
  O  O37  1  0.99160329  0.24506275  0.07034295  1
  O  O38  1  0.91801447  0.34286664  0.82983758  1
  O  O39  1  0.66577079  0.81436977  0.67700052  1
  O  O40  1  0.61801931  0.91944252  0.33204149  1
  O  O41  1  0.81093195  0.51967993  0.67325666  1
  O  O42  1  0.67647087  0.66391656  0.02531349  1
  O  O43  1  0.65029032  0.67494046  0.52588111  1
  O  O44  1  0.67271401  0.51255638  0.17086708  1
  O  O45  1  0.47759212  0.90238660  0.82369391  1
  O  O46  1  0.51534476  0.81387910  0.16887982  1
  O  O47  1  0.74608972  0.33793468  0.34027674  1
  O  O48  1  0.79518934  0.20469514  0.75012216  1
  O  O49  1  0.76596582  0.21578018  0.56781806  1
  O  O50  1  0.76185862  0.24992827  0.93074003  1
  O  O51  1  0.62123892  0.47773637  0.81747910  1
  O  O52  1  0.50870959  0.67401071  0.67235015  1
  O  O53  1  0.66139567  0.25480183  0.15827665  1
  O  O54  1  0.47226294  0.61849442  0.32857372  1
  O  O55  1  0.34242685  0.91805150  0.33353145  1
  O  O56  1  0.79384888  0.00179881  0.24783776  1
  O  O57  1  0.79350551  0.00113985  0.42358994  1
  O  O58  1  0.22832517  0.99990452  0.57265954  1
  O  O59  1  0.65583095  0.08289059  0.66985688  1
  O  O60  1  0.52915366  0.38042762  0.67432495  1
  O  O61  1  0.33986469  0.74009535  0.83815429  1
  O  O62  1  0.48879073  0.32294548  0.33353872  1
  O  O63  1  0.37985381  0.51934098  0.18011541  1
  O  O64  1  0.24100914  0.75719921  0.07213414  1
  O  O65  1  0.22961259  0.78775138  0.43175987  1
  O  O66  1  0.20685058  0.79226373  0.25087770  1
  O  O67  1  0.26079333  0.65686366  0.66221376  1
  O  O68  1  0.47670384  0.18342690  0.82472099  1
  O  O69  1  0.52331597  0.09633120  0.17668761  1
  O  O70  1  0.33550705  0.48442919  0.82472649  1
  O  O71  1  0.32582236  0.34530846  0.97198866  1
  O  O72  1  0.32541129  0.33851485  0.47752195  1
  O  O73  1  0.18803207  0.48402581  0.32473658  1
  O  O74  1  0.38461958  0.08652228  0.67467397  1
  O  O75  1  0.32304056  0.18843616  0.33228518  1
  O  O76  1  0.08102074  0.66212768  0.16200151  1
  O  O77  1  0.00981107  0.79015092  0.75531613  1
  O  O78  1  0.99899322  0.75703488  0.93223743  1
  O  O79  1  0.07918473  0.53928568  0.66757432  1
  O  O80  1  0.18304906  0.34282667  0.81835272  1
  O  O81  1  0.09173035  0.38414267  0.17962605  1
  O  O82  1  0.25191896  0.08649872  0.15849108  1
  O  O83  1  0.24550492  0.98764943  0.93485337  1
  O  O84  1  0.20718083  0.99967580  0.75326101  1
  O  O85  1  0.08742876  0.25661460  0.66426492  1
  O  O86  1  0.00807422  0.20878272  0.42645952  1
  O  O87  1  0.99778056  0.20739188  0.24794774  1
