# generated using pymatgen
data_VCu2HO5
_symmetry_space_group_name_H-M   'P 1'
_cell_length_a   15.16582075
_cell_length_b   6.11754887
_cell_length_c   8.59178494
_cell_angle_alpha   90.00000000
_cell_angle_beta   90.00000000
_cell_angle_gamma   90.00000000
_symmetry_Int_Tables_number   1
_chemical_formula_structural   VCu2HO5
_chemical_formula_sum   'V8 Cu16 H8 O40'
_cell_volume   797.12561253
_cell_formula_units_Z   8
loop_
 _symmetry_equiv_pos_site_id
 _symmetry_equiv_pos_as_xyz
  1  'x, y, z'
loop_
 _atom_site_type_symbol
 _atom_site_label
 _atom_site_symmetry_multiplicity
 _atom_site_fract_x
 _atom_site_fract_y
 _atom_site_fract_z
 _atom_site_occupancy
  V  V0  1  0.07936944  0.25000000  0.81343152  1
  V  V1  1  0.15404615  0.75000000  0.47197288  1
  V  V2  1  0.34595385  0.25000000  0.97197288  1
  V  V3  1  0.42063056  0.75000000  0.31343152  1
  V  V4  1  0.57936944  0.25000000  0.68656848  1
  V  V5  1  0.65404615  0.75000000  0.02802712  1
  V  V6  1  0.84595385  0.25000000  0.52802712  1
  V  V7  1  0.92063056  0.75000000  0.18656848  1
  Cu  Cu8  1  0.07321209  0.25000000  0.41462219  1
  Cu  Cu9  1  0.13779655  0.50526352  0.13015011  1
  Cu  Cu10  1  0.13779655  0.99473648  0.13015011  1
  Cu  Cu11  1  0.21539395  0.75000000  0.84962500  1
  Cu  Cu12  1  0.28460605  0.25000000  0.34962500  1
  Cu  Cu13  1  0.36220345  0.00526352  0.63015011  1
  Cu  Cu14  1  0.36220345  0.49473648  0.63015011  1
  Cu  Cu15  1  0.42678791  0.75000000  0.91462219  1
  Cu  Cu16  1  0.57321209  0.25000000  0.08537781  1
  Cu  Cu17  1  0.63779655  0.50526352  0.36984989  1
  Cu  Cu18  1  0.63779655  0.99473648  0.36984989  1
  Cu  Cu19  1  0.71539395  0.75000000  0.65037500  1
  Cu  Cu20  1  0.78460605  0.25000000  0.15037500  1
  Cu  Cu21  1  0.86220345  0.00526352  0.86984989  1
  Cu  Cu22  1  0.86220345  0.49473648  0.86984989  1
  Cu  Cu23  1  0.92678791  0.75000000  0.58537781  1
  H  H24  1  0.00209639  0.25000000  0.14485630  1
  H  H25  1  0.22117211  0.25000000  0.61337882  1
  H  H26  1  0.27882789  0.75000000  0.11337882  1
  H  H27  1  0.49790361  0.75000000  0.64485630  1
  H  H28  1  0.50209639  0.25000000  0.35514370  1
  H  H29  1  0.72117211  0.25000000  0.88662118  1
  H  H30  1  0.77882789  0.75000000  0.38662118  1
  H  H31  1  0.99790361  0.75000000  0.85514370  1
  O  O32  1  0.03252081  0.75000000  0.17272272  1
  O  O33  1  0.05078319  0.75000000  0.54512404  1
  O  O34  1  0.06310108  0.25000000  0.18455098  1
  O  O35  1  0.11535731  0.25000000  0.62063148  1
  O  O36  1  0.12119251  0.01012993  0.90350762  1
  O  O37  1  0.12119251  0.48987007  0.90350762  1
  O  O38  1  0.17177161  0.50691881  0.35518766  1
  O  O39  1  0.17177161  0.99308119  0.35518766  1
  O  O40  1  0.21506147  0.75000000  0.07730890  1
  O  O41  1  0.22791065  0.75000000  0.62886360  1
  O  O42  1  0.27208935  0.25000000  0.12886360  1
  O  O43  1  0.28493853  0.25000000  0.57730890  1
  O  O44  1  0.32822839  0.00691881  0.85518766  1
  O  O45  1  0.32822839  0.49308119  0.85518766  1
  O  O46  1  0.37880749  0.51012993  0.40350762  1
  O  O47  1  0.37880749  0.98987007  0.40350762  1
  O  O48  1  0.38464269  0.75000000  0.12063148  1
  O  O49  1  0.43689892  0.75000000  0.68455098  1
  O  O50  1  0.44921681  0.25000000  0.04512404  1
  O  O51  1  0.46747919  0.25000000  0.67272272  1
  O  O52  1  0.53252081  0.75000000  0.32727728  1
  O  O53  1  0.55078319  0.75000000  0.95487596  1
  O  O54  1  0.56310108  0.25000000  0.31544902  1
  O  O55  1  0.61535731  0.25000000  0.87936852  1
  O  O56  1  0.62119251  0.01012993  0.59649238  1
  O  O57  1  0.62119251  0.48987007  0.59649238  1
  O  O58  1  0.67177161  0.50691881  0.14481234  1
  O  O59  1  0.67177161  0.99308119  0.14481234  1
  O  O60  1  0.71506147  0.75000000  0.42269110  1
  O  O61  1  0.72791065  0.75000000  0.87113640  1
  O  O62  1  0.77208935  0.25000000  0.37113640  1
  O  O63  1  0.78493853  0.25000000  0.92269110  1
  O  O64  1  0.82822839  0.00691881  0.64481234  1
  O  O65  1  0.82822839  0.49308119  0.64481234  1
  O  O66  1  0.87880749  0.51012993  0.09649238  1
  O  O67  1  0.87880749  0.98987007  0.09649238  1
  O  O68  1  0.88464269  0.75000000  0.37936852  1
  O  O69  1  0.93689892  0.75000000  0.81544902  1
  O  O70  1  0.94921681  0.25000000  0.45487596  1
  O  O71  1  0.96747919  0.25000000  0.82727728  1
