# generated using pymatgen
data_Li4V3P8O29
_symmetry_space_group_name_H-M   'P 1'
_cell_length_a   9.78924830
_cell_length_b   9.75166713
_cell_length_c   14.07993299
_cell_angle_alpha   90.08720019
_cell_angle_beta   90.25840460
_cell_angle_gamma   60.10301305
_symmetry_Int_Tables_number   1
_chemical_formula_structural   Li4V3P8O29
_chemical_formula_sum   'Li8 V6 P16 O58'
_cell_volume   1165.21143387
_cell_formula_units_Z   2
loop_
 _symmetry_equiv_pos_site_id
 _symmetry_equiv_pos_as_xyz
  1  'x, y, z'
loop_
 _atom_site_type_symbol
 _atom_site_label
 _atom_site_symmetry_multiplicity
 _atom_site_fract_x
 _atom_site_fract_y
 _atom_site_fract_z
 _atom_site_occupancy
  Li  Li0  1  0.91306578  0.77380260  0.05809960  1
  Li  Li1  1  0.77450538  0.31256019  0.06125635  1
  Li  Li2  1  0.32406065  0.90328951  0.06101548  1
  Li  Li3  1  0.66520615  0.23788619  0.43930390  1
  Li  Li4  1  0.33324074  0.76827406  0.55579285  1
  Li  Li5  1  0.09365822  0.67195697  0.43888471  1
  Li  Li6  1  0.09114381  0.22574330  0.94225520  1
  Li  Li7  1  0.99486994  0.04267806  0.49756026  1
  V  V8  1  0.56750124  0.43225263  0.24694799  1
  V  V9  1  0.43355493  0.56453676  0.75626088  1
  V  V10  1  0.56914197  0.99748995  0.74838179  1
  V  V11  1  0.43345935  0.00431817  0.25600243  1
  V  V12  1  0.99919048  0.56571852  0.25201565  1
  V  V13  1  0.99601951  0.43706473  0.74154625  1
  P  P14  1  0.91233212  0.77029194  0.84038545  1
  P  P15  1  0.77531580  0.91848760  0.34276255  1
  P  P16  1  0.91463989  0.30789536  0.34189721  1
  P  P17  1  0.66491494  0.67024035  0.13017994  1
  P  P18  1  0.66043614  0.66903818  0.63000187  1
  P  P19  1  0.77448904  0.31700555  0.84148820  1
  P  P20  1  0.68502148  0.22766124  0.65888145  1
  P  P21  1  0.31898326  0.91349525  0.84353856  1
  P  P22  1  0.68433814  0.08260464  0.15557647  1
  P  P23  1  0.31604689  0.77075562  0.34156690  1
  P  P24  1  0.22845915  0.68371454  0.15959738  1
  P  P25  1  0.33609983  0.33448735  0.37253533  1
  P  P26  1  0.33012379  0.32901505  0.86826539  1
  P  P27  1  0.09043267  0.68791485  0.65827159  1
  P  P28  1  0.22478036  0.08354770  0.65933199  1
  P  P29  1  0.08908145  0.23022484  0.15954151  1
  O  O30  1  0.01630041  0.76741414  0.56703084  1
  O  O31  1  0.91456071  0.74612109  0.34142845  1
  O  O32  1  0.76287090  0.98999252  0.06967312  1
  O  O33  1  0.74323639  0.91375034  0.83096636  1
  O  O34  1  0.90614216  0.61717209  0.81679072  1
  O  O35  1  0.81419759  0.67190407  0.17161583  1
  O  O36  1  0.91942686  0.46263939  0.33248769  1
  O  O37  1  0.00390828  0.24130211  0.06813185  1
  O  O38  1  0.92052915  0.33964806  0.83599658  1
  O  O39  1  0.66646097  0.81295931  0.67594837  1
  O  O40  1  0.61703944  0.91701736  0.33032838  1
  O  O41  1  0.81139628  0.51693400  0.67279281  1
  O  O42  1  0.65693964  0.67873716  0.02431312  1
  O  O43  1  0.65819849  0.67108754  0.52483398  1
  O  O44  1  0.67219875  0.51396638  0.16723821  1
  O  O45  1  0.47744123  0.90531256  0.82380264  1
  O  O46  1  0.51558941  0.81678624  0.17581509  1
  O  O47  1  0.74071305  0.34278926  0.33414223  1
  O  O48  1  0.79439431  0.20821246  0.75027602  1
  O  O49  1  0.76642091  0.21986518  0.56827645  1
  O  O50  1  0.76456149  0.24746394  0.93266923  1
  O  O51  1  0.62126213  0.47902998  0.82145522  1
  O  O52  1  0.50963124  0.67215928  0.67115784  1
  O  O53  1  0.66252541  0.25136869  0.15694939  1
  O  O54  1  0.47178721  0.61770028  0.32911861  1
  O  O55  1  0.34192529  0.91517212  0.33293320  1
  O  O56  1  0.79455607  0.99774716  0.24762945  1
  O  O57  1  0.78222418  0.00957560  0.42602198  1
  O  O58  1  0.20776371  0.99438930  0.57824702  1
  O  O59  1  0.65363481  0.08737164  0.66833315  1
  O  O60  1  0.52903567  0.38474767  0.67510715  1
  O  O61  1  0.34357191  0.74372655  0.83590832  1
  O  O62  1  0.48991908  0.32356461  0.33249219  1
  O  O63  1  0.38091084  0.52261831  0.17831823  1
  O  O64  1  0.23923573  0.76867534  0.07567512  1
  O  O65  1  0.22974921  0.77873110  0.43203649  1
  O  O66  1  0.20150592  0.78883340  0.25494447  1
  O  O67  1  0.26176209  0.65820512  0.66478544  1
  O  O68  1  0.47332561  0.18236886  0.82051961  1
  O  O69  1  0.52392702  0.09259390  0.17860047  1
  O  O70  1  0.33769531  0.47656739  0.82392507  1
  O  O71  1  0.33260407  0.32741238  0.97327298  1
  O  O72  1  0.33931298  0.32529032  0.47804825  1
  O  O73  1  0.18976166  0.48869584  0.33355618  1
  O  O74  1  0.38378089  0.07880181  0.66832090  1
  O  O75  1  0.33016382  0.18769956  0.32457269  1
  O  O76  1  0.08388635  0.65931337  0.16011212  1
  O  O77  1  0.00441820  0.79211621  0.75069243  1
  O  O78  1  0.99191334  0.75910288  0.93161494  1
  O  O79  1  0.09192497  0.52794710  0.67233998  1
  O  O80  1  0.17854757  0.33434161  0.82647270  1
  O  O81  1  0.10071649  0.37941007  0.17929782  1
  O  O82  1  0.25622453  0.08174184  0.16199575  1
  O  O83  1  0.24520015  0.99704206  0.93432079  1
  O  O84  1  0.20197214  0.00913262  0.75747779  1
  O  O85  1  0.08753077  0.25771509  0.66380300  1
  O  O86  1  0.99303903  0.20635916  0.42517323  1
  O  O87  1  0.99447109  0.20857689  0.24495894  1
