# generated using pymatgen
data_Li4La5Ti6Nb2O26
_symmetry_space_group_name_H-M   'P 1'
_cell_length_a   5.56921596
_cell_length_b   17.01610668
_cell_length_c   5.57445129
_cell_angle_alpha   90.00000000
_cell_angle_beta   90.00000000
_cell_angle_gamma   99.41855341
_symmetry_Int_Tables_number   1
_chemical_formula_structural   Li4La5Ti6Nb2O26
_chemical_formula_sum   'Li4 La5 Ti6 Nb2 O26'
_cell_volume   521.14903185
_cell_formula_units_Z   1
loop_
 _symmetry_equiv_pos_site_id
 _symmetry_equiv_pos_as_xyz
  1  'x, y, z'
loop_
 _atom_site_type_symbol
 _atom_site_label
 _atom_site_symmetry_multiplicity
 _atom_site_fract_x
 _atom_site_fract_y
 _atom_site_fract_z
 _atom_site_occupancy
  Li  Li0  1  0.50000000  0.50000000  0.23964434  1
  Li  Li1  1  0.00000000  0.50000000  0.23964434  1
  Li  Li2  1  0.50000000  0.50000000  0.76035566  1
  Li  Li3  1  0.00000000  0.50000000  0.76035566  1
  La  La4  1  0.50000000  0.00000000  0.00000000  1
  La  La5  1  0.61819272  0.23638545  0.00000000  1
  La  La6  1  0.38180728  0.76361455  0.00000000  1
  La  La7  1  0.88214156  0.76428313  0.50000000  1
  La  La8  1  0.11785844  0.23571687  0.50000000  1
  Ti  Ti9  1  0.94201962  0.88404023  0.00000000  1
  Ti  Ti10  1  0.81907939  0.63815878  0.00000000  1
  Ti  Ti11  1  0.05798038  0.11595977  0.00000000  1
  Ti  Ti12  1  0.55743342  0.11486684  0.50000000  1
  Ti  Ti13  1  0.18092061  0.36184122  0.00000000  1
  Ti  Ti14  1  0.44256658  0.88513316  0.50000000  1
  Nb  Nb15  1  0.68144854  0.36289607  0.50000000  1
  Nb  Nb16  1  0.31855146  0.63710393  0.50000000  1
  O  O17  1  0.88344519  0.76689039  0.00000000  1
  O  O18  1  0.76544147  0.53088295  0.00000000  1
  O  O19  1  0.80170431  0.12334257  0.24087762  1
  O  O20  1  0.92350568  0.34262107  0.24914901  1
  O  O21  1  0.67836274  0.87665743  0.24087762  1
  O  O22  1  0.00000000  0.00000000  0.00000000  1
  O  O23  1  0.41911539  0.34262107  0.24914901  1
  O  O24  1  0.11655481  0.23310961  0.00000000  1
  O  O25  1  0.50000000  0.00000000  0.50000000  1
  O  O26  1  0.80170431  0.12334257  0.75912238  1
  O  O27  1  0.92350568  0.34262107  0.75085099  1
  O  O28  1  0.32163726  0.12334257  0.24087762  1
  O  O29  1  0.23455853  0.46911705  0.00000000  1
  O  O30  1  0.73727025  0.47454051  0.50000000  1
  O  O31  1  0.58088461  0.65737893  0.24914901  1
  O  O32  1  0.61661996  0.23323993  0.50000000  1
  O  O33  1  0.07649432  0.65737893  0.24914901  1
  O  O34  1  0.41911539  0.34262107  0.75085099  1
  O  O35  1  0.32163726  0.12334257  0.75912238  1
  O  O36  1  0.19829569  0.87665743  0.24087762  1
  O  O37  1  0.67836274  0.87665743  0.75912238  1
  O  O38  1  0.26272975  0.52545949  0.50000000  1
  O  O39  1  0.58088461  0.65737893  0.75085099  1
  O  O40  1  0.38338004  0.76676007  0.50000000  1
  O  O41  1  0.19829569  0.87665743  0.75912238  1
  O  O42  1  0.07649432  0.65737893  0.75085099  1
