# generated using pymatgen
data_ZnNi9O10
_symmetry_space_group_name_H-M   'P 1'
_cell_length_a   5.99482745
_cell_length_b   5.19347439
_cell_length_c   6.71379002
_cell_angle_alpha   82.51961717
_cell_angle_beta   77.08654402
_cell_angle_gamma   106.77088079
_symmetry_Int_Tables_number   1
_chemical_formula_structural   ZnNi9O10
_chemical_formula_sum   'Zn1 Ni9 O10'
_cell_volume   190.78343320
_cell_formula_units_Z   1
loop_
 _symmetry_equiv_pos_site_id
 _symmetry_equiv_pos_as_xyz
  1  'x, y, z'
loop_
 _atom_site_type_symbol
 _atom_site_label
 _atom_site_symmetry_multiplicity
 _atom_site_fract_x
 _atom_site_fract_y
 _atom_site_fract_z
 _atom_site_occupancy
  Zn  Zn0  1  0.00000000  0.00000000  0.00000000  1
  Ni  Ni1  1  0.50000000  0.00000000  0.00000000  1
  Ni  Ni2  1  0.79946631  0.40027838  0.20060227  1
  Ni  Ni3  1  0.30019856  0.40024159  0.20091286  1
  Ni  Ni4  1  0.40068381  0.20033332  0.59875661  1
  Ni  Ni5  1  0.59931619  0.79966668  0.40124339  1
  Ni  Ni6  1  0.10017161  0.79946738  0.40029804  1
  Ni  Ni7  1  0.89982839  0.20053162  0.59970196  1
  Ni  Ni8  1  0.69980144  0.59975841  0.79908714  1
  Ni  Ni9  1  0.20053369  0.59972162  0.79939773  1
  O  O10  1  0.15153191  0.69615716  0.10071022  1
  O  O11  1  0.45032180  0.09920573  0.29952621  1
  O  O12  1  0.64597724  0.69659400  0.10154625  1
  O  O13  1  0.94893294  0.10059176  0.30382533  1
  O  O14  1  0.25002384  0.50006113  0.50106774  1
  O  O15  1  0.74997616  0.49993887  0.49893226  1
  O  O16  1  0.35402276  0.30340600  0.89845375  1
  O  O17  1  0.54967820  0.90079427  0.70047379  1
  O  O18  1  0.05106706  0.89940824  0.69617467  1
  O  O19  1  0.84846809  0.30384284  0.89928978  1
