# generated using pymatgen
data_CoPO4
_symmetry_space_group_name_H-M   'P 1'
_cell_length_a   7.44018836
_cell_length_b   7.44100000
_cell_length_c   9.38005760
_cell_angle_alpha   89.99488112
_cell_angle_beta   89.98810655
_cell_angle_gamma   59.99833896
_symmetry_Int_Tables_number   1
_chemical_formula_structural   CoPO4
_chemical_formula_sum   'Co6 P6 O24'
_cell_volume   449.72195867
_cell_formula_units_Z   6
loop_
 _symmetry_equiv_pos_site_id
 _symmetry_equiv_pos_as_xyz
  1  'x, y, z'
loop_
 _atom_site_type_symbol
 _atom_site_label
 _atom_site_symmetry_multiplicity
 _atom_site_fract_x
 _atom_site_fract_y
 _atom_site_fract_z
 _atom_site_occupancy
  O  O0  1  0.47880675  0.64993303  0.11481083  1
  O  O1  1  0.88534139  0.88768212  0.45386447  1
  O  O2  1  0.89146160  0.57897011  0.82893392  1
  O  O3  1  0.64991277  0.87118329  0.11481946  1
  O  O4  1  0.87119047  0.47881419  0.11489581  1
  O  O5  1  0.66703226  0.66656306  0.60609003  1
  O  O6  1  1.00002003  0.99994661  0.17669101  1
  O  O7  1  0.11242256  0.11464607  0.95391244  1
  O  O8  1  0.12883277  0.35000965  0.61489742  1
  O  O9  1  0.10853445  0.47037440  0.32892398  1
  O  O10  1  0.42089546  0.10871948  0.32881435  1
  O  O11  1  0.11466495  0.77298800  0.95388843  1
  O  O12  1  0.33344427  0.33330618  0.83537248  1
  O  O13  1  0.33310297  0.33339975  0.10609078  1
  O  O14  1  0.66649911  0.66673449  0.33537220  1
  O  O15  1  0.52121008  0.12878125  0.61481695  1
  O  O16  1  0.22704374  0.88542659  0.45395788  1
  O  O17  1  0.47024690  0.42097288  0.32873989  1
  O  O18  1  0.99988531  1.00000918  0.67668934  1
  O  O19  1  0.77295978  0.11243191  0.95395834  1
  O  O20  1  0.57910813  0.52965796  0.82876744  1
  O  O21  1  0.52977114  0.89127147  0.82877378  1
  O  O22  1  0.88758217  0.22710131  0.45394491  1
  O  O23  1  0.35013541  0.52111006  0.61481236  1
  P  P24  1  0.99996011  0.00004453  0.51792959  1
  P  P25  1  0.00001642  0.99999855  0.01791985  1
  P  P26  1  0.33337566  0.33329297  0.66303143  1
  P  P27  1  0.33315187  0.33337046  0.27624256  1
  P  P28  1  0.66687120  0.66660691  0.77624045  1
  P  P29  1  0.66663821  0.66665307  0.16303229  1
  Co  Co30  1  0.93569316  0.44317172  0.46138649  1
  Co  Co31  1  0.62102389  0.93598088  0.46116837  1
  Co  Co32  1  0.44286061  0.62102020  0.46109896  1
  Co  Co33  1  0.37898434  0.55701610  0.96116108  1
  Co  Co34  1  0.55705172  0.06397963  0.96117545  1
  Co  Co35  1  0.06422792  0.37886980  0.96131784  1
