# generated using pymatgen
data_LiFeSiO4
_symmetry_space_group_name_H-M   'P 1'
_cell_length_a   8.97302775
_cell_length_b   8.97302775
_cell_length_c   8.97302775
_cell_angle_alpha   90.57230926
_cell_angle_beta   89.42769074
_cell_angle_gamma   89.42769074
_symmetry_Int_Tables_number   1
_chemical_formula_structural   LiFeSiO4
_chemical_formula_sum   'Li6 Fe6 Si6 O24'
_cell_volume   722.35651691
_cell_formula_units_Z   6
loop_
 _symmetry_equiv_pos_site_id
 _symmetry_equiv_pos_as_xyz
  1  'x, y, z'
loop_
 _atom_site_type_symbol
 _atom_site_label
 _atom_site_symmetry_multiplicity
 _atom_site_fract_x
 _atom_site_fract_y
 _atom_site_fract_z
 _atom_site_occupancy
  Li  Li0  1  0.22622244  0.23128381  0.21849660  1
  Li  Li1  1  0.26871619  0.27377756  0.71849660  1
  Li  Li2  1  0.28150340  0.73128381  0.27377756  1
  Li  Li3  1  0.72622244  0.71849660  0.73128381  1
  Li  Li4  1  0.76871619  0.21849660  0.77377756  1
  Li  Li5  1  0.78150340  0.77377756  0.23128381  1
  Fe  Fe6  1  0.99087939  0.24745693  0.49612065  1
  Fe  Fe7  1  0.00387935  0.74745693  0.50912061  1
  Fe  Fe8  1  0.25254307  0.50912061  0.99612065  1
  Fe  Fe9  1  0.49087939  0.99612065  0.74745693  1
  Fe  Fe10  1  0.50387935  0.00912061  0.24745693  1
  Fe  Fe11  1  0.75254307  0.49612065  0.00912061  1
  Si  Si12  1  0.00913874  0.50712514  0.25332891  1
  Si  Si13  1  0.99287486  0.49086126  0.75332891  1
  Si  Si14  1  0.24667109  0.00712514  0.49086126  1
  Si  Si15  1  0.50913874  0.75332891  0.00712514  1
  Si  Si16  1  0.49287486  0.25332891  0.99086126  1
  Si  Si17  1  0.74667109  0.99086126  0.50712514  1
  O  O18  1  0.07943288  0.35870997  0.65482883  1
  O  O19  1  0.09513876  0.64123425  0.34641509  1
  O  O20  1  0.14129003  0.42056712  0.15482883  1
  O  O21  1  0.11483426  0.57216377  0.85865614  1
  O  O22  1  0.15358491  0.14123425  0.40486124  1
  O  O23  1  0.14134386  0.88516574  0.57216377  1
  O  O24  1  0.34631179  0.08897850  0.62225767  1
  O  O25  1  0.34517117  0.92056712  0.35870997  1
  O  O26  1  0.35876575  0.34641509  0.90486124  1
  O  O27  1  0.37774233  0.65368821  0.08897850  1
  O  O28  1  0.41102150  0.15368821  0.12225767  1
  O  O29  1  0.42783623  0.85865614  0.88516574  1
  O  O30  1  0.57943288  0.15482883  0.85870997  1
  O  O31  1  0.59513876  0.84641509  0.14123425  1
  O  O32  1  0.61483426  0.35865614  0.07216377  1
  O  O33  1  0.64129003  0.65482883  0.92056712  1
  O  O34  1  0.64134386  0.07216377  0.38516574  1
  O  O35  1  0.65358491  0.90486124  0.64123425  1
  O  O36  1  0.84631179  0.12225767  0.58897850  1
  O  O37  1  0.84517117  0.85870997  0.42056712  1
  O  O38  1  0.87774233  0.58897850  0.15368821  1
  O  O39  1  0.85876575  0.40486124  0.84641509  1
  O  O40  1  0.92783623  0.38516574  0.35865614  1
  O  O41  1  0.91102150  0.62225767  0.65368821  1
