# generated using pymatgen
data_Li2NiP2O7
_symmetry_space_group_name_H-M   'P 1'
_cell_length_a   5.18213573
_cell_length_b   6.42720347
_cell_length_c   8.86761877
_cell_angle_alpha   109.96761607
_cell_angle_beta   95.67540749
_cell_angle_gamma   106.01231315
_symmetry_Int_Tables_number   1
_chemical_formula_structural   Li2NiP2O7
_chemical_formula_sum   'Li4 Ni2 P4 O14'
_cell_volume   260.66003286
_cell_formula_units_Z   2
loop_
 _symmetry_equiv_pos_site_id
 _symmetry_equiv_pos_as_xyz
  1  'x, y, z'
loop_
 _atom_site_type_symbol
 _atom_site_label
 _atom_site_symmetry_multiplicity
 _atom_site_fract_x
 _atom_site_fract_y
 _atom_site_fract_z
 _atom_site_occupancy
  Li  Li0  1  0.11155491  0.74922686  0.01837361  1
  Li  Li1  1  0.33155715  0.18803431  0.74260895  1
  Li  Li2  1  0.66844285  0.81196569  0.25739105  1
  Li  Li3  1  0.88844509  0.25077314  0.98162639  1
  Ni  Ni4  1  0.10122501  0.60110358  0.36333156  1
  Ni  Ni5  1  0.89877499  0.39889642  0.63666844  1
  P  P6  1  0.24079672  0.15262589  0.39229622  1
  P  P7  1  0.57621620  0.68664325  0.87967103  1
  P  P8  1  0.42378380  0.31335675  0.12032897  1
  P  P9  1  0.75920328  0.84737411  0.60770378  1
  O  O10  1  0.06485452  0.89375712  0.33333513  1
  O  O11  1  0.05998108  0.31146793  0.42235401  1
  O  O12  1  0.26615702  0.56077683  0.83210262  1
  O  O13  1  0.25593033  0.48377521  0.15488147  1
  O  O14  1  0.31958817  0.13397309  0.94546331  1
  O  O15  1  0.52239086  0.76999038  0.46446874  1
  O  O16  1  0.64225901  0.84351781  0.76898554  1
  O  O17  1  0.35774099  0.15648219  0.23101446  1
  O  O18  1  0.47760914  0.23000962  0.53553126  1
  O  O19  1  0.68041183  0.86602691  0.05453669  1
  O  O20  1  0.74406967  0.51622479  0.84511853  1
  O  O21  1  0.73384298  0.43922317  0.16789738  1
  O  O22  1  0.94001892  0.68853207  0.57764599  1
  O  O23  1  0.93514548  0.10624288  0.66666487  1
