# generated using pymatgen
data_VCrP2(HO5)2
_symmetry_space_group_name_H-M   'P 1'
_cell_length_a   5.16143884
_cell_length_b   7.35337206
_cell_length_c   5.24340879
_cell_angle_alpha   109.68807085
_cell_angle_beta   98.67571567
_cell_angle_gamma   104.95221238
_symmetry_Int_Tables_number   1
_chemical_formula_structural   VCrP2(HO5)2
_chemical_formula_sum   'V1 Cr1 P2 H2 O10'
_cell_volume   174.73682933
_cell_formula_units_Z   1
loop_
 _symmetry_equiv_pos_site_id
 _symmetry_equiv_pos_as_xyz
  1  'x, y, z'
loop_
 _atom_site_type_symbol
 _atom_site_label
 _atom_site_symmetry_multiplicity
 _atom_site_fract_x
 _atom_site_fract_y
 _atom_site_fract_z
 _atom_site_occupancy
  V  V0  1  0.00000000  0.50000000  0.00000000  1
  Cr  Cr1  1  0.00000000  0.00000000  0.00000000  1
  P  P2  1  0.34686865  0.21908970  0.67565600  1
  P  P3  1  0.65313135  0.78091030  0.32434400  1
  H  H4  1  0.03442741  0.33958308  0.34845455  1
  H  H5  1  0.96557259  0.66041692  0.65154545  1
  O  O6  1  0.02800131  0.71218305  0.85884835  1
  O  O7  1  0.18178054  0.37860477  0.72599766  1
  O  O8  1  0.33971003  0.65171733  0.26789728  1
  O  O9  1  0.24351959  0.07224506  0.37183641  1
  O  O10  1  0.32797717  0.11754575  0.88307497  1
  O  O11  1  0.67202283  0.88245425  0.11692503  1
  O  O12  1  0.75648041  0.92775494  0.62816359  1
  O  O13  1  0.66028997  0.34828267  0.73210272  1
  O  O14  1  0.81821946  0.62139523  0.27400234  1
  O  O15  1  0.97199869  0.28781695  0.14115165  1
