# generated using pymatgen
data_Mn5OF11
_symmetry_space_group_name_H-M   'P 1'
_cell_length_a   5.26325410
_cell_length_b   5.70992589
_cell_length_c   9.23451615
_cell_angle_alpha   73.24115746
_cell_angle_beta   91.37187056
_cell_angle_gamma   116.04404477
_symmetry_Int_Tables_number   1
_chemical_formula_structural   Mn5OF11
_chemical_formula_sum   'Mn5 O1 F11'
_cell_volume   237.04607758
_cell_formula_units_Z   1
loop_
 _symmetry_equiv_pos_site_id
 _symmetry_equiv_pos_as_xyz
  1  'x, y, z'
loop_
 _atom_site_type_symbol
 _atom_site_label
 _atom_site_symmetry_multiplicity
 _atom_site_fract_x
 _atom_site_fract_y
 _atom_site_fract_z
 _atom_site_occupancy
  Mn  Mn0  1  0.76066690  0.55928154  0.41570181  1
  Mn  Mn1  1  0.53578395  0.08970717  0.17215843  1
  Mn  Mn2  1  0.32899494  0.59600087  0.89143274  1
  Mn  Mn3  1  0.02992938  0.06266037  0.63570938  1
  Mn  Mn4  1  0.01916234  0.01153758  0.00151714  1
  O  O5  1  0.40287725  0.25980217  0.99000025  1
  F  F6  1  0.02728653  0.27081097  0.79689285  1
  F  F7  1  0.95259417  0.33197503  0.46807252  1
  F  F8  1  0.43260863  0.29582165  0.59082963  1
  F  F9  1  0.53945560  0.34079395  0.28858948  1
  F  F10  1  0.62824054  0.82359208  0.71140898  1
  F  F11  1  0.60670161  0.82019399  0.02961755  1
  F  F12  1  0.61470654  0.82976593  0.33801744  1
  F  F13  1  0.95388913  0.30320008  0.07751578  1
  F  F14  1  0.08887647  0.81025636  0.20136051  1
  F  F15  1  0.01295469  0.79780319  0.52449603  1
  F  F16  1  0.10158934  0.82087910  0.85368846  1
