# generated using pymatgen
data_Li2Co(CO3)2
_symmetry_space_group_name_H-M   'P 1'
_cell_length_a   5.20381441
_cell_length_b   6.38010301
_cell_length_c   7.94190137
_cell_angle_alpha   89.57697038
_cell_angle_beta   90.31589253
_cell_angle_gamma   113.38216142
_symmetry_Int_Tables_number   1
_chemical_formula_structural   Li2Co(CO3)2
_chemical_formula_sum   'Li4 Co2 C4 O12'
_cell_volume   242.01678740
_cell_formula_units_Z   2
loop_
 _symmetry_equiv_pos_site_id
 _symmetry_equiv_pos_as_xyz
  1  'x, y, z'
loop_
 _atom_site_type_symbol
 _atom_site_label
 _atom_site_symmetry_multiplicity
 _atom_site_fract_x
 _atom_site_fract_y
 _atom_site_fract_z
 _atom_site_occupancy
  Li  Li0  1  0.34917651  0.75646187  0.08147051  1
  Li  Li1  1  0.82093423  0.47455848  0.87512927  1
  Li  Li2  1  0.84170387  0.24802912  0.41992843  1
  Li  Li3  1  0.32365801  0.98306525  0.62936295  1
  Co  Co4  1  0.50213467  0.51587224  0.48850466  1
  Co  Co5  1  0.00127738  0.01841416  0.00742903  1
  C  C6  1  0.72860102  0.87505667  0.73964385  1
  C  C7  1  0.77904307  0.61683042  0.22076400  1
  C  C8  1  0.23118350  0.37443607  0.75733813  1
  C  C9  1  0.26813820  0.11825371  0.27717323  1
  O  O10  1  0.98112934  0.88215045  0.75596309  1
  O  O11  1  0.61311104  0.91521197  0.87356736  1
  O  O12  1  0.91742449  0.67006758  0.07901086  1
  O  O13  1  0.59909590  0.83766529  0.59615288  1
  O  O14  1  0.88393433  0.56386224  0.35392390  1
  O  O15  1  0.53106953  0.61776320  0.23343479  1
  O  O16  1  0.48440584  0.38212739  0.73888206  1
  O  O17  1  0.40678500  0.16964086  0.41943597  1
  O  O18  1  0.10614950  0.40416718  0.62327619  1
  O  O19  1  0.11373145  0.34586253  0.90372687  1
  O  O20  1  0.37675074  0.07246349  0.14392894  1
  O  O21  1  0.01740938  0.11302986  0.26395205  1
