# generated using pymatgen
data_Li12Mn3FeP4(CO7)4
_symmetry_space_group_name_H-M   'P 1'
_cell_length_a   8.53562086
_cell_length_b   10.01150978
_cell_length_c   6.59421735
_cell_angle_alpha   90.00000000
_cell_angle_beta   90.00000000
_cell_angle_gamma   85.46800808
_symmetry_Int_Tables_number   1
_chemical_formula_structural   Li12Mn3FeP4(CO7)4
_chemical_formula_sum   'Li12 Mn3 Fe1 P4 C4 O28'
_cell_volume   561.74335557
_cell_formula_units_Z   1
loop_
 _symmetry_equiv_pos_site_id
 _symmetry_equiv_pos_as_xyz
  1  'x, y, z'
loop_
 _atom_site_type_symbol
 _atom_site_label
 _atom_site_symmetry_multiplicity
 _atom_site_fract_x
 _atom_site_fract_y
 _atom_site_fract_z
 _atom_site_occupancy
  Li  Li0  1  0.09069151  0.37876551  0.25000000  1
  Li  Li1  1  0.09124373  0.87890581  0.25000000  1
  Li  Li2  1  0.27318301  0.12294132  0.02694394  1
  Li  Li3  1  0.27318301  0.12294132  0.47305606  1
  Li  Li4  1  0.27346650  0.62304220  0.02723466  1
  Li  Li5  1  0.27346650  0.62304220  0.47276534  1
  Li  Li6  1  0.72687840  0.37678152  0.52571997  1
  Li  Li7  1  0.72687840  0.37678152  0.97428003  1
  Li  Li8  1  0.72671746  0.87689436  0.52593531  1
  Li  Li9  1  0.72671746  0.87689436  0.97406469  1
  Li  Li10  1  0.90909882  0.12124528  0.75000000  1
  Li  Li11  1  0.90987320  0.62145783  0.75000000  1
  Mn  Mn12  1  0.34058015  0.38954247  0.75000000  1
  Mn  Mn13  1  0.34043982  0.89001470  0.75000000  1
  Mn  Mn14  1  0.65920062  0.11012326  0.25000000  1
  Fe  Fe15  1  0.66347687  0.60671254  0.25000000  1
  P  P16  1  0.40969230  0.36034940  0.25000000  1
  P  P17  1  0.41132476  0.85926887  0.25000000  1
  P  P18  1  0.58995946  0.14011704  0.75000000  1
  P  P19  1  0.58935177  0.64060600  0.75000000  1
  C  C20  1  0.03295917  0.35222290  0.75000000  1
  C  C21  1  0.03302147  0.85223079  0.75000000  1
  C  C22  1  0.96716420  0.14769661  0.25000000  1
  C  C23  1  0.96600943  0.64815249  0.25000000  1
  O  O24  1  0.07001894  0.47528486  0.75000000  1
  O  O25  1  0.11285434  0.17701845  0.25000000  1
  O  O26  1  0.07003009  0.97516733  0.75000000  1
  O  O27  1  0.14423666  0.25526654  0.75000000  1
  O  O28  1  0.11162337  0.67703152  0.25000000  1
  O  O29  1  0.14432905  0.75516020  0.75000000  1
  O  O30  1  0.30997317  0.41352752  0.06571577  1
  O  O31  1  0.30997317  0.41352752  0.43428423  1
  O  O32  1  0.31064336  0.91268789  0.06606715  1
  O  O33  1  0.31064336  0.91268789  0.43393285  1
  O  O34  1  0.42061939  0.09419754  0.75000000  1
  O  O35  1  0.42413849  0.20349618  0.25000000  1
  O  O36  1  0.42082868  0.59395564  0.75000000  1
  O  O37  1  0.42701749  0.70214072  0.25000000  1
  O  O38  1  0.57602050  0.29708784  0.75000000  1
  O  O39  1  0.57872805  0.40707881  0.25000000  1
  O  O40  1  0.57624013  0.79707251  0.75000000  1
  O  O41  1  0.57917276  0.90768783  0.25000000  1
  O  O42  1  0.68962497  0.08664612  0.93411459  1
  O  O43  1  0.68962497  0.08664612  0.56588541  1
  O  O44  1  0.68867574  0.58727458  0.56387326  1
  O  O45  1  0.68867574  0.58727458  0.93612674  1
  O  O46  1  0.85563410  0.24481031  0.25000000  1
  O  O47  1  0.88700331  0.32315744  0.75000000  1
  O  O48  1  0.85384221  0.74467507  0.25000000  1
  O  O49  1  0.93002329  0.02472964  0.25000000  1
  O  O50  1  0.88708983  0.82288892  0.75000000  1
  O  O51  1  0.92813784  0.52508611  0.25000000  1
