# generated using pymatgen
data_Li2Co(CO3)2
_symmetry_space_group_name_H-M   'P 1'
_cell_length_a   5.20234547
_cell_length_b   6.57831644
_cell_length_c   7.84871077
_cell_angle_alpha   89.14923602
_cell_angle_beta   89.37028179
_cell_angle_gamma   112.89479420
_symmetry_Int_Tables_number   1
_chemical_formula_structural   Li2Co(CO3)2
_chemical_formula_sum   'Li4 Co2 C4 O12'
_cell_volume   247.37519469
_cell_formula_units_Z   2
loop_
 _symmetry_equiv_pos_site_id
 _symmetry_equiv_pos_as_xyz
  1  'x, y, z'
loop_
 _atom_site_type_symbol
 _atom_site_label
 _atom_site_symmetry_multiplicity
 _atom_site_fract_x
 _atom_site_fract_y
 _atom_site_fract_z
 _atom_site_occupancy
  Li  Li0  1  0.28661857  0.91945440  0.59840820  1
  Li  Li1  1  0.33872496  0.75105799  0.08151336  1
  Li  Li2  1  0.85284105  0.25137246  0.41861505  1
  Li  Li3  1  0.65312620  0.24942441  0.91959964  1
  Co  Co4  1  0.99770441  0.00544761  0.00599355  1
  Co  Co5  1  0.49942716  0.50053742  0.50045614  1
  C  C6  1  0.73175116  0.87633371  0.73609123  1
  C  C7  1  0.77385072  0.62542067  0.23288950  1
  C  C8  1  0.20878922  0.35800141  0.76075235  1
  C  C9  1  0.28606138  0.12071559  0.26879099  1
  O  O10  1  0.98665934  0.89651564  0.75471942  1
  O  O11  1  0.60586060  0.91701727  0.86925522  1
  O  O12  1  0.60576241  0.82707785  0.59219368  1
  O  O13  1  0.92734615  0.69124878  0.09646371  1
  O  O14  1  0.86649855  0.55865074  0.36722933  1
  O  O15  1  0.52255805  0.62078694  0.24363277  1
  O  O16  1  0.46316811  0.36661925  0.75413787  1
  O  O17  1  0.10984660  0.40017904  0.61891227  1
  O  O18  1  0.41932788  0.15500299  0.41151928  1
  O  O19  1  0.06429867  0.31475338  0.90143836  1
  O  O20  1  0.39764973  0.08527806  0.12805455  1
  O  O21  1  0.03547210  0.11515839  0.25975654  1
