# generated using pymatgen
data_LiFePO4
_symmetry_space_group_name_H-M   'P 1'
_cell_length_a   8.51297751
_cell_length_b   5.30991655
_cell_length_c   8.16069815
_cell_angle_alpha   90.00000000
_cell_angle_beta   104.90193847
_cell_angle_gamma   90.00000000
_symmetry_Int_Tables_number   1
_chemical_formula_structural   LiFePO4
_chemical_formula_sum   'Li4 Fe4 P4 O16'
_cell_volume   356.48294560
_cell_formula_units_Z   4
loop_
 _symmetry_equiv_pos_site_id
 _symmetry_equiv_pos_as_xyz
  1  'x, y, z'
loop_
 _atom_site_type_symbol
 _atom_site_label
 _atom_site_symmetry_multiplicity
 _atom_site_fract_x
 _atom_site_fract_y
 _atom_site_fract_z
 _atom_site_occupancy
  Li  Li0  1  0.21246623  0.34015627  0.87008691  1
  Li  Li1  1  0.38390648  0.82481372  0.36576233  1
  Li  Li2  1  0.71246623  0.65984373  0.87008691  1
  Li  Li3  1  0.88390648  0.17518628  0.36576233  1
  Fe  Fe4  1  0.07478726  0.84563615  0.96599266  1
  Fe  Fe5  1  0.26171858  0.32466180  0.48724977  1
  Fe  Fe6  1  0.57478726  0.15436385  0.96599266  1
  Fe  Fe7  1  0.76171858  0.67533820  0.48724977  1
  P  P8  1  0.00797941  0.67560404  0.25117588  1
  P  P9  1  0.33350556  0.82526275  0.73845232  1
  P  P10  1  0.50797941  0.32439596  0.25117588  1
  P  P11  1  0.83350556  0.17473725  0.73845232  1
  O  O12  1  0.00185699  0.18817006  0.87163441  1
  O  O13  1  0.04821138  0.40128103  0.31802606  1
  O  O14  1  0.20167774  0.70181325  0.81422009  1
  O  O15  1  0.29446486  0.11138626  0.70246648  1
  O  O16  1  0.16504604  0.80570161  0.22761559  1
  O  O17  1  0.34189846  0.68128365  0.57688140  1
  O  O18  1  0.50185699  0.81182994  0.87163441  1
  O  O19  1  0.43421465  0.18081944  0.37939322  1
  O  O20  1  0.39206636  0.31563416  0.06984390  1
  O  O21  1  0.54821138  0.59871897  0.31802606  1
  O  O22  1  0.70167774  0.29818675  0.81422009  1
  O  O23  1  0.79446486  0.88861374  0.70246648  1
  O  O24  1  0.66504604  0.19429839  0.22761559  1
  O  O25  1  0.84189846  0.31871635  0.57688140  1
  O  O26  1  0.93421465  0.81918056  0.37939322  1
  O  O27  1  0.89206636  0.68436584  0.06984390  1
