# generated using pymatgen
data_Li2VOF3
_symmetry_space_group_name_H-M   'P 1'
_cell_length_a   6.04927027
_cell_length_b   6.04927027
_cell_length_c   8.48954520
_cell_angle_alpha   90.00000000
_cell_angle_beta   90.00000000
_cell_angle_gamma   90.00000000
_symmetry_Int_Tables_number   1
_chemical_formula_structural   Li2VOF3
_chemical_formula_sum   'Li8 V4 O4 F12'
_cell_volume   310.66362229
_cell_formula_units_Z   4
loop_
 _symmetry_equiv_pos_site_id
 _symmetry_equiv_pos_as_xyz
  1  'x, y, z'
loop_
 _atom_site_type_symbol
 _atom_site_label
 _atom_site_symmetry_multiplicity
 _atom_site_fract_x
 _atom_site_fract_y
 _atom_site_fract_z
 _atom_site_occupancy
  Li  Li0  1  0.23872814  0.25752699  0.36946800  1
  Li  Li1  1  0.25752699  0.76127186  0.11946800  1
  Li  Li2  1  0.26269644  0.50748835  0.75327032  1
  Li  Li3  1  0.49251165  0.26269644  0.00327032  1
  Li  Li4  1  0.50748835  0.73730356  0.50327032  1
  Li  Li5  1  0.73730356  0.49251165  0.25327032  1
  Li  Li6  1  0.74247301  0.23872814  0.61946800  1
  Li  Li7  1  0.76127186  0.74247301  0.86946800  1
  V  V8  1  0.00753790  0.24972080  0.01364793  1
  V  V9  1  0.99246210  0.75027920  0.51364793  1
  V  V10  1  0.24972080  0.99246210  0.76364793  1
  V  V11  1  0.75027920  0.00753790  0.26364793  1
  O  O12  1  0.02686140  0.76302266  0.73410804  1
  O  O13  1  0.23697734  0.02686140  0.98410804  1
  O  O14  1  0.76302266  0.97313860  0.48410804  1
  O  O15  1  0.97313860  0.23697734  0.23410804  1
  F  F16  1  0.01416979  0.25295987  0.76174416  1
  F  F17  1  0.25295987  0.98583021  0.51174416  1
  F  F18  1  0.24758806  0.48761512  0.99838132  1
  F  F19  1  0.24474921  0.52763043  0.49438023  1
  F  F20  1  0.47236957  0.24474921  0.74438023  1
  F  F21  1  0.48761512  0.75241194  0.74838132  1
  F  F22  1  0.51238488  0.24758806  0.24838132  1
  F  F23  1  0.52763043  0.75525079  0.24438023  1
  F  F24  1  0.75241194  0.51238488  0.49838132  1
  F  F25  1  0.75525079  0.47236957  0.99438023  1
  F  F26  1  0.74704013  0.01416979  0.01174416  1
  F  F27  1  0.98583021  0.74704013  0.26174416  1
