# generated using pymatgen
data_Li2VF5
_symmetry_space_group_name_H-M   'P 1'
_cell_length_a   7.72448348
_cell_length_b   10.09109256
_cell_length_c   5.35157365
_cell_angle_alpha   90.00000000
_cell_angle_beta   90.00000000
_cell_angle_gamma   90.00000000
_symmetry_Int_Tables_number   1
_chemical_formula_structural   Li2VF5
_chemical_formula_sum   'Li8 V4 F20'
_cell_volume   417.14701972
_cell_formula_units_Z   4
loop_
 _symmetry_equiv_pos_site_id
 _symmetry_equiv_pos_as_xyz
  1  'x, y, z'
loop_
 _atom_site_type_symbol
 _atom_site_label
 _atom_site_symmetry_multiplicity
 _atom_site_fract_x
 _atom_site_fract_y
 _atom_site_fract_z
 _atom_site_occupancy
  Li  Li0  1  0.13931002  0.50252655  0.81582576  1
  Li  Li1  1  0.13931002  0.99747345  0.81582576  1
  Li  Li2  1  0.36068998  0.00252655  0.31582576  1
  Li  Li3  1  0.36068998  0.49747345  0.31582576  1
  Li  Li4  1  0.63931002  0.50252655  0.68417424  1
  Li  Li5  1  0.63931002  0.99747345  0.68417424  1
  Li  Li6  1  0.86068998  0.00252655  0.18417424  1
  Li  Li7  1  0.86068998  0.49747345  0.18417424  1
  V  V8  1  0.11796591  0.25000000  0.29099206  1
  V  V9  1  0.38203409  0.75000000  0.79099206  1
  V  V10  1  0.61796591  0.25000000  0.20900794  1
  V  V11  1  0.88203409  0.75000000  0.70900794  1
  F  F12  1  0.05397817  0.11443902  0.05661603  1
  F  F13  1  0.05397817  0.38556098  0.05661603  1
  F  F14  1  0.14050165  0.75000000  0.62248071  1
  F  F15  1  0.18041426  0.10020049  0.51226513  1
  F  F16  1  0.18041426  0.39979951  0.51226513  1
  F  F17  1  0.31958574  0.60020049  0.01226513  1
  F  F18  1  0.31958574  0.89979951  0.01226513  1
  F  F19  1  0.35949835  0.25000000  0.12248071  1
  F  F20  1  0.44602183  0.61443902  0.55661603  1
  F  F21  1  0.44602183  0.88556098  0.55661603  1
  F  F22  1  0.55397817  0.11443902  0.44338397  1
  F  F23  1  0.55397817  0.38556098  0.44338397  1
  F  F24  1  0.64050165  0.75000000  0.87751929  1
  F  F25  1  0.68041426  0.10020049  0.98773487  1
  F  F26  1  0.68041426  0.39979951  0.98773487  1
  F  F27  1  0.81958574  0.60020049  0.48773487  1
  F  F28  1  0.81958574  0.89979951  0.48773487  1
  F  F29  1  0.85949835  0.25000000  0.37751929  1
  F  F30  1  0.94602183  0.61443902  0.94338397  1
  F  F31  1  0.94602183  0.88556098  0.94338397  1
