# generated using pymatgen
data_LiV9O22
_symmetry_space_group_name_H-M   'P 1'
_cell_length_a   21.67578224
_cell_length_b   3.65617744
_cell_length_c   10.28327657
_cell_angle_alpha   90.00000000
_cell_angle_beta   78.41796508
_cell_angle_gamma   90.00000000
_symmetry_Int_Tables_number   1
_chemical_formula_structural   LiV9O22
_chemical_formula_sum   'Li2 V18 O44'
_cell_volume   798.36096339
_cell_formula_units_Z   2
loop_
 _symmetry_equiv_pos_site_id
 _symmetry_equiv_pos_as_xyz
  1  'x, y, z'
loop_
 _atom_site_type_symbol
 _atom_site_label
 _atom_site_symmetry_multiplicity
 _atom_site_fract_x
 _atom_site_fract_y
 _atom_site_fract_z
 _atom_site_occupancy
  Li  Li0  1  0.15843420  0.75000000  0.43976966  1
  Li  Li1  1  0.84156580  0.25000000  0.56022934  1
  V  V2  1  0.02759360  0.25000000  0.38104352  1
  V  V3  1  0.09118372  0.75000000  0.77494367  1
  V  V4  1  0.06188512  0.25000000  0.03287764  1
  V  V5  1  0.25478704  0.75000000  0.80397650  1
  V  V6  1  0.28378227  0.25000000  0.54605256  1
  V  V7  1  0.36732982  0.75000000  0.95854087  1
  V  V8  1  0.31300811  0.25000000  0.19632359  1
  V  V9  1  0.40632801  0.75000000  0.60598583  1
  V  V10  1  0.42939370  0.25000000  0.34827391  1
  V  V11  1  0.57060630  0.75000000  0.65172609  1
  V  V12  1  0.59367199  0.25000000  0.39401417  1
  V  V13  1  0.68699189  0.75000000  0.80367641  1
  V  V14  1  0.63267018  0.25000000  0.04145913  1
  V  V15  1  0.71621773  0.75000000  0.45394744  1
  V  V16  1  0.74521296  0.25000000  0.19602350  1
  V  V17  1  0.93811488  0.75000000  0.96712236  1
  V  V18  1  0.90881628  0.25000000  0.22505633  1
  V  V19  1  0.97240640  0.75000000  0.61895648  1
  O  O20  1  0.00562318  0.75000000  0.42033586  1
  O  O21  1  0.07886985  0.25000000  0.83041729  1
  O  O22  1  0.01247430  0.25000000  0.21058875  1
  O  O23  1  0.09512659  0.75000000  0.61151793  1
  O  O24  1  0.04598981  0.75000000  0.99865817  1
  O  O25  1  0.10425677  0.25000000  0.36301440  1
  O  O26  1  0.17127198  0.75000000  0.78686769  1
  O  O27  1  0.24777502  0.75000000  0.96392763  1
  O  O28  1  0.13103977  0.25000000  0.06490270  1
  O  O29  1  0.21336116  0.25000000  0.50751420  1
  O  O30  1  0.26404392  0.25000000  0.74600549  1
  O  O31  1  0.23723492  0.25000000  0.23227550  1
  O  O32  1  0.30146660  0.75000000  0.57173273  1
  O  O33  1  0.35364232  0.75000000  0.78765125  1
  O  O34  1  0.33394594  0.25000000  0.36443091  1
  O  O35  1  0.44199365  0.75000000  0.93930383  1
  O  O36  1  0.38915514  0.25000000  0.57854088  1
  O  O37  1  0.33483998  0.75000000  0.15939513  1
  O  O38  1  0.34320798  0.25000000  -0.00001082  1
  O  O39  1  0.42586545  0.75000000  0.40493318  1
  O  O40  1  0.47993161  0.75000000  0.63747043  1
  O  O41  1  0.43734443  0.25000000  0.18852458  1
  O  O42  1  0.56265557  0.75000000  0.81147542  1
  O  O43  1  0.52006839  0.25000000  0.36252957  1
  O  O44  1  0.57413455  0.25000000  0.59506682  1
  O  O45  1  0.66516002  0.25000000  0.84060487  1
  O  O46  1  0.61084486  0.75000000  0.42145912  1
  O  O47  1  0.55800635  0.25000000  0.06069617  1
  O  O48  1  0.66605406  0.75000000  0.63556909  1
  O  O49  1  0.64635768  0.25000000  0.21234875  1
  O  O50  1  0.69853340  0.25000000  0.42826727  1
  O  O51  1  0.76276508  0.75000000  0.76772450  1
  O  O52  1  0.65679202  0.75000000  0.00001082  1
  O  O53  1  0.73595608  0.75000000  0.25399451  1
  O  O54  1  0.78663884  0.75000000  0.49248580  1
  O  O55  1  0.86896023  0.75000000  0.93509730  1
  O  O56  1  0.75222498  0.25000000  0.03607237  1
  O  O57  1  0.82872802  0.25000000  0.21313231  1
  O  O58  1  0.89574323  0.75000000  0.63698560  1
  O  O59  1  0.95401019  0.25000000  0.00134183  1
  O  O60  1  0.90487341  0.25000000  0.38848207  1
  O  O61  1  0.98752570  0.75000000  0.78941125  1
  O  O62  1  0.92113015  0.75000000  0.16958271  1
  O  O63  1  0.99437682  0.25000000  0.57966414  1
