# generated using pymatgen
data_LaW9O28
_symmetry_space_group_name_H-M   'P 1'
_cell_length_a   13.03894371
_cell_length_b   13.03894371
_cell_length_c   3.90282300
_cell_angle_alpha   90.00000000
_cell_angle_beta   90.00000000
_cell_angle_gamma   60.00000146
_symmetry_Int_Tables_number   1
_chemical_formula_structural   LaW9O28
_chemical_formula_sum   'La1 W9 O28'
_cell_volume   574.63796420
_cell_formula_units_Z   1
loop_
 _symmetry_equiv_pos_site_id
 _symmetry_equiv_pos_as_xyz
  1  'x, y, z'
loop_
 _atom_site_type_symbol
 _atom_site_label
 _atom_site_symmetry_multiplicity
 _atom_site_fract_x
 _atom_site_fract_y
 _atom_site_fract_z
 _atom_site_occupancy
  La  La0  1  0.66666700  0.66666700  0.97916876  1
  W  W1  1  0.16666700  0.16666700  0.99953172  1
  W  W2  1  0.00300624  0.49849688  0.00132958  1
  W  W3  1  0.49849688  0.00300624  0.00132958  1
  W  W4  1  0.66666700  0.16666700  0.99953172  1
  W  W5  1  0.16666700  0.66666700  0.99953172  1
  W  W6  1  0.49849688  0.49849688  0.00132958  1
  W  W7  1  0.83483612  0.33032776  0.00132958  1
  W  W8  1  0.33032776  0.83483612  0.00132958  1
  W  W9  1  0.83483612  0.83483612  0.00132958  1
  O  O10  1  0.21441581  0.99993829  0.99992915  1
  O  O11  1  0.99993829  0.21441581  0.99992915  1
  O  O12  1  0.16666700  0.16666700  0.49995518  1
  O  O13  1  0.11891819  0.33339471  0.99992915  1
  O  O14  1  0.33339471  0.11891819  0.99992915  1
  O  O15  1  0.00122446  0.49938777  0.49944883  1
  O  O16  1  0.49938777  0.00122446  0.49944883  1
  O  O17  1  0.54768710  0.11891819  0.99992915  1
  O  O18  1  0.11891819  0.54768710  0.99992915  1
  O  O19  1  0.78564590  0.99993829  0.99992915  1
  O  O20  1  0.99993829  0.78564590  0.99992915  1
  O  O21  1  0.66666700  0.16666700  0.49995518  1
  O  O22  1  0.16666700  0.66666700  0.49995518  1
  O  O23  1  0.33339471  0.54768710  0.99992915  1
  O  O24  1  0.54768710  0.33339471  0.99992915  1
  O  O25  1  0.49938777  0.49938777  0.49944883  1
  O  O26  1  0.78564590  0.21441581  0.99992915  1
  O  O27  1  0.21441581  0.78564590  0.99992915  1
  O  O28  1  0.66666700  0.45709476  0.99849176  1
  O  O29  1  0.45709476  0.66666700  0.99849176  1
  O  O30  1  0.83394523  0.33210854  0.49944883  1
  O  O31  1  0.33210854  0.83394523  0.49944883  1
  O  O32  1  0.87623824  0.45709476  0.99849176  1
  O  O33  1  0.66666700  0.66666700  0.47920665  1
  O  O34  1  0.45709476  0.87623824  0.99849176  1
  O  O35  1  0.87623824  0.66666700  0.99849176  1
  O  O36  1  0.66666700  0.87623824  0.99849176  1
  O  O37  1  0.83394523  0.83394523  0.49944883  1
