# generated using pymatgen
data_Ge2(WO3)9
_symmetry_space_group_name_H-M   'P 1'
_cell_length_a   7.59754755
_cell_length_b   7.59718911
_cell_length_c   11.58999637
_cell_angle_alpha   89.97014144
_cell_angle_beta   90.05971439
_cell_angle_gamma   120.00156074
_symmetry_Int_Tables_number   1
_chemical_formula_structural   Ge2(WO3)9
_chemical_formula_sum   'Ge2 W9 O27'
_cell_volume   579.33961860
_cell_formula_units_Z   1
loop_
 _symmetry_equiv_pos_site_id
 _symmetry_equiv_pos_as_xyz
  1  'x, y, z'
loop_
 _atom_site_type_symbol
 _atom_site_label
 _atom_site_symmetry_multiplicity
 _atom_site_fract_x
 _atom_site_fract_y
 _atom_site_fract_z
 _atom_site_occupancy
  Ge  Ge0  1  0.10257624  0.00000000  0.50664318  1
  Ge  Ge1  1  0.89742376  0.00000000  0.82668982  1
  W  W2  1  0.00000000  0.50000000  0.16666700  1
  W  W3  1  -0.00603641  0.48589156  0.49955417  1
  W  W4  1  0.00603641  0.51410844  0.83377883  1
  W  W5  1  0.50807203  0.51410844  0.49955417  1
  W  W6  1  0.50000000  0.50000000  0.16666700  1
  W  W7  1  0.49192797  0.48589156  0.83377883  1
  W  W8  1  0.50000000  0.00000000  0.16666700  1
  W  W9  1  0.49537305  0.00000000  0.83415032  1
  W  W10  1  0.50462695  0.00000000  0.49918268  1
  O  O11  1  0.00338933  0.50446540  0.33563422  1
  O  O12  1  0.00000000  0.50000000  0.66666700  1
  O  O13  1  0.99661067  0.49553460  0.99769878  1
  O  O14  1  0.21510215  0.78478251  0.16567679  1
  O  O15  1  0.20321732  0.78778830  0.83200812  1
  O  O16  1  0.18731739  0.80516432  0.50235259  1
  O  O17  1  0.21932940  0.43647723  0.83225908  1
  O  O18  1  0.21714882  0.43647723  0.50107392  1
  O  O19  1  0.21509074  0.43018249  0.16666700  1
  O  O20  1  0.56968036  0.78478251  0.16765621  1
  O  O21  1  0.58457098  0.78778830  0.50132488  1
  O  O22  1  0.61784693  0.80516432  0.83098041  1
  O  O23  1  0.50107607  0.50446540  0.99769878  1
  O  O24  1  0.49892393  0.49553460  0.33563422  1
  O  O25  1  0.50000000  0.50000000  0.66666700  1
  O  O26  1  0.43031964  0.21521749  0.16567679  1
  O  O27  1  0.38215307  0.19483568  0.50235259  1
  O  O28  1  0.41542902  0.21221170  0.83200812  1
  O  O29  1  0.50130227  0.00000000  0.99679600  1
  O  O30  1  0.49869773  0.00000000  0.33653800  1
  O  O31  1  0.50000000  0.00000000  0.66666700  1
  O  O32  1  0.78490926  0.56981751  0.16666700  1
  O  O33  1  0.78067060  0.56352277  0.50107392  1
  O  O34  1  0.78285118  0.56352277  0.83225908  1
  O  O35  1  0.79678268  0.21221170  0.50132488  1
  O  O36  1  0.78489785  0.21521749  0.16765621  1
  O  O37  1  0.81268261  0.19483568  0.83098041  1
