# generated using pymatgen
data_LiVSiO4
_symmetry_space_group_name_H-M   'P 1'
_cell_length_a   5.79505851
_cell_length_b   5.79604200
_cell_length_c   8.01810971
_cell_angle_alpha   90.00630728
_cell_angle_beta   89.99590377
_cell_angle_gamma   89.81209463
_symmetry_Int_Tables_number   1
_chemical_formula_structural   LiVSiO4
_chemical_formula_sum   'Li4 V4 Si4 O16'
_cell_volume   269.31404591
_cell_formula_units_Z   4
loop_
 _symmetry_equiv_pos_site_id
 _symmetry_equiv_pos_as_xyz
  1  'x, y, z'
loop_
 _atom_site_type_symbol
 _atom_site_label
 _atom_site_symmetry_multiplicity
 _atom_site_fract_x
 _atom_site_fract_y
 _atom_site_fract_z
 _atom_site_occupancy
  Li  Li0  1  0.28641132  0.49989052  0.24955012  1
  Li  Li1  1  0.49997214  0.28653250  0.00040201  1
  Li  Li2  1  0.50011670  0.71325255  0.50046103  1
  Li  Li3  1  0.71332235  0.50000809  0.74952974  1
  V  V4  1  0.99972103  0.27366076  0.99973762  1
  V  V5  1  0.00024529  0.72640350  0.49977289  1
  V  V6  1  0.27366938  0.99974125  0.25024593  1
  V  V7  1  0.72636989  0.00020125  0.75023557  1
  Si  Si8  1  0.24291970  0.24277213  0.62511935  1
  Si  Si9  1  0.24263737  0.75733034  0.87508787  1
  Si  Si10  1  0.75722295  0.24257826  0.37483760  1
  Si  Si11  1  0.75724337  0.75725745  0.12496312  1
  O  O12  1  0.99417304  0.23757138  0.24993325  1
  O  O13  1  0.99323356  0.76111244  0.25006968  1
  O  O14  1  0.23754443  0.99417978  0.00010471  1
  O  O15  1  0.23879071  0.00666226  0.49999624  1
  O  O16  1  0.23949469  0.52276484  0.98989990  1
  O  O17  1  0.23936733  0.47824803  0.50987148  1
  O  O18  1  0.52276419  0.23947661  0.26017518  1
  O  O19  1  0.52169208  0.76063196  0.24013584  1
  O  O20  1  0.47803252  0.23946243  0.74001953  1
  O  O21  1  0.47760422  0.76068632  0.75995376  1
  O  O22  1  0.76068163  0.47762376  0.49004721  1
  O  O23  1  0.76067569  0.52172242  0.00992072  1
  O  O24  1  0.76234741  0.00599276  0.50016037  1
  O  O25  1  0.76110046  0.99320397  0.99995433  1
  O  O26  1  0.00662835  0.23877131  0.74999021  1
  O  O27  1  0.00601817  0.76226114  0.74982472  1
