# generated using pymatgen
data_Li6MnNiP2(CO7)2
_symmetry_space_group_name_H-M   'P 1'
_cell_length_a   8.43783196
_cell_length_b   4.97920906
_cell_length_c   6.49319657
_cell_angle_alpha   90.00000000
_cell_angle_beta   90.00000000
_cell_angle_gamma   85.49265966
_symmetry_Int_Tables_number   1
_chemical_formula_structural   Li6MnNiP2(CO7)2
_chemical_formula_sum   'Li6 Mn1 Ni1 P2 C2 O14'
_cell_volume   271.95969727
_cell_formula_units_Z   1
loop_
 _symmetry_equiv_pos_site_id
 _symmetry_equiv_pos_as_xyz
  1  'x, y, z'
loop_
 _atom_site_type_symbol
 _atom_site_label
 _atom_site_symmetry_multiplicity
 _atom_site_fract_x
 _atom_site_fract_y
 _atom_site_fract_z
 _atom_site_occupancy
  Li  Li0  1  0.09355280  0.76023641  0.25000000  1
  Li  Li1  1  0.27441668  0.24571785  0.02333484  1
  Li  Li2  1  0.27441668  0.24571785  0.47666516  1
  Li  Li3  1  0.72480964  0.75360106  0.52501694  1
  Li  Li4  1  0.72480964  0.75360106  0.97498306  1
  Li  Li5  1  0.90436963  0.23648908  0.75000000  1
  Mn  Mn6  1  0.65839471  0.22275216  0.25000000  1
  Ni  Ni7  1  0.33230380  0.79279035  0.75000000  1
  P  P8  1  0.41000170  0.71988177  0.25000000  1
  P  P9  1  0.58510683  0.27734674  0.75000000  1
  C  C10  1  0.03946213  0.70440489  0.75000000  1
  C  C11  1  0.96754638  0.29675408  0.25000000  1
  O  O12  1  0.07620060  0.95200685  0.75000000  1
  O  O13  1  0.11447805  0.35667439  0.25000000  1
  O  O14  1  0.15514704  0.51519929  0.75000000  1
  O  O15  1  0.30972715  0.82869862  0.06301597  1
  O  O16  1  0.30972715  0.82869862  0.43698403  1
  O  O17  1  0.41882822  0.16908283  0.75000000  1
  O  O18  1  0.42325466  0.40518086  0.25000000  1
  O  O19  1  0.56288047  0.59206138  0.75000000  1
  O  O20  1  0.58159753  0.81001899  0.25000000  1
  O  O21  1  0.69033573  0.17457132  0.93443152  1
  O  O22  1  0.69033573  0.17457132  0.56556848  1
  O  O23  1  0.85495838  0.49147516  0.25000000  1
  O  O24  1  0.89280880  0.64237719  0.75000000  1
  O  O25  1  0.93053187  0.05009086  0.25000000  1
