# generated using pymatgen
data_Li3FePCO7
_symmetry_space_group_name_H-M   'P 1'
_cell_length_a   9.53876437
_cell_length_b   9.72039837
_cell_length_c   6.44768333
_cell_angle_alpha   90.00000000
_cell_angle_beta   90.00000000
_cell_angle_gamma   64.51090164
_symmetry_Int_Tables_number   1
_chemical_formula_structural   Li3FePCO7
_chemical_formula_sum   'Li12 Fe4 P4 C4 O28'
_cell_volume   539.64422896
_cell_formula_units_Z   4
loop_
 _symmetry_equiv_pos_site_id
 _symmetry_equiv_pos_as_xyz
  1  'x, y, z'
loop_
 _atom_site_type_symbol
 _atom_site_label
 _atom_site_symmetry_multiplicity
 _atom_site_fract_x
 _atom_site_fract_y
 _atom_site_fract_z
 _atom_site_occupancy
  Li  Li0  1  0.89226883  0.44464577  0.74933053  1
  Li  Li1  1  0.89226883  0.94464577  0.75066947  1
  Li  Li2  1  0.71251541  0.26080323  0.98866657  1
  Li  Li3  1  0.71251541  0.76080323  0.51133343  1
  Li  Li4  1  0.64046680  0.07038892  0.24550229  1
  Li  Li5  1  0.64046680  0.57038892  0.25449771  1
  Li  Li6  1  0.35953320  0.42961108  0.75449771  1
  Li  Li7  1  0.35953320  0.92961108  0.74550229  1
  Li  Li8  1  0.28748459  0.23919677  0.01133343  1
  Li  Li9  1  0.28748459  0.73919677  0.48866657  1
  Li  Li10  1  0.10773117  0.05535423  0.25066947  1
  Li  Li11  1  0.10773117  0.55535423  0.24933053  1
  Fe  Fe12  1  0.73496767  0.26357078  0.49705149  1
  Fe  Fe13  1  0.73496767  0.76357078  0.00294851  1
  Fe  Fe14  1  0.26503233  0.23642922  0.50294851  1
  Fe  Fe15  1  0.26503233  0.73642922  0.99705149  1
  P  P16  1  0.59293746  0.06405234  0.75135034  1
  P  P17  1  0.59293746  0.56405234  0.74864966  1
  P  P18  1  0.40706254  0.43594766  0.24864966  1
  P  P19  1  0.40706254  0.93594766  0.25135034  1
  C  C20  1  0.95695757  0.37166667  0.25739768  1
  C  C21  1  0.95695757  0.87166667  0.24260232  1
  C  C22  1  0.04304243  0.12833333  0.74260232  1
  C  C23  1  0.04304243  0.62833333  0.75739768  1
  O  O24  1  0.93166091  0.01145106  0.25964620  1
  O  O25  1  0.93166091  0.51145106  0.24035380  1
  O  O26  1  0.89936593  0.23699037  0.73844512  1
  O  O27  1  0.84261432  0.33231450  0.26556168  1
  O  O28  1  0.89936593  0.73699037  0.76155488  1
  O  O29  1  0.84261432  0.83231450  0.23443832  1
  O  O30  1  0.69246377  0.06494206  0.94023781  1
  O  O31  1  0.68639743  0.07734688  0.55857408  1
  O  O32  1  0.68639743  0.57734688  0.94142592  1
  O  O33  1  0.69246377  0.56494206  0.55976219  1
  O  O34  1  0.57362092  0.30566012  0.24447905  1
  O  O35  1  0.58313796  0.40756111  0.75397386  1
  O  O36  1  0.57362092  0.80566012  0.25552095  1
  O  O37  1  0.58313796  0.90756111  0.74602614  1
  O  O38  1  0.41686204  0.09243889  0.24602614  1
  O  O39  1  0.42637908  0.19433988  0.75552095  1
  O  O40  1  0.41686204  0.59243889  0.25397386  1
  O  O41  1  0.42637908  0.69433988  0.74447905  1
  O  O42  1  0.30753523  0.43505794  0.05976219  1
  O  O43  1  0.31360257  0.42265312  0.44142592  1
  O  O44  1  0.31360257  0.92265312  0.05857408  1
  O  O45  1  0.30753523  0.93505794  0.44023781  1
  O  O46  1  0.15738568  0.16768550  0.73443832  1
  O  O47  1  0.10063407  0.26300963  0.26155488  1
  O  O48  1  0.15738568  0.66768550  0.76556168  1
  O  O49  1  0.10063407  0.76300963  0.23844512  1
  O  O50  1  0.06833909  0.48854894  0.74035380  1
  O  O51  1  0.06833909  0.98854894  0.75964620  1
