# generated using pymatgen
data_Co3(PO4)4
_symmetry_space_group_name_H-M   'P 1'
_cell_length_a   7.78556607
_cell_length_b   7.78451620
_cell_length_c   10.32249052
_cell_angle_alpha   90.00000000
_cell_angle_beta   95.41022535
_cell_angle_gamma   90.00000000
_symmetry_Int_Tables_number   1
_chemical_formula_structural   Co3(PO4)4
_chemical_formula_sum   'Co6 P8 O32'
_cell_volume   622.82677855
_cell_formula_units_Z   2
loop_
 _symmetry_equiv_pos_site_id
 _symmetry_equiv_pos_as_xyz
  1  'x, y, z'
loop_
 _atom_site_type_symbol
 _atom_site_label
 _atom_site_symmetry_multiplicity
 _atom_site_fract_x
 _atom_site_fract_y
 _atom_site_fract_z
 _atom_site_occupancy
  O  O0  1  0.60315235  0.30202824  0.89422271  1
  O  O1  1  0.93725895  0.85582602  0.09772357  1
  O  O2  1  0.92246494  0.85997327  0.61357846  1
  O  O3  1  0.88233664  0.80680024  0.36244412  1
  O  O4  1  0.85361723  0.43964789  0.28967669  1
  O  O5  1  0.89684728  0.80202790  0.85577748  1
  O  O6  1  0.10334123  0.13060674  0.90755218  1
  O  O7  1  0.05234277  0.11682411  0.39692470  1
  O  O8  1  0.10163242  0.19367212  0.63154679  1
  O  O9  1  0.11821271  0.58161237  0.70080206  1
  O  O10  1  0.11383830  0.17157706  0.14672222  1
  O  O11  1  0.16429952  0.54306772  0.21554908  1
  O  O12  1  0.26424462  0.38541968  0.00542414  1
  O  O13  1  0.23575539  0.88541934  0.74457665  1
  O  O14  1  0.23189872  0.84987534  0.28422533  1
  O  O15  1  0.26810081  0.34987567  0.46577523  1
  O  O16  1  0.33570001  0.04306675  0.53445051  1
  O  O17  1  0.38616123  0.67157673  0.60327835  1
  O  O18  1  0.39665879  0.63060770  0.84244764  1
  O  O19  1  0.75433270  0.13221286  0.20481528  1
  O  O20  1  0.39836839  0.69367179  0.11845385  1
  O  O21  1  0.44765805  0.61682507  0.35307497  1
  O  O22  1  0.56274021  0.35582636  0.65227640  1
  O  O23  1  0.82849669  0.46160817  0.79437391  1
  O  O24  1  0.57753421  0.35997361  0.13642150  1
  O  O25  1  0.67150294  0.96160914  0.95562629  1
  O  O26  1  0.61766251  0.30680058  0.38755584  1
  O  O27  1  0.64638320  0.93964755  0.46032335  1
  O  O28  1  0.74566773  0.63221383  0.54518476  1
  O  O29  1  0.79103556  0.14274481  0.74328724  1
  O  O30  1  0.70896487  0.64274447  0.00671280  1
  O  O31  1  0.38178810  0.08161271  0.04919761  1
  P  P32  1  0.21456441  0.19898645  0.02918003  1
  P  P33  1  0.28543512  0.69898612  0.72081957  1
  P  P34  1  0.30850406  0.67863240  0.24561087  1
  P  P35  1  0.69699029  0.30936686  0.76477553  1
  P  P36  1  0.70569524  0.31418714  0.26174770  1
  P  P37  1  0.80300934  0.80936653  0.98522466  1
  P  P38  1  0.19149547  0.17863143  0.50438872  1
  P  P39  1  0.79430520  0.81418680  0.48825234  1
  Co  Co40  1  0.89484415  0.64841671  0.70631224  1
  Co  Co41  1  0.60515628  0.14841705  0.04368779  1
  Co  Co42  1  0.48210153  0.48226580  0.50182200  1
  Co  Co43  1  0.47665584  0.53431490  0.99591893  1
  Co  Co44  1  0.01789928  0.98226547  0.24817767  1
  Co  Co45  1  0.02334497  0.03431524  0.75408073  1
