# generated using pymatgen
data_Li7Ti7Nb5O30
_symmetry_space_group_name_H-M   'P 1'
_cell_length_a   5.16643314
_cell_length_b   5.16642280
_cell_length_c   23.82624196
_cell_angle_alpha   89.99807701
_cell_angle_beta   90.00121076
_cell_angle_gamma   120.00086268
_symmetry_Int_Tables_number   1
_chemical_formula_structural   Li7Ti7Nb5O30
_chemical_formula_sum   'Li7 Ti7 Nb5 O30'
_cell_volume   550.76097689
_cell_formula_units_Z   1
loop_
 _symmetry_equiv_pos_site_id
 _symmetry_equiv_pos_as_xyz
  1  'x, y, z'
loop_
 _atom_site_type_symbol
 _atom_site_label
 _atom_site_symmetry_multiplicity
 _atom_site_fract_x
 _atom_site_fract_y
 _atom_site_fract_z
 _atom_site_occupancy
  Li  Li0  1  0.33330672  0.66665922  0.27487510  1
  Li  Li1  1  0.00000678  0.99999713  0.08050315  1
  Li  Li2  1  0.99995987  0.99995626  0.37344360  1
  Li  Li3  1  0.00001813  0.00001895  0.62805549  1
  Li  Li4  1  0.99997699  0.99999212  0.92318927  1
  Li  Li5  1  0.33334467  0.66664999  0.52916594  1
  Li  Li6  1  0.66671751  0.33338541  0.20271664  1
  Ti  Ti7  1  0.33331072  0.66665621  0.88573436  1
  Ti  Ti8  1  0.33329344  0.66665513  0.01141730  1
  Ti  Ti9  1  0.33332817  0.66665678  0.69108506  1
  Ti  Ti10  1  0.66663864  0.33332209  0.59012273  1
  Ti  Ti11  1  0.66667320  0.33333621  0.71398059  1
  Ti  Ti12  1  0.66661927  0.33329969  0.98145146  1
  Ti  Ti13  1  0.66668098  0.33340031  0.10453188  1
  Nb  Nb14  1  0.33323804  0.66667643  0.40436335  1
  Nb  Nb15  1  0.99996928  0.00005416  0.20290170  1
  Nb  Nb16  1  0.99992509  0.99992869  0.50187031  1
  Nb  Nb17  1  0.99998091  0.99998306  0.79939552  1
  Nb  Nb18  1  0.66656108  0.33327089  0.30862096  1
  O  O19  1  0.92131429  0.66769431  0.14831979  1
  O  O20  1  0.00917084  0.63875441  0.35142618  1
  O  O21  1  0.00426238  0.67159521  0.74511458  1
  O  O22  1  0.27291386  0.94009148  0.45273137  1
  O  O23  1  0.97834463  0.36498683  0.04390022  1
  O  O24  1  0.38660248  0.02161435  0.04389114  1
  O  O25  1  0.05997422  0.33285927  0.45273546  1
  O  O26  1  0.32841245  0.33264231  0.74511244  1
  O  O27  1  0.62960351  0.99084036  0.35142919  1
  O  O28  1  0.33230308  0.25361661  0.14832386  1
  O  O29  1  0.66736589  0.99575775  0.74511428  1
  O  O30  1  0.36125926  0.37039443  0.35143519  1
  O  O31  1  0.32875011  0.29470812  0.55378177  1
  O  O32  1  0.74636481  0.07867391  0.14832692  1
  O  O33  1  0.36627318  0.38903197  0.94870904  1
  O  O34  1  0.63497992  0.61335521  0.04389371  1
  O  O35  1  0.27081086  0.94464692  0.84724653  1
  O  O36  1  0.66718316  0.72715486  0.45273099  1
  O  O37  1  0.61985318  0.60291867  0.65360402  1
  O  O38  1  0.33966230  0.04518694  0.25257370  1
  O  O39  1  0.67384234  0.72919980  0.84724860  1
  O  O40  1  0.39709928  0.01692748  0.65360152  1
  O  O41  1  0.70556051  0.66043012  0.25257180  1
  O  O42  1  0.96601007  0.67127214  0.55378201  1
  O  O43  1  0.61093460  0.97723687  0.94871084  1
  O  O44  1  0.02273884  0.63367421  0.94871027  1
  O  O45  1  0.70531721  0.03402221  0.55378642  1
  O  O46  1  0.95489629  0.29449741  0.25256839  1
  O  O47  1  0.98308964  0.38015931  0.65360441  1
  O  O48  1  0.05535732  0.32615582  0.84724191  1
