# generated using pymatgen
data_LiV2S2(O4F3)2
_symmetry_space_group_name_H-M   'P 1'
_cell_length_a   7.18146583
_cell_length_b   7.95278488
_cell_length_c   10.24832702
_cell_angle_alpha   87.09615651
_cell_angle_beta   90.00000000
_cell_angle_gamma   90.00000000
_symmetry_Int_Tables_number   1
_chemical_formula_structural   LiV2S2(O4F3)2
_chemical_formula_sum   'Li2 V4 S4 O16 F12'
_cell_volume   584.55758408
_cell_formula_units_Z   2
loop_
 _symmetry_equiv_pos_site_id
 _symmetry_equiv_pos_as_xyz
  1  'x, y, z'
loop_
 _atom_site_type_symbol
 _atom_site_label
 _atom_site_symmetry_multiplicity
 _atom_site_fract_x
 _atom_site_fract_y
 _atom_site_fract_z
 _atom_site_occupancy
  Li  Li0  1  0.64150763  0.08270628  0.27876607  1
  Li  Li1  1  0.85849237  0.58270628  0.77876607  1
  V  V2  1  0.99630730  0.00410436  0.00010128  1
  V  V3  1  0.00377395  0.50164359  0.48932578  1
  V  V4  1  0.49622605  0.00164359  0.98932578  1
  V  V5  1  0.50369270  0.50410436  0.50010128  1
  S  S6  1  0.26601314  0.17252930  0.50011484  1
  S  S7  1  0.23398686  0.67252930  0.00011484  1
  S  S8  1  0.73838651  0.83723611  0.51363455  1
  S  S9  1  0.76161349  0.33723611  0.01363455  1
  O  O10  1  0.10801497  0.28771140  0.44595815  1
  O  O11  1  0.10216530  0.80553524  0.06790944  1
  O  O12  1  0.12894613  0.60865933  0.89274224  1
  O  O13  1  0.19701754  0.05801254  0.59983752  1
  O  O14  1  0.37105387  0.10865933  0.39274224  1
  O  O15  1  0.30298246  0.55801254  0.09983752  1
  O  O16  1  0.39198503  0.78771140  0.94595815  1
  O  O17  1  0.39783470  0.30553524  0.56790944  1
  O  O18  1  0.60558571  0.21963267  0.05893600  1
  O  O19  1  0.59767825  0.71099780  0.44439257  1
  O  O20  1  0.70408961  0.45394124  0.90834959  1
  O  O21  1  0.64556841  0.90376991  0.62353934  1
  O  O22  1  0.85443159  0.40376991  0.12353934  1
  O  O23  1  0.79591039  0.95394124  0.40834959  1
  O  O24  1  0.89441429  0.71963267  0.55893600  1
  O  O25  1  0.90232175  0.21099780  0.94439257  1
  F  F26  1  0.00900335  0.44783451  0.66521903  1
  F  F27  1  0.01640245  0.93799401  0.83824343  1
  F  F28  1  0.25894216  0.59988257  0.49918317  1
  F  F29  1  0.24105784  0.09988257  0.99918317  1
  F  F30  1  0.49099665  0.94783451  0.16521903  1
  F  F31  1  0.48359755  0.43799401  0.33824343  1
  F  F32  1  0.52196584  0.09052003  0.83008264  1
  F  F33  1  0.57030900  0.54832512  0.66413441  1
  F  F34  1  0.75359375  0.40212401  0.48849992  1
  F  F35  1  0.74640625  0.90212401  0.98849992  1
  F  F36  1  0.92969100  0.04832512  0.16413441  1
  F  F37  1  0.97803416  0.59052003  0.33008264  1
