# generated using pymatgen
data_Li3CoPCO7
_symmetry_space_group_name_H-M   'P 1'
_cell_length_a   8.44071873
_cell_length_b   4.97759055
_cell_length_c   12.92155032
_cell_angle_alpha   89.94838159
_cell_angle_beta   90.30907298
_cell_angle_gamma   85.05667754
_symmetry_Int_Tables_number   1
_chemical_formula_structural   Li3CoPCO7
_chemical_formula_sum   'Li12 Co4 P4 C4 O28'
_cell_volume   540.86402045
_cell_formula_units_Z   4
loop_
 _symmetry_equiv_pos_site_id
 _symmetry_equiv_pos_as_xyz
  1  'x, y, z'
loop_
 _atom_site_type_symbol
 _atom_site_label
 _atom_site_symmetry_multiplicity
 _atom_site_fract_x
 _atom_site_fract_y
 _atom_site_fract_z
 _atom_site_occupancy
  Li  Li0  1  0.09790758  0.76490880  0.12481663  1
  Li  Li1  1  0.10148016  0.76840718  0.62946415  1
  Li  Li2  1  0.27891599  0.24767264  0.51499107  1
  Li  Li3  1  0.27306812  0.25181786  0.24770093  1
  Li  Li4  1  0.28055721  0.23536619  0.74008648  1
  Li  Li5  1  0.34782174  0.77875285  0.86879980  1
  Li  Li6  1  0.71898300  0.75477941  0.98161822  1
  Li  Li7  1  0.72096159  0.75266010  0.26401349  1
  Li  Li8  1  0.72465216  0.74997225  0.49325263  1
  Li  Li9  1  0.71999472  0.75068128  0.76292538  1
  Li  Li10  1  0.90213388  0.23369100  0.37828016  1
  Li  Li11  1  0.90082507  0.23439970  0.87097997  1
  Co  Co12  1  0.26123230  0.24619717  0.99658829  1
  Co  Co13  1  0.33235607  0.79113051  0.37632791  1
  Co  Co14  1  0.66637289  0.20654902  0.12449646  1
  Co  Co15  1  0.66679291  0.20837997  0.62561677  1
  P  P16  1  0.41272277  0.72689956  0.12374072  1
  P  P17  1  0.41152055  0.72263516  0.62583964  1
  P  P18  1  0.58690113  0.28016212  0.37414365  1
  P  P19  1  0.58622680  0.28476434  0.87678993  1
  C  C20  1  0.03715039  0.70159475  0.37304602  1
  C  C21  1  0.04027547  0.70469078  0.88145235  1
  C  C22  1  0.96165262  0.29718427  0.62471384  1
  C  C23  1  0.96257641  0.29522520  0.12278005  1
  O  O24  1  0.07074872  0.95317910  0.88188526  1
  O  O25  1  0.07280969  0.94876319  0.37381822  1
  O  O26  1  0.11199946  0.35559606  0.11757881  1
  O  O27  1  0.10677160  0.36196151  0.62507051  1
  O  O28  1  0.15398340  0.51100461  0.37057980  1
  O  O29  1  0.15657496  0.51257148  0.88533594  1
  O  O30  1  0.30816047  0.82673241  0.53042113  1
  O  O31  1  0.30992227  0.84322929  0.03140072  1
  O  O32  1  0.31025682  0.82060471  0.21933720  1
  O  O33  1  0.30952298  0.82391530  0.71838516  1
  O  O34  1  0.42035371  0.17436696  0.37409760  1
  O  O35  1  0.41917651  0.17796928  0.87635201  1
  O  O36  1  0.43340612  0.40717251  0.62362740  1
  O  O37  1  0.42789011  0.41054627  0.11679288  1
  O  O38  1  0.56710784  0.59391791  0.37353273  1
  O  O39  1  0.57169760  0.59478668  0.87700232  1
  O  O40  1  0.58127346  0.82286024  0.12677405  1
  O  O41  1  0.57920469  0.82800243  0.62430151  1
  O  O42  1  0.69193237  0.17453336  0.46752205  1
  O  O43  1  0.68992609  0.17609104  0.28001128  1
  O  O44  1  0.68765839  0.17244672  0.78298232  1
  O  O45  1  0.69086981  0.17245932  0.97040244  1
  O  O46  1  0.85057111  0.48765391  0.12564881  1
  O  O47  1  0.84307649  0.48581206  0.62476458  1
  O  O48  1  0.89128725  0.63937376  0.37472258  1
  O  O49  1  0.89443853  0.63781021  0.87457748  1
  O  O50  1  0.92923227  0.04875323  0.12600789  1
  O  O51  1  0.92706773  0.04936132  0.62460376  1
