# generated using pymatgen
data_Li3Mn2C3O9F
_symmetry_space_group_name_H-M   'P 1'
_cell_length_a   7.60001352
_cell_length_b   8.59881534
_cell_length_c   6.48029345
_cell_angle_alpha   85.25981641
_cell_angle_beta   100.77750041
_cell_angle_gamma   116.22658106
_symmetry_Int_Tables_number   1
_chemical_formula_structural   Li3Mn2C3O9F
_chemical_formula_sum   'Li6 Mn4 C6 O18 F2'
_cell_volume   373.19600397
_cell_formula_units_Z   2
loop_
 _symmetry_equiv_pos_site_id
 _symmetry_equiv_pos_as_xyz
  1  'x, y, z'
loop_
 _atom_site_type_symbol
 _atom_site_label
 _atom_site_symmetry_multiplicity
 _atom_site_fract_x
 _atom_site_fract_y
 _atom_site_fract_z
 _atom_site_occupancy
  Li  Li0  1  0.24260286  0.67185638  0.52385411  1
  Li  Li1  1  0.17789362  0.23399718  0.67987647  1
  Li  Li2  1  0.16385018  0.22112833  0.17994184  1
  Li  Li3  1  0.57074649  0.32814362  0.02385411  1
  Li  Li4  1  0.94272185  0.77887167  0.67994184  1
  Li  Li5  1  0.94389544  0.76600282  0.17987647  1
  Mn  Mn6  1  0.24860607  0.62668603  0.02944914  1
  Mn  Mn7  1  0.68066073  0.97936692  0.84427443  1
  Mn  Mn8  1  0.70129381  0.02063308  0.34427443  1
  Mn  Mn9  1  0.62192003  0.37331397  0.52944914  1
  C  C10  1  0.31652909  0.99639548  0.99388859  1
  C  C11  1  0.55707532  0.60898916  0.80892401  1
  C  C12  1  0.55813904  0.61682668  0.30532829  1
  C  C13  1  0.32013361  0.00360452  0.49388859  1
  C  C14  1  0.94131236  0.38317332  0.80532829  1
  C  C15  1  0.94808616  0.39101084  0.30892401  1
  O  O16  1  0.16704664  0.84400865  0.96897309  1
  O  O17  1  0.15683976  0.86376061  0.47250567  1
  O  O18  1  0.02318295  0.54766239  0.23542202  1
  O  O19  1  0.08520474  0.35371172  0.91120188  1
  O  O20  1  0.05585505  0.31561570  0.39256253  1
  O  O21  1  0.49001869  0.99254309  0.54224477  1
  O  O22  1  0.44724509  0.69532919  0.79483827  1
  O  O23  1  0.29307915  0.13623939  0.97250567  1
  O  O24  1  0.48665476  0.73039081  0.30195409  1
  O  O25  1  0.47552055  0.45233761  0.73542202  1
  O  O26  1  0.45108944  0.47328226  0.20161091  1
  O  O27  1  0.32303799  0.15599135  0.46897309  1
  O  O28  1  0.74023935  0.68438430  0.89256253  1
  O  O29  1  0.73149302  0.64628828  0.41120188  1
  O  O30  1  0.49747559  0.00745691  0.04224477  1
  O  O31  1  0.75626395  0.26960919  0.80195409  1
  O  O32  1  0.75191589  0.30467081  0.29483827  1
  O  O33  1  0.97780718  0.52671774  0.70161091  1
  F  F34  1  0.87692390  0.99884824  0.13876191  1
  F  F35  1  0.87807565  0.00115176  0.63876191  1
