# generated using pymatgen
data_Li3Nb2Fe3O10
_symmetry_space_group_name_H-M   'P 1'
_cell_length_a   5.35971509
_cell_length_b   5.26056741
_cell_length_c   8.23275907
_cell_angle_alpha   78.42719542
_cell_angle_beta   69.94170972
_cell_angle_gamma   101.73601864
_symmetry_Int_Tables_number   1
_chemical_formula_structural   Li3Nb2Fe3O10
_chemical_formula_sum   'Li3 Nb2 Fe3 O10'
_cell_volume   204.05238527
_cell_formula_units_Z   1
loop_
 _symmetry_equiv_pos_site_id
 _symmetry_equiv_pos_as_xyz
  1  'x, y, z'
loop_
 _atom_site_type_symbol
 _atom_site_label
 _atom_site_symmetry_multiplicity
 _atom_site_fract_x
 _atom_site_fract_y
 _atom_site_fract_z
 _atom_site_occupancy
  Li  Li0  1  0.09856675  0.54111609  0.58320058  1
  Li  Li1  1  0.36433389  0.43267672  0.23681675  1
  Li  Li2  1  0.60372666  0.54496384  0.78345505  1
  Nb  Nb3  1  0.63375950  0.95287815  0.31176054  1
  Nb  Nb4  1  0.39696544  0.05457847  0.68870481  1
  Fe  Fe5  1  0.99836228  0.49963755  0.99961452  1
  Fe  Fe6  1  0.21823050  0.97684271  0.11820104  1
  Fe  Fe7  1  0.78783723  0.99669373  0.89558925  1
  O  O8  1  0.27936648  0.74889479  0.32436066  1
  O  O9  1  0.01425993  0.74583748  0.77346261  1
  O  O10  1  0.42793067  0.20862820  0.45009223  1
  O  O11  1  0.61678813  0.23462356  0.07829140  1
  O  O12  1  0.19610609  0.25321438  0.84192213  1
  O  O13  1  0.81929226  0.75893231  0.13911780  1
  O  O14  1  0.38455041  0.76314743  0.92622627  1
  O  O15  1  0.58247154  0.78661156  0.55261544  1
  O  O16  1  0.00636525  0.24415371  0.21201591  1
  O  O17  1  0.74334601  0.24598432  0.68631001  1
