# generated using pymatgen
data_Ca3Ta2O8
_symmetry_space_group_name_H-M   'P 1'
_cell_length_a   6.86150062
_cell_length_b   7.22897858
_cell_length_c   9.30732239
_cell_angle_alpha   90.00000000
_cell_angle_beta   90.00000000
_cell_angle_gamma   118.33220240
_symmetry_Int_Tables_number   1
_chemical_formula_structural   Ca3Ta2O8
_chemical_formula_sum   'Ca6 Ta4 O16'
_cell_volume   406.35674677
_cell_formula_units_Z   2
loop_
 _symmetry_equiv_pos_site_id
 _symmetry_equiv_pos_as_xyz
  1  'x, y, z'
loop_
 _atom_site_type_symbol
 _atom_site_label
 _atom_site_symmetry_multiplicity
 _atom_site_fract_x
 _atom_site_fract_y
 _atom_site_fract_z
 _atom_site_occupancy
  Ca  Ca0  1  0.10940915  0.71881830  0.75000000  1
  Ca  Ca1  1  0.00000000  0.00000000  0.00000000  1
  Ca  Ca2  1  0.39059085  0.28118170  0.25000000  1
  Ca  Ca3  1  0.60940915  0.71881830  0.75000000  1
  Ca  Ca4  1  0.50000000  0.00000000  0.50000000  1
  Ca  Ca5  1  0.89059085  0.28118170  0.25000000  1
  Ta  Ta6  1  0.38367288  0.76734576  0.11826117  1
  Ta  Ta7  1  0.11632712  0.23265424  0.61826117  1
  Ta  Ta8  1  0.61632712  0.23265424  0.88173883  1
  Ta  Ta9  1  0.88367288  0.76734576  0.38173883  1
  O  O10  1  0.10642371  0.77031581  0.49789709  1
  O  O11  1  0.16389110  0.77031581  0.00210291  1
  O  O12  1  0.49941159  0.99882318  0.75162984  1
  O  O13  1  0.00058841  0.00117682  0.25162984  1
  O  O14  1  0.25713255  0.51426410  0.22111057  1
  O  O15  1  0.24286745  0.48573590  0.72111057  1
  O  O16  1  0.33610890  0.22968419  0.50210291  1
  O  O17  1  0.60642371  0.77031581  0.00210291  1
  O  O18  1  0.39357629  0.22968419  0.99789709  1
  O  O19  1  0.66389110  0.77031581  0.49789709  1
  O  O20  1  0.50058841  0.00117682  0.24837016  1
  O  O21  1  0.74286745  0.48573590  0.77888943  1
  O  O22  1  0.75713255  0.51426410  0.27888943  1
  O  O23  1  0.99941159  0.99882318  0.74837016  1
  O  O24  1  0.83610890  0.22968419  0.99789709  1
  O  O25  1  0.89357629  0.22968419  0.50210291  1
