# generated using pymatgen
data_Mg(IO3)2
_symmetry_space_group_name_H-M   'P 1'
_cell_length_a   14.78055242
_cell_length_b   6.75060019
_cell_length_c   5.30392339
_cell_angle_alpha   90.00000000
_cell_angle_beta   90.00000000
_cell_angle_gamma   90.00000000
_symmetry_Int_Tables_number   1
_chemical_formula_structural   Mg(IO3)2
_chemical_formula_sum   'Mg4 I8 O24'
_cell_volume   529.21274630
_cell_formula_units_Z   4
loop_
 _symmetry_equiv_pos_site_id
 _symmetry_equiv_pos_as_xyz
  1  'x, y, z'
loop_
 _atom_site_type_symbol
 _atom_site_label
 _atom_site_symmetry_multiplicity
 _atom_site_fract_x
 _atom_site_fract_y
 _atom_site_fract_z
 _atom_site_occupancy
  Mg  Mg0  1  0.00000000  0.13923512  0.75000000  1
  Mg  Mg1  1  0.00000000  0.86076488  0.25000000  1
  Mg  Mg2  1  0.50000000  0.36076488  0.25000000  1
  Mg  Mg3  1  0.50000000  0.63923512  0.75000000  1
  I  I4  1  0.14977353  0.28557093  0.25175843  1
  I  I5  1  0.14977353  0.71442907  0.75175843  1
  I  I6  1  0.35022647  0.21442907  0.75175843  1
  I  I7  1  0.35022647  0.78557093  0.25175843  1
  I  I8  1  0.64977353  0.21442907  0.74824157  1
  I  I9  1  0.64977353  0.78557093  0.24824157  1
  I  I10  1  0.85022647  0.28557093  0.24824157  1
  I  I11  1  0.85022647  0.71442907  0.74824157  1
  O  O12  1  0.07689340  0.10271400  0.41983142  1
  O  O13  1  0.07689340  0.89728600  0.91983142  1
  O  O14  1  0.08108509  0.33377527  0.96640929  1
  O  O15  1  0.08108509  0.66622473  0.46640929  1
  O  O16  1  0.26293051  0.37665311  0.63041836  1
  O  O17  1  0.26293051  0.62334689  0.13041836  1
  O  O18  1  0.23706949  0.12334689  0.13041836  1
  O  O19  1  0.23706949  0.87665311  0.63041836  1
  O  O20  1  0.41891491  0.16622473  0.46640929  1
  O  O21  1  0.41891491  0.83377527  0.96640929  1
  O  O22  1  0.42310660  0.39728600  0.91983142  1
  O  O23  1  0.42310660  0.60271400  0.41983142  1
  O  O24  1  0.57689340  0.39728600  0.58016858  1
  O  O25  1  0.57689340  0.60271400  0.08016858  1
  O  O26  1  0.58108509  0.16622473  0.03359071  1
  O  O27  1  0.58108509  0.83377527  0.53359071  1
  O  O28  1  0.76293051  0.12334689  0.36958164  1
  O  O29  1  0.76293051  0.87665311  0.86958164  1
  O  O30  1  0.73706949  0.37665311  0.86958164  1
  O  O31  1  0.73706949  0.62334689  0.36958164  1
  O  O32  1  0.91891491  0.33377527  0.53359071  1
  O  O33  1  0.91891491  0.66622473  0.03359071  1
  O  O34  1  0.92310660  0.10271400  0.08016858  1
  O  O35  1  0.92310660  0.89728600  0.58016858  1
