# generated using pymatgen
data_Li2BiO3
_symmetry_space_group_name_H-M   'P 1'
_cell_length_a   5.67854833
_cell_length_b   5.67854833
_cell_length_c   10.41706706
_cell_angle_alpha   85.50546270
_cell_angle_beta   94.49453730
_cell_angle_gamma   61.78882463
_symmetry_Int_Tables_number   1
_chemical_formula_structural   Li2BiO3
_chemical_formula_sum   'Li8 Bi4 O12'
_cell_volume   292.53801732
_cell_formula_units_Z   4
loop_
 _symmetry_equiv_pos_site_id
 _symmetry_equiv_pos_as_xyz
  1  'x, y, z'
loop_
 _atom_site_type_symbol
 _atom_site_label
 _atom_site_symmetry_multiplicity
 _atom_site_fract_x
 _atom_site_fract_y
 _atom_site_fract_z
 _atom_site_occupancy
  Li  Li0  1  0.28963922  0.90178764  0.99244611  1
  Li  Li1  1  0.09821236  0.71036078  0.49244611  1
  Li  Li2  1  0.00000000  0.50000000  0.00000000  1
  Li  Li3  1  0.24560758  0.24560758  0.75000000  1
  Li  Li4  1  0.75439242  0.75439242  0.25000000  1
  Li  Li5  1  0.50000000  0.00000000  0.50000000  1
  Li  Li6  1  0.90178764  0.28963922  0.50755389  1
  Li  Li7  1  0.71036078  0.09821236  0.00755389  1
  Bi  Bi8  1  0.57551745  0.57551745  0.75000000  1
  Bi  Bi9  1  0.91296546  0.91296546  0.75000000  1
  Bi  Bi10  1  0.08703454  0.08703454  0.25000000  1
  Bi  Bi11  1  0.42448255  0.42448255  0.25000000  1
  O  O12  1  0.18622282  0.95948027  0.63061998  1
  O  O13  1  0.24144439  0.57392232  0.87054159  1
  O  O14  1  0.04051973  0.81377718  0.13061998  1
  O  O15  1  0.64231630  0.88042093  0.87654142  1
  O  O16  1  0.42607768  0.75855561  0.37054159  1
  O  O17  1  0.11957907  0.35768370  0.37654142  1
  O  O18  1  0.88042093  0.64231630  0.62345858  1
  O  O19  1  0.57392232  0.24144439  0.62945841  1
  O  O20  1  0.35768370  0.11957907  0.12345858  1
  O  O21  1  0.95948027  0.18622282  0.86938002  1
  O  O22  1  0.75855561  0.42607768  0.12945841  1
  O  O23  1  0.81377718  0.04051973  0.36938002  1
