# generated using pymatgen
data_Li12VCo3P4(CO7)4
_symmetry_space_group_name_H-M   'P 1'
_cell_length_a   8.44785743
_cell_length_b   9.99893107
_cell_length_c   6.51585557
_cell_angle_alpha   90.00000000
_cell_angle_beta   90.00000000
_cell_angle_gamma   84.72730401
_symmetry_Int_Tables_number   1
_chemical_formula_structural   Li12VCo3P4(CO7)4
_chemical_formula_sum   'Li12 V1 Co3 P4 C4 O28'
_cell_volume   548.06242583
_cell_formula_units_Z   1
loop_
 _symmetry_equiv_pos_site_id
 _symmetry_equiv_pos_as_xyz
  1  'x, y, z'
loop_
 _atom_site_type_symbol
 _atom_site_label
 _atom_site_symmetry_multiplicity
 _atom_site_fract_x
 _atom_site_fract_y
 _atom_site_fract_z
 _atom_site_occupancy
  Li  Li0  1  0.09730072  0.38495597  0.25000000  1
  Li  Li1  1  0.09951477  0.88436933  0.25000000  1
  Li  Li2  1  0.27630285  0.12601591  0.02071609  1
  Li  Li3  1  0.27630285  0.12601591  0.47928391  1
  Li  Li4  1  0.27692136  0.62551535  0.01876539  1
  Li  Li5  1  0.27692136  0.62551535  0.48123461  1
  Li  Li6  1  0.72209525  0.37219573  0.52362911  1
  Li  Li7  1  0.72209525  0.37219573  0.97637089  1
  Li  Li8  1  0.72289374  0.87590027  0.52282112  1
  Li  Li9  1  0.72289374  0.87590027  0.97717888  1
  Li  Li10  1  0.90158624  0.11578569  0.75000000  1
  Li  Li11  1  0.90029299  0.61575896  0.75000000  1
  V  V12  1  0.67117928  0.60394186  0.25000000  1
  Co  Co13  1  0.33171486  0.39483222  0.75000000  1
  Co  Co14  1  0.33153636  0.89392093  0.75000000  1
  Co  Co15  1  0.66824846  0.10545022  0.25000000  1
  P  P16  1  0.41130219  0.36072051  0.25000000  1
  P  P17  1  0.41242290  0.86108435  0.25000000  1
  P  P18  1  0.58686467  0.13862190  0.75000000  1
  P  P19  1  0.58783375  0.63898359  0.75000000  1
  C  C20  1  0.03688995  0.34926039  0.75000000  1
  C  C21  1  0.03696153  0.84955054  0.75000000  1
  C  C22  1  0.96242735  0.15078176  0.25000000  1
  C  C23  1  0.96568978  0.65220153  0.25000000  1
  O  O24  1  0.07223685  0.47256532  0.75000000  1
  O  O25  1  0.10847466  0.18157935  0.25000000  1
  O  O26  1  0.07212517  0.97265100  0.75000000  1
  O  O27  1  0.15404123  0.25460269  0.75000000  1
  O  O28  1  0.11171756  0.68020421  0.25000000  1
  O  O29  1  0.15421823  0.75482784  0.75000000  1
  O  O30  1  0.30734006  0.41271770  0.06345797  1
  O  O31  1  0.30734006  0.41271770  0.43654203  1
  O  O32  1  0.30887117  0.91252043  0.06297649  1
  O  O33  1  0.30887117  0.91252043  0.43702351  1
  O  O34  1  0.42065358  0.08642798  0.75000000  1
  O  O35  1  0.43330997  0.20385448  0.25000000  1
  O  O36  1  0.42107330  0.58707834  0.75000000  1
  O  O37  1  0.43099086  0.70437290  0.25000000  1
  O  O38  1  0.56598153  0.29581023  0.75000000  1
  O  O39  1  0.57818518  0.41190151  0.25000000  1
  O  O40  1  0.56560774  0.79614526  0.75000000  1
  O  O41  1  0.57877755  0.91395224  0.25000000  1
  O  O42  1  0.69152958  0.08749242  0.93636950  1
  O  O43  1  0.69152958  0.08749242  0.56363050  1
  O  O44  1  0.69352665  0.58568505  0.56686219  1
  O  O45  1  0.69352665  0.58568505  0.93313781  1
  O  O46  1  0.84514057  0.24567782  0.25000000  1
  O  O47  1  0.89098230  0.31839918  0.75000000  1
  O  O48  1  0.85023387  0.74820932  0.25000000  1
  O  O49  1  0.92718336  0.02778868  0.25000000  1
  O  O50  1  0.89092157  0.81867513  0.75000000  1
  O  O51  1  0.92741782  0.52897202  0.25000000  1
