# generated using pymatgen
data_Ca5Ta4O15
_symmetry_space_group_name_H-M   'P 1'
_cell_length_a   5.53722248
_cell_length_b   5.53723738
_cell_length_c   23.45547820
_cell_angle_alpha   90.00109667
_cell_angle_beta   90.00143118
_cell_angle_gamma   120.00017777
_symmetry_Int_Tables_number   1
_chemical_formula_structural   Ca5Ta4O15
_chemical_formula_sum   'Ca10 Ta8 O30'
_cell_volume   622.81528164
_cell_formula_units_Z   2
loop_
 _symmetry_equiv_pos_site_id
 _symmetry_equiv_pos_as_xyz
  1  'x, y, z'
loop_
 _atom_site_type_symbol
 _atom_site_label
 _atom_site_symmetry_multiplicity
 _atom_site_fract_x
 _atom_site_fract_y
 _atom_site_fract_z
 _atom_site_occupancy
  Ca  Ca0  1  0.33332756  0.66665610  0.23100385  1
  Ca  Ca1  1  0.33332963  0.66664243  0.38126028  1
  Ca  Ca2  1  0.00000940  -0.00000455  -0.00000015  1
  Ca  Ca3  1  0.00008623  0.99999465  0.50000022  1
  Ca  Ca4  1  0.33331901  0.66665324  0.73100367  1
  Ca  Ca5  1  0.33330431  0.66664681  0.88125905  1
  Ca  Ca6  1  0.66668379  0.33336243  0.11874039  1
  Ca  Ca7  1  0.66666904  0.33333890  0.26899859  1
  Ca  Ca8  1  0.66669756  0.33334133  0.61874125  1
  Ca  Ca9  1  0.66666499  0.33332794  0.76899645  1
  Ta  Ta10  1  0.33333089  0.66669780  0.05223297  1
  Ta  Ta11  1  0.00001816  0.00002788  0.15651108  1
  Ta  Ta12  1  0.99998503  0.99997723  0.34348849  1
  Ta  Ta13  1  0.00003504  0.00001618  0.65651513  1
  Ta  Ta14  1  0.99996778  0.99997325  0.84348611  1
  Ta  Ta15  1  0.33334573  0.66666669  0.55224502  1
  Ta  Ta16  1  0.66665382  0.33331511  0.44776167  1
  Ta  Ta17  1  0.66663364  0.33331802  0.94775512  1
  O  O18  1  0.07798718  0.74001813  0.80657519  1
  O  O19  1  0.09993047  0.77656445  0.09595770  1
  O  O20  1  0.22350405  0.90009191  0.59595590  1
  O  O21  1  0.99996936  0.50001670  0.00000833  1
  O  O22  1  0.99994256  0.49999066  0.50000645  1
  O  O23  1  0.25989508  0.92190775  0.30656682  1
  O  O24  1  0.07801783  0.33794223  0.30657235  1
  O  O25  1  0.09997468  0.32343218  0.59595566  1
  O  O26  1  0.22348501  0.32342617  0.09595771  1
  O  O27  1  0.25987326  0.33793377  0.80656905  1
  O  O28  1  0.33801497  0.25994169  0.69342704  1
  O  O29  1  0.66197969  0.92191838  0.80657325  1
  O  O30  1  0.32338290  0.22344129  0.40404312  1
  O  O31  1  0.32336360  0.09991297  0.90404694  1
  O  O32  1  0.49995067  0.50004631  0.99999461  1
  O  O33  1  0.49996726  0.49999429  0.49999066  1
  O  O34  1  0.67662741  0.90010540  0.09595368  1
  O  O35  1  0.67664201  0.77655887  0.59594668  1
  O  O36  1  0.33800145  0.07808277  0.19342864  1
  O  O37  1  0.66199107  0.74002641  0.30657451  1
  O  O38  1  0.74009408  0.66206393  0.19343049  1
  O  O39  1  0.77649078  0.67658617  0.90404622  1
  O  O40  1  0.49992520  0.00002292  0.00001008  1
  O  O41  1  0.49993036  0.00000120  0.49999394  1
  O  O42  1  0.90007121  0.67658858  0.40404277  1
  O  O43  1  0.92197793  0.66203816  0.69342424  1
  O  O44  1  0.74011657  0.07807143  0.69342831  1
  O  O45  1  0.77652221  0.09990370  0.40404572  1
  O  O46  1  0.90002481  0.22344783  0.90404817  1
  O  O47  1  0.92198375  0.25997328  0.19342659  1
