# generated using pymatgen
data_LiBiB2O5
_symmetry_space_group_name_H-M   'P 1'
_cell_length_a   6.98080800
_cell_length_b   11.02988086
_cell_length_c   6.75056220
_cell_angle_alpha   90.00000000
_cell_angle_beta   71.84733299
_cell_angle_gamma   90.00000000
_symmetry_Int_Tables_number   1
_chemical_formula_structural   LiBiB2O5
_chemical_formula_sum   'Li4 Bi4 B8 O20'
_cell_volume   493.90688766
_cell_formula_units_Z   4
loop_
 _symmetry_equiv_pos_site_id
 _symmetry_equiv_pos_as_xyz
  1  'x, y, z'
loop_
 _atom_site_type_symbol
 _atom_site_label
 _atom_site_symmetry_multiplicity
 _atom_site_fract_x
 _atom_site_fract_y
 _atom_site_fract_z
 _atom_site_occupancy
  Li  Li0  1  0.19158260  0.49371281  0.36779323  1
  Li  Li1  1  0.19158260  0.00628719  0.86779323  1
  Li  Li2  1  0.80841740  0.99371281  0.13220677  1
  Li  Li3  1  0.80841740  0.50628719  0.63220677  1
  Bi  Bi4  1  0.24522943  0.83068024  0.23007652  1
  Bi  Bi5  1  0.24522943  0.66931976  0.73007652  1
  Bi  Bi6  1  0.75477057  0.33068024  0.26992348  1
  Bi  Bi7  1  0.75477057  0.16931976  0.76992348  1
  B  B8  1  0.09680715  0.10672592  0.31201621  1
  B  B9  1  0.09680715  0.39327408  0.81201621  1
  B  B10  1  0.47283379  0.07668106  0.24119140  1
  B  B11  1  0.52716621  0.57668106  0.25880860  1
  B  B12  1  0.47283379  0.42331894  0.74119140  1
  B  B13  1  0.52716621  0.92331894  0.75880860  1
  B  B14  1  0.90319285  0.60672592  0.18798379  1
  B  B15  1  0.90319285  0.89327408  0.68798379  1
  O  O16  1  0.05932361  0.68090890  0.07761378  1
  O  O17  1  0.06776893  0.01128598  0.19080271  1
  O  O18  1  0.05932361  0.81909110  0.57761378  1
  O  O19  1  0.06776893  0.48871402  0.69080271  1
  O  O20  1  0.28720721  0.13342679  0.32526975  1
  O  O21  1  0.35832705  0.64864086  0.34452186  1
  O  O22  1  0.28720721  0.36657321  0.82526975  1
  O  O23  1  0.50404614  0.95377285  0.23866619  1
  O  O24  1  0.35832705  0.85135914  0.84452186  1
  O  O25  1  0.49595386  0.45377285  0.26133381  1
  O  O26  1  0.50404614  0.54622715  0.73866619  1
  O  O27  1  0.64167295  0.14864086  0.15547814  1
  O  O28  1  0.49595386  0.04622715  0.76133381  1
  O  O29  1  0.71279279  0.63342679  0.17473025  1
  O  O30  1  0.64167295  0.35135914  0.65547814  1
  O  O31  1  0.71279279  0.86657321  0.67473025  1
  O  O32  1  0.93223107  0.51128598  0.30919729  1
  O  O33  1  0.94067639  0.18090890  0.42238622  1
  O  O34  1  0.93223107  0.98871402  0.80919729  1
  O  O35  1  0.94067639  0.31909110  0.92238622  1
