# generated using pymatgen
data_Li3V3(BO5)2
_symmetry_space_group_name_H-M   'P 1'
_cell_length_a   9.40369073
_cell_length_b   12.09988874
_cell_length_c   2.99452267
_cell_angle_alpha   90.00303443
_cell_angle_beta   91.30068354
_cell_angle_gamma   90.00067598
_symmetry_Int_Tables_number   1
_chemical_formula_structural   Li3V3(BO5)2
_chemical_formula_sum   'Li6 V6 B4 O20'
_cell_volume   340.63981096
_cell_formula_units_Z   2
loop_
 _symmetry_equiv_pos_site_id
 _symmetry_equiv_pos_as_xyz
  1  'x, y, z'
loop_
 _atom_site_type_symbol
 _atom_site_label
 _atom_site_symmetry_multiplicity
 _atom_site_fract_x
 _atom_site_fract_y
 _atom_site_fract_z
 _atom_site_occupancy
  Li  Li0  1  0.00685898  0.99979918  0.99791043  1
  Li  Li1  1  0.98816432  0.50999078  0.50095420  1
  Li  Li2  1  0.49309843  0.49977667  0.00179598  1
  Li  Li3  1  0.51184439  0.01001911  0.49943226  1
  Li  Li4  1  0.50855771  0.21352424  0.00072712  1
  Li  Li5  1  0.99146558  0.71349322  0.99941516  1
  V  V6  1  0.99960271  0.28523043  -0.00002030  1
  V  V7  1  0.24981067  0.11041659  0.52196244  1
  V  V8  1  0.25019120  0.61037805  0.47823175  1
  V  V9  1  0.50040489  0.78517876  0.00022202  1
  V  V10  1  0.73138499  0.39120103  0.48323467  1
  V  V11  1  0.76857833  0.89118824  0.51603362  1
  B  B12  1  0.23027020  0.85871060  0.49791593  1
  B  B13  1  0.26975738  0.35873086  0.50287691  1
  B  B14  1  0.73259268  0.63606712  0.50117248  1
  B  B15  1  0.76742408  0.13609134  0.49808026  1
  O  O16  1  0.11448459  0.15060613  0.00777432  1
  O  O17  1  0.13302886  0.57363866  0.01147653  1
  O  O18  1  0.11735738  0.35622244  0.50086062  1
  O  O19  1  0.15940355  0.76015946  0.50455977  1
  O  O20  1  0.15980940  0.95817588  0.49713548  1
  O  O21  1  0.34025287  0.45818548  0.50339001  1
  O  O22  1  0.34061760  0.26019334  0.49600411  1
  O  O23  1  0.38267291  0.85616338  0.50013578  1
  O  O24  1  0.36695151  0.07372410  0.98901992  1
  O  O25  1  0.38550207  0.65055436  0.99254436  1
  O  O26  1  0.61934739  0.35507268  0.01448562  1
  O  O27  1  0.62564200  0.92078917  0.01154842  1
  O  O28  1  0.62683775  0.14309437  0.50832409  1
  O  O29  1  0.64729135  0.73746836  0.50284188  1
  O  O30  1  0.65141835  0.53987571  0.51652815  1
  O  O31  1  0.84853917  0.03987579  0.48222746  1
  O  O32  1  0.85272509  0.23749274  0.49660974  1
  O  O33  1  0.87318240  0.64305209  0.49146859  1
  O  O34  1  0.87431690  0.42081105  0.98833263  1
  O  O35  1  0.88061430  0.85504958  0.98478559  1
