# generated using pymatgen
data_Mg2Mn3O8
_symmetry_space_group_name_H-M   'P 1'
_cell_length_a   6.44330583
_cell_length_b   6.44330583
_cell_length_c   8.41461146
_cell_angle_alpha   90.00000000
_cell_angle_beta   90.00000000
_cell_angle_gamma   54.15317558
_symmetry_Int_Tables_number   1
_chemical_formula_structural   Mg2Mn3O8
_chemical_formula_sum   'Mg4 Mn6 O16'
_cell_volume   283.17205152
_cell_formula_units_Z   2
loop_
 _symmetry_equiv_pos_site_id
 _symmetry_equiv_pos_as_xyz
  1  'x, y, z'
loop_
 _atom_site_type_symbol
 _atom_site_label
 _atom_site_symmetry_multiplicity
 _atom_site_fract_x
 _atom_site_fract_y
 _atom_site_fract_z
 _atom_site_occupancy
  Mg  Mg0  1  0.14118357  0.14118357  0.60615724  1
  Mg  Mg1  1  0.35881643  0.35881643  0.10615724  1
  Mg  Mg2  1  0.64118357  0.64118357  0.89384276  1
  Mg  Mg3  1  0.85881643  0.85881643  0.39384276  1
  Mn  Mn4  1  0.37279974  0.87279974  0.25000000  1
  Mn  Mn5  1  0.12720026  0.62720026  0.75000000  1
  Mn  Mn6  1  0.00000000  0.00000000  0.00000000  1
  Mn  Mn7  1  0.50000000  0.50000000  0.50000000  1
  Mn  Mn8  1  0.62720026  0.12720026  0.75000000  1
  Mn  Mn9  1  0.87279974  0.37279974  0.25000000  1
  O  O10  1  0.15399691  0.61640270  0.52556194  1
  O  O11  1  0.38359730  0.84600309  0.47443806  1
  O  O12  1  0.11640270  0.65399691  0.97443806  1
  O  O13  1  0.34600309  0.88359730  0.02556194  1
  O  O14  1  0.99746171  0.99746171  0.76435389  1
  O  O15  1  0.27090481  0.27090481  0.76220359  1
  O  O16  1  0.22909519  0.22909519  0.26220359  1
  O  O17  1  0.77090481  0.77090481  0.73779641  1
  O  O18  1  0.00253829  0.00253829  0.23564611  1
  O  O19  1  0.50253829  0.50253829  0.26435389  1
  O  O20  1  0.72909519  0.72909519  0.23779641  1
  O  O21  1  0.49746171  0.49746171  0.73564611  1
  O  O22  1  0.65399691  0.11640270  0.97443806  1
  O  O23  1  0.88359730  0.34600309  0.02556194  1
  O  O24  1  0.61640270  0.15399691  0.52556194  1
  O  O25  1  0.84600309  0.38359730  0.47443806  1
