# generated using pymatgen
data_CoO2
_symmetry_space_group_name_H-M   'P 1'
_cell_length_a   5.62043124
_cell_length_b   5.59964575
_cell_length_c   8.55168467
_cell_angle_alpha   90.21268142
_cell_angle_beta   89.89404828
_cell_angle_gamma   119.87774015
_symmetry_Int_Tables_number   1
_chemical_formula_structural   CoO2
_chemical_formula_sum   'Co8 O16'
_cell_volume   233.36903606
_cell_formula_units_Z   8
loop_
 _symmetry_equiv_pos_site_id
 _symmetry_equiv_pos_as_xyz
  1  'x, y, z'
loop_
 _atom_site_type_symbol
 _atom_site_label
 _atom_site_symmetry_multiplicity
 _atom_site_fract_x
 _atom_site_fract_y
 _atom_site_fract_z
 _atom_site_occupancy
  Co  Co0  1  0.16940489  0.83064168  0.21109541  1
  Co  Co1  1  0.33383096  0.66784339  0.48541143  1
  Co  Co2  1  0.16860147  0.33390974  0.20775340  1
  Co  Co3  1  0.66607613  0.83143411  0.20797154  1
  Co  Co4  1  0.33392387  0.16535698  0.70797154  1
  Co  Co5  1  0.66616904  0.33401243  0.98541143  1
  Co  Co6  1  0.83059511  0.66123779  0.71109541  1
  Co  Co7  1  0.83139853  0.16530727  0.70775340  1
  O  O8  1  0.16838635  0.83708369  0.60197324  1
  O  O9  1  0.04077556  0.51885897  0.34093093  1
  O  O10  1  0.33193662  0.66822040  0.09903539  1
  O  O11  1  0.00240937  0.99782017  0.31846361  1
  O  O12  1  0.99759063  0.99541080  0.81846361  1
  O  O13  1  0.16749442  0.33457896  0.60443542  1
  O  O14  1  0.48104350  0.95978670  0.34087133  1
  O  O15  1  0.47792242  0.52133572  0.33845601  1
  O  O16  1  0.33113249  0.16809455  0.10146328  1
  O  O17  1  0.66886751  0.83696206  0.60146328  1
  O  O18  1  0.51895650  0.47874320  0.84087133  1
  O  O19  1  0.52207758  0.04341230  0.83845601  1
  O  O20  1  0.66806338  0.33628378  0.59903439  1
  O  O21  1  0.83161365  0.66869735  0.10197324  1
  O  O22  1  0.95922444  0.47808342  0.84093093  1
  O  O23  1  0.83250558  0.16708454  0.10443542  1
