# generated using pymatgen
data_NbBi3O7
_symmetry_space_group_name_H-M   'P 1'
_cell_length_a   3.98174471
_cell_length_b   3.84849385
_cell_length_c   15.66481545
_cell_angle_alpha   59.33418977
_cell_angle_beta   59.16604436
_cell_angle_gamma   58.85042650
_symmetry_Int_Tables_number   1
_chemical_formula_structural   NbBi3O7
_chemical_formula_sum   'Nb1 Bi3 O7'
_cell_volume   166.31307644
_cell_formula_units_Z   1
loop_
 _symmetry_equiv_pos_site_id
 _symmetry_equiv_pos_as_xyz
  1  'x, y, z'
loop_
 _atom_site_type_symbol
 _atom_site_label
 _atom_site_symmetry_multiplicity
 _atom_site_fract_x
 _atom_site_fract_y
 _atom_site_fract_z
 _atom_site_occupancy
  Bi  Bi0  1  0.05359962  0.97968126  0.99734259  1
  Bi  Bi1  1  0.02492357  0.95091018  0.27404125  1
  Bi  Bi2  1  0.07268534  0.99775082  0.73714804  1
  Nb  Nb3  1  0.95975332  0.97195815  0.50559045  1
  O  O4  1  0.27490601  0.16186543  0.35086801  1
  O  O5  1  0.82159136  0.72461506  0.18937586  1
  O  O6  1  0.34008622  0.26353727  0.54526073  1
  O  O7  1  0.79310743  0.67903811  0.46542160  1
  O  O8  1  0.30839849  0.22381066  0.81476393  1
  O  O9  1  0.84509679  0.78082390  0.65923227  1
  O  O10  1  0.73185184  0.67600916  0.98345528  1
