# generated using pymatgen
data_NaFeCSO7
_symmetry_space_group_name_H-M   'P 1'
_cell_length_a   9.12618693
_cell_length_b   6.59241428
_cell_length_c   5.30385046
_cell_angle_alpha   90.00000000
_cell_angle_beta   88.10213396
_cell_angle_gamma   90.00000000
_symmetry_Int_Tables_number   1
_chemical_formula_structural   NaFeCSO7
_chemical_formula_sum   'Na2 Fe2 C2 S2 O14'
_cell_volume   318.92372251
_cell_formula_units_Z   2
loop_
 _symmetry_equiv_pos_site_id
 _symmetry_equiv_pos_as_xyz
  1  'x, y, z'
loop_
 _atom_site_type_symbol
 _atom_site_label
 _atom_site_symmetry_multiplicity
 _atom_site_fract_x
 _atom_site_fract_y
 _atom_site_fract_z
 _atom_site_occupancy
  Na  Na0  1  0.21576296  0.48895307  0.23402267  1
  Na  Na1  1  0.78423704  0.98895307  0.76597733  1
  Fe  Fe2  1  0.34071877  0.76915688  0.77915130  1
  Fe  Fe3  1  0.65928123  0.26915688  0.22084870  1
  C  C4  1  0.07786944  0.73944759  0.72481004  1
  C  C5  1  0.92213056  0.23944759  0.27518996  1
  S  S6  1  0.43241643  0.25580253  0.72569340  1
  S  S7  1  0.56758357  0.75580253  0.27430660  1
  O  O8  1  0.05543631  0.24546541  0.30814503  1
  O  O9  1  0.14103685  0.74167789  0.94765672  1
  O  O10  1  0.18079894  0.73503173  0.53796495  1
  O  O11  1  0.33974343  0.07581926  0.78223186  1
  O  O12  1  0.34748104  0.43720975  0.80608408  1
  O  O13  1  0.42737724  0.74191024  0.13812241  1
  O  O14  1  0.46823953  0.26737565  0.44738973  1
  O  O15  1  0.53176147  0.76737565  0.55261027  1
  O  O16  1  0.57262276  0.24191024  0.86187759  1
  O  O17  1  0.65251896  0.93720975  0.19391592  1
  O  O18  1  0.66025657  0.57581926  0.21776814  1
  O  O19  1  0.81920106  0.23503173  0.46203505  1
  O  O20  1  0.85896215  0.24167789  0.05234328  1
  O  O21  1  0.94456369  0.74546541  0.69185497  1
