# generated using pymatgen
data_LiAlVO4
_symmetry_space_group_name_H-M   'P 1'
_cell_length_a   9.43557685
_cell_length_b   2.91596358
_cell_length_c   10.16391684
_cell_angle_alpha   90.00009980
_cell_angle_beta   90.00090261
_cell_angle_gamma   89.99983405
_symmetry_Int_Tables_number   1
_chemical_formula_structural   LiAlVO4
_chemical_formula_sum   'Li4 Al4 V4 O16'
_cell_volume   279.64795939
_cell_formula_units_Z   4
loop_
 _symmetry_equiv_pos_site_id
 _symmetry_equiv_pos_as_xyz
  1  'x, y, z'
loop_
 _atom_site_type_symbol
 _atom_site_label
 _atom_site_symmetry_multiplicity
 _atom_site_fract_x
 _atom_site_fract_y
 _atom_site_fract_z
 _atom_site_occupancy
  Li  Li0  1  0.09315228  0.25000175  0.62090900  1
  Li  Li1  1  0.40679165  0.75000131  0.12097244  1
  Li  Li2  1  0.59335332  0.25000144  0.87904589  1
  Li  Li3  1  0.90675888  0.75000122  0.37904156  1
  Al  Al4  1  0.00516617  0.25000015  0.12398686  1
  Al  Al5  1  0.49480837  0.75000315  0.62399241  1
  Al  Al6  1  0.50517913  0.25000142  0.37603025  1
  Al  Al7  1  0.99481947  0.75000028  0.87600999  1
  V  V8  1  0.22878299  0.75000273  0.34347049  1
  V  V9  1  0.27125577  0.24998268  0.84346329  1
  V  V10  1  0.72873007  0.74999620  0.15655205  1
  V  V11  1  0.77124073  0.25000424  0.65649816  1
  O  O12  1  0.10083191  0.25000012  0.96032234  1
  O  O13  1  0.14130967  0.24999906  0.43561682  1
  O  O14  1  0.10250883  0.74999985  0.20258215  1
  O  O15  1  0.14747571  0.74999272  0.75417894  1
  O  O16  1  0.35250750  0.24999945  0.25414954  1
  O  O17  1  0.39744047  0.25000684  0.70264395  1
  O  O18  1  0.35866318  0.74999668  0.93567673  1
  O  O19  1  0.39914325  0.75000045  0.46027895  1
  O  O20  1  0.60086486  0.25000159  0.53972379  1
  O  O21  1  0.64128439  0.24999811  0.06437276  1
  O  O22  1  0.60256642  0.75000262  0.29737935  1
  O  O23  1  0.64752939  0.75000501  0.74583324  1
  O  O24  1  0.85250981  0.24999910  0.24583165  1
  O  O25  1  0.89747093  0.24999977  0.79739715  1
  O  O26  1  0.85872889  0.75000202  0.56434688  1
  O  O27  1  0.89912594  0.75000003  0.03969338  1
