# generated using pymatgen
data_Li5Mn2(PO4)3
_symmetry_space_group_name_H-M   'P 1'
_cell_length_a   8.59007706
_cell_length_b   9.58621457
_cell_length_c   8.53468449
_cell_angle_alpha   116.64642097
_cell_angle_beta   59.53785100
_cell_angle_gamma   118.11207904
_symmetry_Int_Tables_number   1
_chemical_formula_structural   Li5Mn2(PO4)3
_chemical_formula_sum   'Li10 Mn4 P6 O24'
_cell_volume   513.61521864
_cell_formula_units_Z   2
loop_
 _symmetry_equiv_pos_site_id
 _symmetry_equiv_pos_as_xyz
  1  'x, y, z'
loop_
 _atom_site_type_symbol
 _atom_site_label
 _atom_site_symmetry_multiplicity
 _atom_site_fract_x
 _atom_site_fract_y
 _atom_site_fract_z
 _atom_site_occupancy
  Li  Li0  1  0.92208931  0.60800463  0.19775119  1
  Li  Li1  1  0.26736351  0.89280699  0.68037998  1
  Li  Li2  1  0.49155218  0.39790722  0.12402458  1
  Li  Li3  1  0.25977687  0.59494343  0.53210970  1
  Li  Li4  1  0.91716796  0.89575009  0.28350839  1
  Li  Li5  1  0.73560607  0.40858633  0.45020520  1
  Li  Li6  1  0.61244529  0.78863824  0.92945888  1
  Li  Li7  1  0.30756982  0.09082480  0.05524306  1
  Li  Li8  1  0.71560559  0.10583870  0.32014422  1
  Li  Li9  1  0.07453101  0.14971251  0.72182138  1
  Mn  Mn10  1  0.15635266  0.42992493  0.12816993  1
  Mn  Mn11  1  0.33423126  0.02641980  0.33705427  1
  Mn  Mn12  1  0.65680268  0.97769911  0.66768718  1
  Mn  Mn13  1  0.85762737  0.55420342  0.83879044  1
  P  P14  1  0.05812193  0.24224400  0.43108367  1
  P  P15  1  0.53900415  0.75436728  0.26990111  1
  P  P16  1  0.24548970  0.74784152  0.94439597  1
  P  P17  1  0.73724130  0.25408322  0.05397316  1
  P  P18  1  0.44823425  0.24801086  0.75355923  1
  P  P19  1  0.94188364  0.75895341  0.55064110  1
  O  O20  1  0.17568042  0.88408168  0.13016982  1
  O  O21  1  0.18034168  0.59201097  0.00094085  1
  O  O22  1  0.96681982  0.59508222  0.39405112  1
  O  O23  1  0.13658008  0.89567135  0.55255814  1
  O  O24  1  0.17900905  0.25975104  0.22432111  1
  O  O25  1  0.52937801  0.88137150  0.20859658  1
  O  O26  1  0.14900509  0.71508751  0.81138955  1
  O  O27  1  0.38570501  0.58259725  0.23845448  1
  O  O28  1  0.16521606  0.18746347  0.48276170  1
  O  O29  1  0.48941704  0.81346563  0.48627259  1
  O  O30  1  0.74156936  0.73856023  0.15405501  1
  O  O31  1  0.46259785  0.81220315  0.84599535  1
  O  O32  1  0.51726905  0.18149726  0.14856953  1
  O  O33  1  0.24794250  0.26691501  0.84999486  1
  O  O34  1  0.52580789  0.22036870  0.53579635  1
  O  O35  1  0.83541847  0.81864615  0.50328146  1
  O  O36  1  0.58230614  0.40245861  0.84406598  1
  O  O37  1  0.83647474  0.27448933  0.17795002  1
  O  O38  1  0.43030678  0.09476453  0.79297404  1
  O  O39  1  0.82825577  0.72095513  0.74489388  1
  O  O40  1  0.86245496  0.10442261  0.43282196  1
  O  O41  1  0.02614983  0.40802221  0.56844238  1
  O  O42  1  0.77196096  0.42951851  0.05378755  1
  O  O43  1  0.81223791  0.14253646  0.85325305  1
