# generated using pymatgen
data_Li5Fe5(CuO6)2
_symmetry_space_group_name_H-M   'P 1'
_cell_length_a   5.14537613
_cell_length_b   5.14537571
_cell_length_c   9.79151462
_cell_angle_alpha   86.78226535
_cell_angle_beta   93.21773312
_cell_angle_gamma   63.17088029
_symmetry_Int_Tables_number   1
_chemical_formula_structural   Li5Fe5(CuO6)2
_chemical_formula_sum   'Li5 Fe5 Cu2 O12'
_cell_volume   229.99278901
_cell_formula_units_Z   1
loop_
 _symmetry_equiv_pos_site_id
 _symmetry_equiv_pos_as_xyz
  1  'x, y, z'
loop_
 _atom_site_type_symbol
 _atom_site_label
 _atom_site_symmetry_multiplicity
 _atom_site_fract_x
 _atom_site_fract_y
 _atom_site_fract_z
 _atom_site_occupancy
  Li  Li0  1  0.16437322  0.65135148  0.51394981  1
  Li  Li1  1  0.32111288  0.85844375  0.98728834  1
  Li  Li2  1  0.65135148  0.16437322  0.98605019  1
  Li  Li3  1  0.85844375  0.32111288  0.51271166  1
  Li  Li4  1  0.91876559  0.91876559  0.75000000  1
  Fe  Fe5  1  0.08338818  0.08338818  0.25000000  1
  Fe  Fe6  1  0.99922128  0.50733946  0.98986650  1
  Fe  Fe7  1  0.50733946  0.99922128  0.51013350  1
  Fe  Fe8  1  0.41652323  0.41652323  0.25000000  1
  Fe  Fe9  1  0.58448436  0.58448436  0.75000000  1
  Cu  Cu10  1  0.25045020  0.25045020  0.75000000  1
  Cu  Cu11  1  0.74913993  0.74913993  0.25000000  1
  O  O12  1  0.94902618  0.23303146  0.86748706  1
  O  O13  1  0.23303146  0.94902618  0.63251294  1
  O  O14  1  0.16670665  0.33269548  0.38062442  1
  O  O15  1  0.33269548  0.16670665  0.11937558  1
  O  O16  1  0.29729653  0.53167404  0.87178984  1
  O  O17  1  0.53167404  0.29729653  0.62821016  1
  O  O18  1  0.43753552  0.73335120  0.36058336  1
  O  O19  1  0.73335120  0.43753552  0.13941664  1
  O  O20  1  0.65733864  0.82910633  0.88652642  1
  O  O21  1  0.82910633  0.65733864  0.61347358  1
  O  O22  1  0.76966810  0.05797631  0.36341947  1
  O  O23  1  0.05797631  0.76966810  0.13658053  1
