# generated using pymatgen
data_Gd2TiO5
_symmetry_space_group_name_H-M   'P 1'
_cell_length_a   9.57997677
_cell_length_b   7.14881570
_cell_length_c   6.91970044
_cell_angle_alpha   90.00000000
_cell_angle_beta   103.52557569
_cell_angle_gamma   90.00000000
_symmetry_Int_Tables_number   1
_chemical_formula_structural   Gd2TiO5
_chemical_formula_sum   'Gd8 Ti4 O20'
_cell_volume   460.75576611
_cell_formula_units_Z   4
loop_
 _symmetry_equiv_pos_site_id
 _symmetry_equiv_pos_as_xyz
  1  'x, y, z'
loop_
 _atom_site_type_symbol
 _atom_site_label
 _atom_site_symmetry_multiplicity
 _atom_site_fract_x
 _atom_site_fract_y
 _atom_site_fract_z
 _atom_site_occupancy
  Gd  Gd0  1  0.02921679  0.12665255  0.73028399  1
  Gd  Gd1  1  0.02921679  0.37334745  0.23028399  1
  Gd  Gd2  1  0.36061822  0.13993159  0.53028694  1
  Gd  Gd3  1  0.36061822  0.36006841  0.03028694  1
  Gd  Gd4  1  0.63938178  0.63993159  0.96971306  1
  Gd  Gd5  1  0.63938178  0.86006841  0.46971306  1
  Gd  Gd6  1  0.97078321  0.62665255  0.76971601  1
  Gd  Gd7  1  0.97078321  0.87334745  0.26971601  1
  Ti  Ti8  1  0.29914283  0.59491075  0.51999582  1
  Ti  Ti9  1  0.29914283  0.90508925  0.01999582  1
  Ti  Ti10  1  0.70085717  0.09491075  0.98000418  1
  Ti  Ti11  1  0.70085717  0.40508925  0.48000418  1
  O  O12  1  0.10405882  0.86114561  0.98700019  1
  O  O13  1  0.10936519  0.38571400  0.92846142  1
  O  O14  1  0.10405882  0.63885439  0.48700019  1
  O  O15  1  0.10936519  0.11428600  0.42846142  1
  O  O16  1  0.28082865  0.08119270  0.81832478  1
  O  O17  1  0.39613441  0.69467051  0.98887639  1
  O  O18  1  0.28082865  0.41880730  0.31832478  1
  O  O19  1  0.38414102  0.42867985  0.71037814  1
  O  O20  1  0.39613441  0.80532949  0.48887639  1
  O  O21  1  0.38414102  0.07132015  0.21037814  1
  O  O22  1  0.61585898  0.92867985  0.78962186  1
  O  O23  1  0.60386559  0.19467051  0.51112361  1
  O  O24  1  0.61585898  0.57132015  0.28962186  1
  O  O25  1  0.71917135  0.58119270  0.68167522  1
  O  O26  1  0.60386559  0.30532949  0.01112361  1
  O  O27  1  0.71917135  0.91880730  0.18167522  1
  O  O28  1  0.89063481  0.88571400  0.57153858  1
  O  O29  1  0.89594118  0.36114561  0.51299981  1
  O  O30  1  0.89063481  0.61428600  0.07153858  1
  O  O31  1  0.89594118  0.13885439  0.01299981  1
