# generated using pymatgen
data_Al2ZnO4
_symmetry_space_group_name_H-M   'P 1'
_cell_length_a   5.79491436
_cell_length_b   5.83350142
_cell_length_c   5.79491520
_cell_angle_alpha   59.77948595
_cell_angle_beta   59.03650703
_cell_angle_gamma   59.77948156
_symmetry_Int_Tables_number   1
_chemical_formula_structural   Al2ZnO4
_chemical_formula_sum   'Al4 Zn2 O8'
_cell_volume   137.02859725
_cell_formula_units_Z   2
loop_
 _symmetry_equiv_pos_site_id
 _symmetry_equiv_pos_as_xyz
  1  'x, y, z'
loop_
 _atom_site_type_symbol
 _atom_site_label
 _atom_site_symmetry_multiplicity
 _atom_site_fract_x
 _atom_site_fract_y
 _atom_site_fract_z
 _atom_site_occupancy
  Al  Al0  1  0.13531233  0.11468767  0.13531233  1
  Al  Al1  1  0.50000000  0.50000000  0.50000000  1
  Al  Al2  1  0.50000000  0.00000000  0.50000000  1
  Al  Al3  1  0.86468767  0.88531233  0.86468767  1
  O  O4  1  0.26803278  0.22742090  0.26803278  1
  O  O5  1  0.27242386  0.24268177  0.74221260  1
  O  O6  1  0.26803278  0.73651354  0.26803278  1
  O  O7  1  0.74221260  0.24268177  0.27242386  1
  O  O8  1  0.25778740  0.75731823  0.72757614  1
  O  O9  1  0.73196722  0.26348646  0.73196722  1
  O  O10  1  0.72757614  0.75731823  0.25778740  1
  O  O11  1  0.73196722  0.77257910  0.73196722  1
  Zn  Zn12  1  0.00000000  0.50000000  0.50000000  1
  Zn  Zn13  1  0.50000000  0.50000000  0.00000000  1
