# generated using pymatgen
data_Li3AlCrO5
_symmetry_space_group_name_H-M   'P 1'
_cell_length_a   4.96340714
_cell_length_b   5.42206636
_cell_length_c   16.07805282
_cell_angle_alpha   90.00000000
_cell_angle_beta   90.00000000
_cell_angle_gamma   90.00000000
_symmetry_Int_Tables_number   1
_chemical_formula_structural   Li3AlCrO5
_chemical_formula_sum   'Li12 Al4 Cr4 O20'
_cell_volume   432.69131763
_cell_formula_units_Z   4
loop_
 _symmetry_equiv_pos_site_id
 _symmetry_equiv_pos_as_xyz
  1  'x, y, z'
loop_
 _atom_site_type_symbol
 _atom_site_label
 _atom_site_symmetry_multiplicity
 _atom_site_fract_x
 _atom_site_fract_y
 _atom_site_fract_z
 _atom_site_occupancy
  Li  Li0  1  0.00704807  0.67248450  0.60110134  1
  Li  Li1  1  0.00704807  0.17248450  0.89889866  1
  Li  Li2  1  0.01017065  0.66235972  0.00061026  1
  Li  Li3  1  0.01017065  0.16235972  0.49938974  1
  Li  Li4  1  0.49883589  0.33704490  0.79961010  1
  Li  Li5  1  0.49883589  0.83704490  0.70038990  1
  Li  Li6  1  0.50704807  0.32751550  0.39889866  1
  Li  Li7  1  0.50704807  0.82751550  0.10110134  1
  Li  Li8  1  0.51017065  0.33764028  0.99938974  1
  Li  Li9  1  0.51017065  0.83764028  0.50061026  1
  Li  Li10  1  0.99883589  0.16295510  0.29961010  1
  Li  Li11  1  0.99883589  0.66295510  0.20038990  1
  Al  Al12  1  0.99827355  0.17191825  0.70198470  1
  Al  Al13  1  0.99827355  0.67191825  0.79801530  1
  Al  Al14  1  0.49827355  0.32808175  0.20198470  1
  Al  Al15  1  0.49827355  0.82808175  0.29801530  1
  Cr  Cr16  1  0.00747740  0.16036886  0.09734795  1
  Cr  Cr17  1  0.00747740  0.66036886  0.40265205  1
  Cr  Cr18  1  0.50747740  0.33963114  0.59734795  1
  Cr  Cr19  1  0.50747740  0.83963114  0.90265205  1
  O  O20  1  0.09421149  0.35697433  0.78880890  1
  O  O21  1  0.09421149  0.85697433  0.71119110  1
  O  O22  1  0.11104055  0.31192776  0.00671425  1
  O  O23  1  0.11104055  0.81192776  0.49328575  1
  O  O24  1  0.10524051  0.35001641  0.39804127  1
  O  O25  1  0.10524051  0.85001641  0.10195873  1
  O  O26  1  0.13715895  0.31786469  0.19287574  1
  O  O27  1  0.13715895  0.81786469  0.30712426  1
  O  O28  1  0.13434394  0.30946928  0.61030491  1
  O  O29  1  0.13434394  0.80946928  0.88969509  1
  O  O30  1  0.59421149  0.64302567  0.21119110  1
  O  O31  1  0.59421149  0.14302567  0.28880890  1
  O  O32  1  0.61104055  0.18807224  0.50671425  1
  O  O33  1  0.61104055  0.68807224  0.99328575  1
  O  O34  1  0.60524051  0.14998359  0.89804127  1
  O  O35  1  0.60524051  0.64998359  0.60195873  1
  O  O36  1  0.63715895  0.18213531  0.69287574  1
  O  O37  1  0.63715895  0.68213531  0.80712426  1
  O  O38  1  0.63434394  0.19053072  0.11030491  1
  O  O39  1  0.63434394  0.69053072  0.38969509  1
