# generated using pymatgen
data_Li2CoPO4F
_symmetry_space_group_name_H-M   'P 1'
_cell_length_a   5.13051462
_cell_length_b   12.97056858
_cell_length_c   11.36874285
_cell_angle_alpha   90.00000000
_cell_angle_beta   90.00000000
_cell_angle_gamma   90.00000000
_symmetry_Int_Tables_number   1
_chemical_formula_structural   Li2CoPO4F
_chemical_formula_sum   'Li16 Co8 P8 O32 F8'
_cell_volume   756.54085705
_cell_formula_units_Z   8
loop_
 _symmetry_equiv_pos_site_id
 _symmetry_equiv_pos_as_xyz
  1  'x, y, z'
loop_
 _atom_site_type_symbol
 _atom_site_label
 _atom_site_symmetry_multiplicity
 _atom_site_fract_x
 _atom_site_fract_y
 _atom_site_fract_z
 _atom_site_occupancy
  Li  Li0  1  0.22356070  0.24064547  0.17841232  1
  Li  Li1  1  0.22356070  0.75935453  0.67841232  1
  Li  Li2  1  0.23431833  0.63080641  0.39929654  1
  Li  Li3  1  0.23431833  0.36919359  0.89929654  1
  Li  Li4  1  0.26568167  0.13080641  0.39929654  1
  Li  Li5  1  0.26568167  0.86919359  0.89929654  1
  Li  Li6  1  0.27643930  0.25935453  0.67841232  1
  Li  Li7  1  0.27643930  0.74064547  0.17841232  1
  Li  Li8  1  0.72356070  0.25935453  0.82158768  1
  Li  Li9  1  0.72356070  0.74064547  0.32158768  1
  Li  Li10  1  0.73431833  0.13080641  0.10070346  1
  Li  Li11  1  0.73431833  0.86919359  0.60070346  1
  Li  Li12  1  0.76568167  0.36919359  0.60070346  1
  Li  Li13  1  0.76568167  0.63080641  0.10070346  1
  Li  Li14  1  0.77643930  0.24064547  0.32158768  1
  Li  Li15  1  0.77643930  0.75935453  0.82158768  1
  Co  Co16  1  0.21752287  0.48987728  0.66935716  1
  Co  Co17  1  0.21752287  0.51012272  0.16935716  1
  Co  Co18  1  0.28247713  0.01012272  0.16935716  1
  Co  Co19  1  0.28247713  0.98987728  0.66935716  1
  Co  Co20  1  0.71752287  0.01012272  0.33064284  1
  Co  Co21  1  0.71752287  0.98987728  0.83064284  1
  Co  Co22  1  0.78247713  0.51012272  0.33064284  1
  Co  Co23  1  0.78247713  0.48987728  0.83064284  1
  P  P24  1  0.20584586  0.12671224  0.91378294  1
  P  P25  1  0.20584586  0.87328776  0.41378294  1
  P  P26  1  0.29415414  0.37328776  0.41378294  1
  P  P27  1  0.29415414  0.62671224  0.91378294  1
  P  P28  1  0.70584586  0.37328776  0.08621706  1
  P  P29  1  0.70584586  0.62671224  0.58621706  1
  P  P30  1  0.79415414  0.12671224  0.58621706  1
  P  P31  1  0.79415414  0.87328776  0.08621706  1
  O  O32  1  0.09857402  0.11834173  0.60006809  1
  O  O33  1  0.09857402  0.88165827  0.10006809  1
  O  O34  1  0.16981864  0.47063307  0.35339433  1
  O  O35  1  0.16981864  0.52936693  0.85339433  1
  O  O36  1  0.18513514  0.27538873  0.35705384  1
  O  O37  1  0.18513514  0.72461127  0.85705384  1
  O  O38  1  0.22051062  0.62473539  0.04645432  1
  O  O39  1  0.22051062  0.37526461  0.54645432  1
  O  O40  1  0.27948938  0.12473539  0.04645432  1
  O  O41  1  0.27948938  0.87526461  0.54645432  1
  O  O42  1  0.31486486  0.22461127  0.85705384  1
  O  O43  1  0.31486486  0.77538873  0.35705384  1
  O  O44  1  0.33018136  0.97063307  0.35339433  1
  O  O45  1  0.33018136  0.02936693  0.85339433  1
  O  O46  1  0.40142598  0.61834173  0.60006809  1
  O  O47  1  0.40142598  0.38165827  0.10006809  1
  O  O48  1  0.59857402  0.61834173  0.89993191  1
  O  O49  1  0.59857402  0.38165827  0.39993191  1
  O  O50  1  0.66981864  0.02936693  0.64660567  1
  O  O51  1  0.66981864  0.97063307  0.14660567  1
  O  O52  1  0.68513514  0.22461127  0.64294616  1
  O  O53  1  0.68513514  0.77538873  0.14294616  1
  O  O54  1  0.72051062  0.12473539  0.45354568  1
  O  O55  1  0.72051062  0.87526461  0.95354568  1
  O  O56  1  0.77948938  0.37526461  0.95354568  1
  O  O57  1  0.77948938  0.62473539  0.45354568  1
  O  O58  1  0.81486486  0.27538873  0.14294616  1
  O  O59  1  0.81486486  0.72461127  0.64294616  1
  O  O60  1  0.83018136  0.47063307  0.14660567  1
  O  O61  1  0.83018136  0.52936693  0.64660567  1
  O  O62  1  0.90142598  0.11834173  0.89993191  1
  O  O63  1  0.90142598  0.88165827  0.39993191  1
  F  F64  1  0.00000000  0.10033753  0.25000000  1
  F  F65  1  0.00000000  0.63826643  0.25000000  1
  F  F66  1  0.00000000  0.36173357  0.75000000  1
  F  F67  1  0.00000000  0.89966247  0.75000000  1
  F  F68  1  0.50000000  0.60033753  0.25000000  1
  F  F69  1  0.50000000  0.13826643  0.25000000  1
  F  F70  1  0.50000000  0.39966247  0.75000000  1
  F  F71  1  0.50000000  0.86173357  0.75000000  1
