# generated using pymatgen
data_Li2VCoO4
_symmetry_space_group_name_H-M   'P 1'
_cell_length_a   5.18371469
_cell_length_b   5.90049076
_cell_length_c   7.87015541
_cell_angle_alpha   78.40266639
_cell_angle_beta   70.48689329
_cell_angle_gamma   90.36106674
_symmetry_Int_Tables_number   1
_chemical_formula_structural   Li2VCoO4
_chemical_formula_sum   'Li6 V3 Co3 O12'
_cell_volume   221.55792796
_cell_formula_units_Z   3
loop_
 _symmetry_equiv_pos_site_id
 _symmetry_equiv_pos_as_xyz
  1  'x, y, z'
loop_
 _atom_site_type_symbol
 _atom_site_label
 _atom_site_symmetry_multiplicity
 _atom_site_fract_x
 _atom_site_fract_y
 _atom_site_fract_z
 _atom_site_occupancy
  Li  Li0  1  0.00424259  0.50373845  0.00270772  1
  Li  Li1  1  0.00404288  0.33162878  0.66350995  1
  Li  Li2  1  0.99827281  0.00059634  0.00104771  1
  Li  Li3  1  0.99831361  0.65785080  0.33159279  1
  Li  Li4  1  0.00159467  0.16908037  0.33185990  1
  Li  Li5  1  0.99442748  0.83489839  0.66980352  1
  V  V6  1  0.50222238  0.25966290  0.99583645  1
  V  V7  1  0.49906691  0.90810727  0.33526145  1
  V  V8  1  0.50089873  0.08279234  0.66650059  1
  Co  Co9  1  0.50124109  0.74897720  0.00231305  1
  Co  Co10  1  0.49659229  0.41970959  0.33058031  1
  Co  Co11  1  0.49848684  0.58281529  0.66696633  1
  O  O12  1  0.28146909  0.97498313  0.16233970  1
  O  O13  1  0.26173894  0.44612617  0.15882644  1
  O  O14  1  0.27308651  0.11241695  0.50120842  1
  O  O15  1  0.26011193  0.64826552  0.48946059  1
  O  O16  1  0.26954866  0.27944704  0.83652633  1
  O  O17  1  0.27483802  0.81251494  0.82008293  1
  O  O18  1  0.74001674  0.72271074  0.17645578  1
  O  O19  1  0.71961311  0.19294684  0.16911027  1
  O  O20  1  0.72527856  0.35208131  0.51347318  1
  O  O21  1  0.72935715  0.88481474  0.49719651  1
  O  O22  1  0.73767771  0.52017920  0.84600819  1
  O  O23  1  0.72786132  0.05365471  0.83133089  1
