# generated using pymatgen
data_Li6Ti2S6O
_symmetry_space_group_name_H-M   'P 1'
_cell_length_a   11.53966010
_cell_length_b   9.03587872
_cell_length_c   11.78381685
_cell_angle_alpha   90.00000000
_cell_angle_beta   111.37267951
_cell_angle_gamma   90.00000000
_symmetry_Int_Tables_number   1
_chemical_formula_structural   Li6Ti2S6O
_chemical_formula_sum   'Li24 Ti8 S24 O4'
_cell_volume   1144.21124181
_cell_formula_units_Z   4
loop_
 _symmetry_equiv_pos_site_id
 _symmetry_equiv_pos_as_xyz
  1  'x, y, z'
loop_
 _atom_site_type_symbol
 _atom_site_label
 _atom_site_symmetry_multiplicity
 _atom_site_fract_x
 _atom_site_fract_y
 _atom_site_fract_z
 _atom_site_occupancy
  Li  Li0  1  0.00103982  0.13895461  0.89606221  1
  Li  Li1  1  0.00103982  0.36104539  0.39606221  1
  Li  Li2  1  0.08896409  0.02100559  0.64604178  1
  Li  Li3  1  0.19582592  0.73621416  0.93553077  1
  Li  Li4  1  0.08896409  0.47899441  0.14604178  1
  Li  Li5  1  0.19582592  0.76378584  0.43553077  1
  Li  Li6  1  0.27583918  0.29851023  0.57567603  1
  Li  Li7  1  0.39667358  0.94133971  0.85679656  1
  Li  Li8  1  0.45390984  0.32776455  0.89703439  1
  Li  Li9  1  0.27583918  0.20148977  0.07567603  1
  Li  Li10  1  0.39667358  0.55866029  0.35679656  1
  Li  Li11  1  0.45390984  0.17223545  0.39703439  1
  Li  Li12  1  0.54609016  0.82776455  0.60296561  1
  Li  Li13  1  0.60332642  0.44133971  0.64320344  1
  Li  Li14  1  0.72416082  0.79851023  0.92432397  1
  Li  Li15  1  0.54609016  0.67223545  0.10296561  1
  Li  Li16  1  0.60332642  0.05866029  0.14320344  1
  Li  Li17  1  0.72416082  0.70148977  0.42432397  1
  Li  Li18  1  0.80417408  0.23621416  0.56446923  1
  Li  Li19  1  0.91103591  0.52100559  0.85395822  1
  Li  Li20  1  0.80417408  0.26378584  0.06446923  1
  Li  Li21  1  0.91103591  0.97899441  0.35395822  1
  Li  Li22  1  0.99896018  0.63895461  0.60393779  1
  Li  Li23  1  0.99896018  0.86104539  0.10393779  1
  Ti  Ti24  1  0.17161694  0.36051874  0.79016335  1
  Ti  Ti25  1  0.17161694  0.13948126  0.29016335  1
  Ti  Ti26  1  0.35900939  0.60904351  0.73259987  1
  Ti  Ti27  1  0.35900939  0.89095649  0.23259987  1
  Ti  Ti28  1  0.64099061  0.10904351  0.76740013  1
  Ti  Ti29  1  0.64099061  0.39095649  0.26740013  1
  Ti  Ti30  1  0.82838306  0.86051874  0.70983665  1
  Ti  Ti31  1  0.82838306  0.63948126  0.20983665  1
  S  S32  1  0.01298448  0.35756736  0.60932740  1
  S  S33  1  0.13607244  0.46891448  0.94910778  1
  S  S34  1  0.01298448  0.14243264  0.10932740  1
  S  S35  1  0.13607244  0.03108552  0.44910778  1
  S  S36  1  0.21242823  0.12535577  0.85153174  1
  S  S37  1  0.20482352  0.76893227  0.72191384  1
  S  S38  1  0.21242823  0.37464423  0.35153174  1
  S  S39  1  0.20482352  0.73106773  0.22191384  1
  S  S40  1  0.40281175  0.61973262  0.56170230  1
  S  S41  1  0.53342461  0.65895944  0.88859834  1
  S  S42  1  0.46657539  0.15895944  0.61140166  1
  S  S43  1  0.40281175  0.88026738  0.06170230  1
  S  S44  1  0.59718825  0.11973262  0.93829770  1
  S  S45  1  0.53342461  0.84104056  0.38859834  1
  S  S46  1  0.46657539  0.34104056  0.11140166  1
  S  S47  1  0.59718825  0.38026738  0.43829770  1
  S  S48  1  0.79517648  0.26893227  0.77808616  1
  S  S49  1  0.78757177  0.62535577  0.64846826  1
  S  S50  1  0.79517648  0.23106773  0.27808616  1
  S  S51  1  0.78757177  0.87464423  0.14846826  1
  S  S52  1  0.86392756  0.96891448  0.55089222  1
  S  S53  1  0.98701552  0.85756736  0.89067260  1
  S  S54  1  0.86392756  0.53108552  0.05089222  1
  S  S55  1  0.98701552  0.64243264  0.39067260  1
  O  O56  1  0.31394176  0.41432760  0.75450226  1
  O  O57  1  0.31394176  0.08567240  0.25450226  1
  O  O58  1  0.68605824  0.91432760  0.74549774  1
  O  O59  1  0.68605824  0.58567240  0.24549774  1
