# generated using pymatgen
data_Li4Cr5Sn3O16
_symmetry_space_group_name_H-M   'P 1'
_cell_length_a   6.07883410
_cell_length_b   6.09384398
_cell_length_c   9.60344121
_cell_angle_alpha   89.99614464
_cell_angle_beta   89.67139434
_cell_angle_gamma   120.06390832
_symmetry_Int_Tables_number   1
_chemical_formula_structural   Li4Cr5Sn3O16
_chemical_formula_sum   'Li4 Cr5 Sn3 O16'
_cell_volume   307.87856097
_cell_formula_units_Z   1
loop_
 _symmetry_equiv_pos_site_id
 _symmetry_equiv_pos_as_xyz
  1  'x, y, z'
loop_
 _atom_site_type_symbol
 _atom_site_label
 _atom_site_symmetry_multiplicity
 _atom_site_fract_x
 _atom_site_fract_y
 _atom_site_fract_z
 _atom_site_occupancy
  Li  Li0  1  0.34086499  0.67051943  0.88796188  1
  Li  Li1  1  0.97369835  0.98686626  0.99199600  1
  Li  Li2  1  0.98729584  0.99381002  0.50167349  1
  Li  Li3  1  0.66917043  0.33460522  0.39629001  1
  Cr  Cr4  1  0.33856417  0.66917688  0.48907420  1
  Cr  Cr5  1  0.66078848  0.83043658  0.21495539  1
  Cr  Cr6  1  0.67685383  0.33840330  0.98281527  1
  Cr  Cr7  1  0.83088296  0.66115982  0.71107259  1
  Cr  Cr8  1  0.83060395  0.16968855  0.71130092  1
  Sn  Sn9  1  0.16999347  0.83160436  0.21318816  1
  Sn  Sn10  1  0.16998419  0.33845514  0.21320509  1
  Sn  Sn11  1  0.34010658  0.17019900  0.71383069  1
  O  O12  1  0.15696846  0.82926665  0.59850320  1
  O  O13  1  0.04097309  0.52059163  0.35001966  1
  O  O14  1  0.34353837  0.67172107  0.09754516  1
  O  O15  1  0.99037559  0.99528504  0.31679462  1
  O  O16  1  0.98914110  0.99444940  0.80797569  1
  O  O17  1  0.15730735  0.32759467  0.59830408  1
  O  O18  1  0.48618218  0.96124930  0.34499523  1
  O  O19  1  0.48628288  0.52505666  0.34492761  1
  O  O20  1  0.32700055  0.16348497  0.09306736  1
  O  O21  1  0.66711648  0.83305801  0.60895174  1
  O  O22  1  0.53180291  0.48872994  0.84305407  1
  O  O23  1  0.53140346  0.04297343  0.84310066  1
  O  O24  1  0.67676280  0.33844213  0.60173082  1
  O  O25  1  0.83460409  0.67211094  0.09911697  1
  O  O26  1  0.95720343  0.47882502  0.83324085  1
  O  O27  1  0.83453002  0.16253757  0.09914957  1
