# generated using pymatgen
data_LiMn7O12
_symmetry_space_group_name_H-M   'P 1'
_cell_length_a   9.58815423
_cell_length_b   11.50268083
_cell_length_c   9.58687178
_cell_angle_alpha   65.37086852
_cell_angle_beta   89.99917620
_cell_angle_gamma   114.63183172
_symmetry_Int_Tables_number   1
_chemical_formula_structural   LiMn7O12
_chemical_formula_sum   'Li4 Mn28 O48'
_cell_volume   854.15717176
_cell_formula_units_Z   4
loop_
 _symmetry_equiv_pos_site_id
 _symmetry_equiv_pos_as_xyz
  1  'x, y, z'
loop_
 _atom_site_type_symbol
 _atom_site_label
 _atom_site_symmetry_multiplicity
 _atom_site_fract_x
 _atom_site_fract_y
 _atom_site_fract_z
 _atom_site_occupancy
  Li  Li0  1  0.12500538  0.74999599  0.12501142  1
  Li  Li1  1  0.37499170  0.25000365  0.37500394  1
  Li  Li2  1  0.62499691  0.74999733  0.62500932  1
  Li  Li3  1  0.87500516  0.25000317  0.87500248  1
  Mn  Mn4  1  0.99999134  0.99998498  0.00003140  1
  Mn  Mn5  1  0.50000093  0.00000941  0.99999784  1
  Mn  Mn6  1  0.60075666  0.25001067  0.10071263  1
  Mn  Mn7  1  0.19664215  0.99999672  0.25002113  1
  Mn  Mn8  1  0.99999862  0.50000256  0.00000298  1
  Mn  Mn9  1  0.49999807  0.49999847  0.00001394  1
  Mn  Mn10  1  0.69654715  0.00000705  0.25000140  1
  Mn  Mn11  1  0.10074981  0.24999683  0.14928884  1
  Mn  Mn12  1  0.74999536  0.49999277  0.19650396  1
  Mn  Mn13  1  0.99999617  0.99999194  0.50001391  1
  Mn  Mn14  1  0.62497393  0.74993260  0.12504083  1
  Mn  Mn15  1  0.87503395  0.25006737  0.37496617  1
  Mn  Mn16  1  0.50001183  0.00001369  0.50001555  1
  Mn  Mn17  1  0.25000340  0.50000548  0.30351514  1
  Mn  Mn18  1  0.85075896  0.75000096  0.35072330  1
  Mn  Mn19  1  0.64923835  0.24999727  0.60071472  1
  Mn  Mn20  1  0.00000099  0.49999535  0.50000810  1
  Mn  Mn21  1  0.50000024  0.50000074  0.50000681  1
  Mn  Mn22  1  0.30338306  0.99999260  0.75000972  1
  Mn  Mn23  1  0.80343906  0.99999365  0.75002534  1
  Mn  Mn24  1  0.35075883  0.75000331  0.39930562  1
  Mn  Mn25  1  0.14924621  0.24999804  0.64929749  1
  Mn  Mn26  1  0.75000687  0.49999859  0.69647244  1
  Mn  Mn27  1  0.12496301  0.74993464  0.62504852  1
  Mn  Mn28  1  0.37502921  0.25006903  0.87497490  1
  Mn  Mn29  1  0.25000295  0.50000855  0.80353209  1
  Mn  Mn30  1  0.89924518  0.74999069  0.85073198  1
  Mn  Mn31  1  0.39924466  0.75000158  0.89929870  1
  O  O32  1  0.68202802  0.14929870  0.02457496  1
  O  O33  1  0.12363630  0.12192940  0.08137094  1
  O  O34  1  0.39425108  0.11100751  0.08728014  1
  O  O35  1  0.79675607  0.37794927  0.12372362  1
  O  O36  1  0.70324128  0.62204307  0.00168457  1
  O  O37  1  0.89422607  0.11101207  0.30172654  1
  O  O38  1  0.62364506  0.12195629  0.29671098  1
  O  O39  1  0.52479759  0.35089269  0.18208788  1
  O  O40  1  0.97520609  0.64909650  0.03300383  1
  O  O41  1  0.08732988  0.38915364  0.21664899  1
  O  O42  1  0.41270251  0.61085016  0.10580639  1
  O  O43  1  0.18201465  0.14928702  0.32614879  1
  O  O44  1  0.03275110  0.85070751  0.17388058  1
  O  O45  1  0.46724830  0.14928751  0.52457402  1
  O  O46  1  0.80182454  0.38914582  0.39420890  1
  O  O47  1  0.69816011  0.61085084  0.28336142  1
  O  O48  1  0.17391086  0.64910155  0.31792995  1
  O  O49  1  0.32609632  0.35091525  0.46700458  1
  O  O50  1  0.50170551  0.87806769  0.20330497  1
  O  O51  1  0.99829245  0.12193107  0.58137132  1
  O  O52  1  0.71675789  0.11100628  0.58728411  1
  O  O53  1  0.78323234  0.88899221  0.19827444  1
  O  O54  1  0.08118076  0.37794269  0.49834300  1
  O  O55  1  0.41881710  0.62206137  0.37629375  1
  O  O56  1  0.91881559  0.62205109  0.50167294  1
  O  O57  1  0.58118838  0.37794797  0.62371195  1
  O  O58  1  0.28323468  0.88898635  0.41276915  1
  O  O59  1  0.21676444  0.11100327  0.80172878  1
  O  O60  1  0.00170497  0.87805139  0.41866696  1
  O  O61  1  0.49829245  0.12194565  0.79671003  1
  O  O62  1  0.82608440  0.35089433  0.68209061  1
  O  O63  1  0.67390769  0.64909344  0.53300654  1
  O  O64  1  0.19815332  0.61086103  0.60581045  1
  O  O65  1  0.30182311  0.38915708  0.71664833  1
  O  O66  1  0.96725121  0.14927690  0.82615538  1
  O  O67  1  0.53274659  0.85072307  0.47544921  1
  O  O68  1  0.81796528  0.85069561  0.67388666  1
  O  O69  1  0.91269601  0.61085216  0.78336066  1
  O  O70  1  0.58732822  0.38915676  0.89420740  1
  O  O71  1  0.02479792  0.35091366  0.96700553  1
  O  O72  1  0.47520076  0.64910229  0.81793165  1
  O  O73  1  0.37635762  0.87806154  0.70330625  1
  O  O74  1  0.10576219  0.88898001  0.69827265  1
  O  O75  1  0.29675587  0.37794839  0.99833618  1
  O  O76  1  0.20324596  0.62206226  0.87628606  1
  O  O77  1  0.60575581  0.88898908  0.91276818  1
  O  O78  1  0.87635594  0.87804773  0.91867066  1
  O  O79  1  0.31798461  0.85071218  0.97544549  1
