# generated using pymatgen
data_LiMn3O5
_symmetry_space_group_name_H-M   'P 1'
_cell_length_a   9.98285314
_cell_length_b   13.37413834
_cell_length_c   2.94220961
_cell_angle_alpha   89.99994785
_cell_angle_beta   90.00005166
_cell_angle_gamma   90.00009021
_symmetry_Int_Tables_number   1
_chemical_formula_structural   LiMn3O5
_chemical_formula_sum   'Li4 Mn12 O20'
_cell_volume   392.82046281
_cell_formula_units_Z   4
loop_
 _symmetry_equiv_pos_site_id
 _symmetry_equiv_pos_as_xyz
  1  'x, y, z'
loop_
 _atom_site_type_symbol
 _atom_site_label
 _atom_site_symmetry_multiplicity
 _atom_site_fract_x
 _atom_site_fract_y
 _atom_site_fract_z
 _atom_site_occupancy
  Li  Li0  1  0.22590873  0.86417869  0.99999549  1
  Li  Li1  1  0.27403740  0.36420971  0.99999533  1
  Li  Li2  1  0.72589725  0.63583731  0.99999550  1
  Li  Li3  1  0.77402761  0.13585501  0.99999464  1
  Mn  Mn4  1  0.00021504  0.00006091  0.50000778  1
  Mn  Mn5  1  0.99956597  0.49989213  0.00002388  1
  Mn  Mn6  1  0.99370659  0.29118770  0.50000070  1
  Mn  Mn7  1  0.23742714  0.11729424  -0.00000079  1
  Mn  Mn8  1  0.26252519  0.61716605  0.00000279  1
  Mn  Mn9  1  0.50630685  0.79122465  0.50000167  1
  Mn  Mn10  1  0.50019954  0.49986347  0.49994026  1
  Mn  Mn11  1  0.49966349  0.00005743  0.00008643  1
  Mn  Mn12  1  0.49362174  0.20879415  0.49999451  1
  Mn  Mn13  1  0.73747601  0.38268918  -0.00000164  1
  Mn  Mn14  1  0.76260118  0.88281602  -0.00000268  1
  Mn  Mn15  1  0.00636386  0.70877160  0.50000031  1
  O  O16  1  0.12286143  0.16387906  0.50000004  1
  O  O17  1  0.13718668  0.56345603  0.50000458  1
  O  O18  1  0.08680852  0.36236677  0.99999283  1
  O  O19  1  0.12695704  0.74536163  0.00000131  1
  O  O20  1  0.12598364  0.98153952  -0.00000079  1
  O  O21  1  0.37435739  0.48154800  -0.00001631  1
  O  O22  1  0.37299175  0.24531522  -0.00000036  1
  O  O23  1  0.41310506  0.86236956  0.00000342  1
  O  O24  1  0.36277117  0.06342831  0.50000548  1
  O  O25  1  0.37724292  0.66387856  0.50001618  1
  O  O26  1  0.62270443  0.33608727  0.49999526  1
  O  O27  1  0.63721834  0.93655125  0.50000454  1
  O  O28  1  0.58675436  0.13764177  0.00000170  1
  O  O29  1  0.62686243  0.75462551  0.99999905  1
  O  O30  1  0.62589121  0.51851079  0.99997861  1
  O  O31  1  0.87444713  0.01853126  -0.00000170  1
  O  O32  1  0.87314514  0.25462438  0.99999439  1
  O  O33  1  0.91312994  0.63766913  0.99999934  1
  O  O34  1  0.86271450  0.43652158  0.49999261  1
  O  O35  1  0.87732332  0.83619614  0.49999564  1
