# generated using pymatgen
data_Li3Mn(BO3)2
_symmetry_space_group_name_H-M   'P 1'
_cell_length_a   6.91847851
_cell_length_b   5.20630344
_cell_length_c   8.00076379
_cell_angle_alpha   90.61753272
_cell_angle_beta   66.33237483
_cell_angle_gamma   89.34327526
_symmetry_Int_Tables_number   1
_chemical_formula_structural   Li3Mn(BO3)2
_chemical_formula_sum   'Li6 Mn2 B4 O12'
_cell_volume   263.89117363
_cell_formula_units_Z   2
loop_
 _symmetry_equiv_pos_site_id
 _symmetry_equiv_pos_as_xyz
  1  'x, y, z'
loop_
 _atom_site_type_symbol
 _atom_site_label
 _atom_site_symmetry_multiplicity
 _atom_site_fract_x
 _atom_site_fract_y
 _atom_site_fract_z
 _atom_site_occupancy
  Li  Li0  1  0.27228222  0.89818758  0.12911930  1
  Li  Li1  1  0.42641048  0.66429288  0.41156999  1
  Li  Li2  1  0.45815574  0.83418665  0.72397368  1
  Li  Li3  1  0.54184426  0.16581335  0.27602632  1
  Li  Li4  1  0.57358952  0.33570712  0.58843001  1
  Li  Li5  1  0.72771778  0.10181242  0.87088070  1
  Mn  Mn6  1  0.06823303  0.59862908  0.75427984  1
  Mn  Mn7  1  0.93176697  0.40137092  0.24572016  1
  B  B8  1  0.18214400  0.15020442  0.61707684  1
  B  B9  1  0.67602080  0.66863551  0.06588346  1
  B  B10  1  0.32397920  0.33136449  0.93411654  1
  B  B11  1  0.81785600  0.84979558  0.38292316  1
  O  O12  1  0.00745225  0.74873723  0.25481449  1
  O  O13  1  0.21019971  0.26166011  0.11589992  1
  O  O14  1  0.22037053  0.88874052  0.61364256  1
  O  O15  1  0.32694239  0.31806617  0.50746095  1
  O  O16  1  0.52028774  0.83304125  0.17535019  1
  O  O17  1  0.27802445  0.56125311  0.86981360  1
  O  O18  1  0.72197555  0.43874689  0.13018640  1
  O  O19  1  0.47971226  0.16695875  0.82464981  1
  O  O20  1  0.67305761  0.68193383  0.49253905  1
  O  O21  1  0.77962947  0.11125948  0.38635744  1
  O  O22  1  0.78980029  0.73833989  0.88410008  1
  O  O23  1  0.99254775  0.25126277  0.74518551  1
