# generated using pymatgen
data_Li3Cr3NiO8
_symmetry_space_group_name_H-M   'P 1'
_cell_length_a   10.25329246
_cell_length_b   10.25325484
_cell_length_c   14.51657790
_cell_angle_alpha   19.28724135
_cell_angle_beta   19.28715423
_cell_angle_gamma   33.24364370
_symmetry_Int_Tables_number   1
_chemical_formula_structural   Li3Cr3NiO8
_chemical_formula_sum   'Li3 Cr3 Ni1 O8'
_cell_volume   144.19158403
_cell_formula_units_Z   1
loop_
 _symmetry_equiv_pos_site_id
 _symmetry_equiv_pos_as_xyz
  1  'x, y, z'
loop_
 _atom_site_type_symbol
 _atom_site_label
 _atom_site_symmetry_multiplicity
 _atom_site_fract_x
 _atom_site_fract_y
 _atom_site_fract_z
 _atom_site_occupancy
  Li  Li0  1  0.99998778  0.49998526  0.50001899  1
  Li  Li1  1  0.49998372  0.99998223  0.50002246  1
  Li  Li2  1  0.49999393  0.49999119  0.50001015  1
  Cr  Cr3  1  0.99999769  0.49999717  -0.00000272  1
  Cr  Cr4  1  0.50003567  0.00004599  -0.00005471  1
  Cr  Cr5  1  0.50001246  0.50002910  -0.00002471  1
  Ni  Ni6  1  0.99999925  0.00000304  0.00000198  1
  O  O7  1  0.00002098  0.00001184  0.25772119  1
  O  O8  1  0.00001234  0.52387325  0.24625145  1
  O  O9  1  0.52387768  0.00000691  0.24625081  1
  O  O10  1  0.99997839  0.99997498  0.74228778  1
  O  O11  1  0.47618893  0.47618790  0.29391877  1
  O  O12  1  0.99999196  0.47612093  0.75375115  1
  O  O13  1  0.47612010  0.99998993  0.75375348  1
  O  O14  1  0.52379912  0.52380128  0.70609594  1
