# generated using pymatgen
data_La2SiO5
_symmetry_space_group_name_H-M   'P 1'
_cell_length_a   8.31452816
_cell_length_b   11.80683456
_cell_length_c   8.31452816
_cell_angle_alpha   84.15001924
_cell_angle_beta   88.79710684
_cell_angle_gamma   95.84998076
_symmetry_Int_Tables_number   1
_chemical_formula_structural   La2SiO5
_chemical_formula_sum   'La12 Si6 O30'
_cell_volume   807.33717157
_cell_formula_units_Z   6
loop_
 _symmetry_equiv_pos_site_id
 _symmetry_equiv_pos_as_xyz
  1  'x, y, z'
loop_
 _atom_site_type_symbol
 _atom_site_label
 _atom_site_symmetry_multiplicity
 _atom_site_fract_x
 _atom_site_fract_y
 _atom_site_fract_z
 _atom_site_occupancy
  La  La0  1  0.99849681  0.93122342  0.71385472  1
  La  La1  1  0.28614528  0.43122342  0.00150319  1
  La  La2  1  0.98004159  0.74522401  0.35997555  1
  La  La3  1  0.64002445  0.24522401  0.01995841  1
  La  La4  1  0.33726558  0.57024643  0.38526894  1
  La  La5  1  0.38526894  0.92975357  0.33726558  1
  La  La6  1  0.61473106  0.07024643  0.66273442  1
  La  La7  1  0.66273442  0.42975357  0.61473106  1
  La  La8  1  0.35997555  0.75477599  0.98004159  1
  La  La9  1  0.01995841  0.25477599  0.64002445  1
  La  La10  1  0.71385472  0.56877658  0.99849681  1
  La  La11  1  0.00150319  0.06877658  0.28614528  1
  Si  Si12  1  0.07225745  0.55121873  0.73085266  1
  Si  Si13  1  0.26914734  0.05121873  0.92774255  1
  Si  Si14  1  0.63283172  0.75000000  0.63283172  1
  Si  Si15  1  0.36716828  0.25000000  0.36716828  1
  Si  Si16  1  0.73085266  0.94878127  0.07225745  1
  Si  Si17  1  0.92774255  0.44878127  0.26914734  1
  O  O18  1  0.16475714  0.61775630  0.87448406  1
  O  O19  1  0.12551594  0.11775630  0.83524286  1
  O  O20  1  0.25623286  0.92523011  0.85007931  1
  O  O21  1  0.14992069  0.42523011  0.74376714  1
  O  O22  1  0.11680196  0.61814408  0.54977663  1
  O  O23  1  0.11583669  0.92333845  0.44871845  1
  O  O24  1  0.45022337  0.11814408  0.88319804  1
  O  O25  1  0.55128155  0.42333845  0.88416331  1
  O  O26  1  0.59965466  0.71879554  0.83072187  1
  O  O27  1  0.16927813  0.21879554  0.40034534  1
  O  O28  1  0.76460130  0.96971045  0.87494113  1
  O  O29  1  0.54291143  0.86539473  0.56760101  1
  O  O30  1  0.12505887  0.46971045  0.23539870  1
  O  O31  1  0.25724702  0.75000000  0.25724702  1
  O  O32  1  0.43239899  0.36539473  0.45708857  1
  O  O33  1  0.56760101  0.63460527  0.54291143  1
  O  O34  1  0.74275298  0.25000000  0.74275298  1
  O  O35  1  0.87494113  0.53028955  0.76460130  1
  O  O36  1  0.45708857  0.13460527  0.43239899  1
  O  O37  1  0.23539870  0.03028955  0.12505887  1
  O  O38  1  0.83072187  0.78120446  0.59965466  1
  O  O39  1  0.40034534  0.28120446  0.16927813  1
  O  O40  1  0.44871845  0.57666155  0.11583669  1
  O  O41  1  0.54977663  0.88185592  0.11680196  1
  O  O42  1  0.88416331  0.07666155  0.55128155  1
  O  O43  1  0.88319804  0.38185592  0.45022337  1
  O  O44  1  0.85007931  0.57476989  0.25623286  1
  O  O45  1  0.74376714  0.07476989  0.14992069  1
  O  O46  1  0.87448406  0.88224370  0.16475714  1
  O  O47  1  0.83524286  0.38224370  0.12551594  1
