# generated using pymatgen
data_Te3WO12
_symmetry_space_group_name_H-M   'P 1'
_cell_length_a   5.23885442
_cell_length_b   4.98630832
_cell_length_c   8.53986764
_cell_angle_alpha   90.00000000
_cell_angle_beta   90.00000000
_cell_angle_gamma   91.29017434
_symmetry_Int_Tables_number   1
_chemical_formula_structural   Te3WO12
_chemical_formula_sum   'Te3 W1 O12'
_cell_volume   223.02650806
_cell_formula_units_Z   1
loop_
 _symmetry_equiv_pos_site_id
 _symmetry_equiv_pos_as_xyz
  1  'x, y, z'
loop_
 _atom_site_type_symbol
 _atom_site_label
 _atom_site_symmetry_multiplicity
 _atom_site_fract_x
 _atom_site_fract_y
 _atom_site_fract_z
 _atom_site_occupancy
  Te  Te0  1  0.00000000  0.50000000  0.42035434  1
  Te  Te1  1  0.50000000  0.00000000  0.91230302  1
  Te  Te2  1  0.50000000  0.50000000  0.60215478  1
  W  W3  1  0.00000000  0.00000000  0.10143055  1
  O  O4  1  0.10575707  0.25578168  0.25727117  1
  O  O5  1  0.18317512  0.28568320  0.58027171  1
  O  O6  1  0.19062107  0.20359889  0.93677658  1
  O  O7  1  0.31886191  0.70768174  0.43638657  1
  O  O8  1  0.30946601  0.79091902  0.07269693  1
  O  O9  1  0.36285481  0.74928318  0.75471719  1
  O  O10  1  0.63714519  0.25071682  0.75471719  1
  O  O11  1  0.69053399  0.20908098  0.07269693  1
  O  O12  1  0.68113809  0.29231826  0.43638657  1
  O  O13  1  0.80937893  0.79640111  0.93677658  1
  O  O14  1  0.81682488  0.71431680  0.58027171  1
  O  O15  1  0.89424293  0.74421832  0.25727117  1
