# generated using pymatgen
data_Na5Mn2P(CO4)4
_symmetry_space_group_name_H-M   'P 1'
_cell_length_a   9.96005417
_cell_length_b   10.04430260
_cell_length_c   10.08983063
_cell_angle_alpha   120.70254953
_cell_angle_beta   60.12366129
_cell_angle_gamma   119.42111176
_symmetry_Int_Tables_number   1
_chemical_formula_structural   Na5Mn2P(CO4)4
_chemical_formula_sum   'Na10 Mn4 P2 C8 O32'
_cell_volume   713.57412255
_cell_formula_units_Z   2
loop_
 _symmetry_equiv_pos_site_id
 _symmetry_equiv_pos_as_xyz
  1  'x, y, z'
loop_
 _atom_site_type_symbol
 _atom_site_label
 _atom_site_symmetry_multiplicity
 _atom_site_fract_x
 _atom_site_fract_y
 _atom_site_fract_z
 _atom_site_occupancy
  Na  Na0  1  0.91981949  0.16981949  0.33018051  1
  Na  Na1  1  0.91600697  0.16600697  0.91600697  1
  Na  Na2  1  0.91636452  0.58363548  0.33363548  1
  Na  Na3  1  0.66781451  0.41781451  0.08218549  1
  Na  Na4  1  0.33363548  0.16636452  0.91636452  1
  Na  Na5  1  0.66471806  0.83528194  0.08528194  1
  Na  Na6  1  0.33018051  0.58018051  0.91981949  1
  Na  Na7  1  0.33399303  0.58399303  0.33399303  1
  Na  Na8  1  0.08528194  0.41471806  0.66471806  1
  Na  Na9  1  0.08218549  0.83218549  0.66781451  1
  Mn  Mn10  1  0.49532749  0.99772949  0.00083594  1
  Mn  Mn11  1  0.50227051  0.00467251  0.50156507  1
  Mn  Mn12  1  0.50156507  0.49916406  0.50227051  1
  Mn  Mn13  1  0.00083594  0.99843493  0.49532749  1
  P  P14  1  0.87500000  0.62500000  0.87500000  1
  P  P15  1  0.12500000  0.37500000  0.12500000  1
  C  C16  1  0.71610263  0.14708886  0.71279763  1
  C  C17  1  0.64853587  0.21510477  0.27792542  1
  C  C18  1  0.27792542  0.21135652  0.64853587  1
  C  C19  1  0.28864348  0.22207458  0.28489523  1
  C  C20  1  0.71279763  0.78181140  0.71610263  1
  C  C21  1  0.71818860  0.78720237  0.35291114  1
  C  C22  1  0.35291114  0.78389737  0.71818860  1
  C  C23  1  0.28489523  0.85146413  0.28864348  1
  O  O24  1  0.85970843  0.15249504  0.69129998  1
  O  O25  1  0.65456239  0.10244402  0.29972922  1
  O  O26  1  0.69276587  0.13626518  0.59215020  1
  O  O27  1  0.64651931  0.18867322  0.13715607  1
  O  O28  1  0.60401429  0.15584689  0.85367298  1
  O  O29  1  0.93707420  0.55647075  0.93337145  1
  O  O30  1  0.94352925  0.56292580  0.68602510  1
  O  O31  1  0.65125761  0.35753526  0.39111221  1
  O  O32  1  0.31516444  0.10888779  0.14246474  1
  O  O33  1  0.39111221  0.18483556  0.65125761  1
  O  O34  1  0.93337145  0.81397490  0.93707420  1
  O  O35  1  0.68602510  0.56662855  0.94352925  1
  O  O36  1  0.69815962  0.64632702  0.34415311  1
  O  O37  1  0.85367298  0.80184038  0.60401429  1
  O  O38  1  0.40499884  0.36284393  0.31132678  1
  O  O39  1  0.13715607  0.09500116  0.64651931  1
  O  O40  1  0.85134910  0.90784980  0.36373482  1
  O  O41  1  0.59215020  0.64865090  0.69276587  1
  O  O42  1  0.29972922  0.35184759  0.65456239  1
  O  O43  1  0.14815241  0.20027078  0.39755598  1
  O  O44  1  0.31500030  0.43755149  0.06369080  1
  O  O45  1  0.06244851  0.18499970  0.05886039  1
  O  O46  1  0.60148663  0.80870002  0.34750496  1
  O  O47  1  0.69129998  0.89851337  0.85970843  1
  O  O48  1  0.34750496  0.64029157  0.60148663  1
  O  O49  1  0.06369080  0.44113961  0.31500030  1
  O  O50  1  0.05886039  0.43630920  0.06244851  1
  O  O51  1  0.39755598  0.84543761  0.14815241  1
  O  O52  1  0.36373482  0.80723413  0.85134910  1
  O  O53  1  0.31132678  0.85348069  0.40499884  1
  O  O54  1  0.34415311  0.89598571  0.69815962  1
  O  O55  1  0.14246474  0.84874239  0.31516444  1
