# generated using pymatgen
data_Li6Mn2C4SO16
_symmetry_space_group_name_H-M   'P 1'
_cell_length_a   9.52052203
_cell_length_b   9.52052203
_cell_length_c   9.52052243
_cell_angle_alpha   60.00000128
_cell_angle_beta   89.99999462
_cell_angle_gamma   119.99999366
_symmetry_Int_Tables_number   1
_chemical_formula_structural   Li6Mn2C4SO16
_chemical_formula_sum   'Li12 Mn4 C8 S2 O32'
_cell_volume   610.19316263
_cell_formula_units_Z   2
loop_
 _symmetry_equiv_pos_site_id
 _symmetry_equiv_pos_as_xyz
  1  'x, y, z'
loop_
 _atom_site_type_symbol
 _atom_site_label
 _atom_site_symmetry_multiplicity
 _atom_site_fract_x
 _atom_site_fract_y
 _atom_site_fract_z
 _atom_site_occupancy
  Li  Li0  1  0.09181118  0.75000000  0.09181118  1
  Li  Li1  1  0.34181118  0.25000000  0.34181118  1
  Li  Li2  1  0.09181118  0.18362236  0.65818882  1
  Li  Li3  1  0.65818882  0.31637764  0.09181118  1
  Li  Li4  1  0.90818882  0.25000000  0.34181118  1
  Li  Li5  1  0.34181118  0.25000000  0.90818882  1
  Li  Li6  1  0.09181118  0.75000000  0.65818882  1
  Li  Li7  1  0.65818882  0.75000000  0.09181118  1
  Li  Li8  1  0.34181118  0.68362236  0.90818882  1
  Li  Li9  1  0.90818882  0.25000000  0.90818882  1
  Li  Li10  1  0.90818882  0.81637764  0.34181118  1
  Li  Li11  1  0.65818882  0.75000000  0.65818882  1
  Mn  Mn12  1  0.50000000  0.00000000  0.00000000  1
  Mn  Mn13  1  0.50000000  0.00000000  0.50000000  1
  Mn  Mn14  1  0.00000000  0.50000000  0.50000000  1
  Mn  Mn15  1  0.50000000  0.50000000  0.50000000  1
  C  C16  1  0.32108247  0.04738832  0.72630584  1
  C  C17  1  0.27369416  0.54738832  0.27369416  1
  C  C18  1  0.27369416  0.54738832  0.67891753  1
  C  C19  1  0.72630584  0.04738832  0.72630584  1
  C  C20  1  0.27369416  0.95261168  0.27369416  1
  C  C21  1  0.72630584  0.45261168  0.32108247  1
  C  C22  1  0.72630584  0.45261168  0.72630584  1
  C  C23  1  0.67891753  0.95261168  0.27369416  1
  S  S24  1  0.12500000  0.25000000  0.12500000  1
  S  S25  1  0.87500000  0.75000000  0.87500000  1
  O  O26  1  0.06082685  0.12165469  0.06082685  1
  O  O27  1  0.06082685  0.12165469  0.31751846  1
  O  O28  1  0.06082685  0.37834531  0.06082685  1
  O  O29  1  0.31751846  0.37834531  0.06082685  1
  O  O30  1  0.40691304  0.08594351  0.28019657  1
  O  O31  1  0.67903147  0.08594351  0.13385992  1
  O  O32  1  0.13385992  0.54077296  0.28019657  1
  O  O33  1  0.32096853  0.04077296  0.59308696  1
  O  O34  1  0.28019657  0.41405649  0.40691304  1
  O  O35  1  0.13385992  0.41405649  0.67903147  1
  O  O36  1  0.40691304  0.68710861  0.13385992  1
  O  O37  1  0.32096853  0.18710861  0.71980343  1
  O  O38  1  0.71980343  0.31289139  0.32096853  1
  O  O39  1  0.13385992  0.81289139  0.40691304  1
  O  O40  1  0.59308696  0.45922704  0.32096853  1
  O  O41  1  0.28019657  0.95922704  0.13385992  1
  O  O42  1  0.40691304  0.54077296  0.67903147  1
  O  O43  1  0.71980343  0.04077296  0.86614008  1
  O  O44  1  0.86614008  0.18710861  0.59308696  1
  O  O45  1  0.28019657  0.68710861  0.67903147  1
  O  O46  1  0.67903147  0.81289139  0.28019657  1
  O  O47  1  0.59308696  0.31289139  0.86614008  1
  O  O48  1  0.86614008  0.58594351  0.32096853  1
  O  O49  1  0.71980343  0.58594351  0.59308696  1
  O  O50  1  0.86614008  0.45922704  0.71980343  1
  O  O51  1  0.67903147  0.95922704  0.40691304  1
  O  O52  1  0.32096853  0.91405649  0.86614008  1
  O  O53  1  0.59308696  0.91405649  0.71980343  1
  O  O54  1  0.68248154  0.62165469  0.93917315  1
  O  O55  1  0.93917315  0.62165469  0.93917315  1
  O  O56  1  0.93917315  0.87834531  0.68248154  1
  O  O57  1  0.93917315  0.87834531  0.93917315  1
