# generated using pymatgen
data_Li3Co4(BO3)4
_symmetry_space_group_name_H-M   'P 1'
_cell_length_a   5.21697104
_cell_length_b   8.92680313
_cell_length_c   10.12921692
_cell_angle_alpha   90.00000050
_cell_angle_beta   91.70661030
_cell_angle_gamma   90.00000321
_symmetry_Int_Tables_number   1
_chemical_formula_structural   Li3Co4(BO3)4
_chemical_formula_sum   'Li6 Co8 B8 O24'
_cell_volume   471.51723535
_cell_formula_units_Z   2
loop_
 _symmetry_equiv_pos_site_id
 _symmetry_equiv_pos_as_xyz
  1  'x, y, z'
loop_
 _atom_site_type_symbol
 _atom_site_label
 _atom_site_symmetry_multiplicity
 _atom_site_fract_x
 _atom_site_fract_y
 _atom_site_fract_z
 _atom_site_occupancy
  Li  Li0  1  0.16198568  0.00457212  0.15113076  1
  Li  Li1  1  0.84982024  0.99544123  0.41042698  1
  Li  Li2  1  0.34982024  0.50455877  0.91042698  1
  Li  Li3  1  0.33387037  0.50310411  0.40691584  1
  Li  Li4  1  0.66198568  0.49542788  0.65113076  1
  Li  Li5  1  0.83387037  0.99689589  0.90691584  1
  Co  Co6  1  0.32536633  0.16303221  0.86755455  1
  Co  Co7  1  0.65946506  0.15652868  0.62811621  1
  Co  Co8  1  0.15946506  0.34347132  0.12811621  1
  Co  Co9  1  0.82536633  0.33696779  0.36755455  1
  Co  Co10  1  0.16325420  0.67349373  0.64095651  1
  Co  Co11  1  0.84013378  0.66638171  0.88774037  1
  Co  Co12  1  0.34013378  0.83361829  0.38774037  1
  Co  Co13  1  0.66325420  0.82650627  0.14095651  1
  B  B14  1  0.33003234  0.16957171  0.37296689  1
  B  B15  1  0.16886223  0.33275040  0.62555326  1
  B  B16  1  0.66886223  0.16724960  0.12555326  1
  B  B17  1  0.83003234  0.33042829  0.87296689  1
  B  B18  1  0.15931973  0.66943865  0.12509817  1
  B  B19  1  0.33333269  0.83343771  0.87979833  1
  B  B20  1  0.83333269  0.66656229  0.37979833  1
  B  B21  1  0.65931973  0.83056135  0.62509817  1
  O  O22  1  0.19572534  0.03921600  0.35285540  1
  O  O23  1  0.31165124  0.20736890  0.66716259  1
  O  O24  1  0.40474187  0.18032457  0.09932067  1
  O  O25  1  0.79131462  0.03269019  0.11115030  1
  O  O26  1  0.58606954  0.16881963  0.42332946  1
  O  O27  1  0.08606954  0.33118037  0.92332946  1
  O  O28  1  0.21650097  0.30765275  0.34026952  1
  O  O29  1  0.71650097  0.19234725  0.84026952  1
  O  O30  1  0.29131462  0.46730981  0.61115030  1
  O  O31  1  0.81165124  0.29263110  0.16716259  1
  O  O32  1  0.90474187  0.31967543  0.59932067  1
  O  O33  1  0.28953943  0.53179156  0.11801931  1
  O  O34  1  0.69572534  0.46078400  0.85285540  1
  O  O35  1  0.09451494  0.66616689  0.40552629  1
  O  O36  1  0.21395140  0.69519133  0.84492707  1
  O  O37  1  0.69165991  0.53884369  0.39051291  1
  O  O38  1  0.28984278  0.79700863  0.16220034  1
  O  O39  1  0.78984278  0.70299137  0.66220034  1
  O  O40  1  0.90498430  0.67237734  0.08686726  1
  O  O41  1  0.40498430  0.82762266  0.58686726  1
  O  O42  1  0.19165991  0.96115631  0.89051291  1
  O  O43  1  0.59451494  0.83383311  0.90552629  1
  O  O44  1  0.71395140  0.80480867  0.34492707  1
  O  O45  1  0.78953943  0.96820844  0.61801931  1
