# generated using pymatgen
data_LiVOF3
_symmetry_space_group_name_H-M   'P 1'
_cell_length_a   7.52122874
_cell_length_b   8.86391794
_cell_length_c   8.84771336
_cell_angle_alpha   90.01059869
_cell_angle_beta   89.99978961
_cell_angle_gamma   90.00021154
_symmetry_Int_Tables_number   1
_chemical_formula_structural   LiVOF3
_chemical_formula_sum   'Li8 V8 O8 F24'
_cell_volume   589.85540140
_cell_formula_units_Z   8
loop_
 _symmetry_equiv_pos_site_id
 _symmetry_equiv_pos_as_xyz
  1  'x, y, z'
loop_
 _atom_site_type_symbol
 _atom_site_label
 _atom_site_symmetry_multiplicity
 _atom_site_fract_x
 _atom_site_fract_y
 _atom_site_fract_z
 _atom_site_occupancy
  Li  Li0  1  0.24986137  0.99946198  0.99946466  1
  Li  Li1  1  0.74984544  0.00052609  0.00054357  1
  Li  Li2  1  0.62435304  0.65027618  0.14970618  1
  Li  Li3  1  0.37567873  0.15029335  0.35026704  1
  Li  Li4  1  0.25011651  0.50055295  0.49947722  1
  Li  Li5  1  0.75011623  0.49945502  0.50052351  1
  Li  Li6  1  0.87568852  0.84966464  0.64972817  1
  Li  Li7  1  0.12433889  0.34969180  0.85031718  1
  V  V8  1  0.39309949  0.37695355  0.12361945  1
  V  V9  1  0.89511308  0.36813482  0.13148565  1
  V  V10  1  0.10487589  0.86810104  0.36843324  1
  V  V11  1  0.60678476  0.87696491  0.37640659  1
  V  V12  1  0.10679716  0.12305854  0.62359217  1
  V  V13  1  0.60483131  0.13192508  0.63157590  1
  V  V14  1  0.39515703  0.63187370  0.86848702  1
  V  V15  1  0.89325996  0.62306020  0.87639339  1
  O  O16  1  0.12103486  0.37486890  0.10969337  1
  O  O17  1  0.61823692  0.39015860  0.12360539  1
  O  O18  1  0.38161312  0.89012440  0.37640022  1
  O  O19  1  0.87896149  0.87489899  0.39023435  1
  O  O20  1  0.37890816  0.12511072  0.60979472  1
  O  O21  1  0.88164768  0.10992553  0.62361604  1
  O  O22  1  0.11841469  0.60984328  0.87640832  1
  O  O23  1  0.62109407  0.62510356  0.89028525  1
  F  F24  1  0.37318877  0.60414999  0.10257072  1
  F  F25  1  0.86759379  0.60060179  0.10292303  1
  F  F26  1  0.36972416  0.15958410  0.12669800  1
  F  F27  1  0.85839722  0.15979437  0.11464923  1
  F  F28  1  0.13172672  0.88883902  0.15912732  1
  F  F29  1  0.64014032  0.87174632  0.15942376  1
  F  F30  1  0.35981641  0.37174652  0.34060851  1
  F  F31  1  0.86833802  0.38889391  0.34077764  1
  F  F32  1  0.14160704  0.65974444  0.38530602  1
  F  F33  1  0.63030843  0.65960726  0.37329589  1
  F  F34  1  0.13246005  0.10058582  0.39712190  1
  F  F35  1  0.62678021  0.10414806  0.39746840  1
  F  F36  1  0.12676809  0.89591878  0.60256068  1
  F  F37  1  0.63249388  0.89943883  0.60293626  1
  F  F38  1  0.13029030  0.34039067  0.62673119  1
  F  F39  1  0.64154071  0.34026930  0.61468282  1
  F  F40  1  0.36835491  0.61113585  0.65917820  1
  F  F41  1  0.85989688  0.62823470  0.65943293  1
  F  F42  1  0.14012034  0.12826499  0.84053567  1
  F  F43  1  0.63171381  0.11118239  0.84086154  1
  F  F44  1  0.35843053  0.84023252  0.88535777  1
  F  F45  1  0.86976800  0.84041234  0.87330492  1
  F  F46  1  0.36755266  0.39940839  0.89706235  1
  F  F47  1  0.87317336  0.39586281  0.89739466  1
