# generated using pymatgen
data_Li5V4O8
_symmetry_space_group_name_H-M   'P 1'
_cell_length_a   6.07232585
_cell_length_b   6.04670667
_cell_length_c   6.08025916
_cell_angle_alpha   59.70928095
_cell_angle_beta   60.05607765
_cell_angle_gamma   59.84509211
_symmetry_Int_Tables_number   1
_chemical_formula_structural   Li5V4O8
_chemical_formula_sum   'Li5 V4 O8'
_cell_volume   157.39518570
_cell_formula_units_Z   1
loop_
 _symmetry_equiv_pos_site_id
 _symmetry_equiv_pos_as_xyz
  1  'x, y, z'
loop_
 _atom_site_type_symbol
 _atom_site_label
 _atom_site_symmetry_multiplicity
 _atom_site_fract_x
 _atom_site_fract_y
 _atom_site_fract_z
 _atom_site_occupancy
  Li  Li0  1  0.01902212  0.02632038  0.02023877  1
  Li  Li1  1  0.01907557  0.44321335  0.01786028  1
  Li  Li2  1  0.01997509  0.02545243  0.43475112  1
  Li  Li3  1  0.87591425  0.87157294  0.87616085  1
  Li  Li4  1  0.43423344  0.02721802  0.02051422  1
  V  V5  1  0.49991159  0.50067411  0.99975524  1
  V  V6  1  0.49990180  0.50013044  0.49961609  1
  V  V7  1  0.00026176  0.50004565  0.49969384  1
  V  V8  1  0.50109051  0.99669371  0.50153546  1
  O  O9  1  0.25053070  0.26728728  0.25122132  1
  O  O10  1  0.73115608  0.26692372  0.25130761  1
  O  O11  1  0.25244005  0.74374351  0.25146688  1
  O  O12  1  0.25137107  0.26631276  0.73125101  1
  O  O13  1  0.74776317  0.25527590  0.74888890  1
  O  O14  1  0.75159799  0.72897714  0.26747207  1
  O  O15  1  0.26727164  0.72801119  0.75162657  1
  O  O16  1  0.75348516  0.72714945  0.75164277  1
