# generated using pymatgen
data_Li3NiAsCO7
_symmetry_space_group_name_H-M   'P 1'
_cell_length_a   8.45074029
_cell_length_b   6.56126908
_cell_length_c   5.06658086
_cell_angle_alpha   90.00000000
_cell_angle_beta   86.31040615
_cell_angle_gamma   90.00000000
_symmetry_Int_Tables_number   1
_chemical_formula_structural   Li3NiAsCO7
_chemical_formula_sum   'Li6 Ni2 As2 C2 O14'
_cell_volume   280.34737572
_cell_formula_units_Z   2
loop_
 _symmetry_equiv_pos_site_id
 _symmetry_equiv_pos_as_xyz
  1  'x, y, z'
loop_
 _atom_site_type_symbol
 _atom_site_label
 _atom_site_symmetry_multiplicity
 _atom_site_fract_x
 _atom_site_fract_y
 _atom_site_fract_z
 _atom_site_occupancy
  Li  Li0  1  0.09133342  0.25000000  0.75199954  1
  Li  Li1  1  0.26758000  0.02092397  0.22658481  1
  Li  Li2  1  0.26758000  0.47907603  0.22658481  1
  Li  Li3  1  0.73242000  0.52092397  0.77341519  1
  Li  Li4  1  0.73242000  0.97907603  0.77341519  1
  Li  Li5  1  0.90866658  0.75000000  0.24800046  1
  Ni  Ni6  1  0.32235406  0.75000000  0.79137975  1
  Ni  Ni7  1  0.67764594  0.25000000  0.20862025  1
  As  As8  1  0.41770923  0.25000000  0.71076864  1
  As  As9  1  0.58229077  0.75000000  0.28923136  1
  C  C10  1  0.03034530  0.75000000  0.70935986  1
  C  C11  1  0.96965470  0.25000000  0.29064014  1
  O  O12  1  0.11708803  0.25000000  0.34804937  1
  O  O13  1  0.07076229  0.75000000  0.95171463  1
  O  O14  1  0.14113718  0.75000000  0.51952306  1
  O  O15  1  0.29503294  0.05424605  0.82045939  1
  O  O16  1  0.29503294  0.44575395  0.82045939  1
  O  O17  1  0.44443110  0.25000000  0.36970202  1
  O  O18  1  0.39702069  0.75000000  0.17151710  1
  O  O19  1  0.60297931  0.25000000  0.82848290  1
  O  O20  1  0.55556890  0.75000000  0.63029798  1
  O  O21  1  0.70496706  0.55424605  0.17954061  1
  O  O22  1  0.70496706  0.94575395  0.17954061  1
  O  O23  1  0.85886282  0.25000000  0.48047694  1
  O  O24  1  0.92923771  0.25000000  0.04828537  1
  O  O25  1  0.88291197  0.75000000  0.65195063  1
