# generated using pymatgen
data_KLi(WO3)3
_symmetry_space_group_name_H-M   'P 1'
_cell_length_a   7.58282490
_cell_length_b   7.64889706
_cell_length_c   7.91890204
_cell_angle_alpha   90.23726372
_cell_angle_beta   89.84257434
_cell_angle_gamma   120.08029437
_symmetry_Int_Tables_number   1
_chemical_formula_structural   KLi(WO3)3
_chemical_formula_sum   'K2 Li2 W6 O18'
_cell_volume   397.43822516
_cell_formula_units_Z   2
loop_
 _symmetry_equiv_pos_site_id
 _symmetry_equiv_pos_as_xyz
  1  'x, y, z'
loop_
 _atom_site_type_symbol
 _atom_site_label
 _atom_site_symmetry_multiplicity
 _atom_site_fract_x
 _atom_site_fract_y
 _atom_site_fract_z
 _atom_site_occupancy
  K  K0  1  0.00786297  0.00382724  0.26917318  1
  K  K1  1  0.00318696  0.99593669  0.76764327  1
  Li  Li2  1  0.40708789  0.70061331  0.25038332  1
  Li  Li3  1  0.70105772  0.30299076  0.74928441  1
  W  W4  1  0.00498856  0.50177238  0.49817250  1
  W  W5  1  0.00465393  0.50286860  0.00211852  1
  W  W6  1  0.50274316  0.49782789  0.50154335  1
  W  W7  1  0.50118805  0.49641718  0.99776265  1
  W  W8  1  0.49875202  -0.00041430  0.00013038  1
  W  W9  1  0.49794690  0.99993578  0.50018098  1
  O  O10  1  0.00177531  0.50218703  0.74991566  1
  O  O11  1  0.21201553  0.79182444  0.00614190  1
  O  O12  1  0.21552492  0.79537899  0.49270898  1
  O  O13  1  0.21414275  0.42277319  0.49577533  1
  O  O14  1  0.50006678  0.99696631  0.74589973  1
  O  O15  1  0.21749900  0.42337480  0.00424462  1
  O  O16  1  0.57362654  0.78220607  0.01329178  1
  O  O17  1  0.57361636  0.79095050  0.48650083  1
  O  O18  1  0.50379167  0.50270415  0.75441433  1
  O  O19  1  0.49960091  0.49572107  0.24629578  1
  O  O20  1  0.41962456  0.21360213  0.99140537  1
  O  O21  1  0.42000291  0.20443483  0.50832789  1
  O  O22  1  0.78855709  0.57655023  0.50425959  1
  O  O23  1  0.50144651  0.00288271  0.25361061  1
  O  O24  1  0.78441056  0.57624885  0.99534856  1
  O  O25  1  0.78545792  0.21312031  0.98826940  1
  O  O26  1  0.78181189  0.20877858  0.51122082  1
  O  O27  1  0.00239264  0.49852028  0.24975827  1
