# generated using pymatgen
data_Ba2LaI7
_symmetry_space_group_name_H-M   'P 1'
_cell_length_a   8.43631345
_cell_length_b   15.43934925
_cell_length_c   14.97362540
_cell_angle_alpha   90.00000000
_cell_angle_beta   99.90325069
_cell_angle_gamma   90.00000000
_symmetry_Int_Tables_number   1
_chemical_formula_structural   Ba2LaI7
_chemical_formula_sum   'Ba8 La4 I28'
_cell_volume   1921.27172960
_cell_formula_units_Z   4
loop_
 _symmetry_equiv_pos_site_id
 _symmetry_equiv_pos_as_xyz
  1  'x, y, z'
loop_
 _atom_site_type_symbol
 _atom_site_label
 _atom_site_symmetry_multiplicity
 _atom_site_fract_x
 _atom_site_fract_y
 _atom_site_fract_z
 _atom_site_occupancy
  Ba  Ba0  1  0.21508048  0.45406659  0.75065107  1
  Ba  Ba1  1  0.25560557  0.86679374  0.63885769  1
  Ba  Ba2  1  0.24202436  0.20931651  0.13780984  1
  Ba  Ba3  1  0.32073511  0.63659666  0.24129240  1
  Ba  Ba4  1  0.67926489  0.13659666  0.75870760  1
  Ba  Ba5  1  0.75797564  0.70931651  0.86219016  1
  Ba  Ba6  1  0.74439443  0.36679374  0.36114231  1
  Ba  Ba7  1  0.78491952  0.95406659  0.24934893  1
  La  La8  1  0.17850749  0.15367955  0.55004099  1
  La  La9  1  0.19355843  0.92602225  0.04824557  1
  La  La10  1  0.80644157  0.42602225  0.95175443  1
  La  La11  1  0.82149251  0.65367955  0.44995901  1
  I  I12  1  0.05026058  0.29081152  0.88755573  1
  I  I13  1  0.07242296  0.57372548  0.98917005  1
  I  I14  1  0.04633480  0.49048673  0.50970037  1
  I  I15  1  0.11719385  0.83950242  0.85791061  1
  I  I16  1  0.11848837  0.76028500  0.39858138  1
  I  I17  1  0.10992190  0.23790180  0.35774596  1
  I  I18  1  0.21449462  0.07702741  0.74833693  1
  I  I19  1  0.20628383  0.99854612  0.25031093  1
  I  I20  1  0.38577693  0.66009419  0.71723860  1
  I  I21  1  0.38199564  0.41376577  0.21144098  1
  I  I22  1  0.41901717  0.30718573  0.62051545  1
  I  I23  1  0.52135466  0.29275134  0.89271526  1
  I  I24  1  0.48820736  0.03982188  0.54252457  1
  I  I25  1  0.53645860  0.55856632  0.97391617  1
  I  I26  1  0.46354140  0.05856632  0.02608383  1
  I  I27  1  0.51179264  0.53982288  0.45747543  1
  I  I28  1  0.47864534  0.79275134  0.10728474  1
  I  I29  1  0.58098283  0.80718573  0.37948455  1
  I  I30  1  0.61800436  0.91376577  0.78855902  1
  I  I31  1  0.61422307  0.16009419  0.28276140  1
  I  I32  1  0.79371617  0.49854612  0.74968907  1
  I  I33  1  0.78550538  0.57702741  0.25166307  1
  I  I34  1  0.89007810  0.73790180  0.64225404  1
  I  I35  1  0.88151163  0.26028500  0.60141862  1
  I  I36  1  0.88280615  0.33950242  0.14208939  1
  I  I37  1  0.95366520  0.99048673  0.49029963  1
  I  I38  1  0.92757704  0.07372548  0.01082995  1
  I  I39  1  0.94973942  0.79081152  0.11244427  1
