# generated using pymatgen
data_Tm2(WO4)3
_symmetry_space_group_name_H-M   'P 1'
_cell_length_a   6.87344520
_cell_length_b   6.87344520
_cell_length_c   11.36061775
_cell_angle_alpha   78.93986394
_cell_angle_beta   101.06013606
_cell_angle_gamma   67.88640700
_symmetry_Int_Tables_number   1
_chemical_formula_structural   Tm2(WO4)3
_chemical_formula_sum   'Tm4 W6 O24'
_cell_volume   466.97360525
_cell_formula_units_Z   2
loop_
 _symmetry_equiv_pos_site_id
 _symmetry_equiv_pos_as_xyz
  1  'x, y, z'
loop_
 _atom_site_type_symbol
 _atom_site_label
 _atom_site_symmetry_multiplicity
 _atom_site_fract_x
 _atom_site_fract_y
 _atom_site_fract_z
 _atom_site_occupancy
  Tm  Tm0  1  0.30416027  0.95109591  0.59163530  1
  Tm  Tm1  1  0.04890409  0.69583973  0.09163530  1
  Tm  Tm2  1  0.95109591  0.30416027  0.90836470  1
  Tm  Tm3  1  0.69583973  0.04890409  0.40836470  1
  W  W4  1  0.48873711  0.79520246  0.94934556  1
  W  W5  1  0.20479754  0.51126289  0.44934556  1
  W  W6  1  0.88193743  0.88193743  0.75000000  1
  W  W7  1  0.11806257  0.11806257  0.25000000  1
  W  W8  1  0.79520246  0.48873711  0.55065444  1
  W  W9  1  0.51126289  0.20479754  0.05065444  1
  O  O10  1  0.34238637  0.79851494  0.79560347  1
  O  O11  1  0.58879064  0.99059192  0.71945287  1
  O  O12  1  0.97331801  0.94556128  0.89603250  1
  O  O13  1  0.33142379  0.60905568  0.56169811  1
  O  O14  1  0.78211984  0.61802742  0.96154621  1
  O  O15  1  0.10403228  0.31843792  0.57546127  1
  O  O16  1  0.20148506  0.65761363  0.29560347  1
  O  O17  1  0.31843792  0.10403228  0.92453873  1
  O  O18  1  0.61802742  0.78211984  0.53845379  1
  O  O19  1  0.60905568  0.33142379  0.93830189  1
  O  O20  1  0.94556128  0.97331801  0.60396750  1
  O  O21  1  0.00940808  0.41120936  0.21945287  1
  O  O22  1  0.99059192  0.58879064  0.78054713  1
  O  O23  1  0.05443872  0.02668199  0.39603250  1
  O  O24  1  0.39094432  0.66857621  0.06169811  1
  O  O25  1  0.38197258  0.21788016  0.46154621  1
  O  O26  1  0.68156208  0.89596772  0.07546127  1
  O  O27  1  0.79851494  0.34238637  0.70439653  1
  O  O28  1  0.89596772  0.68156208  0.42453873  1
  O  O29  1  0.21788016  0.38197258  0.03845379  1
  O  O30  1  0.66857621  0.39094432  0.43830189  1
  O  O31  1  0.02668199  0.05443872  0.10396750  1
  O  O32  1  0.41120936  0.00940808  0.28054713  1
  O  O33  1  0.65761363  0.20148506  0.20439653  1
