# generated using pymatgen
data_Li4Nb3V5O16
_symmetry_space_group_name_H-M   'P 1'
_cell_length_a   6.06277967
_cell_length_b   6.05487239
_cell_length_c   9.85537934
_cell_angle_alpha   90.00566737
_cell_angle_beta   88.83178017
_cell_angle_gamma   119.95844842
_symmetry_Int_Tables_number   1
_chemical_formula_structural   Li4Nb3V5O16
_chemical_formula_sum   'Li4 Nb3 V5 O16'
_cell_volume   313.35941282
_cell_formula_units_Z   1
loop_
 _symmetry_equiv_pos_site_id
 _symmetry_equiv_pos_as_xyz
  1  'x, y, z'
loop_
 _atom_site_type_symbol
 _atom_site_label
 _atom_site_symmetry_multiplicity
 _atom_site_fract_x
 _atom_site_fract_y
 _atom_site_fract_z
 _atom_site_occupancy
  Li  Li0  1  0.33298281  0.66651271  0.89829151  1
  Li  Li1  1  0.01683825  0.00843099  0.99460897  1
  Li  Li2  1  0.01815862  0.00908404  0.49459251  1
  Li  Li3  1  0.66912490  0.33460264  0.38673467  1
  Nb  Nb4  1  0.66099222  0.83054463  0.21490483  1
  Nb  Nb5  1  0.82196862  0.64900858  0.71381014  1
  Nb  Nb6  1  0.82201035  0.17306814  0.71380392  1
  V  V7  1  0.16968724  0.82846024  0.21337052  1
  V  V8  1  0.32121867  0.66061913  0.48550510  1
  V  V9  1  0.16974711  0.34118592  0.21336941  1
  V  V10  1  0.34543760  0.17273735  0.71095424  1
  V  V11  1  0.65833126  0.32918197  0.99366484  1
  O  O12  1  0.15511883  0.82344263  0.59948017  1
  O  O13  1  0.03677522  0.51838681  0.33408546  1
  O  O14  1  0.34670297  0.67335456  0.10041558  1
  O  O15  1  0.99363328  0.99677877  0.31254614  1
  O  O16  1  0.99484943  0.99747537  0.81078267  1
  O  O17  1  0.15513232  0.33171412  0.59949036  1
  O  O18  1  0.48121196  0.95896403  0.34105987  1
  O  O19  1  0.48118475  0.52224894  0.34104867  1
  O  O20  1  0.32751466  0.16372613  0.10281633  1
  O  O21  1  0.67264490  0.83633567  0.60133473  1
  O  O22  1  0.52613999  0.48901252  0.84434198  1
  O  O23  1  0.52613902  0.03717782  0.84433412  1
  O  O24  1  0.67169156  0.33584772  0.58691437  1
  O  O25  1  0.83057501  0.67207825  0.10292082  1
  O  O26  1  0.96350020  0.48180342  0.84973171  1
  O  O27  1  0.83068328  0.15851689  0.10292736  1
