# generated using pymatgen
data_Li3V(BO3)2
_symmetry_space_group_name_H-M   'P 1'
_cell_length_a   8.22294813
_cell_length_b   6.50210059
_cell_length_c   9.51560039
_cell_angle_alpha   90.00000000
_cell_angle_beta   64.49141916
_cell_angle_gamma   90.00000000
_symmetry_Int_Tables_number   1
_chemical_formula_structural   Li3V(BO3)2
_chemical_formula_sum   'Li12 V4 B8 O24'
_cell_volume   459.17120912
_cell_formula_units_Z   4
loop_
 _symmetry_equiv_pos_site_id
 _symmetry_equiv_pos_as_xyz
  1  'x, y, z'
loop_
 _atom_site_type_symbol
 _atom_site_label
 _atom_site_symmetry_multiplicity
 _atom_site_fract_x
 _atom_site_fract_y
 _atom_site_fract_z
 _atom_site_occupancy
  Li  Li0  1  0.10799461  0.24509671  0.48162411  1
  Li  Li1  1  0.04975488  0.54844520  0.67146647  1
  Li  Li2  1  0.39200539  0.74509671  0.01837589  1
  Li  Li3  1  0.30113284  0.77794765  0.53466864  1
  Li  Li4  1  0.54975488  0.95155480  0.17146647  1
  Li  Li5  1  0.19886716  0.27794765  0.96533136  1
  Li  Li6  1  0.80113284  0.72205235  0.03466864  1
  Li  Li7  1  0.45024512  0.04844520  0.82853353  1
  Li  Li8  1  0.69886716  0.22205235  0.46533136  1
  Li  Li9  1  0.60799461  0.25490329  0.98162411  1
  Li  Li10  1  0.95024512  0.45155480  0.32853353  1
  Li  Li11  1  0.89200539  0.75490329  0.51837589  1
  V  V12  1  0.00230707  0.03905687  0.81454351  1
  V  V13  1  0.50230707  0.46094313  0.31454351  1
  V  V14  1  0.49769293  0.53905687  0.68545649  1
  V  V15  1  0.99769293  0.96094313  0.18545649  1
  B  B16  1  0.26925932  0.15448458  0.18894578  1
  B  B17  1  0.23074068  0.65448458  0.31105422  1
  B  B18  1  0.18547791  0.66751433  0.88148898  1
  B  B19  1  0.31452209  0.16751433  0.61851102  1
  B  B20  1  0.68547791  0.83248567  0.38148898  1
  B  B21  1  0.81452209  0.33248567  0.11851102  1
  B  B22  1  0.76925932  0.34551542  0.68894578  1
  B  B23  1  0.73074068  0.84551542  0.81105422  1
  O  O24  1  0.08210667  0.71315271  0.29172934  1
  O  O25  1  0.09036921  0.19631847  0.28817057  1
  O  O26  1  0.28190476  0.03592928  0.06090750  1
  O  O27  1  0.21809524  0.53592928  0.43909250  1
  O  O28  1  0.40963079  0.69631847  0.21182943  1
  O  O29  1  0.04984418  0.80528378  0.96608674  1
  O  O30  1  0.21549058  0.05056335  0.56337175  1
  O  O31  1  0.41789333  0.21315271  0.20827066  1
  O  O32  1  0.24078836  0.64288414  0.72360467  1
  O  O33  1  0.25921164  0.14288414  0.77639533  1
  O  O34  1  0.28450942  0.55056335  0.93662825  1
  O  O35  1  0.45015582  0.30528378  0.53391326  1
  O  O36  1  0.54984418  0.69471622  0.46608674  1
  O  O37  1  0.71549058  0.44943665  0.06337175  1
  O  O38  1  0.74078836  0.85711586  0.22360467  1
  O  O39  1  0.75921164  0.35711586  0.27639533  1
  O  O40  1  0.58210667  0.78684729  0.79172934  1
  O  O41  1  0.78450942  0.94943665  0.43662825  1
  O  O42  1  0.95015582  0.19471622  0.03391326  1
  O  O43  1  0.59036921  0.30368153  0.78817057  1
  O  O44  1  0.78190476  0.46407072  0.56090750  1
  O  O45  1  0.71809524  0.96407072  0.93909250  1
  O  O46  1  0.90963079  0.80368153  0.71182943  1
  O  O47  1  0.91789333  0.28684729  0.70827066  1
