# generated using pymatgen
data_Ba4Sn3O10
_symmetry_space_group_name_H-M   'P 1'
_cell_length_a   6.05277087
_cell_length_b   7.44603219
_cell_length_c   14.08963256
_cell_angle_alpha   90.00000000
_cell_angle_beta   90.00000000
_cell_angle_gamma   113.98157000
_symmetry_Int_Tables_number   1
_chemical_formula_structural   Ba4Sn3O10
_chemical_formula_sum   'Ba8 Sn6 O20'
_cell_volume   580.19120825
_cell_formula_units_Z   2
loop_
 _symmetry_equiv_pos_site_id
 _symmetry_equiv_pos_as_xyz
  1  'x, y, z'
loop_
 _atom_site_type_symbol
 _atom_site_label
 _atom_site_symmetry_multiplicity
 _atom_site_fract_x
 _atom_site_fract_y
 _atom_site_fract_z
 _atom_site_occupancy
  Ba  Ba0  1  0.26291027  0.52582053  0.39117242  1
  Ba  Ba1  1  0.46838956  0.93677812  0.14332248  1
  Ba  Ba2  1  0.03161044  0.06322188  0.64332248  1
  Ba  Ba3  1  0.23708973  0.47417947  0.89117242  1
  Ba  Ba4  1  0.53161044  0.06322188  0.85667752  1
  Ba  Ba5  1  0.76291027  0.52582053  0.10882758  1
  Ba  Ba6  1  0.96838956  0.93677812  0.35667752  1
  Ba  Ba7  1  0.73708973  0.47417947  0.60882758  1
  Sn  Sn8  1  0.00000000  0.00000000  0.00000000  1
  Sn  Sn9  1  0.13539922  0.27079944  0.15458153  1
  Sn  Sn10  1  0.36460078  0.72920056  0.65458153  1
  Sn  Sn11  1  0.50000000  0.00000000  0.50000000  1
  Sn  Sn12  1  0.86460078  0.72920056  0.84541847  1
  Sn  Sn13  1  0.63539922  0.27079944  0.34541847  1
  O  O14  1  0.11788260  0.77859649  0.96202761  1
  O  O15  1  0.13418679  0.76837359  0.75000000  1
  O  O16  1  0.16071388  0.77859649  0.53797239  1
  O  O17  1  0.28179152  0.56358305  0.15590207  1
  O  O18  1  0.21820848  0.43641695  0.65590207  1
  O  O19  1  0.03193840  0.06387780  0.85439088  1
  O  O20  1  0.46806160  0.93612220  0.35439088  1
  O  O21  1  0.33928612  0.22140351  0.03797239  1
  O  O22  1  0.61788260  0.77859649  0.53797239  1
  O  O23  1  0.36581321  0.23162641  0.25000000  1
  O  O24  1  0.63418679  0.76837359  0.75000000  1
  O  O25  1  0.38211740  0.22140351  0.46202761  1
  O  O26  1  0.66071388  0.77859649  0.96202761  1
  O  O27  1  0.78179152  0.56358305  0.34409793  1
  O  O28  1  0.71820848  0.43641695  0.84409793  1
  O  O29  1  0.96806160  0.93612220  0.14560912  1
  O  O30  1  0.53193840  0.06387780  0.64560912  1
  O  O31  1  0.83928612  0.22140351  0.46202761  1
  O  O32  1  0.86581321  0.23162641  0.25000000  1
  O  O33  1  0.88211740  0.22140351  0.03797239  1
