# generated using pymatgen
data_Lu2WO6
_symmetry_space_group_name_H-M   'P 1'
_cell_length_a   5.30146880
_cell_length_b   9.72634702
_cell_length_c   9.72634702
_cell_angle_alpha   68.18519031
_cell_angle_beta   75.72127610
_cell_angle_gamma   75.72127610
_symmetry_Int_Tables_number   1
_chemical_formula_structural   Lu2WO6
_chemical_formula_sum   'Lu8 W4 O24'
_cell_volume   444.48463683
_cell_formula_units_Z   4
loop_
 _symmetry_equiv_pos_site_id
 _symmetry_equiv_pos_as_xyz
  1  'x, y, z'
loop_
 _atom_site_type_symbol
 _atom_site_label
 _atom_site_symmetry_multiplicity
 _atom_site_fract_x
 _atom_site_fract_y
 _atom_site_fract_z
 _atom_site_occupancy
  Lu  Lu0  1  0.61874208  0.05490099  0.28283815  1
  Lu  Lu1  1  0.11874208  0.28283815  0.05490099  1
  Lu  Lu2  1  0.75000000  0.63543141  0.36456859  1
  Lu  Lu3  1  0.75000000  0.10371491  0.89628509  1
  Lu  Lu4  1  0.25000000  0.89628509  0.10371491  1
  Lu  Lu5  1  0.25000000  0.36456859  0.63543141  1
  Lu  Lu6  1  0.88125792  0.71716185  0.94509901  1
  Lu  Lu7  1  0.38125792  0.94509901  0.71716185  1
  W  W8  1  0.93218191  0.19912111  0.49336846  1
  W  W9  1  0.43218191  0.49336846  0.19912111  1
  W  W10  1  0.56781809  0.50663154  0.80087889  1
  W  W11  1  0.06781809  0.80087889  0.50663154  1
  O  O12  1  0.92191727  0.10811628  0.07363121  1
  O  O13  1  0.42191727  0.07363121  0.10811628  1
  O  O14  1  0.74375984  0.47386595  0.05827129  1
  O  O15  1  0.85011158  0.21561658  0.31230747  1
  O  O16  1  0.24375984  0.05827129  0.47386595  1
  O  O17  1  0.35011158  0.31230747  0.21561658  1
  O  O18  1  0.60849619  0.17656536  0.62176238  1
  O  O19  1  0.10849619  0.62176238  0.17656536  1
  O  O20  1  0.98106886  0.39123114  0.45520888  1
  O  O21  1  0.57864612  0.69146417  0.15830060  1
  O  O22  1  0.48106886  0.45520888  0.39123114  1
  O  O23  1  0.07864612  0.15830060  0.69146417  1
  O  O24  1  0.92135388  0.84169940  0.30853583  1
  O  O25  1  0.51893114  0.54479112  0.60876886  1
  O  O26  1  0.42135388  0.30853583  0.84169940  1
  O  O27  1  0.01893114  0.60876886  0.54479112  1
  O  O28  1  0.89150381  0.37823762  0.82343464  1
  O  O29  1  0.39150381  0.82343464  0.37823762  1
  O  O30  1  0.64988842  0.68769253  0.78438342  1
  O  O31  1  0.75624016  0.94172871  0.52613405  1
  O  O32  1  0.14988842  0.78438342  0.68769253  1
  O  O33  1  0.25624016  0.52613405  0.94172871  1
  O  O34  1  0.57808273  0.92636879  0.89188372  1
  O  O35  1  0.07808273  0.89188372  0.92636879  1
