# generated using pymatgen
data_Li3MgPCO7
_symmetry_space_group_name_H-M   'P 1'
_cell_length_a   8.31508608
_cell_length_b   5.06749975
_cell_length_c   6.42488853
_cell_angle_alpha   90.00000000
_cell_angle_beta   90.00000000
_cell_angle_gamma   87.84405157
_symmetry_Int_Tables_number   1
_chemical_formula_structural   Li3MgPCO7
_chemical_formula_sum   'Li6 Mg2 P2 C2 O14'
_cell_volume   270.53194301
_cell_formula_units_Z   2
loop_
 _symmetry_equiv_pos_site_id
 _symmetry_equiv_pos_as_xyz
  1  'x, y, z'
loop_
 _atom_site_type_symbol
 _atom_site_label
 _atom_site_symmetry_multiplicity
 _atom_site_fract_x
 _atom_site_fract_y
 _atom_site_fract_z
 _atom_site_occupancy
  Li  Li0  1  0.00038905  0.01743640  0.49786881  1
  Li  Li1  1  0.17214129  0.45623088  0.18316468  1
  Li  Li2  1  0.49791605  0.44682131  0.44308288  1
  Li  Li3  1  0.50208395  0.55317869  0.94308288  1
  Li  Li4  1  0.82785871  0.54376912  0.68316468  1
  Li  Li5  1  0.99961095  0.98256360  0.99786881  1
  Mg  Mg6  1  0.28050914  0.02330690  0.74869605  1
  Mg  Mg7  1  0.71949086  0.97669310  0.24869605  1
  P  P8  1  0.33283358  0.96350849  0.24726678  1
  P  P9  1  0.66716642  0.03649051  0.74726678  1
  C  C10  1  0.13947973  0.50283518  0.74042396  1
  C  C11  1  0.86052027  0.49716482  0.24042396  1
  O  O12  1  0.03102592  0.32446961  0.73045630  1
  O  O13  1  0.09482582  0.74875599  0.76919785  1
  O  O14  1  0.23416855  0.08948545  0.06217076  1
  O  O15  1  0.22968033  0.00956606  0.44349464  1
  O  O16  1  0.29153066  0.43466021  0.72662225  1
  O  O17  1  0.36722571  0.66373445  0.20760715  1
  O  O18  1  0.49282868  0.10914766  0.27454790  1
  O  O19  1  0.50717132  0.89085134  0.77454790  1
  O  O20  1  0.63277429  0.33626555  0.70760715  1
  O  O21  1  0.70846934  0.56533979  0.22662225  1
  O  O22  1  0.77031967  0.99043394  0.94349464  1
  O  O23  1  0.76583145  0.91051455  0.56217076  1
  O  O24  1  0.90517418  0.25124401  0.26919785  1
  O  O25  1  0.96897408  0.67553039  0.23045630  1
