# generated using pymatgen
data_BaTl2O4
_symmetry_space_group_name_H-M   'P 1'
_cell_length_a   6.15141598
_cell_length_b   6.15141598
_cell_length_c   22.13781997
_cell_angle_alpha   89.82886097
_cell_angle_beta   90.17113903
_cell_angle_gamma   118.75600259
_symmetry_Int_Tables_number   1
_chemical_formula_structural   BaTl2O4
_chemical_formula_sum   'Ba6 Tl12 O24'
_cell_volume   734.38149394
_cell_formula_units_Z   6
loop_
 _symmetry_equiv_pos_site_id
 _symmetry_equiv_pos_as_xyz
  1  'x, y, z'
loop_
 _atom_site_type_symbol
 _atom_site_label
 _atom_site_symmetry_multiplicity
 _atom_site_fract_x
 _atom_site_fract_y
 _atom_site_fract_z
 _atom_site_occupancy
  Ba  Ba0  1  0.45429865  0.78463725  0.14402911  1
  Ba  Ba1  1  0.21536275  0.54570135  0.64402911  1
  Ba  Ba2  1  0.11165745  0.11165745  0.25000000  1
  Ba  Ba3  1  0.88834255  0.88834255  0.75000000  1
  Ba  Ba4  1  0.54570135  0.21536275  0.85597089  1
  Ba  Ba5  1  0.78463725  0.45429865  0.35597089  1
  Tl  Tl6  1  0.45628194  0.78933646  0.30536964  1
  Tl  Tl7  1  0.21066354  0.54371806  0.80536964  1
  Tl  Tl8  1  0.46478749  0.78818325  0.44621871  1
  Tl  Tl9  1  0.21181675  0.53521251  0.94621871  1
  Tl  Tl10  1  0.12899492  0.13035117  0.43102247  1
  Tl  Tl11  1  0.86964883  0.87100508  0.93102247  1
  Tl  Tl12  1  0.13035117  0.12899492  0.06897753  1
  Tl  Tl13  1  0.87100508  0.86964883  0.56897753  1
  Tl  Tl14  1  0.78818325  0.46478749  0.05378129  1
  Tl  Tl15  1  0.53521251  0.21181675  0.55378129  1
  Tl  Tl16  1  0.78933646  0.45628194  0.19463036  1
  Tl  Tl17  1  0.54371806  0.21066354  0.69463036  1
  O  O18  1  0.19965311  0.90684269  0.50219506  1
  O  O19  1  0.09315731  0.80034689  0.00219506  1
  O  O20  1  0.37555436  0.01965557  0.37575364  1
  O  O21  1  0.98034443  0.62444564  0.87575364  1
  O  O22  1  0.31535893  0.89194440  0.75572260  1
  O  O23  1  0.10805560  0.68464107  0.25572260  1
  O  O24  1  0.22014346  0.47191214  0.38135388  1
  O  O25  1  0.52808786  0.77985654  0.88135388  1
  O  O26  1  0.78529136  0.88321685  0.37208189  1
  O  O27  1  0.11678315  0.21470864  0.87208189  1
  O  O28  1  0.53012366  0.53012366  0.25000000  1
  O  O29  1  0.50000000  0.50000000  0.00000000  1
  O  O30  1  0.50000000  0.50000000  0.50000000  1
  O  O31  1  0.46987634  0.46987634  0.75000000  1
  O  O32  1  0.88321685  0.78529136  0.12791811  1
  O  O33  1  0.21470864  0.11678315  0.62791811  1
  O  O34  1  0.47191214  0.22014346  0.11864612  1
  O  O35  1  0.77985654  0.52808786  0.61864612  1
  O  O36  1  0.68464107  0.10805560  0.24427740  1
  O  O37  1  0.89194440  0.31535893  0.74427740  1
  O  O38  1  0.01965557  0.37555436  0.12424636  1
  O  O39  1  0.62444564  0.98034443  0.62424636  1
  O  O40  1  0.80034689  0.09315731  0.49780494  1
  O  O41  1  0.90684269  0.19965311  0.99780494  1
