# generated using pymatgen
data_NaLi2MnPCO7
_symmetry_space_group_name_H-M   'P 1'
_cell_length_a   8.72096987
_cell_length_b   6.66311819
_cell_length_c   10.07064481
_cell_angle_alpha   90.02088385
_cell_angle_beta   89.13554213
_cell_angle_gamma   90.04337417
_symmetry_Int_Tables_number   1
_chemical_formula_structural   NaLi2MnPCO7
_chemical_formula_sum   'Na4 Li8 Mn4 P4 C4 O28'
_cell_volume   585.12680987
_cell_formula_units_Z   4
loop_
 _symmetry_equiv_pos_site_id
 _symmetry_equiv_pos_as_xyz
  1  'x, y, z'
loop_
 _atom_site_type_symbol
 _atom_site_label
 _atom_site_symmetry_multiplicity
 _atom_site_fract_x
 _atom_site_fract_y
 _atom_site_fract_z
 _atom_site_occupancy
  Na  Na0  1  0.08373805  0.25312996  0.87979998  1
  Na  Na1  1  0.08262020  0.25018710  0.37872155  1
  Na  Na2  1  0.25360707  0.99927371  0.62368629  1
  Na  Na3  1  0.74646853  0.50071184  0.37662704  1
  Li  Li4  1  0.26515124  0.48848969  0.61830351  1
  Li  Li5  1  0.26396972  0.01167620  0.11998804  1
  Li  Li6  1  0.26444525  0.48777416  0.11841032  1
  Li  Li7  1  0.73687807  0.51120692  0.88028657  1
  Li  Li8  1  0.73642379  0.98816996  0.88175804  1
  Li  Li9  1  0.73565153  0.98911723  0.38171619  1
  Li  Li10  1  0.91553285  0.74803618  0.62334934  1
  Li  Li11  1  0.91646230  0.75381558  0.12130292  1
  Mn  Mn12  1  0.35911214  0.74956517  0.88988082  1
  Mn  Mn13  1  0.36009430  0.74638914  0.38729116  1
  Mn  Mn14  1  0.64141602  0.24650816  0.61288576  1
  Mn  Mn15  1  0.64228914  0.24927131  0.11048786  1
  P  P16  1  0.41256596  0.25402929  0.85230800  1
  P  P17  1  0.40927412  0.24504969  0.34914428  1
  P  P18  1  0.59644388  0.74551194  0.65126813  1
  P  P19  1  0.59292158  0.75385858  0.14799597  1
  C  C20  1  0.04377544  0.74835110  0.86801937  1
  C  C21  1  0.04796612  0.75609509  0.36483236  1
  C  C22  1  0.94487810  0.25610187  0.63423460  1
  C  C23  1  0.94857156  0.24820305  0.13169393  1
  O  O24  1  0.09332959  0.27279142  0.64317716  1
  O  O25  1  0.09809106  0.24913623  0.13959267  1
  O  O26  1  0.09722771  0.75038194  0.98816452  1
  O  O27  1  0.09856260  0.74810126  0.48626971  1
  O  O28  1  0.13905299  0.74541714  0.76656030  1
  O  O29  1  0.14441265  0.74562812  0.26454944  1
  O  O30  1  0.32119786  0.06522273  0.89900354  1
  O  O31  1  0.32095295  0.43633460  0.90791124  1
  O  O32  1  0.31359759  0.06051737  0.39462042  1
  O  O33  1  0.32176711  0.43211083  0.40289260  1
  O  O34  1  0.41586499  0.26390728  0.69713090  1
  O  O35  1  0.42915891  0.73507600  0.59897508  1
  O  O36  1  0.41387077  0.25225241  0.19329976  1
  O  O37  1  0.42351578  0.75115363  0.09910549  1
  O  O38  1  0.58132935  0.25133423  0.89944229  1
  O  O39  1  0.58628682  0.75245826  0.80684562  1
  O  O40  1  0.57603625  0.23479295  0.39950623  1
  O  O41  1  0.58454792  0.76388484  0.30298834  1
  O  O42  1  0.69491328  0.56325692  0.60703339  1
  O  O43  1  0.68638249  0.93085180  0.59848264  1
  O  O44  1  0.68625330  0.56672198  0.10231476  1
  O  O45  1  0.68683380  0.93445280  0.09337831  1
  O  O46  1  0.85874154  0.24675743  0.74044261  1
  O  O47  1  0.86310813  0.24513672  0.23851173  1
  O  O48  1  0.88138691  0.24787490  0.51866451  1
  O  O49  1  0.88270283  0.25084530  0.01724185  1
  O  O50  1  0.89745671  0.74961636  0.84743033  1
  O  O51  1  0.90315713  0.77346163  0.34247451  1
