# generated using pymatgen
data_Li9Fe3(WO4)7
_symmetry_space_group_name_H-M   'P 1'
_cell_length_a   8.54878764
_cell_length_b   8.54878764
_cell_length_c   8.54878764
_cell_angle_alpha   89.86856532
_cell_angle_beta   90.13143468
_cell_angle_gamma   90.13143468
_symmetry_Int_Tables_number   1
_chemical_formula_structural   Li9Fe3(WO4)7
_chemical_formula_sum   'Li9 Fe3 W7 O28'
_cell_volume   624.75560989
_cell_formula_units_Z   1
loop_
 _symmetry_equiv_pos_site_id
 _symmetry_equiv_pos_as_xyz
  1  'x, y, z'
loop_
 _atom_site_type_symbol
 _atom_site_label
 _atom_site_symmetry_multiplicity
 _atom_site_fract_x
 _atom_site_fract_y
 _atom_site_fract_z
 _atom_site_occupancy
  Li  Li0  1  0.09762845  0.36036890  0.64344023  1
  Li  Li1  1  0.09762845  0.64344023  0.36036890  1
  Li  Li2  1  0.35655977  0.36036890  0.90237155  1
  Li  Li3  1  0.35655977  0.90237155  0.36036890  1
  Li  Li4  1  0.64603216  0.09567552  0.35396784  1
  Li  Li5  1  0.64603216  0.35396784  0.09567552  1
  Li  Li6  1  0.63963110  0.64344023  0.90237155  1
  Li  Li7  1  0.63963110  0.90237155  0.64344023  1
  Li  Li8  1  0.90432448  0.35396784  0.35396784  1
  Fe  Fe9  1  0.36260617  0.09980566  0.63739383  1
  Fe  Fe10  1  0.36260617  0.63739383  0.09980566  1
  Fe  Fe11  1  0.90019434  0.63739383  0.63739383  1
  W  W12  1  0.99947878  0.00052122  0.49900596  1
  W  W13  1  0.99947878  0.49900596  0.00052122  1
  W  W14  1  0.35768490  0.35872762  0.35872762  1
  W  W15  1  0.35459799  0.64540201  0.64540201  1
  W  W16  1  0.50099404  0.00052122  0.00052122  1
  W  W17  1  0.64127238  0.35872762  0.64231510  1
  W  W18  1  0.64127238  0.64231510  0.35872762  1
  O  O19  1  0.14818897  0.38236352  0.38236352  1
  O  O20  1  0.13805849  0.61366427  0.61366427  1
  O  O21  1  0.12281287  0.12560802  0.62221070  1
  O  O22  1  0.12281287  0.62221070  0.12560802  1
  O  O23  1  0.12123535  0.37800813  0.87876465  1
  O  O24  1  0.12123535  0.87876465  0.37800813  1
  O  O25  1  0.37778930  0.12560802  0.87718713  1
  O  O26  1  0.37778930  0.87718713  0.12560802  1
  O  O27  1  0.39116270  0.38478290  0.60883730  1
  O  O28  1  0.39116270  0.60883730  0.38478290  1
  O  O29  1  0.38474774  0.14580041  0.38572357  1
  O  O30  1  0.38474774  0.38572357  0.14580041  1
  O  O31  1  0.38633573  0.61366427  0.86194151  1
  O  O32  1  0.38633573  0.86194151  0.61366427  1
  O  O33  1  0.61427643  0.14580041  0.61525226  1
  O  O34  1  0.61427643  0.61525226  0.14580041  1
  O  O35  1  0.61763648  0.38236352  0.85181103  1
  O  O36  1  0.61763648  0.85181103  0.38236352  1
  O  O37  1  0.60805786  0.39194214  0.39194214  1
  O  O38  1  0.61521710  0.60883730  0.60883730  1
  O  O39  1  0.62107001  0.12298700  0.12298700  1
  O  O40  1  0.62199187  0.87876465  0.87876465  1
  O  O41  1  0.87701300  0.12298700  0.37892999  1
  O  O42  1  0.87701300  0.37892999  0.12298700  1
  O  O43  1  0.87439198  0.62221070  0.87718713  1
  O  O44  1  0.87439198  0.87718713  0.62221070  1
  O  O45  1  0.85419959  0.38572357  0.61525226  1
  O  O46  1  0.85419959  0.61525226  0.38572357  1
