# generated using pymatgen
data_Li2Cr4O13
_symmetry_space_group_name_H-M   'P 1'
_cell_length_a   6.83939371
_cell_length_b   7.64524923
_cell_length_c   14.05801024
_cell_angle_alpha   73.22173714
_cell_angle_beta   90.00000000
_cell_angle_gamma   63.42960757
_symmetry_Int_Tables_number   1
_chemical_formula_structural   Li2Cr4O13
_chemical_formula_sum   'Li4 Cr8 O26'
_cell_volume   622.25766755
_cell_formula_units_Z   2
loop_
 _symmetry_equiv_pos_site_id
 _symmetry_equiv_pos_as_xyz
  1  'x, y, z'
loop_
 _atom_site_type_symbol
 _atom_site_label
 _atom_site_symmetry_multiplicity
 _atom_site_fract_x
 _atom_site_fract_y
 _atom_site_fract_z
 _atom_site_occupancy
  Li  Li0  1  0.27039045  0.46402277  0.90988806  1
  Li  Li1  1  0.73441322  0.53597723  0.59011194  1
  Li  Li2  1  0.26558678  0.46402277  0.40988806  1
  Li  Li3  1  0.72960955  0.53597723  0.09011194  1
  Cr  Cr4  1  0.15478148  0.97829231  0.86646261  1
  Cr  Cr5  1  0.86692621  0.97829231  0.36646261  1
  Cr  Cr6  1  0.77435625  0.45903921  0.84263300  1
  Cr  Cr7  1  0.23339547  0.54096079  0.65736700  1
  Cr  Cr8  1  0.76660453  0.45903921  0.34263300  1
  Cr  Cr9  1  0.22564375  0.54096079  0.15736700  1
  Cr  Cr10  1  0.13307379  0.02170769  0.63353739  1
  Cr  Cr11  1  0.84521852  0.02170769  0.13353739  1
  O  O12  1  0.32398714  0.96687118  0.94901379  1
  O  O13  1  0.12421523  0.77300137  0.90017203  1
  O  O14  1  0.70914167  0.96687118  0.44901379  1
  O  O15  1  0.08471569  0.81264858  0.64913345  1
  O  O16  1  0.95128850  0.49808736  0.89926120  1
  O  O17  1  0.55662294  0.50962447  0.89905849  1
  O  O18  1  0.70793502  0.59563616  0.72399383  1
  O  O19  1  0.10278241  0.77300137  0.40017203  1
  O  O20  1  0.10263572  0.81264858  0.14913345  1
  O  O21  1  0.30357118  0.40436384  0.77600617  1
  O  O22  1  0.06624741  0.49037553  0.60094151  1
  O  O23  1  0.44937486  0.50191264  0.60073880  1
  O  O24  1  0.55062514  0.49808736  0.39926120  1
  O  O25  1  0.93375259  0.50962447  0.39905849  1
  O  O26  1  0.69642882  0.59563616  0.22399383  1
  O  O27  1  0.89736428  0.18735142  0.85086655  1
  O  O28  1  0.89721759  0.22699863  0.59982797  1
  O  O29  1  0.29206498  0.40436384  0.27600617  1
  O  O30  1  0.44337706  0.49037553  0.10094151  1
  O  O31  1  0.04871150  0.50191264  0.10073880  1
  O  O32  1  0.25834339  0.00000000  0.75000000  1
  O  O33  1  0.91528431  0.18735142  0.35086655  1
  O  O34  1  0.29085833  0.03312882  0.55098621  1
  O  O35  1  0.87578477  0.22699863  0.09982797  1
  O  O36  1  0.74165661  0.00000000  0.25000000  1
  O  O37  1  0.67601286  0.03312882  0.05098621  1
