# generated using pymatgen
data_Mn3CoO8
_symmetry_space_group_name_H-M   'P 1'
_cell_length_a   5.76862210
_cell_length_b   5.76871362
_cell_length_c   8.64031601
_cell_angle_alpha   90.00217001
_cell_angle_beta   89.99893092
_cell_angle_gamma   120.00050152
_symmetry_Int_Tables_number   1
_chemical_formula_structural   Mn3CoO8
_chemical_formula_sum   'Mn6 Co2 O16'
_cell_volume   249.00561036
_cell_formula_units_Z   2
loop_
 _symmetry_equiv_pos_site_id
 _symmetry_equiv_pos_as_xyz
  1  'x, y, z'
loop_
 _atom_site_type_symbol
 _atom_site_label
 _atom_site_symmetry_multiplicity
 _atom_site_fract_x
 _atom_site_fract_y
 _atom_site_fract_z
 _atom_site_occupancy
  Mn  Mn0  1  0.16785187  0.83216005  0.20936932  1
  Mn  Mn1  1  0.16785241  0.33572538  0.20936673  1
  Mn  Mn2  1  0.66429288  0.83216413  0.20937641  1
  Mn  Mn3  1  0.33570502  0.16787060  0.70937539  1
  Mn  Mn4  1  0.83214726  0.66430571  0.70937007  1
  Mn  Mn5  1  0.83214672  0.16787400  0.70936752  1
  Co  Co6  1  0.33333891  0.66666806  0.48686572  1
  Co  Co7  1  0.66666153  0.33332903  0.98686559  1
  O  O8  1  0.17015101  0.82982483  0.59932053  1
  O  O9  1  0.04614860  0.52308495  0.34345506  1
  O  O10  1  0.33333836  0.66667158  0.09838576  1
  O  O11  1  0.00001355  0.00002159  0.31616242  1
  O  O12  1  0.99998683  0.00000826  0.81616231  1
  O  O13  1  0.17016530  0.34034151  0.59932211  1
  O  O14  1  0.47695319  0.95388086  0.34345951  1
  O  O15  1  0.47694988  0.52308918  0.34344747  1
  O  O16  1  0.34034345  0.17016802  0.09932826  1
  O  O17  1  0.65965676  0.82982369  0.59932833  1
  O  O18  1  0.52304678  0.47692901  0.84345977  1
  O  O19  1  0.52304996  0.04613885  0.84344779  1
  O  O20  1  0.66666223  0.33333265  0.59838558  1
  O  O21  1  0.82984975  0.65967430  0.09932081  1
  O  O22  1  0.95385266  0.47693678  0.84345530  1
  O  O23  1  0.82983508  0.17017698  0.09932225  1
