# generated using pymatgen
data_Li2VCoO4
_symmetry_space_group_name_H-M   'P 1'
_cell_length_a   5.94369627
_cell_length_b   5.94369574
_cell_length_c   5.94544805
_cell_angle_alpha   120.04046087
_cell_angle_beta   120.04045512
_cell_angle_gamma   89.72800661
_symmetry_Int_Tables_number   1
_chemical_formula_structural   Li2VCoO4
_chemical_formula_sum   'Li4 V2 Co2 O8'
_cell_volume   148.68748077
_cell_formula_units_Z   2
loop_
 _symmetry_equiv_pos_site_id
 _symmetry_equiv_pos_as_xyz
  1  'x, y, z'
loop_
 _atom_site_type_symbol
 _atom_site_label
 _atom_site_symmetry_multiplicity
 _atom_site_fract_x
 _atom_site_fract_y
 _atom_site_fract_z
 _atom_site_occupancy
  Li  Li0  1  0.00000000  0.50000000  0.50000000  1
  Li  Li1  1  0.50000000  0.50000000  0.50000000  1
  Li  Li2  1  0.50000000  0.00000000  0.00000000  1
  Li  Li3  1  0.50000000  0.50000000  0.00000000  1
  V  V4  1  0.00000000  0.50000000  0.00000000  1
  V  V5  1  0.50000000  0.00000000  0.50000000  1
  Co  Co6  1  0.00000000  0.00000000  0.50000000  1
  Co  Co7  1  0.00000000  0.00000000  0.00000000  1
  O  O8  1  0.25335514  0.74614266  0.01762844  1
  O  O9  1  0.26688294  0.22338918  0.49529151  1
  O  O10  1  0.25385734  0.74664486  0.48237156  1
  O  O11  1  0.77661082  0.73311706  0.00470849  1
  O  O12  1  0.22338918  0.26688294  0.99529151  1
  O  O13  1  0.74614266  0.25335514  0.51762844  1
  O  O14  1  0.73311706  0.77661082  0.50470849  1
  O  O15  1  0.74664486  0.25385734  0.98237156  1
