# generated using pymatgen
data_Li2Fe2(Si2O5)3
_symmetry_space_group_name_H-M   'P 1'
_cell_length_a   11.51126895
_cell_length_b   11.51126895
_cell_length_c   10.27003864
_cell_angle_alpha   90.00000000
_cell_angle_beta   90.00000000
_cell_angle_gamma   79.53395232
_symmetry_Int_Tables_number   1
_chemical_formula_structural   Li2Fe2(Si2O5)3
_chemical_formula_sum   'Li8 Fe8 Si24 O60'
_cell_volume   1338.23449619
_cell_formula_units_Z   4
loop_
 _symmetry_equiv_pos_site_id
 _symmetry_equiv_pos_as_xyz
  1  'x, y, z'
loop_
 _atom_site_type_symbol
 _atom_site_label
 _atom_site_symmetry_multiplicity
 _atom_site_fract_x
 _atom_site_fract_y
 _atom_site_fract_z
 _atom_site_occupancy
  Li  Li0  1  0.50800287  0.00800287  0.25000000  1
  Li  Li1  1  0.99199713  0.49199713  0.75000000  1
  Li  Li2  1  0.60546291  0.60546291  0.74599494  1
  Li  Li3  1  0.10546291  0.10546291  0.75400506  1
  Li  Li4  1  0.89453709  0.89453709  0.24599494  1
  Li  Li5  1  0.39453709  0.39453709  0.25400506  1
  Li  Li6  1  0.00800287  0.50800287  0.25000000  1
  Li  Li7  1  0.49199713  0.99199713  0.75000000  1
  Fe  Fe8  1  0.24723510  0.75276490  0.00000000  1
  Fe  Fe9  1  0.16268870  0.66268870  0.25000000  1
  Fe  Fe10  1  0.33731130  0.83731130  0.75000000  1
  Fe  Fe11  1  0.25276490  0.74723510  0.50000000  1
  Fe  Fe12  1  0.74723510  0.25276490  0.50000000  1
  Fe  Fe13  1  0.83731130  0.33731130  0.75000000  1
  Fe  Fe14  1  0.66268870  0.16268870  0.25000000  1
  Fe  Fe15  1  0.75276490  0.24723510  0.00000000  1
  Si  Si16  1  0.18085437  0.96685288  0.18910084  1
  Si  Si17  1  0.03314712  0.81914563  0.81089916  1
  Si  Si18  1  0.19996103  0.41739434  0.45523265  1
  Si  Si19  1  0.08260566  0.30003897  0.95523265  1
  Si  Si20  1  0.58260566  0.80003897  0.54476735  1
  Si  Si21  1  0.69996103  0.91739434  0.04476735  1
  Si  Si22  1  0.31914563  0.53314712  0.68910084  1
  Si  Si23  1  0.46685288  0.68085437  0.31089916  1
  Si  Si24  1  0.52540096  0.73804765  0.01351937  1
  Si  Si25  1  0.76195235  0.97459904  0.51351937  1
  Si  Si26  1  0.02540096  0.23804765  0.48648063  1
  Si  Si27  1  0.26195235  0.47459904  0.98648063  1
  Si  Si28  1  0.97459904  0.76195235  0.51351937  1
  Si  Si29  1  0.73804765  0.52540096  0.01351937  1
  Si  Si30  1  0.23804765  0.02540096  0.48648063  1
  Si  Si31  1  0.47459904  0.26195235  0.98648063  1
  Si  Si32  1  0.68085437  0.46685288  0.31089916  1
  Si  Si33  1  0.53314712  0.31914563  0.68910084  1
  Si  Si34  1  0.41739434  0.19996103  0.45523265  1
  Si  Si35  1  0.80003897  0.58260566  0.54476735  1
  Si  Si36  1  0.91739434  0.69996103  0.04476735  1
  Si  Si37  1  0.30003897  0.08260566  0.95523265  1
  Si  Si38  1  0.96685288  0.18085437  0.18910084  1
  Si  Si39  1  0.81914563  0.03314712  0.81089916  1
  O  O40  1  0.00789616  0.76386530  0.66862252  1
  O  O41  1  0.23613470  0.99210384  0.33137748  1
  O  O42  1  0.16710799  0.83272387  0.16136486  1
  O  O43  1  0.16727613  0.83289201  0.83863514  1
  O  O44  1  0.09070591  0.74993060  0.42555772  1
  O  O45  1  0.25006940  0.90929409  0.57444228  1
  O  O46  1  0.24993060  0.59070591  0.07444228  1
  O  O47  1  0.40929409  0.75006940  0.92555772  1
  O  O48  1  0.33289201  0.66727613  0.66136486  1
  O  O49  1  0.33272387  0.66710799  0.33863514  1
  O  O50  1  0.16050695  0.49168532  0.32639522  1
  O  O51  1  0.66050695  0.99168532  0.17360478  1
  O  O52  1  0.00831468  0.33949305  0.82639522  1
  O  O53  1  0.50831468  0.83949305  0.67360478  1
  O  O54  1  0.00526230  0.27282972  0.08208179  1
  O  O55  1  0.22717028  0.49473770  0.58208179  1
  O  O56  1  0.50526230  0.77282972  0.41791821  1
  O  O57  1  0.72717028  0.99473770  0.91791821  1
  O  O58  1  0.15369841  0.40197710  0.00850632  1
  O  O59  1  0.09802290  0.34630159  0.50850632  1
  O  O60  1  0.65369841  0.90197710  0.49149368  1
  O  O61  1  0.59802290  0.84630159  0.99149368  1
  O  O62  1  0.49210384  0.73613470  0.16862252  1
  O  O63  1  0.26386530  0.50789616  0.83137748  1
  O  O64  1  0.95193358  0.95193358  0.82213696  1
  O  O65  1  0.61471767  0.61471767  0.96565517  1
  O  O66  1  0.17547110  0.17547110  0.91700827  1
  O  O67  1  0.32452890  0.32452890  0.41700827  1
  O  O68  1  0.04806642  0.04806642  0.17786304  1
  O  O69  1  0.45193358  0.45193358  0.67786304  1
  O  O70  1  0.11471767  0.11471767  0.53434483  1
  O  O71  1  0.38528233  0.38528233  0.03434483  1
  O  O72  1  0.82452890  0.82452890  0.08299173  1
  O  O73  1  0.54806642  0.54806642  0.32213696  1
  O  O74  1  0.88528233  0.88528233  0.46565517  1
  O  O75  1  0.67547110  0.67547110  0.58299173  1
  O  O76  1  0.73613470  0.49210384  0.16862252  1
  O  O77  1  0.50789616  0.26386530  0.83137748  1
  O  O78  1  0.40197710  0.15369841  0.00850632  1
  O  O79  1  0.84630159  0.59802290  0.99149368  1
  O  O80  1  0.90197710  0.65369841  0.49149368  1
  O  O81  1  0.34630159  0.09802290  0.50850632  1
  O  O82  1  0.99473770  0.72717028  0.91791821  1
  O  O83  1  0.27282972  0.00526230  0.08208179  1
  O  O84  1  0.77282972  0.50526230  0.41791821  1
  O  O85  1  0.49473770  0.22717028  0.58208179  1
  O  O86  1  0.83949305  0.50831468  0.67360478  1
  O  O87  1  0.49168532  0.16050695  0.32639522  1
  O  O88  1  0.33949305  0.00831468  0.82639522  1
  O  O89  1  0.99168532  0.66050695  0.17360478  1
  O  O90  1  0.66710799  0.33272387  0.33863514  1
  O  O91  1  0.66727613  0.33289201  0.66136486  1
  O  O92  1  0.59070591  0.24993060  0.07444228  1
  O  O93  1  0.75006940  0.40929409  0.92555772  1
  O  O94  1  0.74993060  0.09070591  0.42555772  1
  O  O95  1  0.90929409  0.25006940  0.57444228  1
  O  O96  1  0.83272387  0.16710799  0.16136486  1
  O  O97  1  0.83289201  0.16727613  0.83863514  1
  O  O98  1  0.99210384  0.23613470  0.33137748  1
  O  O99  1  0.76386530  0.00789616  0.66862252  1
