# generated using pymatgen
data_NaLi5Mn2P2(CO7)2
_symmetry_space_group_name_H-M   'P 1'
_cell_length_a   8.64053123
_cell_length_b   6.67553223
_cell_length_c   9.98658695
_cell_angle_alpha   90.00000000
_cell_angle_beta   87.58753808
_cell_angle_gamma   90.00000000
_symmetry_Int_Tables_number   1
_chemical_formula_structural   NaLi5Mn2P2(CO7)2
_chemical_formula_sum   'Na2 Li10 Mn4 P4 C4 O28'
_cell_volume   575.51724618
_cell_formula_units_Z   2
loop_
 _symmetry_equiv_pos_site_id
 _symmetry_equiv_pos_as_xyz
  1  'x, y, z'
loop_
 _atom_site_type_symbol
 _atom_site_label
 _atom_site_symmetry_multiplicity
 _atom_site_fract_x
 _atom_site_fract_y
 _atom_site_fract_z
 _atom_site_occupancy
  Na  Na0  1  0.24811307  0.99916815  0.62594541  1
  Na  Na1  1  0.75188693  0.49916815  0.37405459  1
  Li  Li2  1  0.08676535  0.26085351  0.87364732  1
  Li  Li3  1  0.08659046  0.24369485  0.37116446  1
  Li  Li4  1  0.26911401  0.47447722  0.61371318  1
  Li  Li5  1  0.26606972  0.02492407  0.11784263  1
  Li  Li6  1  0.26558957  0.47388635  0.11717346  1
  Li  Li7  1  0.73393028  0.52492407  0.88215737  1
  Li  Li8  1  0.73441043  0.97388635  0.88282654  1
  Li  Li9  1  0.73088599  0.97447722  0.38628682  1
  Li  Li10  1  0.91340954  0.74369485  0.62883554  1
  Li  Li11  1  0.91323465  0.76085351  0.12635268  1
  Mn  Mn12  1  0.35045963  0.74953914  0.89034836  1
  Mn  Mn13  1  0.35447317  0.74467751  0.38527959  1
  Mn  Mn14  1  0.64552683  0.24467751  0.61472041  1
  Mn  Mn15  1  0.64954037  0.24953914  0.10965164  1
  P  P16  1  0.40783799  0.25531967  0.85708626  1
  P  P17  1  0.40589458  0.24383689  0.35289500  1
  P  P18  1  0.59410542  0.74383689  0.64710500  1
  P  P19  1  0.59216201  0.75531967  0.14291374  1
  C  C20  1  0.03863279  0.74910465  0.86541318  1
  C  C21  1  0.04376522  0.75901372  0.36096337  1
  C  C22  1  0.95623478  0.25901372  0.63903663  1
  C  C23  1  0.96136721  0.24910465  0.13458682  1
  O  O24  1  0.09938954  0.28214631  0.67139394  1
  O  O25  1  0.10716417  0.24747035  0.16336777  1
  O  O26  1  0.08131378  0.75220906  0.98787958  1
  O  O27  1  0.08147799  0.75438353  0.48520476  1
  O  O28  1  0.14270427  0.74739465  0.76710077  1
  O  O29  1  0.14964483  0.73934167  0.26483134  1
  O  O30  1  0.31194335  0.06776904  0.90241597  1
  O  O31  1  0.31142394  0.43448502  0.91503421  1
  O  O32  1  0.30394306  0.06129961  0.39498317  1
  O  O33  1  0.31368567  0.42846939  0.40772594  1
  O  O34  1  0.41808109  0.26766617  0.70088196  1
  O  O35  1  0.42767978  0.73246807  0.59442813  1
  O  O36  1  0.42008297  0.25396299  0.19593771  1
  O  O37  1  0.42287210  0.75243440  0.09565090  1
  O  O38  1  0.57712790  0.25243440  0.90434910  1
  O  O39  1  0.57991703  0.75396299  0.80406229  1
  O  O40  1  0.57232022  0.23246807  0.40557187  1
  O  O41  1  0.58191891  0.76766617  0.29911804  1
  O  O42  1  0.69605694  0.56129961  0.60501683  1
  O  O43  1  0.68631433  0.92846939  0.59227406  1
  O  O44  1  0.68805665  0.56776904  0.09758403  1
  O  O45  1  0.68857606  0.93448502  0.08496579  1
  O  O46  1  0.85035517  0.23934167  0.73516866  1
  O  O47  1  0.85729573  0.24739465  0.23289923  1
  O  O48  1  0.91852201  0.25438353  0.51479524  1
  O  O49  1  0.91868622  0.25221006  0.01212042  1
  O  O50  1  0.89283583  0.74747035  0.83663223  1
  O  O51  1  0.90061046  0.78214631  0.32860606  1
