# generated using pymatgen
data_Li4TiV3O10
_symmetry_space_group_name_H-M   'P 1'
_cell_length_a   6.71108323
_cell_length_b   6.71108323
_cell_length_c   4.60655600
_cell_angle_alpha   90.00000000
_cell_angle_beta   90.00000000
_cell_angle_gamma   90.00000000
_symmetry_Int_Tables_number   1
_chemical_formula_structural   Li4TiV3O10
_chemical_formula_sum   'Li4 Ti1 V3 O10'
_cell_volume   207.47300866
_cell_formula_units_Z   1
loop_
 _symmetry_equiv_pos_site_id
 _symmetry_equiv_pos_as_xyz
  1  'x, y, z'
loop_
 _atom_site_type_symbol
 _atom_site_label
 _atom_site_symmetry_multiplicity
 _atom_site_fract_x
 _atom_site_fract_y
 _atom_site_fract_z
 _atom_site_occupancy
  Li  Li0  1  0.00072437  0.99927563  0.00000000  1
  Li  Li1  1  0.00072437  0.50072437  0.00000000  1
  Li  Li2  1  0.49927563  0.50072437  0.00000000  1
  Li  Li3  1  0.49927563  0.99927563  0.00000000  1
  Ti  Ti4  1  0.75000000  0.25000000  0.50000000  1
  V  V5  1  0.25000000  0.25000000  0.60140346  1
  V  V6  1  0.75000000  0.75000000  0.39859654  1
  V  V7  1  0.25000000  0.75000000  0.50000000  1
  O  O8  1  0.03050992  0.75000000  0.26813640  1
  O  O9  1  0.25000000  0.25000000  0.23436231  1
  O  O10  1  0.25000000  0.53050992  0.73186360  1
  O  O11  1  0.25000000  0.96949008  0.73186360  1
  O  O12  1  0.46949008  0.75000000  0.26813640  1
  O  O13  1  0.53055309  0.25000000  0.73617184  1
  O  O14  1  0.75000000  0.03055309  0.26382816  1
  O  O15  1  0.75000000  0.46944691  0.26382816  1
  O  O16  1  0.75000000  0.75000000  0.76563769  1
  O  O17  1  0.96944691  0.25000000  0.73617184  1
