# generated using pymatgen
data_NaLi5Mn2P2(CO7)2
_symmetry_space_group_name_H-M   'P 1'
_cell_length_a   8.64415354
_cell_length_b   6.67204865
_cell_length_c   9.99528401
_cell_angle_alpha   90.00000000
_cell_angle_beta   87.64463540
_cell_angle_gamma   90.00000000
_symmetry_Int_Tables_number   1
_chemical_formula_structural   NaLi5Mn2P2(CO7)2
_chemical_formula_sum   'Na2 Li10 Mn4 P4 C4 O28'
_cell_volume   575.98310744
_cell_formula_units_Z   2
loop_
 _symmetry_equiv_pos_site_id
 _symmetry_equiv_pos_as_xyz
  1  'x, y, z'
loop_
 _atom_site_type_symbol
 _atom_site_label
 _atom_site_symmetry_multiplicity
 _atom_site_fract_x
 _atom_site_fract_y
 _atom_site_fract_z
 _atom_site_occupancy
  Na  Na0  1  0.24709657  0.99897771  0.62784221  1
  Na  Na1  1  0.24709657  0.50102229  0.12784221  1
  Li  Li2  1  0.08506348  0.25696285  0.87242796  1
  Li  Li3  1  0.08506348  0.24303715  0.37242796  1
  Li  Li4  1  0.27071619  0.47267015  0.61578364  1
  Li  Li5  1  0.27071619  0.02732985  0.11578364  1
  Li  Li6  1  0.73405751  0.52689387  0.88542441  1
  Li  Li7  1  0.73617472  0.97445170  0.88368641  1
  Li  Li8  1  0.73617472  0.52554830  0.38368641  1
  Li  Li9  1  0.73405751  0.97310613  0.38542441  1
  Li  Li10  1  0.91137837  0.73842153  0.62844236  1
  Li  Li11  1  0.91137837  0.76157847  0.12844236  1
  Mn  Mn12  1  0.35481243  0.75264079  0.88660472  1
  Mn  Mn13  1  0.35481243  0.74735921  0.38660472  1
  Mn  Mn14  1  0.64995714  0.24776265  0.61064894  1
  Mn  Mn15  1  0.64995714  0.25223735  0.11064894  1
  P  P16  1  0.40992211  0.25541920  0.85224510  1
  P  P17  1  0.40992211  0.24458080  0.35224510  1
  P  P18  1  0.59514209  0.74364264  0.64221673  1
  P  P19  1  0.59514209  0.75635736  0.14221673  1
  C  C20  1  0.03846546  0.74841164  0.86527476  1
  C  C21  1  0.03846546  0.75158836  0.36527476  1
  C  C22  1  0.95809464  0.25954688  0.63960782  1
  C  C23  1  0.95809464  0.24045312  0.13960782  1
  O  O24  1  0.10089826  0.28485759  0.67229781  1
  O  O25  1  0.10089826  0.21514241  0.17229781  1
  O  O26  1  0.07893350  0.74612635  0.98887138  1
  O  O27  1  0.07893350  0.75387365  0.48887138  1
  O  O28  1  0.14389684  0.75058871  0.76872546  1
  O  O29  1  0.14389684  0.74941129  0.26872546  1
  O  O30  1  0.31024498  0.07031481  0.89755735  1
  O  O31  1  0.31498843  0.43856453  0.90441440  1
  O  O32  1  0.31498843  0.06143547  0.40441440  1
  O  O33  1  0.31024498  0.42968519  0.39755735  1
  O  O34  1  0.42316693  0.26393027  0.69595848  1
  O  O35  1  0.42686118  0.72853611  0.59380616  1
  O  O36  1  0.42316693  0.23606973  0.19595848  1
  O  O37  1  0.42686118  0.77146389  0.09380616  1
  O  O38  1  0.57731437  0.24756712  0.90338721  1
  O  O39  1  0.58447127  0.74893698  0.79916774  1
  O  O40  1  0.57731437  0.25243288  0.40338721  1
  O  O41  1  0.58447127  0.75106302  0.29916774  1
  O  O42  1  0.69843780  0.56525843  0.59266149  1
  O  O43  1  0.68340512  0.93115455  0.58786074  1
  O  O44  1  0.68340512  0.56884545  0.08786074  1
  O  O45  1  0.69843780  0.93474157  0.09266149  1
  O  O46  1  0.85165349  0.24396864  0.73515038  1
  O  O47  1  0.85165349  0.25603136  0.23515038  1
  O  O48  1  0.92131325  0.24890887  0.51527454  1
  O  O49  1  0.92131325  0.25109113  0.01527454  1
  O  O50  1  0.89353388  0.74863518  0.83466282  1
  O  O51  1  0.89353388  0.75136482  0.33466282  1
