# generated using pymatgen
data_LiVP2H5O9
_symmetry_space_group_name_H-M   'P 1'
_cell_length_a   15.13981136
_cell_length_b   7.86913797
_cell_length_c   6.45918285
_cell_angle_alpha   90.00000000
_cell_angle_beta   90.00000000
_cell_angle_gamma   90.00000000
_symmetry_Int_Tables_number   1
_chemical_formula_structural   LiVP2H5O9
_chemical_formula_sum   'Li4 V4 P8 H20 O36'
_cell_volume   769.52937521
_cell_formula_units_Z   4
loop_
 _symmetry_equiv_pos_site_id
 _symmetry_equiv_pos_as_xyz
  1  'x, y, z'
loop_
 _atom_site_type_symbol
 _atom_site_label
 _atom_site_symmetry_multiplicity
 _atom_site_fract_x
 _atom_site_fract_y
 _atom_site_fract_z
 _atom_site_occupancy
  Li  Li0  1  0.03019517  0.73853931  0.22786071  1
  Li  Li1  1  0.46980483  0.23853931  0.72786071  1
  Li  Li2  1  0.53019517  0.73853931  0.27213929  1
  Li  Li3  1  0.96980483  0.23853931  0.77213929  1
  V  V4  1  0.19094597  0.25060705  0.93840421  1
  V  V5  1  0.30905403  0.75060705  0.43840421  1
  V  V6  1  0.69094597  0.25060705  0.56159579  1
  V  V7  1  0.80905403  0.75060705  0.06159579  1
  P  P8  1  0.13178582  0.56259492  0.63308032  1
  P  P9  1  0.13273789  0.93446250  0.64243444  1
  P  P10  1  0.36821418  0.06259492  0.13308032  1
  P  P11  1  0.36726211  0.43446250  0.14243444  1
  P  P12  1  0.63178582  0.56259492  0.86691968  1
  P  P13  1  0.63273789  0.93446250  0.85756556  1
  P  P14  1  0.86821418  0.06259492  0.36691968  1
  P  P15  1  0.86726211  0.43446250  0.35756556  1
  H  H16  1  0.00705171  0.99511587  0.49348523  1
  H  H17  1  0.09653858  0.15106893  0.28482857  1
  H  H18  1  0.09493119  0.35459466  0.28393086  1
  H  H19  1  0.22508353  0.64784667  0.10433185  1
  H  H20  1  0.22552996  0.85531373  0.10583596  1
  H  H21  1  0.27491647  0.14784667  0.60433185  1
  H  H22  1  0.27447004  0.35531373  0.60583596  1
  H  H23  1  0.40346142  0.65106893  0.78482857  1
  H  H24  1  0.40506881  0.85459466  0.78393086  1
  H  H25  1  0.49294829  0.49511587  0.99348523  1
  H  H26  1  0.50705171  0.99511587  0.00651477  1
  H  H27  1  0.59653858  0.15106893  0.21517143  1
  H  H28  1  0.59493119  0.35459466  0.21606914  1
  H  H29  1  0.72508353  0.64784667  0.39566815  1
  H  H30  1  0.72552996  0.85531373  0.39416404  1
  H  H31  1  0.77491647  0.14784667  0.89566815  1
  H  H32  1  0.77447004  0.35531373  0.89416404  1
  H  H33  1  0.90346142  0.65106893  0.71517143  1
  H  H34  1  0.90506881  0.85459466  0.71606914  1
  H  H35  1  0.99294829  0.49511587  0.50651477  1
  O  O36  1  0.07131993  0.55535529  0.43751187  1
  O  O37  1  0.07156612  0.94691222  0.44160330  1
  O  O38  1  0.09899694  0.25253039  0.19596764  1
  O  O39  1  0.11243891  0.74869212  0.73950503  1
  O  O40  1  0.10139239  0.06372707  0.79989250  1
  O  O41  1  0.10193102  0.43268850  0.79228455  1
  O  O42  1  0.20893466  0.75131299  0.18412708  1
  O  O43  1  0.22949358  0.55581145  0.57807413  1
  O  O44  1  0.22882841  0.94422732  0.57976654  1
  O  O45  1  0.27050642  0.05581145  0.07807413  1
  O  O46  1  0.27117159  0.44422732  0.07976654  1
  O  O47  1  0.29106534  0.25131299  0.68412708  1
  O  O48  1  0.39860761  0.56372707  0.29989250  1
  O  O49  1  0.39806898  0.93268850  0.29228455  1
  O  O50  1  0.38756109  0.24869212  0.23950503  1
  O  O51  1  0.40100306  0.75253039  0.69596764  1
  O  O52  1  0.42868007  0.05535529  0.93751187  1
  O  O53  1  0.42843388  0.44691222  0.94160330  1
  O  O54  1  0.57131993  0.55535529  0.06248813  1
  O  O55  1  0.57156612  0.94691222  0.05839670  1
  O  O56  1  0.59899694  0.25253039  0.30403236  1
  O  O57  1  0.61243891  0.74869212  0.76049497  1
  O  O58  1  0.60139239  0.06372707  0.70010750  1
  O  O59  1  0.60193102  0.43268850  0.70771545  1
  O  O60  1  0.70893466  0.75131299  0.31587292  1
  O  O61  1  0.72949358  0.55581145  0.92192587  1
  O  O62  1  0.72882841  0.94422732  0.92023346  1
  O  O63  1  0.77050642  0.05581145  0.42192587  1
  O  O64  1  0.77117159  0.44422732  0.42023346  1
  O  O65  1  0.79106534  0.25131299  0.81587292  1
  O  O66  1  0.89860761  0.56372707  0.20010750  1
  O  O67  1  0.89806898  0.93268850  0.20771545  1
  O  O68  1  0.88756109  0.24869212  0.26049497  1
  O  O69  1  0.90100306  0.75253039  0.80403236  1
  O  O70  1  0.92868007  0.05535529  0.56248813  1
  O  O71  1  0.92843388  0.44691222  0.55839670  1
