# generated using pymatgen
data_Na3FeO4
_symmetry_space_group_name_H-M   'P 1'
_cell_length_a   8.92056653
_cell_length_b   10.38932298
_cell_length_c   10.02685898
_cell_angle_alpha   90.00000000
_cell_angle_beta   90.00000000
_cell_angle_gamma   90.00000000
_symmetry_Int_Tables_number   1
_chemical_formula_structural   Na3FeO4
_chemical_formula_sum   'Na24 Fe8 O32'
_cell_volume   929.27572237
_cell_formula_units_Z   8
loop_
 _symmetry_equiv_pos_site_id
 _symmetry_equiv_pos_as_xyz
  1  'x, y, z'
loop_
 _atom_site_type_symbol
 _atom_site_label
 _atom_site_symmetry_multiplicity
 _atom_site_fract_x
 _atom_site_fract_y
 _atom_site_fract_z
 _atom_site_occupancy
  Na  Na0  1  0.04080001  0.90347015  0.12863938  1
  Na  Na1  1  0.04080001  0.59652985  0.62863938  1
  Na  Na2  1  0.11994590  0.14337507  0.53806415  1
  Na  Na3  1  0.11994590  0.35662493  0.03806415  1
  Na  Na4  1  0.21426969  0.62286344  0.23022604  1
  Na  Na5  1  0.21426969  0.87713656  0.73022604  1
  Na  Na6  1  0.28573031  0.12286344  0.23022604  1
  Na  Na7  1  0.28573031  0.37713656  0.73022604  1
  Na  Na8  1  0.38005410  0.64337507  0.53806415  1
  Na  Na9  1  0.38005410  0.85662493  0.03806415  1
  Na  Na10  1  0.45919999  0.09652985  0.62863938  1
  Na  Na11  1  0.45919999  0.40347015  0.12863938  1
  Na  Na12  1  0.54080001  0.59652985  0.87136062  1
  Na  Na13  1  0.54080001  0.90347015  0.37136062  1
  Na  Na14  1  0.61994590  0.35662493  0.46193585  1
  Na  Na15  1  0.61994590  0.14337507  0.96193585  1
  Na  Na16  1  0.71426969  0.62286344  0.26977396  1
  Na  Na17  1  0.71426969  0.87713656  0.76977396  1
  Na  Na18  1  0.78573031  0.12286344  0.26977396  1
  Na  Na19  1  0.78573031  0.37713656  0.76977396  1
  Na  Na20  1  0.88005410  0.64337507  0.96193585  1
  Na  Na21  1  0.88005410  0.85662493  0.46193585  1
  Na  Na22  1  0.95919999  0.09652985  0.87136062  1
  Na  Na23  1  0.95919999  0.40347015  0.37136062  1
  Fe  Fe24  1  0.20696012  0.61780230  0.90358477  1
  Fe  Fe25  1  0.20696012  0.88219770  0.40358477  1
  Fe  Fe26  1  0.29303988  0.11780230  0.90358477  1
  Fe  Fe27  1  0.29303988  0.38219770  0.40358477  1
  Fe  Fe28  1  0.70696012  0.61780230  0.59641523  1
  Fe  Fe29  1  0.70696012  0.88219770  0.09641523  1
  Fe  Fe30  1  0.79303988  0.11780230  0.59641523  1
  Fe  Fe31  1  0.79303988  0.38219770  0.09641523  1
  O  O32  1  0.08758830  0.49800240  0.84357252  1
  O  O33  1  0.08758830  0.00199760  0.34357252  1
  O  O34  1  0.12540311  0.75119094  0.48275155  1
  O  O35  1  0.12540311  0.74880906  0.98275155  1
  O  O36  1  0.17626955  0.06286653  0.02859836  1
  O  O37  1  0.17626955  0.43713347  0.52859836  1
  O  O38  1  0.19777718  0.15960871  0.75845265  1
  O  O39  1  0.19777718  0.34039129  0.25845265  1
  O  O40  1  0.30222282  0.65960871  0.75845265  1
  O  O41  1  0.30222282  0.84039129  0.25845265  1
  O  O42  1  0.32373045  0.56286653  0.02859836  1
  O  O43  1  0.32373045  0.93713347  0.52859836  1
  O  O44  1  0.37459689  0.24880906  0.98275155  1
  O  O45  1  0.37459689  0.25119094  0.48275155  1
  O  O46  1  0.41241170  0.99800240  0.84357252  1
  O  O47  1  0.41241170  0.50199760  0.34357252  1
  O  O48  1  0.58758830  0.49800240  0.65642748  1
  O  O49  1  0.58758830  0.00199760  0.15642748  1
  O  O50  1  0.62540311  0.74880906  0.51724845  1
  O  O51  1  0.62540311  0.75119094  0.01724845  1
  O  O52  1  0.67626955  0.06286653  0.47140164  1
  O  O53  1  0.67626955  0.43713347  0.97140164  1
  O  O54  1  0.69777718  0.15960871  0.74154735  1
  O  O55  1  0.69777718  0.34039129  0.24154735  1
  O  O56  1  0.80222282  0.84039129  0.24154735  1
  O  O57  1  0.80222282  0.65960871  0.74154735  1
  O  O58  1  0.82373045  0.56286653  0.47140164  1
  O  O59  1  0.82373045  0.93713347  0.97140164  1
  O  O60  1  0.87459689  0.24880906  0.51724845  1
  O  O61  1  0.87459689  0.25119094  0.01724845  1
  O  O62  1  0.91241170  0.99800240  0.65642748  1
  O  O63  1  0.91241170  0.50199760  0.15642748  1
