# generated using pymatgen
data_Bi19O30
_symmetry_space_group_name_H-M   'P 1'
_cell_length_a   9.00257446
_cell_length_b   14.72580840
_cell_length_c   14.72580840
_cell_angle_alpha   120.00000000
_cell_angle_beta   90.00000000
_cell_angle_gamma   90.00000000
_symmetry_Int_Tables_number   1
_chemical_formula_structural   Bi19O30
_chemical_formula_sum   'Bi38 O60'
_cell_volume   1690.65753608
_cell_formula_units_Z   2
loop_
 _symmetry_equiv_pos_site_id
 _symmetry_equiv_pos_as_xyz
  1  'x, y, z'
loop_
 _atom_site_type_symbol
 _atom_site_label
 _atom_site_symmetry_multiplicity
 _atom_site_fract_x
 _atom_site_fract_y
 _atom_site_fract_z
 _atom_site_occupancy
  Bi  Bi0  1  0.31921439  0.14522300  0.98873626  1
  Bi  Bi1  1  0.22306061  0.36956927  0.93364975  1
  Bi  Bi2  1  0.01691451  0.51219041  0.82988381  1
  Bi  Bi3  1  0.31921439  0.84351326  0.85477700  1
  Bi  Bi4  1  0.08301926  0.95400881  0.73820988  1
  Bi  Bi5  1  0.42710556  0.61786583  0.88887538  1
  Bi  Bi6  1  0.01691451  0.17011619  0.68230660  1
  Bi  Bi7  1  0.22306061  0.56407948  0.63043073  1
  Bi  Bi8  1  0.90721153  0.21866898  0.95954322  1
  Bi  Bi9  1  0.42710556  0.11112462  0.72899046  1
  Bi  Bi10  1  0.33910122  0.33333300  0.66666700  1
  Bi  Bi11  1  0.67336878  0.98243398  0.83749133  1
  Bi  Bi12  1  0.68577128  0.33604454  0.82261871  1
  Bi  Bi13  1  0.01441620  0.67771188  0.49242689  1
  Bi  Bi14  1  0.01691451  0.31769340  0.48780959  1
  Bi  Bi15  1  0.68577128  0.48657316  0.66395546  1
  Bi  Bi16  1  0.22306061  0.06635025  0.43592052  1
  Bi  Bi17  1  0.90721153  0.74087424  0.78133102  1
  Bi  Bi18  1  0.01441620  0.81471501  0.32228812  1
  Bi  Bi19  1  0.56109505  0.70464058  0.61016324  1
  Bi  Bi20  1  0.34062037  0.84859156  0.49957742  1
  Bi  Bi21  1  0.68577128  0.17738129  0.51342684  1
  Bi  Bi22  1  0.01441620  0.50757311  0.18528499  1
  Bi  Bi23  1  0.42710556  0.27100954  0.38213417  1
  Bi  Bi24  1  0.74686727  0.94782805  0.55624987  1
  Bi  Bi25  1  0.34062037  0.50042258  0.34901413  1
  Bi  Bi26  1  0.08301926  0.26179012  0.21579894  1
  Bi  Bi27  1  0.08301926  0.78420106  0.04599119  1
  Bi  Bi28  1  0.56109505  0.90552266  0.29535942  1
  Bi  Bi29  1  0.74686727  0.44375013  0.39157818  1
  Bi  Bi30  1  0.66191557  0.66666700  0.33333300  1
  Bi  Bi31  1  0.31921439  0.01126374  0.15648674  1
  Bi  Bi32  1  0.34062037  0.65098587  0.15140844  1
  Bi  Bi33  1  0.56109505  0.38983676  0.09447734  1
  Bi  Bi34  1  0.90721153  0.04045678  0.25912576  1
  Bi  Bi35  1  0.67336878  0.16250867  0.14494265  1
  Bi  Bi36  1  0.74686727  0.60842182  0.05217195  1
  Bi  Bi37  1  0.67336878  0.85505735  0.01756602  1
  O  O38  1  0.09343116  0.81249941  0.90513124  1
  O  O39  1  0.09343116  0.09486876  0.90736816  1
  O  O40  1  0.40487006  0.79011976  0.95371910  1
  O  O41  1  0.41181620  0.29926934  0.95792524  1
  O  O42  1  0.21464903  0.57461850  0.78745686  1
  O  O43  1  0.21464903  0.21254314  0.78716164  1
  O  O44  1  0.08498285  0.70681866  0.67464798  1
  O  O45  1  0.40487006  0.04628090  0.83640167  1
  O  O46  1  0.41075834  0.40886179  0.81890667  1
  O  O47  1  0.11106829  0.33333300  0.66666700  1
  O  O48  1  0.74311803  0.49495023  0.87940452  1
  O  O49  1  0.08336439  0.83327441  0.55015778  1
  O  O50  1  0.57515019  0.83846658  0.79938938  1
  O  O51  1  0.26550032  0.00507018  0.62638034  1
  O  O52  1  0.41181620  0.65865591  0.70073066  1
  O  O53  1  0.92865857  0.66683270  0.95157302  1
  O  O54  1  0.41075834  0.41004488  0.59113821  1
  O  O55  1  0.41075834  0.18109333  0.58995512  1
  O  O56  1  0.92053071  0.28927106  0.82245896  1
  O  O57  1  0.59151870  0.96023481  0.66887505  1
  O  O58  1  0.24459211  0.61990592  0.48978046  1
  O  O59  1  0.87677861  0.88037051  0.75926849  1
  O  O60  1  0.21464903  0.21283836  0.42538150  1
  O  O61  1  0.03715601  0.66666700  0.33333300  1
  O  O62  1  0.70424615  0.33333300  0.66666700  1
  O  O63  1  0.26550032  0.37361966  0.37868984  1
  O  O64  1  0.92865857  0.04842698  0.71525969  1
  O  O65  1  0.74311803  0.12059548  0.61554571  1
  O  O66  1  0.08336439  0.44984122  0.28311562  1
  O  O67  1  0.74922252  0.63447002  0.63395648  1
  O  O68  1  0.08498285  0.96782932  0.29318134  1
  O  O69  1  0.24459211  0.86987453  0.38009408  1
  O  O70  1  0.92053071  0.53318690  0.71072894  1
  O  O71  1  0.54394064  0.91423998  0.45592340  1
  O  O72  1  0.54394064  0.54407660  0.45831658  1
  O  O73  1  0.08336439  0.71688438  0.16672559  1
  O  O74  1  0.41181620  0.04207476  0.34134409  1
  O  O75  1  0.74311803  0.38445429  0.50504977  1
  O  O76  1  0.43521278  0.66666700  0.33333300  1
  O  O77  1  0.09343116  0.09263184  0.18750059  1
  O  O78  1  0.74062693  0.74377257  0.48414291  1
  O  O79  1  0.40487006  0.16359833  0.20988024  1
  O  O80  1  0.24459211  0.51021954  0.13012547  1
  O  O81  1  0.92053071  0.17754104  0.46681310  1
  O  O82  1  0.74922252  0.99948645  0.36552998  1
  O  O83  1  0.08498285  0.32535202  0.03217068  1
  O  O84  1  0.59151870  0.33112495  0.29135976  1
  O  O85  1  0.74062693  0.74037034  0.25622743  1
  O  O86  1  0.74062693  0.51585709  0.25962966  1
  O  O87  1  0.57515019  0.96092380  0.16153342  1
  O  O88  1  0.92865857  0.28474031  0.33316730  1
  O  O89  1  0.26550032  0.62131016  0.99492982  1
  O  O90  1  0.35073317  0.00000000  0.00000000  1
  O  O91  1  0.54394064  0.54168342  0.08576002  1
  O  O92  1  0.59151870  0.70864024  0.03976519  1
  O  O93  1  0.57515019  0.20061062  0.03907620  1
  O  O94  1  0.87677861  0.24073151  0.12110103  1
  O  O95  1  0.87677861  0.87889897  0.11962949  1
  O  O96  1  0.74922252  0.36604352  0.00051355  1
  O  O97  1  0.71404538  0.00000000  0.00000000  1
