# generated using pymatgen
data_NaLi2MnPCO7
_symmetry_space_group_name_H-M   'P 1'
_cell_length_a   8.72124227
_cell_length_b   6.66461297
_cell_length_c   10.07300448
_cell_angle_alpha   90.24389058
_cell_angle_beta   89.17929460
_cell_angle_gamma   89.23364278
_symmetry_Int_Tables_number   1
_chemical_formula_structural   NaLi2MnPCO7
_chemical_formula_sum   'Na4 Li8 Mn4 P4 C4 O28'
_cell_volume   585.36211184
_cell_formula_units_Z   4
loop_
 _symmetry_equiv_pos_site_id
 _symmetry_equiv_pos_as_xyz
  1  'x, y, z'
loop_
 _atom_site_type_symbol
 _atom_site_label
 _atom_site_symmetry_multiplicity
 _atom_site_fract_x
 _atom_site_fract_y
 _atom_site_fract_z
 _atom_site_occupancy
  Na  Na0  1  0.08306712  0.24811828  0.87871512  1
  Na  Na1  1  0.08314772  0.24532942  0.37974950  1
  Na  Na2  1  0.25417070  0.50103954  0.12349339  1
  Na  Na3  1  0.74579645  0.50035045  0.37687215  1
  Li  Li4  1  0.26440110  0.01320816  0.61802748  1
  Li  Li5  1  0.26380278  0.48797275  0.61922280  1
  Li  Li6  1  0.26544664  0.01121780  0.11891540  1
  Li  Li7  1  0.73693227  0.51143086  0.88085744  1
  Li  Li8  1  0.73661108  0.98734754  0.88189976  1
  Li  Li9  1  0.73546626  0.98926703  0.38124154  1
  Li  Li10  1  0.91739703  0.75290460  0.62388471  1
  Li  Li11  1  0.91467174  0.75839446  0.12071183  1
  Mn  Mn12  1  0.35904674  0.75273409  0.88581040  1
  Mn  Mn13  1  0.36016236  0.74958698  0.39136296  1
  Mn  Mn14  1  0.64263135  0.24716627  0.61431590  1
  Mn  Mn15  1  0.64109373  0.24980791  0.10900371  1
  P  P16  1  0.41110155  0.24987609  0.84823085  1
  P  P17  1  0.41105331  0.24117235  0.35309295  1
  P  P18  1  0.59442639  0.75003416  0.65210408  1
  P  P19  1  0.59468839  0.75809685  0.14727805  1
  C  C20  1  0.04406100  0.75104671  0.86601229  1
  C  C21  1  0.04734107  0.75905924  0.36714635  1
  C  C22  1  0.94841569  0.24880039  0.63362067  1
  C  C23  1  0.94529171  0.24063323  0.13210956  1
  O  O24  1  0.09796014  0.25092050  0.64133066  1
  O  O25  1  0.09411493  0.22839008  0.14115835  1
  O  O26  1  0.09677098  0.75231662  0.98668520  1
  O  O27  1  0.09882324  0.75010447  0.48799144  1
  O  O28  1  0.13949626  0.75206222  0.76491376  1
  O  O29  1  0.14383115  0.75391219  0.26664994  1
  O  O30  1  0.32064802  0.06718759  0.90154743  1
  O  O31  1  0.32049207  0.43862481  0.89677810  1
  O  O32  1  0.31492496  0.06286617  0.40583313  1
  O  O33  1  0.32244220  0.43400834  0.40026114  1
  O  O34  1  0.41258262  0.24601366  0.69256000  1
  O  O35  1  0.42453446  0.75090318  0.60308276  1
  O  O36  1  0.41714589  0.23442413  0.19769955  1
  O  O37  1  0.42766569  0.76595072  0.09491626  1
  O  O38  1  0.58038012  0.24927593  0.89543115  1
  O  O39  1  0.58759411  0.75415190  0.80762473  1
  O  O40  1  0.57757332  0.23380560  0.40349318  1
  O  O41  1  0.58322422  0.76551859  0.30235334  1
  O  O42  1  0.68670368  0.56269240  0.60463935  1
  O  O43  1  0.68770094  0.93070818  0.59989028  1
  O  O44  1  0.68483738  0.56660646  0.10103916  1
  O  O45  1  0.69421967  0.93389135  0.09581467  1
  O  O46  1  0.86275478  0.24816447  0.74015693  1
  O  O47  1  0.85937496  0.24499441  0.23854038  1
  O  O48  1  0.88303984  0.24707456  0.51875747  1
  O  O49  1  0.88105495  0.24984706  0.01705847  1
  O  O50  1  0.89774828  0.74904329  0.84532797  1
  O  O51  1  0.90214195  0.77194497  0.34478830  1
