# generated using pymatgen
data_V3OF11
_symmetry_space_group_name_H-M   'P 1'
_cell_length_a   5.35095511
_cell_length_b   5.19886405
_cell_length_c   15.02917618
_cell_angle_alpha   90.30688743
_cell_angle_beta   100.25462215
_cell_angle_gamma   88.36609686
_symmetry_Int_Tables_number   1
_chemical_formula_structural   V3OF11
_chemical_formula_sum   'V6 O2 F22'
_cell_volume   411.24917272
_cell_formula_units_Z   2
loop_
 _symmetry_equiv_pos_site_id
 _symmetry_equiv_pos_as_xyz
  1  'x, y, z'
loop_
 _atom_site_type_symbol
 _atom_site_label
 _atom_site_symmetry_multiplicity
 _atom_site_fract_x
 _atom_site_fract_y
 _atom_site_fract_z
 _atom_site_occupancy
  V  V0  1  0.00000000  0.00000000  0.00000000  1
  V  V1  1  0.16625903  0.50008443  0.33324106  1
  V  V2  1  0.33369608  0.00014424  0.66677636  1
  V  V3  1  0.50000000  0.50000000  0.00000000  1
  V  V4  1  0.66630392  -0.00014424  0.33322364  1
  V  V5  1  0.83374097  0.49991557  0.66675894  1
  O  O6  1  0.72641764  0.23155418  0.98730566  1
  O  O7  1  0.27358236  0.76844582  0.01269434  1
  F  F8  1  0.00964880  0.18666373  0.63760116  1
  F  F9  1  0.21504553  0.27303612  0.97322832  1
  F  F10  1  0.15230155  0.69022323  0.69007214  1
  F  F11  1  0.07188046  0.07481590  0.11767087  1
  F  F12  1  0.21088302  0.40706764  0.44834719  1
  F  F13  1  0.36201388  0.09176740  0.78112891  1
  F  F14  1  0.11884514  0.59091888  0.21856860  1
  F  F15  1  0.30474136  0.90796586  0.55185151  1
  F  F16  1  0.46774796  0.57391555  0.88255645  1
  F  F17  1  0.34256193  0.18650268  0.30501016  1
  F  F18  1  0.51537981  0.31031264  0.64292063  1
  F  F19  1  0.48462019  0.68968736  0.35707937  1
  F  F20  1  0.65743807  0.81349732  0.69498984  1
  F  F21  1  0.53225204  0.42608445  0.11744355  1
  F  F22  1  0.69525864  0.09203414  0.44814849  1
  F  F23  1  0.88115486  0.40908112  0.78143140  1
  F  F24  1  0.63798612  0.90823260  0.21887109  1
  F  F25  1  0.78911698  0.59293236  0.55165281  1
  F  F26  1  0.92811954  0.92518410  0.88232913  1
  F  F27  1  0.84769845  0.30977677  0.30992786  1
  F  F28  1  0.78495447  0.72696388  0.02677168  1
  F  F29  1  0.99035120  0.81333627  0.36239884  1
