# generated using pymatgen
data_Li5Fe8(BO3)8
_symmetry_space_group_name_H-M   'P 1'
_cell_length_a   5.22024939
_cell_length_b   9.05336797
_cell_length_c   11.40099431
_cell_angle_alpha   67.15169576
_cell_angle_beta   77.69998541
_cell_angle_gamma   89.61935025
_symmetry_Int_Tables_number   1
_chemical_formula_structural   Li5Fe8(BO3)8
_chemical_formula_sum   'Li5 Fe8 B8 O24'
_cell_volume   483.40994523
_cell_formula_units_Z   1
loop_
 _symmetry_equiv_pos_site_id
 _symmetry_equiv_pos_as_xyz
  1  'x, y, z'
loop_
 _atom_site_type_symbol
 _atom_site_label
 _atom_site_symmetry_multiplicity
 _atom_site_fract_x
 _atom_site_fract_y
 _atom_site_fract_z
 _atom_site_occupancy
  Li  Li0  1  0.96771248  0.97740810  0.38783965  1
  Li  Li1  1  0.71392901  0.72623917  0.89335306  1
  Li  Li2  1  0.51905291  0.49375864  0.66051079  1
  Li  Li3  1  0.74607446  0.76109197  0.15598254  1
  Li  Li4  1  0.47360339  0.46405078  0.40517616  1
  Fe  Fe5  1  0.97395853  0.64631150  0.38219932  1
  Fe  Fe6  1  0.73882028  0.07002248  0.88234989  1
  Fe  Fe7  1  0.50513677  0.85159708  0.62954239  1
  Fe  Fe8  1  0.76464577  0.42533998  0.12986097  1
  Fe  Fe9  1  0.22986965  0.54665881  0.88435807  1
  Fe  Fe10  1  0.46067672  0.14964615  0.37563891  1
  Fe  Fe11  1  0.03804474  0.33728781  0.63080997  1
  Fe  Fe12  1  0.27086495  0.94553694  0.12729221  1
  B  B13  1  0.97588098  0.31380367  0.37439792  1
  B  B14  1  0.73365316  0.39494958  0.87660823  1
  B  B15  1  0.53977797  0.18774490  0.62776703  1
  B  B16  1  0.77153846  0.10437432  0.13398334  1
  B  B17  1  0.47066226  0.81139073  0.38192285  1
  B  B18  1  0.23509106  0.89264964  0.87845985  1
  B  B19  1  0.00640602  0.67980453  0.62810099  1
  B  B20  1  0.26246766  0.60784962  0.12754324  1
  O  O21  1  0.96658236  0.89563240  0.88667201  1
  O  O22  1  0.89458643  0.28070107  0.85269588  1
  O  O23  1  0.82755448  0.49838373  0.92795975  1
  O  O24  1  0.85945327  0.80389405  0.63770339  1
  O  O25  1  0.90529183  0.56425350  0.59443633  1
  O  O26  1  0.74721485  0.15719010  0.69029532  1
  O  O27  1  0.73897701  0.35042912  0.32836517  1
  O  O28  1  0.49553248  0.41203376  0.84592848  1
  O  O29  1  0.37952810  0.78800525  0.82979327  1
  O  O30  1  0.58456589  0.91212568  0.42921835  1
  O  O31  1  0.60793716  0.68966382  0.35895656  1
  O  O32  1  0.36843027  0.98530523  0.92205875  1
  O  O33  1  0.66770092  0.00162932  0.08389165  1
  O  O34  1  0.42858844  0.33341501  0.60038189  1
  O  O35  1  0.45142708  0.07687530  0.58538953  1
  O  O36  1  0.60696910  0.21664342  0.16241270  1
  O  O37  1  0.53482666  0.60421819  0.11895296  1
  O  O38  1  0.25805836  0.66785900  0.65590671  1
  O  O39  1  0.22705060  0.83973151  0.35500467  1
  O  O40  1  0.08884689  0.42113058  0.41373978  1
  O  O41  1  0.08379836  0.17481602  0.38386691  1
  O  O42  1  0.13529492  0.50652208  0.08815229  1
  O  O43  1  0.12000901  0.71584796  0.16820092  1
  O  O44  1  0.00900631  0.09002248  0.16188835  1
