# generated using pymatgen
data_LiV(Si2O5)3
_symmetry_space_group_name_H-M   'P 1'
_cell_length_a   11.17175295
_cell_length_b   11.17175329
_cell_length_c   9.99957866
_cell_angle_alpha   90.00000000
_cell_angle_beta   90.00000000
_cell_angle_gamma   79.95551769
_symmetry_Int_Tables_number   1
_chemical_formula_structural   LiV(Si2O5)3
_chemical_formula_sum   'Li4 V4 Si24 O60'
_cell_volume   1228.89911721
_cell_formula_units_Z   4
loop_
 _symmetry_equiv_pos_site_id
 _symmetry_equiv_pos_as_xyz
  1  'x, y, z'
loop_
 _atom_site_type_symbol
 _atom_site_label
 _atom_site_symmetry_multiplicity
 _atom_site_fract_x
 _atom_site_fract_y
 _atom_site_fract_z
 _atom_site_occupancy
  Li  Li0  1  0.24832891  0.75167109  0.00000000  1
  Li  Li1  1  0.25167109  0.74832891  0.50000000  1
  Li  Li2  1  0.74832891  0.25167109  0.50000000  1
  Li  Li3  1  0.75167109  0.24832891  0.00000000  1
  V  V4  1  0.15657672  0.65657672  0.25000000  1
  V  V5  1  0.34342328  0.84342328  0.75000000  1
  V  V6  1  0.65657672  0.15657672  0.25000000  1
  V  V7  1  0.84342328  0.34342328  0.75000000  1
  Si  Si8  1  0.02435342  0.24061000  0.49067703  1
  Si  Si9  1  0.07631065  0.29212789  0.95552434  1
  Si  Si10  1  0.04586250  0.82461118  0.80315882  1
  Si  Si11  1  0.24061000  0.02435342  0.49067703  1
  Si  Si12  1  0.20787211  0.42368935  0.45552434  1
  Si  Si13  1  0.29212789  0.07631065  0.95552434  1
  Si  Si14  1  0.25939000  0.47564658  0.99067703  1
  Si  Si15  1  0.17538882  0.95413750  0.19684118  1
  Si  Si16  1  0.32461118  0.54586250  0.69684118  1
  Si  Si17  1  0.42368935  0.20787211  0.45552434  1
  Si  Si18  1  0.47564658  0.25939000  0.99067703  1
  Si  Si19  1  0.45413750  0.67538882  0.30315882  1
  Si  Si20  1  0.54586250  0.32461118  0.69684118  1
  Si  Si21  1  0.52435342  0.74061000  0.00932297  1
  Si  Si22  1  0.57631065  0.79212789  0.54447566  1
  Si  Si23  1  0.67538882  0.45413750  0.30315882  1
  Si  Si24  1  0.82461118  0.04586250  0.80315882  1
  Si  Si25  1  0.74061000  0.52435342  0.00932297  1
  Si  Si26  1  0.70787211  0.92368935  0.04447566  1
  Si  Si27  1  0.79212789  0.57631065  0.54447566  1
  Si  Si28  1  0.75939000  0.97564658  0.50932297  1
  Si  Si29  1  0.95413750  0.17538882  0.19684118  1
  Si  Si30  1  0.92368935  0.70787211  0.04447566  1
  Si  Si31  1  0.97564658  0.75939000  0.50932297  1
  O  O32  1  0.99173868  0.34045746  0.82614618  1
  O  O33  1  0.04314906  0.04314906  0.19107011  1
  O  O34  1  0.10961415  0.10961415  0.52201037  1
  O  O35  1  0.00902899  0.73642183  0.92120513  1
  O  O36  1  0.03135795  0.75903753  0.66019697  1
  O  O37  1  0.10311630  0.34925475  0.50442909  1
  O  O38  1  0.17012732  0.17012732  0.91086879  1
  O  O39  1  0.15954254  0.50826132  0.32614618  1
  O  O40  1  0.09202393  0.73849546  0.40863823  1
  O  O41  1  0.15074525  0.39688370  0.00442909  1
  O  O42  1  0.16445094  0.81352967  0.16864257  1
  O  O43  1  0.23642183  0.50902899  0.57879487  1
  O  O44  1  0.18647033  0.83554906  0.83135743  1
  O  O45  1  0.25903753  0.53135795  0.83980303  1
  O  O46  1  0.23849546  0.59202393  0.09136177  1
  O  O47  1  0.34925475  0.10311630  0.50442909  1
  O  O48  1  0.34045746  0.99173868  0.82614618  1
  O  O49  1  0.32987268  0.32987268  0.41086879  1
  O  O50  1  0.26150454  0.90797607  0.59136177  1
  O  O51  1  0.39688370  0.15074525  0.00442909  1
  O  O52  1  0.24096247  0.96864205  0.33980303  1
  O  O53  1  0.31352967  0.66445094  0.33135743  1
  O  O54  1  0.26357817  0.99097101  0.07879487  1
  O  O55  1  0.33554906  0.68647033  0.66864257  1
  O  O56  1  0.39038585  0.39038585  0.02201037  1
  O  O57  1  0.45685094  0.45685094  0.69107011  1
  O  O58  1  0.50826132  0.15954254  0.32614618  1
  O  O59  1  0.40797607  0.76150454  0.90863823  1
  O  O60  1  0.50902899  0.23642183  0.57879487  1
  O  O61  1  0.53135795  0.25903753  0.83980303  1
  O  O62  1  0.46864205  0.74096247  0.16019697  1
  O  O63  1  0.49097101  0.76357817  0.42120513  1
  O  O64  1  0.59202393  0.23849546  0.09136177  1
  O  O65  1  0.49173868  0.84045746  0.67385382  1
  O  O66  1  0.54314906  0.54314906  0.30892989  1
  O  O67  1  0.60961415  0.60961415  0.97798963  1
  O  O68  1  0.66445094  0.31352967  0.33135743  1
  O  O69  1  0.73642183  0.00902899  0.92120513  1
  O  O70  1  0.68647033  0.33554906  0.66864257  1
  O  O71  1  0.75903753  0.03135795  0.66019697  1
  O  O72  1  0.60311630  0.84925475  0.99557091  1
  O  O73  1  0.73849546  0.09202393  0.40863823  1
  O  O74  1  0.67012732  0.67012732  0.58913121  1
  O  O75  1  0.65954254  0.00826132  0.17385382  1
  O  O76  1  0.65074525  0.89688370  0.49557091  1
  O  O77  1  0.76150454  0.40797607  0.90863823  1
  O  O78  1  0.74096247  0.46864205  0.16019697  1
  O  O79  1  0.81352967  0.16445094  0.16864257  1
  O  O80  1  0.76357817  0.49097101  0.42120513  1
  O  O81  1  0.83554906  0.18647033  0.83135743  1
  O  O82  1  0.84925475  0.60311630  0.99557091  1
  O  O83  1  0.90797607  0.26150454  0.59136177  1
  O  O84  1  0.84045746  0.49173868  0.67385382  1
  O  O85  1  0.82987268  0.82987268  0.08913121  1
  O  O86  1  0.89688370  0.65074525  0.49557091  1
  O  O87  1  0.96864205  0.24096247  0.33980303  1
  O  O88  1  0.99097101  0.26357817  0.07879487  1
  O  O89  1  0.89038585  0.89038585  0.47798963  1
  O  O90  1  0.95685094  0.95685094  0.80892989  1
  O  O91  1  0.00826132  0.65954254  0.17385382  1
