# generated using pymatgen
data_V12O29
_symmetry_space_group_name_H-M   'P 1'
_cell_length_a   14.34339007
_cell_length_b   14.34339007
_cell_length_c   10.32680897
_cell_angle_alpha   77.77068704
_cell_angle_beta   102.22931296
_cell_angle_gamma   165.29515342
_symmetry_Int_Tables_number   1
_chemical_formula_structural   V12O29
_chemical_formula_sum   'V12 O29'
_cell_volume   526.85463603
_cell_formula_units_Z   1
loop_
 _symmetry_equiv_pos_site_id
 _symmetry_equiv_pos_as_xyz
  1  'x, y, z'
loop_
 _atom_site_type_symbol
 _atom_site_label
 _atom_site_symmetry_multiplicity
 _atom_site_fract_x
 _atom_site_fract_y
 _atom_site_fract_z
 _atom_site_occupancy
  V  V0  1  0.06249638  0.93750362  0.08623192  1
  V  V1  1  0.14877096  0.85122904  0.34316283  1
  V  V2  1  0.17849701  0.82150299  0.02664690  1
  V  V3  1  0.30246297  0.69753703  0.20738869  1
  V  V4  1  0.39207135  0.60792865  0.46785365  1
  V  V5  1  0.41372288  0.58627712  0.14429571  1
  V  V6  1  0.58627712  0.41372288  0.85570429  1
  V  V7  1  0.60792865  0.39207135  0.53214635  1
  V  V8  1  0.69753703  0.30246297  0.79261131  1
  V  V9  1  0.82150299  0.17849701  0.97335310  1
  V  V10  1  0.85122904  0.14877096  0.65683717  1
  V  V11  1  0.93750362  0.06249638  0.91376808  1
  O  O12  1  0.09930931  0.90069069  0.90261991  1
  O  O13  1  0.05840393  0.94159607  0.24060629  1
  O  O14  1  0.12458086  0.87541914  0.51492308  1
  O  O15  1  0.13845658  0.86154342  0.16103283  1
  O  O16  1  0.19317423  0.80682577  0.83985140  1
  O  O17  1  0.20604416  0.79395584  0.38804652  1
  O  O18  1  0.23649522  0.76350478  0.12229881  1
  O  O19  1  0.29842707  0.70157293  0.36136825  1
  O  O20  1  0.36908436  0.63091564  0.63544841  1
  O  O21  1  0.33344019  0.66655981  0.02471660  1
  O  O22  1  0.37665268  0.62334732  0.27858827  1
  O  O23  1  0.42891448  0.57108552  0.96103007  1
  O  O24  1  0.44942355  0.55057645  0.50251848  1
  O  O25  1  0.46719817  0.53280183  0.23362129  1
  O  O26  1  0.53280183  0.46719817  0.76637871  1
  O  O27  1  0.00000000  0.00000000  0.00000000  1
  O  O28  1  0.55057645  0.44942355  0.49748152  1
  O  O29  1  0.57108552  0.42891448  0.03896993  1
  O  O30  1  0.62334732  0.37665268  0.72141173  1
  O  O31  1  0.66655981  0.33344019  0.97528340  1
  O  O32  1  0.63091564  0.36908436  0.36455159  1
  O  O33  1  0.70157293  0.29842707  0.63863175  1
  O  O34  1  0.76350478  0.23649522  0.87770119  1
  O  O35  1  0.79395584  0.20604416  0.61195348  1
  O  O36  1  0.80682577  0.19317423  0.16014860  1
  O  O37  1  0.86154342  0.13845658  0.83896717  1
  O  O38  1  0.87541914  0.12458086  0.48507692  1
  O  O39  1  0.94159607  0.05840393  0.75939371  1
  O  O40  1  0.90069069  0.09930931  0.09738009  1
