# generated using pymatgen
data_Ho2CdS4
_symmetry_space_group_name_H-M   'P 1'
_cell_length_a   7.77655450
_cell_length_b   10.28960634
_cell_length_c   6.73809665
_cell_angle_alpha   29.20431255
_cell_angle_beta   54.75829869
_cell_angle_gamma   40.90878547
_symmetry_Int_Tables_number   1
_chemical_formula_structural   Ho2CdS4
_chemical_formula_sum   'Ho2 Cd1 S4'
_cell_volume   166.41078727
_cell_formula_units_Z   1
loop_
 _symmetry_equiv_pos_site_id
 _symmetry_equiv_pos_as_xyz
  1  'x, y, z'
loop_
 _atom_site_type_symbol
 _atom_site_label
 _atom_site_symmetry_multiplicity
 _atom_site_fract_x
 _atom_site_fract_y
 _atom_site_fract_z
 _atom_site_occupancy
  Cd  Cd0  1  0.24999517  0.50001173  0.99997181  1
  Ho  Ho1  1  0.50000742  0.00000353  0.99999493  1
  Ho  Ho2  1  0.75000578  0.49996918  0.00002244  1
  S  S3  1  0.99370299  0.49992250  0.51270857  1
  S  S4  1  0.50628251  0.50006584  0.48733509  1
  S  S5  1  0.25389730  0.00004993  0.49215424  1
  S  S6  1  0.74610883  0.99997729  0.50781292  1
