# generated using pymatgen
data_LiCuPO4
_symmetry_space_group_name_H-M   'P 1'
_cell_length_a   9.89862392
_cell_length_b   6.97115055
_cell_length_c   4.93742766
_cell_angle_alpha   89.98649184
_cell_angle_beta   89.99825839
_cell_angle_gamma   90.01533036
_symmetry_Int_Tables_number   1
_chemical_formula_structural   LiCuPO4
_chemical_formula_sum   'Li4 Cu4 P4 O16'
_cell_volume   340.70617412
_cell_formula_units_Z   4
loop_
 _symmetry_equiv_pos_site_id
 _symmetry_equiv_pos_as_xyz
  1  'x, y, z'
loop_
 _atom_site_type_symbol
 _atom_site_label
 _atom_site_symmetry_multiplicity
 _atom_site_fract_x
 _atom_site_fract_y
 _atom_site_fract_z
 _atom_site_occupancy
  Li  Li0  1  0.15589762  0.21311442  0.69397381  1
  Li  Li1  1  0.34416274  0.71311936  0.19412490  1
  Li  Li2  1  0.65579543  0.21311836  0.80595479  1
  Li  Li3  1  0.84427339  0.71313451  0.30580096  1
  Cu  Cu4  1  0.14833775  0.71502909  0.70324480  1
  Cu  Cu5  1  0.35175298  0.21500933  0.20328539  1
  Cu  Cu6  1  0.64835760  0.71489693  0.79672303  1
  Cu  Cu7  1  0.85173771  0.21490844  0.29676322  1
  P  P8  1  0.09301479  0.96303542  0.18918799  1
  P  P9  1  0.40698581  0.46340389  0.68924575  1
  P  P10  1  0.59317733  0.96297226  0.31085318  1
  P  P11  1  0.90683981  0.46331216  0.81079290  1
  O  O12  1  0.06049512  0.46537255  0.74353565  1
  O  O13  1  0.11744603  0.96502038  0.87775405  1
  O  O14  1  0.15975022  0.14529410  0.31057375  1
  O  O15  1  0.15412518  0.77510520  0.30491568  1
  O  O16  1  0.34582210  0.27498088  0.80473693  1
  O  O17  1  0.34016628  0.64517904  0.81042698  1
  O  O18  1  0.38256109  0.46520868  0.37764631  1
  O  O19  1  0.43944792  0.96515689  0.24359800  1
  O  O20  1  0.56053179  0.46535788  0.75642599  1
  O  O21  1  0.61748660  0.96487447  0.62224751  1
  O  O22  1  0.65986539  0.14525982  0.18958061  1
  O  O23  1  0.65419538  0.77511537  0.19500100  1
  O  O24  1  0.84577571  0.27499029  0.69515969  1
  O  O25  1  0.84007496  0.64511772  0.68972182  1
  O  O26  1  0.88252305  0.46503023  0.12234605  1
  O  O27  1  0.93940021  0.96518232  0.25637925  1
