# generated using pymatgen
data_Ti3Mn2Sb(PO4)6
_symmetry_space_group_name_H-M   'P 1'
_cell_length_a   8.76778652
_cell_length_b   8.76778707
_cell_length_c   8.76778672
_cell_angle_alpha   60.14399831
_cell_angle_beta   60.14399862
_cell_angle_gamma   60.14400089
_symmetry_Int_Tables_number   1
_chemical_formula_structural   Ti3Mn2Sb(PO4)6
_chemical_formula_sum   'Ti3 Mn2 Sb1 P6 O24'
_cell_volume   478.15558960
_cell_formula_units_Z   1
loop_
 _symmetry_equiv_pos_site_id
 _symmetry_equiv_pos_as_xyz
  1  'x, y, z'
loop_
 _atom_site_type_symbol
 _atom_site_label
 _atom_site_symmetry_multiplicity
 _atom_site_fract_x
 _atom_site_fract_y
 _atom_site_fract_z
 _atom_site_occupancy
  Ti  Ti0  1  0.14585814  0.14585814  0.14585814  1
  Ti  Ti1  1  0.35283094  0.35283094  0.35283094  1
  Ti  Ti2  1  0.64624276  0.64624276  0.64624276  1
  Mn  Mn3  1  0.00047874  0.00047874  0.00047874  1
  Mn  Mn4  1  0.49905735  0.49905735  0.49905735  1
  Sb  Sb5  1  0.85217651  0.85217651  0.85217651  1
  P  P6  1  0.05164903  0.74808804  0.44310628  1
  P  P7  1  0.44310628  0.05164903  0.74808804  1
  P  P8  1  0.26087446  0.53649553  0.95706216  1
  P  P9  1  0.53649553  0.95706216  0.26087446  1
  P  P10  1  0.95706216  0.26087446  0.53649553  1
  P  P11  1  0.74808804  0.44310628  0.05164903  1
  O  O12  1  0.11158762  0.33487168  0.47837792  1
  O  O13  1  0.33487168  0.47837792  0.11158762  1
  O  O14  1  0.06474685  0.91024436  0.25352166  1
  O  O15  1  0.47837792  0.11158762  0.33487168  1
  O  O16  1  0.03282231  0.80602429  0.59112580  1
  O  O17  1  0.24141122  0.58473445  0.42176408  1
  O  O18  1  0.25352166  0.06474685  0.91024436  1
  O  O19  1  0.42176408  0.24141122  0.58473445  1
  O  O20  1  0.18973969  0.38456162  0.99951036  1
  O  O21  1  0.58473445  0.42176408  0.24141122  1
  O  O22  1  0.10832516  0.72977067  0.95226172  1
  O  O23  1  0.38456162  0.99951036  0.18973969  1
  O  O24  1  0.59112580  0.03282231  0.80602429  1
  O  O25  1  0.91024436  0.25352166  0.06474685  1
  O  O26  1  0.42082280  0.55071151  0.76419658  1
  O  O27  1  0.80602429  0.59112580  0.03282231  1
  O  O28  1  0.55071151  0.76419658  0.42082280  1
  O  O29  1  0.72977067  0.95226172  0.10832516  1
  O  O30  1  0.76419658  0.42082280  0.55071151  1
  O  O31  1  0.99951036  0.18973969  0.38456162  1
  O  O32  1  0.49936191  0.88300762  0.69257818  1
  O  O33  1  0.95226172  0.10832516  0.72977067  1
  O  O34  1  0.69257818  0.49936191  0.88300762  1
  O  O35  1  0.88300762  0.69257818  0.49936191  1
