# generated using pymatgen
data_NbBi3O7
_symmetry_space_group_name_H-M   'P 1'
_cell_length_a   3.93854421
_cell_length_b   3.78898231
_cell_length_c   15.45053733
_cell_angle_alpha   60.56212945
_cell_angle_beta   60.28163251
_cell_angle_gamma   61.26192359
_symmetry_Int_Tables_number   1
_chemical_formula_structural   NbBi3O7
_chemical_formula_sum   'Nb1 Bi3 O7'
_cell_volume   165.59477499
_cell_formula_units_Z   1
loop_
 _symmetry_equiv_pos_site_id
 _symmetry_equiv_pos_as_xyz
  1  'x, y, z'
loop_
 _atom_site_type_symbol
 _atom_site_label
 _atom_site_symmetry_multiplicity
 _atom_site_fract_x
 _atom_site_fract_y
 _atom_site_fract_z
 _atom_site_occupancy
  Nb  Nb0  1  0.95844653  0.04840955  0.49390322  1
  Bi  Bi1  1  0.06620805  0.00676992  0.98624590  1
  Bi  Bi2  1  0.02185075  0.97955142  0.26237830  1
  Bi  Bi3  1  0.08460416  0.02048359  0.72567500  1
  O  O4  1  0.29798767  0.18851194  0.33877251  1
  O  O5  1  0.34868253  0.27690893  0.53161659  1
  O  O6  1  0.84623087  0.74173846  0.17565746  1
  O  O7  1  0.80889200  0.70498056  0.45277728  1
  O  O8  1  0.31992746  0.24864253  0.80199138  1
  O  O9  1  0.84418592  0.79596848  0.64788354  1
  O  O10  1  0.73948507  0.69893462  0.97172482  1
