# generated using pymatgen
data_Li4V3P8O29
_symmetry_space_group_name_H-M   'P 1'
_cell_length_a   9.80390637
_cell_length_b   9.77003967
_cell_length_c   14.13719423
_cell_angle_alpha   90.13756171
_cell_angle_beta   90.63204887
_cell_angle_gamma   59.73337104
_symmetry_Int_Tables_number   1
_chemical_formula_structural   Li4V3P8O29
_chemical_formula_sum   'Li8 V6 P16 O58'
_cell_volume   1169.46410019
_cell_formula_units_Z   2
loop_
 _symmetry_equiv_pos_site_id
 _symmetry_equiv_pos_as_xyz
  1  'x, y, z'
loop_
 _atom_site_type_symbol
 _atom_site_label
 _atom_site_symmetry_multiplicity
 _atom_site_fract_x
 _atom_site_fract_y
 _atom_site_fract_z
 _atom_site_occupancy
  Li  Li0  1  0.90700276  0.77225763  0.05522913  1
  Li  Li1  1  0.77832385  0.30393302  0.05510823  1
  Li  Li2  1  0.30923881  0.91752345  0.06274289  1
  Li  Li3  1  0.68103457  0.23192590  0.44116772  1
  Li  Li4  1  0.33125558  0.76791737  0.55856701  1
  Li  Li5  1  0.22792147  0.68327812  0.94049752  1
  Li  Li6  1  0.32294346  0.33245085  0.60895013  1
  Li  Li7  1  0.00407220  0.99411543  0.50847781  1
  V  V8  1  0.56936874  0.43215914  0.24798699  1
  V  V9  1  0.43056783  0.56977418  0.75114886  1
  V  V10  1  0.57432751  0.99330821  0.75287837  1
  V  V11  1  0.43433416  0.00475150  0.25381464  1
  V  V12  1  0.00030813  0.56171574  0.25865038  1
  V  V13  1  0.99545446  0.43044452  0.74575686  1
  P  P14  1  0.91839441  0.76610170  0.83966863  1
  P  P15  1  0.77700818  0.91722083  0.34084184  1
  P  P16  1  0.91946944  0.30271037  0.34541409  1
  P  P17  1  0.66715082  0.66852274  0.13238042  1
  P  P18  1  0.66223092  0.67137193  0.62769387  1
  P  P19  1  0.77203636  0.31601649  0.83780321  1
  P  P20  1  0.68148256  0.22250875  0.65827654  1
  P  P21  1  0.31816995  0.91621534  0.84643724  1
  P  P22  1  0.68319688  0.08432925  0.15498551  1
  P  P23  1  0.31705274  0.77367156  0.34178893  1
  P  P24  1  0.22654721  0.68008513  0.16207104  1
  P  P25  1  0.33811363  0.33199411  0.37138539  1
  P  P26  1  0.33018956  0.33384832  0.86805992  1
  P  P27  1  0.08595805  0.69284230  0.65527530  1
  P  P28  1  0.22229777  0.08583593  0.66203203  1
  P  P29  1  0.08472518  0.23008505  0.15976920  1
  O  O30  1  0.00355509  0.79956694  0.57419303  1
  O  O31  1  0.91392322  0.74271080  0.33511218  1
  O  O32  1  0.76322243  0.99035277  0.07004004  1
  O  O33  1  0.74916340  0.91259371  0.83566096  1
  O  O34  1  0.90844912  0.61677784  0.81860549  1
  O  O35  1  0.81693519  0.66521667  0.17841452  1
  O  O36  1  0.91757639  0.46418983  0.33126484  1
  O  O37  1  0.99320177  0.23850758  0.07366539  1
  O  O38  1  0.91667952  0.34033681  0.82868948  1
  O  O39  1  0.66333747  0.81660062  0.67775158  1
  O  O40  1  0.61809269  0.91799766  0.32911657  1
  O  O41  1  0.81258414  0.52312561  0.67322105  1
  O  O42  1  0.66814648  0.67511138  0.02721442  1
  O  O43  1  0.66694547  0.67784521  0.52322824  1
  O  O44  1  0.66905055  0.51542924  0.16875858  1
  O  O45  1  0.47760025  0.90379994  0.82152969  1
  O  O46  1  0.51778118  0.81787152  0.17479119  1
  O  O47  1  0.74542608  0.33917698  0.33516856  1
  O  O48  1  0.79080580  0.20487030  0.74908456  1
  O  O49  1  0.76731458  0.21110177  0.56936911  1
  O  O50  1  0.76505214  0.24665659  0.92905636  1
  O  O51  1  0.62012293  0.47710412  0.81618348  1
  O  O52  1  0.51216594  0.67296856  0.66414715  1
  O  O53  1  0.66205755  0.25271902  0.15659241  1
  O  O54  1  0.47239377  0.61824965  0.32833996  1
  O  O55  1  0.34508638  0.91600486  0.32727861  1
  O  O56  1  0.79396698  0.99935527  0.24724075  1
  O  O57  1  0.78810187  0.00414309  0.42448355  1
  O  O58  1  0.20710655  0.99163280  0.58357200  1
  O  O59  1  0.65614738  0.07838655  0.66863355  1
  O  O60  1  0.51775634  0.37269966  0.66960781  1
  O  O61  1  0.33420840  0.74949918  0.83911086  1
  O  O62  1  0.49095470  0.32454561  0.33652225  1
  O  O63  1  0.37919942  0.51860734  0.18042514  1
  O  O64  1  0.23904281  0.75648893  0.07286456  1
  O  O65  1  0.23353868  0.79130136  0.43221961  1
  O  O66  1  0.20446202  0.79085366  0.25196406  1
  O  O67  1  0.26145486  0.65693380  0.66158491  1
  O  O68  1  0.47391354  0.18475085  0.82105884  1
  O  O69  1  0.52264961  0.09580799  0.17728975  1
  O  O70  1  0.32987266  0.48738110  0.83297416  1
  O  O71  1  0.32615426  0.32890050  0.97264323  1
  O  O72  1  0.33304176  0.32836219  0.47671512  1
  O  O73  1  0.18866816  0.48273419  0.32794213  1
  O  O74  1  0.37510536  0.09516902  0.66734152  1
  O  O75  1  0.33158150  0.18740390  0.32570168  1
  O  O76  1  0.07992426  0.66017192  0.16252578  1
  O  O77  1  0.01238770  0.78618365  0.75449416  1
  O  O78  1  0.00207152  0.75544440  0.93130850  1
  O  O79  1  0.09459521  0.53005088  0.66288199  1
  O  O80  1  0.18120439  0.34243448  0.81659818  1
  O  O81  1  0.09086565  0.38352554  0.18088368  1
  O  O82  1  0.25561852  0.08603293  0.16142552  1
  O  O83  1  0.25365962  0.99236795  0.93873254  1
  O  O84  1  0.20098620  0.01679980  0.76110764  1
  O  O85  1  0.08158635  0.26075935  0.66111534  1
  O  O86  1  0.99712721  0.21121286  0.43193534  1
  O  O87  1  0.00403177  0.20376137  0.25171274  1
