# generated using pymatgen
data_Li11V12(CuO4)12
_symmetry_space_group_name_H-M   'P 1'
_cell_length_a   10.65759672
_cell_length_b   10.22307377
_cell_length_c   10.22364129
_cell_angle_alpha   117.54338732
_cell_angle_beta   102.68632754
_cell_angle_gamma   102.67882270
_symmetry_Int_Tables_number   1
_chemical_formula_structural   Li11V12(CuO4)12
_chemical_formula_sum   'Li11 V12 Cu12 O48'
_cell_volume   894.72244046
_cell_formula_units_Z   1
loop_
 _symmetry_equiv_pos_site_id
 _symmetry_equiv_pos_as_xyz
  1  'x, y, z'
loop_
 _atom_site_type_symbol
 _atom_site_label
 _atom_site_symmetry_multiplicity
 _atom_site_fract_x
 _atom_site_fract_y
 _atom_site_fract_z
 _atom_site_occupancy
  Li  Li0  1  0.49981780  0.83336912  0.66671313  1
  Li  Li1  1  0.74907943  0.75035310  0.24987410  1
  Li  Li2  1  0.74418962  0.40831178  0.57498881  1
  Li  Li3  1  0.74901489  0.08338303  0.91718623  1
  Li  Li4  1  0.00007615  0.66664145  0.83331551  1
  Li  Li5  1  0.50004969  0.49996064  0.99993421  1
  Li  Li6  1  0.25092406  0.58312366  0.41692182  1
  Li  Li7  1  0.25097392  0.25006334  0.74957763  1
  Li  Li8  1  0.25577921  0.92478817  0.09145084  1
  Li  Li9  1  0.99990283  0.33299035  0.16702194  1
  Li  Li10  1  0.00001588  0.00036496  0.49965091  1
  V  V11  1  0.80658031  0.77476796  0.60856152  1
  V  V12  1  0.69193676  0.72235209  0.88893430  1
  V  V13  1  0.80714131  0.44218928  0.94166969  1
  V  V14  1  0.80855208  0.10841799  0.27509693  1
  V  V15  1  0.69321774  0.05645203  0.55958610  1
  V  V16  1  0.30775567  0.61030908  0.77696721  1
  V  V17  1  0.69335169  0.39311858  0.22348229  1
  V  V18  1  0.19264177  0.89105289  0.72479054  1
  V  V19  1  0.30673229  0.94045145  0.44338621  1
  V  V20  1  0.19223431  0.22535698  0.39191916  1
  V  V21  1  0.19293984  0.55823200  0.05796930  1
  V  V22  1  0.30701556  0.27726926  0.10766344  1
  Cu  Cu23  1  0.50118856  0.32878478  0.66147205  1
  Cu  Cu24  1  0.50002100  0.16669460  0.83329438  1
  Cu  Cu25  1  0.49889902  0.83867489  0.17100060  1
  Cu  Cu26  1  0.49988119  0.66691360  0.33319589  1
  Cu  Cu27  1  0.50099312  0.49485231  0.49591232  1
  Cu  Cu28  1  0.00006493  0.49958219  0.49975053  1
  Cu  Cu29  1  0.99993600  0.83371451  0.16690272  1
  Cu  Cu30  1  0.49888793  0.00427362  0.00531750  1
  Cu  Cu31  1  0.00000097  0.66659971  0.33336746  1
  Cu  Cu32  1  0.00000518  0.16667263  0.83331709  1
  Cu  Cu33  1  0.00006299  0.33316531  0.66626780  1
  Cu  Cu34  1  0.99993786  0.00025595  0.00037304  1
  O  O35  1  0.88319008  0.96695596  0.80048618  1
  O  O36  1  0.88347968  0.79992683  0.96657302  1
  O  O37  1  0.86365704  0.97423674  0.29992455  1
  O  O38  1  0.86254616  0.30832375  0.96639234  1
  O  O39  1  0.86313989  0.64204795  0.63376529  1
  O  O40  1  0.86312355  0.46708347  0.80864845  1
  O  O41  1  0.86254999  0.79978642  0.47504090  1
  O  O42  1  0.63751786  0.85713071  0.86577989  1
  O  O43  1  0.88311165  0.63376378  0.13355271  1
  O  O44  1  0.88227183  0.30122729  0.46791573  1
  O  O45  1  0.88496171  0.46722010  0.29981926  1
  O  O46  1  0.38311392  0.96670864  0.80099013  1
  O  O47  1  0.38362203  0.80225217  0.96899622  1
  O  O48  1  0.88494426  0.13318034  0.63392501  1
  O  O49  1  0.61693960  0.36667699  0.86570560  1
  O  O50  1  0.61678413  0.69850328  0.53276425  1
  O  O51  1  0.61591460  0.86547495  0.36510149  1
  O  O52  1  0.61612261  0.53121693  0.69773091  1
  O  O53  1  0.86362866  0.13320385  0.14091085  1
  O  O54  1  0.36247120  0.47632128  0.80099467  1
  O  O55  1  0.64179088  0.37537083  0.35936161  1
  O  O56  1  0.64173249  0.19278589  0.54213765  1
  O  O57  1  0.63712778  0.03235644  0.69369765  1
  O  O58  1  0.63754565  0.69901213  0.02364517  1
  O  O59  1  0.63714470  0.52694370  0.19893136  1
  O  O60  1  0.13694785  0.86630388  0.85802311  1
  O  O61  1  0.36285430  0.80642195  0.46771093  1
  O  O62  1  0.35828895  0.95782029  0.30707399  1
  O  O63  1  0.36241581  0.63437151  0.64314928  1
  O  O64  1  0.36285163  0.30099819  0.97302693  1
  O  O65  1  0.38441381  0.46781281  0.30160164  1
  O  O66  1  0.38387137  0.13482147  0.63430458  1
  O  O67  1  0.37844840  0.30478404  0.47127338  1
  O  O68  1  0.38320514  0.63439598  0.13360559  1
  O  O69  1  0.11496679  0.86607148  0.36671911  1
  O  O70  1  0.62155530  0.02883927  0.19557003  1
  O  O71  1  0.11670791  0.53361900  0.70029543  1
  O  O72  1  0.61604431  0.19835095  0.03222832  1
  O  O73  1  0.11697964  0.69970923  0.53316314  1
  O  O74  1  0.11693990  0.36647486  0.86636915  1
  O  O75  1  0.13639750  0.20008656  0.52572556  1
  O  O76  1  0.13693672  0.69131341  0.03295388  1
  O  O77  1  0.13740752  0.53355438  0.19162298  1
  O  O78  1  0.35829004  0.14042100  0.12448284  1
  O  O79  1  0.13746504  0.02499759  0.70024549  1
  O  O80  1  0.13629200  0.35906886  0.36671177  1
  O  O81  1  0.11496317  0.20000417  0.03266609  1
  O  O82  1  0.11751839  0.03188039  0.19851772  1
