# generated using pymatgen
data_Li4Cr3Cu3(WO8)2
_symmetry_space_group_name_H-M   'P 1'
_cell_length_a   5.96282766
_cell_length_b   5.88611680
_cell_length_c   9.78771679
_cell_angle_alpha   89.96964143
_cell_angle_beta   87.22925867
_cell_angle_gamma   119.56251333
_symmetry_Int_Tables_number   1
_chemical_formula_structural   Li4Cr3Cu3(WO8)2
_chemical_formula_sum   'Li4 Cr3 Cu3 W2 O16'
_cell_volume   298.34022562
_cell_formula_units_Z   1
loop_
 _symmetry_equiv_pos_site_id
 _symmetry_equiv_pos_as_xyz
  1  'x, y, z'
loop_
 _atom_site_type_symbol
 _atom_site_label
 _atom_site_symmetry_multiplicity
 _atom_site_fract_x
 _atom_site_fract_y
 _atom_site_fract_z
 _atom_site_occupancy
  Li  Li0  1  0.32734325  0.66367207  0.90864145  1
  Li  Li1  1  0.99476194  0.99735839  0.98943891  1
  Li  Li2  1  0.00752837  0.00375813  0.48341107  1
  Li  Li3  1  0.68967301  0.34484759  0.41161801  1
  Cr  Cr4  1  0.65853600  0.82923873  0.21583694  1
  Cr  Cr5  1  0.82775689  0.66037330  0.71422065  1
  Cr  Cr6  1  0.82769577  0.16731856  0.71420052  1
  Cu  Cu7  1  0.16747953  0.83003265  0.21199017  1
  Cu  Cu8  1  0.16751265  0.33762586  0.21192408  1
  Cu  Cu9  1  0.33506889  0.16759642  0.71221803  1
  W  W10  1  0.35528075  0.67768182  0.48728885  1
  W  W11  1  0.65275889  0.32643936  0.98496731  1
  O  O12  1  0.16264822  0.81946557  0.58481771  1
  O  O13  1  0.06478323  0.53252484  0.35113792  1
  O  O14  1  0.33286397  0.66647192  0.11948951  1
  O  O15  1  0.99912615  0.99967799  0.29539753  1
  O  O16  1  0.99910466  0.99961885  0.80322645  1
  O  O17  1  0.16258534  0.34310928  0.58480930  1
  O  O18  1  0.52220054  0.97760311  0.36101039  1
  O  O19  1  0.52196677  0.54445617  0.36104818  1
  O  O20  1  0.31996290  0.15988683  0.08352337  1
  O  O21  1  0.66036318  0.83015662  0.60211853  1
  O  O22  1  0.52142134  0.48651425  0.84831100  1
  O  O23  1  0.52133547  0.03486627  0.84824177  1
  O  O24  1  0.66542755  0.33266430  0.61454577  1
  O  O25  1  0.78901479  0.64108760  0.08168827  1
  O  O26  1  0.95666671  0.47835419  0.84101954  1
  O  O27  1  0.78913524  0.14790032  0.08170176  1
