# generated using pymatgen
data_K2O
_symmetry_space_group_name_H-M   'P 1'
_cell_length_a   9.36386136
_cell_length_b   9.36386136
_cell_length_c   6.66570418
_cell_angle_alpha   90.00000000
_cell_angle_beta   90.00000000
_cell_angle_gamma   90.00000000
_symmetry_Int_Tables_number   1
_chemical_formula_structural   K2O
_chemical_formula_sum   'K16 O8'
_cell_volume   584.46160447
_cell_formula_units_Z   8
loop_
 _symmetry_equiv_pos_site_id
 _symmetry_equiv_pos_as_xyz
  1  'x, y, z'
loop_
 _atom_site_type_symbol
 _atom_site_label
 _atom_site_symmetry_multiplicity
 _atom_site_fract_x
 _atom_site_fract_y
 _atom_site_fract_z
 _atom_site_occupancy
  K  K0  1  0.99915046  0.49915046  0.75000000  1
  K  K1  1  0.99915046  0.00084954  0.75000000  1
  K  K2  1  0.25000000  0.25000000  0.21398607  1
  K  K3  1  0.25000000  0.75000000  0.49448737  1
  K  K4  1  0.25000000  0.25000000  0.71398607  1
  K  K5  1  0.25000000  0.75000000  0.00551263  1
  K  K6  1  0.50084954  0.49915046  0.75000000  1
  K  K7  1  0.50084954  0.00084954  0.75000000  1
  K  K8  1  0.49915046  0.99915046  0.25000000  1
  K  K9  1  0.49915046  0.50084954  0.25000000  1
  K  K10  1  0.75000000  0.25000000  0.50551263  1
  K  K11  1  0.75000000  0.25000000  0.99448737  1
  K  K12  1  0.75000000  0.75000000  0.28601393  1
  K  K13  1  0.75000000  0.75000000  0.78601393  1
  K  K14  1  0.00084954  0.99915046  0.25000000  1
  K  K15  1  0.00084954  0.50084954  0.25000000  1
  O  O16  1  0.01717019  0.25000000  0.97648962  1
  O  O17  1  0.25000000  0.01717019  0.47648962  1
  O  O18  1  0.25000000  0.48282981  0.47648962  1
  O  O19  1  0.48282981  0.25000000  0.97648962  1
  O  O20  1  0.51717019  0.75000000  0.02351038  1
  O  O21  1  0.75000000  0.51717019  0.52351038  1
  O  O22  1  0.75000000  0.98282981  0.52351038  1
  O  O23  1  0.98282981  0.75000000  0.02351038  1
