# generated using pymatgen
data_Li4Ti2Fe3Sn3O16
_symmetry_space_group_name_H-M   'P 1'
_cell_length_a   6.13145561
_cell_length_b   6.14044105
_cell_length_c   9.70996446
_cell_angle_alpha   89.63674546
_cell_angle_beta   90.25974657
_cell_angle_gamma   119.87793317
_symmetry_Int_Tables_number   1
_chemical_formula_structural   Li4Ti2Fe3Sn3O16
_chemical_formula_sum   'Li4 Ti2 Fe3 Sn3 O16'
_cell_volume   316.98231496
_cell_formula_units_Z   1
loop_
 _symmetry_equiv_pos_site_id
 _symmetry_equiv_pos_as_xyz
  1  'x, y, z'
loop_
 _atom_site_type_symbol
 _atom_site_label
 _atom_site_symmetry_multiplicity
 _atom_site_fract_x
 _atom_site_fract_y
 _atom_site_fract_z
 _atom_site_occupancy
  Li  Li0  1  0.34760969  0.67651384  0.89397127  1
  Li  Li1  1  0.97847378  0.98765545  0.98790474  1
  Li  Li2  1  0.98422087  0.99447198  0.50088702  1
  Li  Li3  1  0.66436167  0.33296960  0.39876616  1
  Ti  Ti4  1  0.34859431  0.66877536  0.50132061  1
  Ti  Ti5  1  0.69953845  0.34439050  0.97755901  1
  Fe  Fe6  1  0.65482285  0.82621766  0.21755318  1
  Fe  Fe7  1  0.83237703  0.65781130  0.71564872  1
  Fe  Fe8  1  0.83237899  0.17170268  0.71005873  1
  Sn  Sn9  1  0.16676598  0.82932618  0.21298309  1
  Sn  Sn10  1  0.16825746  0.33794440  0.21349779  1
  Sn  Sn11  1  0.34416207  0.17039970  0.71393010  1
  O  O12  1  0.17094349  0.82993401  0.59334920  1
  O  O13  1  0.03031764  0.51337400  0.34074177  1
  O  O14  1  0.34071484  0.67093084  0.09934251  1
  O  O15  1  0.98687134  0.99338129  0.31416933  1
  O  O16  1  0.99721946  0.99292609  0.80236920  1
  O  O17  1  0.18439489  0.34432661  0.58775639  1
  O  O18  1  0.47867063  0.95592488  0.34341981  1
  O  O19  1  0.47904357  0.52252428  0.34396623  1
  O  O20  1  0.31658709  0.16083801  0.09520600  1
  O  O21  1  0.65036324  0.81337360  0.59048738  1
  O  O22  1  0.52916434  0.48573084  0.84543570  1
  O  O23  1  0.51798996  0.04761674  0.85676422  1
  O  O24  1  0.67588437  0.34463439  0.60359946  1
  O  O25  1  0.82587626  0.66428665  0.09687587  1
  O  O26  1  0.96521458  0.49584303  0.85651775  1
  O  O27  1  0.82918215  0.16647311  0.09375778  1
