# generated using pymatgen
data_Li4Mn(WO4)3
_symmetry_space_group_name_H-M   'P 1'
_cell_length_a   5.16192540
_cell_length_b   5.06148385
_cell_length_c   8.88433445
_cell_angle_alpha   90.00000000
_cell_angle_beta   90.00000000
_cell_angle_gamma   88.50327660
_symmetry_Int_Tables_number   1
_chemical_formula_structural   Li4Mn(WO4)3
_chemical_formula_sum   'Li4 Mn1 W3 O12'
_cell_volume   232.04182943
_cell_formula_units_Z   1
loop_
 _symmetry_equiv_pos_site_id
 _symmetry_equiv_pos_as_xyz
  1  'x, y, z'
loop_
 _atom_site_type_symbol
 _atom_site_label
 _atom_site_symmetry_multiplicity
 _atom_site_fract_x
 _atom_site_fract_y
 _atom_site_fract_z
 _atom_site_occupancy
  Li  Li0  1  0.00000000  0.00000000  0.71014319  1
  Li  Li1  1  0.00000000  0.50000000  0.83183206  1
  Li  Li2  1  0.50000000  0.00000000  0.34322525  1
  Li  Li3  1  0.50000000  0.50000000  0.19985731  1
  Mn  Mn4  1  0.00000000  0.00000000  0.10336881  1
  W  W5  1  0.50000000  0.50000000  0.61355566  1
  W  W6  1  0.00000000  0.50000000  0.39942521  1
  W  W7  1  0.50000000  0.00000000  0.93382876  1
  O  O8  1  0.16058448  0.26537650  0.26775180  1
  O  O9  1  0.18737679  0.30258448  0.57982883  1
  O  O10  1  0.18728285  0.19086700  0.89898477  1
  O  O11  1  0.31485770  0.70232425  0.43282378  1
  O  O12  1  0.35336524  0.77697475  0.07418537  1
  O  O13  1  0.35469305  0.74320770  0.74934781  1
  O  O14  1  0.64530695  0.25679230  0.74934781  1
  O  O15  1  0.64663476  0.22302525  0.07418537  1
  O  O16  1  0.68514230  0.29767575  0.43282378  1
  O  O17  1  0.81271715  0.80913300  0.89898477  1
  O  O18  1  0.81262321  0.69741552  0.57982883  1
  O  O19  1  0.83941552  0.73462350  0.26775180  1
