# generated using pymatgen
data_V3NiO8
_symmetry_space_group_name_H-M   'P 1'
_cell_length_a   6.35694951
_cell_length_b   6.35694988
_cell_length_c   6.46274270
_cell_angle_alpha   73.86424963
_cell_angle_beta   106.13574926
_cell_angle_gamma   145.48335130
_symmetry_Int_Tables_number   1
_chemical_formula_structural   V3NiO8
_chemical_formula_sum   'V3 Ni1 O8'
_cell_volume   141.58262205
_cell_formula_units_Z   1
loop_
 _symmetry_equiv_pos_site_id
 _symmetry_equiv_pos_as_xyz
  1  'x, y, z'
loop_
 _atom_site_type_symbol
 _atom_site_label
 _atom_site_symmetry_multiplicity
 _atom_site_fract_x
 _atom_site_fract_y
 _atom_site_fract_z
 _atom_site_occupancy
  V  V0  1  0.39965876  0.60034124  0.28191277  1
  V  V1  1  0.60044190  0.39955810  0.72407538  1
  V  V2  1  0.29443091  0.70556909  0.69891988  1
  Ni  Ni3  1  0.70454750  0.29545250  0.30724733  1
  O  O4  1  0.13160696  0.86839304  0.68978019  1
  O  O5  1  0.25122151  0.74877849  0.37176287  1
  O  O6  1  0.35803786  0.64196214  0.98913364  1
  O  O7  1  0.44811743  0.55188257  0.64119322  1
  O  O8  1  0.54671913  0.45328087  0.35210565  1
  O  O9  1  0.63392148  0.36607852  0.98974217  1
  O  O10  1  0.75609700  0.24390300  0.66189795  1
  O  O11  1  0.87519855  0.12480145  0.29222895  1
