# generated using pymatgen
data_V5O12
_symmetry_space_group_name_H-M   'P 1'
_cell_length_a   6.76073568
_cell_length_b   6.76073534
_cell_length_c   5.98442239
_cell_angle_alpha   74.26235681
_cell_angle_beta   105.73764372
_cell_angle_gamma   96.90366068
_symmetry_Int_Tables_number   1
_chemical_formula_structural   V5O12
_chemical_formula_sum   'V5 O12'
_cell_volume   253.08891879
_cell_formula_units_Z   1
loop_
 _symmetry_equiv_pos_site_id
 _symmetry_equiv_pos_as_xyz
  1  'x, y, z'
loop_
 _atom_site_type_symbol
 _atom_site_label
 _atom_site_symmetry_multiplicity
 _atom_site_fract_x
 _atom_site_fract_y
 _atom_site_fract_z
 _atom_site_occupancy
  V  V0  1  0.20156808  0.61824012  0.75187400  1
  V  V1  1  0.38955841  0.78914496  0.27211064  1
  V  V2  1  0.61824012  0.20156808  0.74812600  1
  V  V3  1  0.78914496  0.38955841  0.22788936  1
  V  V4  1  0.91753284  0.91753284  0.25000000  1
  O  O5  1  0.01742004  0.80199403  0.57837166  1
  O  O6  1  0.08052299  0.39531833  0.79305204  1
  O  O7  1  0.20338245  0.96019255  0.19879806  1
  O  O8  1  0.36853636  0.62556507  0.55654247  1
  O  O9  1  0.39531833  0.08052299  0.70694796  1
  O  O10  1  0.34166679  0.65067267  0.04720124  1
  O  O11  1  0.62556507  0.36853636  0.94345753  1
  O  O12  1  0.63167401  0.90510331  0.29740352  1
  O  O13  1  0.65067267  0.34166679  0.45279876  1
  O  O14  1  0.80199403  0.01742004  0.92162834  1
  O  O15  1  0.90510331  0.63167401  0.20259648  1
  O  O16  1  0.96019255  0.20338245  0.30120194  1
