# generated using pymatgen
data_LiV2OF5
_symmetry_space_group_name_H-M   'P 1'
_cell_length_a   5.14371288
_cell_length_b   5.50423626
_cell_length_c   7.66875962
_cell_angle_alpha   84.66749234
_cell_angle_beta   89.99689458
_cell_angle_gamma   90.00080007
_symmetry_Int_Tables_number   1
_chemical_formula_structural   LiV2OF5
_chemical_formula_sum   'Li2 V4 O2 F10'
_cell_volume   216.17987461
_cell_formula_units_Z   2
loop_
 _symmetry_equiv_pos_site_id
 _symmetry_equiv_pos_as_xyz
  1  'x, y, z'
loop_
 _atom_site_type_symbol
 _atom_site_label
 _atom_site_symmetry_multiplicity
 _atom_site_fract_x
 _atom_site_fract_y
 _atom_site_fract_z
 _atom_site_occupancy
  Li  Li0  1  0.48545929  0.08179567  0.78474565  1
  Li  Li1  1  0.51445262  0.08179616  0.28478102  1
  V  V2  1  0.01617275  0.01067631  0.50656937  1
  V  V3  1  0.51689238  0.49280281  0.00195391  1
  V  V4  1  0.48313380  0.49278019  0.50196586  1
  V  V5  1  0.98381754  0.01072133  0.00655198  1
  O  O6  1  0.31053207  0.19287824  0.55564359  1
  O  O7  1  0.68947631  0.19291536  0.05565669  1
  F  F8  1  0.14813496  0.00212291  0.25249463  1
  F  F9  1  0.18047262  0.69461217  0.56748411  1
  F  F10  1  0.20955890  0.29107109  0.92680907  1
  F  F11  1  0.31682145  0.81614587  0.93657086  1
  F  F12  1  0.38271461  0.49792246  0.24712408  1
  F  F13  1  0.61735213  0.49791546  0.74711764  1
  F  F14  1  0.68317387  0.81613191  0.43662911  1
  F  F15  1  0.79047890  0.29104200  0.42681741  1
  F  F16  1  0.81952362  0.69465738  0.06745225  1
  F  F17  1  0.85182716  0.00214869  0.75250077  1
