# generated using pymatgen
data_Li3FeF5
_symmetry_space_group_name_H-M   'P 1'
_cell_length_a   6.62456628
_cell_length_b   7.74515241
_cell_length_c   8.13762034
_cell_angle_alpha   90.05397943
_cell_angle_beta   89.78515830
_cell_angle_gamma   90.00050610
_symmetry_Int_Tables_number   1
_chemical_formula_structural   Li3FeF5
_chemical_formula_sum   'Li12 Fe4 F20'
_cell_volume   417.52414607
_cell_formula_units_Z   4
loop_
 _symmetry_equiv_pos_site_id
 _symmetry_equiv_pos_as_xyz
  1  'x, y, z'
loop_
 _atom_site_type_symbol
 _atom_site_label
 _atom_site_symmetry_multiplicity
 _atom_site_fract_x
 _atom_site_fract_y
 _atom_site_fract_z
 _atom_site_occupancy
  Li  Li0  1  0.98517234  0.57193051  0.27103947  1
  Li  Li1  1  0.98503080  0.92810675  0.27108140  1
  Li  Li2  1  0.20981081  0.74999908  0.02733949  1
  Li  Li3  1  0.28987769  0.24993444  0.52796618  1
  Li  Li4  1  0.51407768  0.42733307  0.77057675  1
  Li  Li5  1  0.51390172  0.07267922  0.77050863  1
  Li  Li6  1  0.48494869  0.92858227  0.22855359  1
  Li  Li7  1  0.48487363  0.57148535  0.22857267  1
  Li  Li8  1  0.71096720  0.75003060  0.47392479  1
  Li  Li9  1  0.78984615  0.25002528  0.97300056  1
  Li  Li10  1  0.01630323  0.07328520  0.72827367  1
  Li  Li11  1  0.01605654  0.42652400  0.72843374  1
  Fe  Fe12  1  0.27084154  0.74980623  0.59992923  1
  Fe  Fe13  1  0.22802956  0.24990665  0.09911039  1
  Fe  Fe14  1  0.77135831  0.75004308  0.90014209  1
  Fe  Fe15  1  0.72838559  0.25009771  0.40045011  1
  F  F16  1  0.98997728  0.24999941  0.54801542  1
  F  F17  1  0.08948542  0.74955856  0.80936629  1
  F  F18  1  0.06910904  0.24999962  0.88133444  1
  F  F19  1  0.22409656  0.98875582  0.14394640  1
  F  F20  1  0.22414566  0.51128923  0.14392780  1
  F  F21  1  0.27553586  0.48358522  0.64685267  1
  F  F22  1  0.27583328  0.01654265  0.64643777  1
  F  F23  1  0.42448391  0.75026757  0.38255677  1
  F  F24  1  0.41713242  0.24993383  0.31249362  1
  F  F25  1  0.50817288  0.74997646  0.04940945  1
  F  F26  1  0.49216302  0.25002277  0.95236830  1
  F  F27  1  0.58268839  0.75030408  0.68636392  1
  F  F28  1  0.57234908  0.24998961  0.61923545  1
  F  F29  1  0.72346185  0.98812007  0.35623485  1
  F  F30  1  0.72349819  0.51183985  0.35607383  1
  F  F31  1  0.77623778  0.00960627  0.85634444  1
  F  F32  1  0.77633020  0.49039348  0.85647594  1
  F  F33  1  0.92941075  0.74988728  0.11850529  1
  F  F34  1  0.91637669  0.25013891  0.18676589  1
  F  F35  1  0.01003022  0.75001988  0.44838870  1
