# generated using pymatgen
data_Li4Mn3Fe2Sn3O16
_symmetry_space_group_name_H-M   'P 1'
_cell_length_a   6.12578599
_cell_length_b   6.14838652
_cell_length_c   9.64168844
_cell_angle_alpha   89.64986443
_cell_angle_beta   89.35081880
_cell_angle_gamma   120.35889689
_symmetry_Int_Tables_number   1
_chemical_formula_structural   Li4Mn3Fe2Sn3O16
_chemical_formula_sum   'Li4 Mn3 Fe2 Sn3 O16'
_cell_volume   313.29679186
_cell_formula_units_Z   1
loop_
 _symmetry_equiv_pos_site_id
 _symmetry_equiv_pos_as_xyz
  1  'x, y, z'
loop_
 _atom_site_type_symbol
 _atom_site_label
 _atom_site_symmetry_multiplicity
 _atom_site_fract_x
 _atom_site_fract_y
 _atom_site_fract_z
 _atom_site_occupancy
  Li  Li0  1  0.34228190  0.67459398  0.88580211  1
  Li  Li1  1  0.96851125  0.98177165  0.99313340  1
  Li  Li2  1  0.97879682  0.98884567  0.50142768  1
  Li  Li3  1  0.67231617  0.33881845  0.39559894  1
  Mn  Mn4  1  0.66206027  0.83159919  0.22024323  1
  Mn  Mn5  1  0.82760396  0.65805838  0.71380285  1
  Mn  Mn6  1  0.83441163  0.17488305  0.71675476  1
  Fe  Fe7  1  0.33918877  0.66581925  0.49602083  1
  Fe  Fe8  1  0.68130068  0.34359954  0.99003781  1
  Sn  Sn9  1  0.17293485  0.83134896  0.21238886  1
  Sn  Sn10  1  0.17276302  0.34118550  0.21133045  1
  Sn  Sn11  1  0.33886562  0.16695950  0.71335408  1
  O  O12  1  0.15357929  0.82852122  0.59838065  1
  O  O13  1  0.03936480  0.51735628  0.34649230  1
  O  O14  1  0.32288919  0.66306418  0.09099536  1
  O  O15  1  0.01851901  0.00827113  0.31855550  1
  O  O16  1  0.98764664  0.97521602  0.80921150  1
  O  O17  1  0.15057051  0.32030336  0.60141600  1
  O  O18  1  0.49032160  0.96090368  0.34235396  1
  O  O19  1  0.48941851  0.52881063  0.34013930  1
  O  O20  1  0.32672970  0.16426373  0.08737695  1
  O  O21  1  0.66509271  0.81762247  0.60460100  1
  O  O22  1  0.53204006  0.48992013  0.83923944  1
  O  O23  1  0.53767313  0.04664165  0.83854731  1
  O  O24  1  0.67605860  0.35658440  0.60189684  1
  O  O25  1  0.82832983  0.67194409  0.10285660  1
  O  O26  1  0.96087462  0.49675265  0.83555226  1
  O  O27  1  0.82985585  0.15664329  0.10033004  1
