# generated using pymatgen
data_Mn3(O2F)2
_symmetry_space_group_name_H-M   'P 1'
_cell_length_a   6.99307158
_cell_length_b   5.50298836
_cell_length_c   5.52254448
_cell_angle_alpha   75.60383049
_cell_angle_beta   74.36093629
_cell_angle_gamma   73.92162286
_symmetry_Int_Tables_number   1
_chemical_formula_structural   Mn3(O2F)2
_chemical_formula_sum   'Mn6 O8 F4'
_cell_volume   193.14303413
_cell_formula_units_Z   2
loop_
 _symmetry_equiv_pos_site_id
 _symmetry_equiv_pos_as_xyz
  1  'x, y, z'
loop_
 _atom_site_type_symbol
 _atom_site_label
 _atom_site_symmetry_multiplicity
 _atom_site_fract_x
 _atom_site_fract_y
 _atom_site_fract_z
 _atom_site_occupancy
  Mn  Mn0  1  0.83333300  0.66666700  0.66666700  1
  Mn  Mn1  1  0.66640093  0.35623841  0.30799052  1
  Mn  Mn2  1  0.33333300  0.66666700  0.66666700  1
  Mn  Mn3  1  0.16031362  0.35734982  0.32355008  1
  Mn  Mn4  1  0.50635338  0.97598418  0.00978392  1
  Mn  Mn5  1  0.00026607  0.97709559  0.02534348  1
  O  O6  1  0.29580758  0.88709246  0.91087569  1
  O  O7  1  0.63089529  0.57623379  0.54661667  1
  O  O8  1  0.95860625  0.23643766  0.23452291  1
  O  O9  1  0.70806075  0.09689534  0.09881009  1
  O  O10  1  0.03577171  0.75710021  0.78671733  1
  O  O11  1  0.37085942  0.44624054  0.42245731  1
  O  O12  1  0.66729656  0.63313619  0.01573082  1
  O  O13  1  0.99937044  0.70019781  0.31760218  1
  F  F14  1  0.66343317  0.05677780  0.60946314  1
  F  F15  1  0.35099972  0.33691582  0.96097934  1
  F  F16  1  0.31566728  0.99641718  0.37235366  1
  F  F17  1  0.00323283  0.27655520  0.72386986  1
