# generated using pymatgen
data_Li2Mn3(BO3)3
_symmetry_space_group_name_H-M   'P 1'
_cell_length_a   5.86184151
_cell_length_b   8.28736548
_cell_length_c   9.06725760
_cell_angle_alpha   67.33901606
_cell_angle_beta   102.25647553
_cell_angle_gamma   77.89023997
_symmetry_Int_Tables_number   1
_chemical_formula_structural   Li2Mn3(BO3)3
_chemical_formula_sum   'Li4 Mn6 B6 O18'
_cell_volume   375.87413161
_cell_formula_units_Z   2
loop_
 _symmetry_equiv_pos_site_id
 _symmetry_equiv_pos_as_xyz
  1  'x, y, z'
loop_
 _atom_site_type_symbol
 _atom_site_label
 _atom_site_symmetry_multiplicity
 _atom_site_fract_x
 _atom_site_fract_y
 _atom_site_fract_z
 _atom_site_occupancy
  Li  Li0  1  0.95601462  0.38719164  0.77582474  1
  Li  Li1  1  0.59766030  0.71929843  0.11363429  1
  Li  Li2  1  0.08036014  0.61290211  0.22891641  1
  Li  Li3  1  0.27691568  0.05967056  0.44108111  1
  Mn  Mn4  1  0.76252425  0.99120342  0.21085361  1
  Mn  Mn5  1  0.87813476  0.37018843  0.11270621  1
  Mn  Mn6  1  0.56095166  0.69065930  0.45760624  1
  Mn  Mn7  1  0.46220894  0.29583940  0.55916010  1
  Mn  Mn8  1  0.11735004  0.64243893  0.86702878  1
  Mn  Mn9  1  0.23066150  0.02066760  0.80304679  1
  B  B10  1  0.89676838  0.36570719  0.45635189  1
  B  B11  1  0.78248109  0.95397637  0.89366876  1
  B  B12  1  0.55621695  0.70491627  0.77459740  1
  B  B13  1  0.43311199  0.31268688  0.21168850  1
  B  B14  1  0.21417001  0.03376730  0.11854109  1
  B  B15  1  0.10798619  0.63026283  0.53966819  1
  O  O16  1  0.84486873  0.85172935  0.06373643  1
  O  O17  1  0.86948902  0.75605938  0.44251737  1
  O  O18  1  0.94634703  0.92920074  0.80524738  1
  O  O19  1  0.82761029  0.47760535  0.28575914  1
  O  O20  1  0.75877975  0.41359016  0.55244353  1
  O  O21  1  0.77882487  0.56177713  0.85481430  1
  O  O22  1  0.43115352  0.88312254  0.19867376  1
  O  O23  1  0.57797841  0.26734263  0.12180599  1
  O  O24  1  0.45972297  0.80527368  0.60281086  1
  O  O25  1  0.49529068  0.20671709  0.38154109  1
  O  O26  1  0.42824051  0.74967454  0.87701178  1
  O  O27  1  0.54441906  0.07881362  0.79733051  1
  O  O28  1  0.21559344  0.46470525  0.12374208  1
  O  O29  1  0.26708533  0.59860492  0.44718011  1
  O  O30  1  0.17816641  0.52915968  0.70785878  1
  O  O31  1  0.08571037  0.08347901  0.21561852  1
  O  O32  1  0.11093332  0.21433320  0.54375876  1
  O  O33  1  0.12972679  0.13695107  0.94528248  1
