# generated using pymatgen
data_LiFeF4
_symmetry_space_group_name_H-M   'P 1'
_cell_length_a   6.91757159
_cell_length_b   6.91757159
_cell_length_c   7.23312490
_cell_angle_alpha   75.32135561
_cell_angle_beta   104.67864439
_cell_angle_gamma   97.39413432
_symmetry_Int_Tables_number   1
_chemical_formula_structural   LiFeF4
_chemical_formula_sum   'Li4 Fe4 F16'
_cell_volume   323.13055308
_cell_formula_units_Z   4
loop_
 _symmetry_equiv_pos_site_id
 _symmetry_equiv_pos_as_xyz
  1  'x, y, z'
loop_
 _atom_site_type_symbol
 _atom_site_label
 _atom_site_symmetry_multiplicity
 _atom_site_fract_x
 _atom_site_fract_y
 _atom_site_fract_z
 _atom_site_occupancy
  Li  Li0  1  0.27178420  0.72821580  0.39533239  1
  Li  Li1  1  0.24713263  0.24713263  0.00000000  1
  Li  Li2  1  0.75286737  0.75286737  0.00000000  1
  Li  Li3  1  0.72821580  0.27178420  0.60466761  1
  Fe  Fe4  1  0.21254950  0.78745050  0.87063255  1
  Fe  Fe5  1  0.80938913  0.80938913  0.50000000  1
  Fe  Fe6  1  0.19061087  0.19061087  0.50000000  1
  Fe  Fe7  1  0.78745050  0.21254950  0.12936745  1
  F  F8  1  0.13375534  0.86624466  0.54373620  1
  F  F9  1  0.18790468  0.51354336  0.88289894  1
  F  F10  1  0.48645664  0.81209532  0.88289894  1
  F  F11  1  0.19696257  0.80303743  0.12094323  1
  F  F12  1  0.53896622  0.81154011  0.48061145  1
  F  F13  1  0.18845989  0.46103378  0.48061145  1
  F  F14  1  0.19997094  0.09927461  0.78349943  1
  F  F15  1  0.90072539  0.80002906  0.78349943  1
  F  F16  1  0.09927461  0.19997094  0.21650057  1
  F  F17  1  0.80002906  0.90072539  0.21650057  1
  F  F18  1  0.81154011  0.53896622  0.51938855  1
  F  F19  1  0.46103378  0.18845989  0.51938855  1
  F  F20  1  0.80303743  0.19696257  0.87905677  1
  F  F21  1  0.51354336  0.18790468  0.11710106  1
  F  F22  1  0.81209532  0.48645664  0.11710106  1
  F  F23  1  0.86624466  0.13375534  0.45626380  1
