# generated using pymatgen
data_Li2FeF4
_symmetry_space_group_name_H-M   'P 1'
_cell_length_a   10.02655220
_cell_length_b   12.52602087
_cell_length_c   5.10095063
_cell_angle_alpha   90.00000000
_cell_angle_beta   90.00000000
_cell_angle_gamma   90.00000000
_symmetry_Int_Tables_number   1
_chemical_formula_structural   Li2FeF4
_chemical_formula_sum   'Li16 Fe8 F32'
_cell_volume   640.64268305
_cell_formula_units_Z   8
loop_
 _symmetry_equiv_pos_site_id
 _symmetry_equiv_pos_as_xyz
  1  'x, y, z'
loop_
 _atom_site_type_symbol
 _atom_site_label
 _atom_site_symmetry_multiplicity
 _atom_site_fract_x
 _atom_site_fract_y
 _atom_site_fract_z
 _atom_site_occupancy
  Li  Li0  1  0.00000000  0.31873829  0.00000000  1
  Li  Li1  1  0.00000000  0.68776117  0.00000000  1
  Li  Li2  1  0.00000000  0.56257615  0.50000000  1
  Li  Li3  1  0.00000000  0.98119107  0.00000000  1
  Li  Li4  1  0.29586051  0.84491830  0.98068239  1
  Li  Li5  1  0.24849486  0.18922122  0.01928198  1
  Li  Li6  1  0.25150514  0.68922122  0.51928198  1
  Li  Li7  1  0.20413949  0.34491830  0.48068239  1
  Li  Li8  1  0.50000000  0.48119107  0.50000000  1
  Li  Li9  1  0.50000000  0.06257615  0.00000000  1
  Li  Li10  1  0.50000000  0.18776117  0.50000000  1
  Li  Li11  1  0.50000000  0.81873829  0.50000000  1
  Li  Li12  1  0.79586051  0.34491830  0.51931761  1
  Li  Li13  1  0.74849486  0.68922122  0.48071802  1
  Li  Li14  1  0.75150514  0.18922122  0.98071802  1
  Li  Li15  1  0.70413949  0.84491830  0.01931761  1
  Fe  Fe16  1  0.00000000  0.13556514  0.50000000  1
  Fe  Fe17  1  0.00000000  0.84702088  0.50000000  1
  Fe  Fe18  1  0.22953960  0.49762741  0.02072554  1
  Fe  Fe19  1  0.27046040  0.99762741  0.52072554  1
  Fe  Fe20  1  0.50000000  0.34702088  0.00000000  1
  Fe  Fe21  1  0.50000000  0.63556514  0.00000000  1
  Fe  Fe22  1  0.72953960  0.99762741  0.47927446  1
  Fe  Fe23  1  0.77046040  0.49762741  0.97927446  1
  F  F24  1  0.10228645  0.73019556  0.29962032  1
  F  F25  1  0.11017837  0.23777638  0.26991427  1
  F  F26  1  0.09946177  0.99455641  0.31283785  1
  F  F27  1  0.14194410  0.10629245  0.77177854  1
  F  F28  1  0.12654359  0.87644529  0.79738340  1
  F  F29  1  0.11458455  0.46875642  0.32404625  1
  F  F30  1  0.13320950  0.60941618  0.78671311  1
  F  F31  1  0.15894030  0.36108804  0.83195879  1
  F  F32  1  0.34105970  0.86108804  0.33195879  1
  F  F33  1  0.36679050  0.10941618  0.28671311  1
  F  F34  1  0.38541545  0.96875642  0.82404625  1
  F  F35  1  0.37345641  0.37644529  0.29738340  1
  F  F36  1  0.35805590  0.60629245  0.27177854  1
  F  F37  1  0.40053823  0.49455641  0.81283785  1
  F  F38  1  0.38982163  0.73777638  0.76991427  1
  F  F39  1  0.39771355  0.23019556  0.79962032  1
  F  F40  1  0.60228645  0.23019556  0.20037968  1
  F  F41  1  0.61017837  0.73777638  0.23008573  1
  F  F42  1  0.59946177  0.49455641  0.18716215  1
  F  F43  1  0.62654359  0.37644529  0.70261660  1
  F  F44  1  0.64194410  0.60629245  0.72822146  1
  F  F45  1  0.61458455  0.96875642  0.17595375  1
  F  F46  1  0.63320950  0.10941618  0.71328689  1
  F  F47  1  0.65894030  0.86108804  0.66804121  1
  F  F48  1  0.84105970  0.36108804  0.16804121  1
  F  F49  1  0.86679050  0.60941618  0.21328689  1
  F  F50  1  0.88541545  0.46875642  0.67595375  1
  F  F51  1  0.87345641  0.87644529  0.20261660  1
  F  F52  1  0.85805590  0.10629245  0.22822146  1
  F  F53  1  0.90053823  0.99455641  0.68716215  1
  F  F54  1  0.88982163  0.23777638  0.73008573  1
  F  F55  1  0.89771355  0.73019556  0.70037968  1
