# generated using pymatgen
data_Li2VO2F
_symmetry_space_group_name_H-M   'P 1'
_cell_length_a   2.94491891
_cell_length_b   5.17556821
_cell_length_c   7.35111280
_cell_angle_alpha   89.72029461
_cell_angle_beta   90.00000000
_cell_angle_gamma   90.00000000
_symmetry_Int_Tables_number   1
_chemical_formula_structural   Li2VO2F
_chemical_formula_sum   'Li4 V2 O4 F2'
_cell_volume   112.04159660
_cell_formula_units_Z   2
loop_
 _symmetry_equiv_pos_site_id
 _symmetry_equiv_pos_as_xyz
  1  'x, y, z'
loop_
 _atom_site_type_symbol
 _atom_site_label
 _atom_site_symmetry_multiplicity
 _atom_site_fract_x
 _atom_site_fract_y
 _atom_site_fract_z
 _atom_site_occupancy
  Li  Li0  1  0.00000000  0.33061857  0.67266151  1
  Li  Li1  1  0.00000000  0.68179938  0.32206165  1
  Li  Li2  1  0.50000000  0.50271443  0.99400449  1
  Li  Li3  1  0.50000000  0.15153462  0.34460535  1
  V  V4  1  0.50000000  0.84223190  0.66141928  1
  V  V5  1  0.00000000  0.99110110  0.00524772  1
  O  O6  1  0.00000000  0.68309374  0.82126802  1
  O  O7  1  0.50000000  0.15023926  0.84539898  1
  O  O8  1  0.50000000  0.84224718  0.15571057  1
  O  O9  1  0.00000000  0.99108582  0.51095543  1
  F  F10  1  0.50000000  0.50306347  0.49907107  1
  F  F11  1  0.00000000  0.33026953  0.16759593  1
