# generated using pymatgen
data_Li2Mg2(WO4)3
_symmetry_space_group_name_H-M   'P 1'
_cell_length_a   5.21146438
_cell_length_b   10.66440292
_cell_length_c   17.90278377
_cell_angle_alpha   90.27415091
_cell_angle_beta   90.00000000
_cell_angle_gamma   90.00000000
_symmetry_Int_Tables_number   1
_chemical_formula_structural   Li2Mg2(WO4)3
_chemical_formula_sum   'Li8 Mg8 W12 O48'
_cell_volume   994.97441575
_cell_formula_units_Z   4
loop_
 _symmetry_equiv_pos_site_id
 _symmetry_equiv_pos_as_xyz
  1  'x, y, z'
loop_
 _atom_site_type_symbol
 _atom_site_label
 _atom_site_symmetry_multiplicity
 _atom_site_fract_x
 _atom_site_fract_y
 _atom_site_fract_z
 _atom_site_occupancy
  Li  Li0  1  0.24664658  0.75377021  0.30079617  1
  Li  Li1  1  0.24675830  0.42305213  0.97015486  1
  Li  Li2  1  0.25324170  0.92305213  0.47015486  1
  Li  Li3  1  0.25335342  0.25377021  0.80079617  1
  Li  Li4  1  0.60576666  0.24905792  0.24911065  1
  Li  Li5  1  0.74534544  0.74992176  0.20097331  1
  Li  Li6  1  0.75465456  0.24992176  0.70097331  1
  Li  Li7  1  0.89423334  0.74905792  0.74911065  1
  Mg  Mg8  1  0.10502816  0.24921957  0.25031196  1
  Mg  Mg9  1  0.24796365  0.07819525  0.97252633  1
  Mg  Mg10  1  0.25203635  0.57819525  0.47252633  1
  Mg  Mg11  1  0.39497184  0.74921957  0.75031196  1
  Mg  Mg12  1  0.74740998  0.07087528  0.52707428  1
  Mg  Mg13  1  0.74804513  0.42434483  0.52788941  1
  Mg  Mg14  1  0.75259002  0.57087528  0.02707428  1
  Mg  Mg15  1  0.75195487  0.92434483  0.02788941  1
  W  W16  1  0.21743210  0.74922989  0.94225164  1
  W  W17  1  0.22175870  0.02738477  0.65672084  1
  W  W18  1  0.21925620  0.47160528  0.65712241  1
  W  W19  1  0.27824130  0.52738477  0.15672084  1
  W  W20  1  0.28074380  0.97160528  0.15712241  1
  W  W21  1  0.28256790  0.24922989  0.44225164  1
  W  W22  1  0.71784898  0.75021839  0.55848671  1
  W  W23  1  0.72232331  0.47381737  0.84293819  1
  W  W24  1  0.72034161  0.02685924  0.84280290  1
  W  W25  1  0.77965839  0.52685924  0.34280290  1
  W  W26  1  0.77767669  0.97381737  0.34293819  1
  W  W27  1  0.78215102  0.25021839  0.05848671  1
  O  O28  1  0.06111714  0.61319040  0.37543162  1
  O  O29  1  0.05403282  0.88575906  0.37338422  1
  O  O30  1  0.06018077  0.24497501  0.99624788  1
  O  O31  1  0.07922155  0.62411433  0.21511271  1
  O  O32  1  0.07778165  0.87544112  0.21303115  1
  O  O33  1  0.08178006  0.00758984  0.07367771  1
  O  O34  1  0.07645170  0.49169991  0.07573302  1
  O  O35  1  0.07725400  0.11883844  0.46374781  1
  O  O36  1  0.08416273  0.38711803  0.46374349  1
  O  O37  1  0.14792384  0.61792658  0.70501529  1
  O  O38  1  0.14995980  0.88153211  0.70537850  1
  O  O39  1  0.14752175  0.75042234  0.84362709  1
  O  O40  1  0.35247825  0.25042234  0.34362709  1
  O  O41  1  0.35207616  0.11792658  0.20501529  1
  O  O42  1  0.35004020  0.38153211  0.20537850  1
  O  O43  1  0.41583727  0.88711803  0.96374349  1
  O  O44  1  0.42274600  0.61883844  0.96374781  1
  O  O45  1  0.41821994  0.50758984  0.57367771  1
  O  O46  1  0.42354830  0.99169991  0.57573302  1
  O  O47  1  0.42077845  0.12411433  0.71511271  1
  O  O48  1  0.42221835  0.37544112  0.71303115  1
  O  O49  1  0.43981923  0.74497501  0.49624788  1
  O  O50  1  0.43888286  0.11319040  0.87543162  1
  O  O51  1  0.44596718  0.38575906  0.87338422  1
  O  O52  1  0.56163637  0.61413267  0.12434821  1
  O  O53  1  0.56379017  0.88576893  0.12441050  1
  O  O54  1  0.56775356  0.25067511  0.50493674  1
  O  O55  1  0.57850843  0.62252626  0.28567218  1
  O  O56  1  0.57506492  0.87697796  0.28438602  1
  O  O57  1  0.58486987  0.01529417  0.42600377  1
  O  O58  1  0.58037368  0.48963093  0.42632059  1
  O  O59  1  0.58044566  0.11225629  0.03681511  1
  O  O60  1  0.58894804  0.38695770  0.03840948  1
  O  O61  1  0.63726308  0.61830515  0.79427694  1
  O  O62  1  0.63940644  0.88218147  0.79486908  1
  O  O63  1  0.63312932  0.74913728  0.65626327  1
  O  O64  1  0.86687068  0.24913728  0.15626327  1
  O  O65  1  0.86273692  0.11830515  0.29427694  1
  O  O66  1  0.86059356  0.38218147  0.29486908  1
  O  O67  1  0.91955434  0.61225629  0.53681511  1
  O  O68  1  0.91105196  0.88695770  0.53840948  1
  O  O69  1  0.91513013  0.51529417  0.92600377  1
  O  O70  1  0.91962632  0.98963093  0.92632059  1
  O  O71  1  0.92149157  0.12252626  0.78567218  1
  O  O72  1  0.92493508  0.37697796  0.78438602  1
  O  O73  1  0.93224644  0.75067511  0.00493674  1
  O  O74  1  0.93836363  0.11413267  0.62434821  1
  O  O75  1  0.93620983  0.38576893  0.62441050  1
