# generated using pymatgen
data_Li2VO2F
_symmetry_space_group_name_H-M   'P 1'
_cell_length_a   2.94682192
_cell_length_b   7.93122852
_cell_length_c   5.16786370
_cell_angle_alpha   96.28804952
_cell_angle_beta   73.44297702
_cell_angle_gamma   79.29379865
_symmetry_Int_Tables_number   1
_chemical_formula_structural   Li2VO2F
_chemical_formula_sum   'Li4 V2 O4 F2'
_cell_volume   112.05423751
_cell_formula_units_Z   2
loop_
 _symmetry_equiv_pos_site_id
 _symmetry_equiv_pos_as_xyz
  1  'x, y, z'
loop_
 _atom_site_type_symbol
 _atom_site_label
 _atom_site_symmetry_multiplicity
 _atom_site_fract_x
 _atom_site_fract_y
 _atom_site_fract_z
 _atom_site_occupancy
  Li  Li0  1  0.83339804  0.83326558  0.49989423  1
  Li  Li1  1  0.50594133  0.50691666  0.48103927  1
  Li  Li2  1  0.16055491  0.15983041  0.51899704  1
  Li  Li3  1  0.33325015  0.33336828  0.00003214  1
  V  V4  1  0.66266234  0.66544209  0.00920818  1
  V  V5  1  0.00407720  0.00121525  0.99075432  1
  O  O6  1  0.23948637  0.74830246  0.77243178  1
  O  O7  1  0.42724493  0.91833657  0.22751231  1
  O  O8  1  0.09548264  0.58166048  0.22746862  1
  O  O9  1  0.57121715  0.08502347  0.77254161  1
  F  F10  1  0.91738012  0.41905789  0.74587563  1
  F  F11  1  0.74930383  0.24758186  0.25424488  1
