# generated using pymatgen
data_Mn3O5F
_symmetry_space_group_name_H-M   'P 1'
_cell_length_a   4.54121644
_cell_length_b   4.54121644
_cell_length_c   9.00405186
_cell_angle_alpha   89.64699358
_cell_angle_beta   90.35300642
_cell_angle_gamma   91.74577585
_symmetry_Int_Tables_number   1
_chemical_formula_structural   Mn3O5F
_chemical_formula_sum   'Mn6 O10 F2'
_cell_volume   185.59435491
_cell_formula_units_Z   2
loop_
 _symmetry_equiv_pos_site_id
 _symmetry_equiv_pos_as_xyz
  1  'x, y, z'
loop_
 _atom_site_type_symbol
 _atom_site_label
 _atom_site_symmetry_multiplicity
 _atom_site_fract_x
 _atom_site_fract_y
 _atom_site_fract_z
 _atom_site_occupancy
  Mn  Mn0  1  0.00616340  0.99383660  0.00685962  1
  Mn  Mn1  1  0.99383660  0.00616340  0.32647338  1
  Mn  Mn2  1  0.00000000  0.00000000  0.66666700  1
  Mn  Mn3  1  0.47689557  0.52310443  0.83413902  1
  Mn  Mn4  1  0.50000000  0.50000000  0.16666700  1
  Mn  Mn5  1  0.52310443  0.47689557  0.49919498  1
  O  O6  1  0.19356506  0.80643494  0.16794227  1
  O  O7  1  0.18854227  0.81145773  0.83699437  1
  O  O8  1  0.30117406  0.30914923  0.00055145  1
  O  O9  1  0.30914923  0.30117406  0.33278155  1
  O  O10  1  0.30752887  0.30752887  0.66666700  1
  O  O11  1  0.69085077  0.69882594  0.00055145  1
  O  O12  1  0.69882594  0.69085077  0.33278155  1
  O  O13  1  0.69247113  0.69247113  0.66666700  1
  O  O14  1  0.80643494  0.19356506  0.16539173  1
  O  O15  1  0.81145773  0.18854227  0.49633863  1
  F  F16  1  0.21000288  0.78999712  0.48940440  1
  F  F17  1  0.78999712  0.21000288  0.84392860  1
