# generated using pymatgen
data_Mn3O5F
_symmetry_space_group_name_H-M   'P 1'
_cell_length_a   7.17873250
_cell_length_b   5.46419159
_cell_length_c   5.46419159
_cell_angle_alpha   70.66632958
_cell_angle_beta   71.47891604
_cell_angle_gamma   71.47891604
_symmetry_Int_Tables_number   1
_chemical_formula_structural   Mn3O5F
_chemical_formula_sum   'Mn6 O10 F2'
_cell_volume   186.28912815
_cell_formula_units_Z   2
loop_
 _symmetry_equiv_pos_site_id
 _symmetry_equiv_pos_as_xyz
  1  'x, y, z'
loop_
 _atom_site_type_symbol
 _atom_site_label
 _atom_site_symmetry_multiplicity
 _atom_site_fract_x
 _atom_site_fract_y
 _atom_site_fract_z
 _atom_site_occupancy
  Mn  Mn0  1  0.83333300  0.66666700  0.66666700  1
  Mn  Mn1  1  0.67752711  0.33622650  0.33622650  1
  Mn  Mn2  1  0.33333300  0.66666700  0.66666700  1
  Mn  Mn3  1  0.15424497  0.32398533  0.32398533  1
  Mn  Mn4  1  0.51242203  0.00934767  0.00934767  1
  Mn  Mn5  1  0.98913889  0.99710750  0.99710750  1
  O  O6  1  0.66239709  0.02782162  0.64019576  1
  O  O7  1  0.33333300  0.36002137  0.97331163  1
  O  O8  1  0.63134775  0.56294919  0.56294919  1
  O  O9  1  0.96281117  0.22734005  0.22734005  1
  O  O10  1  0.70385483  0.10599395  0.10599395  1
  O  O11  1  0.03531925  0.77038481  0.77038481  1
  O  O12  1  0.33333300  0.97331163  0.36002137  1
  O  O13  1  0.66239709  0.64019576  0.02782162  1
  O  O14  1  0.00426891  0.30551238  0.69313724  1
  O  O15  1  0.00426891  0.69313724  0.30551238  1
  F  F16  1  0.29597538  0.91193028  0.91193028  1
  F  F17  1  0.37069162  0.42140272  0.42140272  1
