# generated using pymatgen
data_LiMn2(CoO4)2
_symmetry_space_group_name_H-M   'P 1'
_cell_length_a   5.68003482
_cell_length_b   5.76597519
_cell_length_c   5.63893631
_cell_angle_alpha   59.81163642
_cell_angle_beta   61.34732959
_cell_angle_gamma   89.96052066
_symmetry_Int_Tables_number   1
_chemical_formula_structural   LiMn2(CoO4)2
_chemical_formula_sum   'Li1 Mn2 Co2 O8'
_cell_volume   132.86219111
_cell_formula_units_Z   1
loop_
 _symmetry_equiv_pos_site_id
 _symmetry_equiv_pos_as_xyz
  1  'x, y, z'
loop_
 _atom_site_type_symbol
 _atom_site_label
 _atom_site_symmetry_multiplicity
 _atom_site_fract_x
 _atom_site_fract_y
 _atom_site_fract_z
 _atom_site_occupancy
  Li  Li0  1  0.50000000  0.50000000  0.00000000  1
  Mn  Mn1  1  0.00000000  0.50000000  0.50000000  1
  Mn  Mn2  1  0.50000000  0.00000000  0.00000000  1
  Co  Co3  1  0.00000000  0.00000000  0.50000000  1
  Co  Co4  1  0.00000000  0.00000000  0.00000000  1
  O  O5  1  0.76414000  0.79088834  0.96703163  1
  O  O6  1  0.23433300  0.76665321  0.47737829  1
  O  O7  1  0.20868707  0.23502054  0.52311444  1
  O  O8  1  0.23946865  0.75936483  0.02785030  1
  O  O9  1  0.76053135  0.24063517  0.97214970  1
  O  O10  1  0.79131293  0.76497946  0.47688556  1
  O  O11  1  0.76566700  0.23334679  0.52262171  1
  O  O12  1  0.23586000  0.20911166  0.03296837  1
