# generated using pymatgen
data_Li10Mn3F16
_symmetry_space_group_name_H-M   'P 1'
_cell_length_a   6.07757909
_cell_length_b   10.26285998
_cell_length_c   6.07764237
_cell_angle_alpha   107.23151533
_cell_angle_beta   59.99308912
_cell_angle_gamma   107.23158119
_symmetry_Int_Tables_number   1
_chemical_formula_structural   Li10Mn3F16
_chemical_formula_sum   'Li10 Mn3 F16'
_cell_volume   308.47175211
_cell_formula_units_Z   1
loop_
 _symmetry_equiv_pos_site_id
 _symmetry_equiv_pos_as_xyz
  1  'x, y, z'
loop_
 _atom_site_type_symbol
 _atom_site_label
 _atom_site_symmetry_multiplicity
 _atom_site_fract_x
 _atom_site_fract_y
 _atom_site_fract_z
 _atom_site_occupancy
  Li  Li0  1  0.25507985  0.74720707  0.74608794  1
  Li  Li1  1  0.25391694  0.25280924  0.25391511  1
  Li  Li2  1  0.00000343  0.99999317  0.49998367  1
  Li  Li3  1  0.74610430  0.74720437  0.25507837  1
  Li  Li4  1  0.49999812  0.49998522  0.49999578  1
  Li  Li5  1  0.49998516  0.99999282  0.99999698  1
  Li  Li6  1  0.25390749  0.25279068  0.74491483  1
  Li  Li7  1  0.50000044  0.99999572  0.50000296  1
  Li  Li8  1  0.74493074  0.25279248  0.25391433  1
  Li  Li9  1  0.74608701  0.74718373  0.74607297  1
  Mn  Mn10  1  0.19171759  0.57517751  0.19171200  1
  Mn  Mn11  1  0.99998610  0.00000620  0.99998911  1
  Mn  Mn12  1  0.80830124  0.42490614  0.80833905  1
  F  F13  1  0.12305486  0.87649194  0.12307893  1
  F  F14  1  0.12298401  0.87629097  0.63035178  1
  F  F15  1  0.12025740  0.36120256  0.12022200  1
  F  F16  1  0.15695381  0.36824551  0.60567167  1
  F  F17  1  0.39434180  0.63153805  0.39432445  1
  F  F18  1  0.63034425  0.87629578  0.12298299  1
  F  F19  1  0.39435407  0.63175560  0.84301167  1
  F  F20  1  0.37247628  0.11715218  0.37248249  1
  F  F21  1  0.62751474  0.88283581  0.62752903  1
  F  F22  1  0.60566604  0.36823901  0.15697469  1
  F  F23  1  0.36964172  0.12367968  0.87701170  1
  F  F24  1  0.60568047  0.36845242  0.60568672  1
  F  F25  1  0.84302046  0.63174854  0.39433750  1
  F  F26  1  0.87976328  0.63883351  0.87978328  1
  F  F27  1  0.87700694  0.12368704  0.36963591  1
  F  F28  1  0.87692747  0.12350605  0.87690408  1
