# generated using pymatgen
data_LiFeBO3
_symmetry_space_group_name_H-M   'P 1'
_cell_length_a   14.47145282
_cell_length_b   14.46426327
_cell_length_c   3.16102954
_cell_angle_alpha   89.28442422
_cell_angle_beta   90.79041470
_cell_angle_gamma   119.92220371
_symmetry_Int_Tables_number   1
_chemical_formula_structural   LiFeBO3
_chemical_formula_sum   'Li9 Fe9 B9 O27'
_cell_volume   573.39927494
_cell_formula_units_Z   9
loop_
 _symmetry_equiv_pos_site_id
 _symmetry_equiv_pos_as_xyz
  1  'x, y, z'
loop_
 _atom_site_type_symbol
 _atom_site_label
 _atom_site_symmetry_multiplicity
 _atom_site_fract_x
 _atom_site_fract_y
 _atom_site_fract_z
 _atom_site_occupancy
  Li  Li0  1  0.09967699  0.88319216  0.50817204  1
  Li  Li1  1  0.11521739  0.56256178  0.48643623  1
  Li  Li2  1  0.44705553  0.88404896  0.56050117  1
  Li  Li3  1  0.11610123  0.21638246  0.50593356  1
  Li  Li4  1  0.43685748  0.55377799  0.44951976  1
  Li  Li5  1  0.45328289  0.25088479  0.50312219  1
  Li  Li6  1  0.78344963  0.90036483  0.49412156  1
  Li  Li7  1  0.79676938  0.54635801  0.48933430  1
  Li  Li8  1  0.74841151  0.20252623  0.50054208  1
  Fe  Fe9  1  0.24742912  0.80450561  0.06442806  1
  Fe  Fe10  1  0.19403876  0.44214971  0.00795679  1
  Fe  Fe11  1  0.22572600  0.11284167  0.01063910  1
  Fe  Fe12  1  0.55717523  0.75339082  0.94097120  1
  Fe  Fe13  1  0.56986709  0.46437700  0.97451465  1
  Fe  Fe14  1  0.53478468  0.10580592  0.02251826  1
  Fe  Fe15  1  0.88632478  0.77417394  0.98581635  1
  Fe  Fe16  1  0.89321863  0.42906968  0.98740144  1
  Fe  Fe17  1  0.88705031  0.11313301  0.00962542  1
  B  B18  1  0.00868217  0.66262494  0.99640706  1
  B  B19  1  0.33337326  0.66701798  0.00060755  1
  B  B20  1  0.33648753  0.34622050  0.98657657  1
  B  B21  1  0.65359910  0.99094430  0.01582564  1
  B  B22  1  0.33189383  0.01373708  0.53056685  1
  B  B23  1  0.68078338  0.66770325  0.46697131  1
  B  B24  1  0.66597399  0.33297030  0.99815346  1
  B  B25  1  0.99968407  0.99973493  0.00704148  1
  B  B26  1  0.98525815  0.31798421  0.50358233  1
  O  O27  1  0.01990749  0.91522417  0.01021906  1
  O  O28  1  0.02114109  0.57315789  0.97024561  1
  O  O29  1  0.09643579  0.76305137  0.07719829  1
  O  O30  1  0.32120436  0.91340093  0.56354289  1
  O  O31  1  0.08558675  0.40771298  0.50369264  1
  O  O32  1  0.22568129  0.59260238  0.00747056  1
  O  O33  1  0.36701135  0.77347108  0.07245259  1
  O  O34  1  0.08393585  0.10425115  0.02470374  1
  O  O35  1  0.55183549  0.97815905  0.05482968  1
  O  O36  1  0.23550636  0.33282636  0.05667162  1
  O  O37  1  0.40693169  0.63494471  0.92166226  1
  O  O38  1  0.66633156  0.90405784  0.91899891  1
  O  O39  1  0.34896113  0.25739402  0.94563140  1
  O  O40  1  0.42555114  0.44836324  0.96000670  1
  O  O41  1  0.24144370  0.02426560  0.51473971  1
  O  O42  1  0.59129832  0.67887832  0.44666060  1
  O  O43  1  0.66803072  0.56566897  0.47432602  1
  O  O44  1  0.43364685  0.10291610  0.51381001  1
  O  O45  1  0.89509015  0.97958458  0.98642295  1
  O  O46  1  0.78170429  0.75791809  0.48045540  1
  O  O47  1  0.56707816  0.32643903  0.00947162  1
  O  O48  1  0.67255316  0.24059546  0.98414175  1
  O  O49  1  0.75820845  0.43192092  0.00063272  1
  O  O50  1  0.90759070  0.65055977  0.94445368  1
  O  O51  1  0.74258929  0.09148884  0.06957124  1
  O  O52  1  0.89583216  0.33040532  0.49586415  1
  O  O53  1  0.97521363  0.21716977  0.51065576  1
