# generated using pymatgen
data_Li2Mn2CoO6
_symmetry_space_group_name_H-M   'P 1'
_cell_length_a   6.52990080
_cell_length_b   5.93957511
_cell_length_c   5.92992226
_cell_angle_alpha   91.68113523
_cell_angle_beta   105.67620830
_cell_angle_gamma   76.68673925
_symmetry_Int_Tables_number   1
_chemical_formula_structural   Li2Mn2CoO6
_chemical_formula_sum   'Li4 Mn4 Co2 O12'
_cell_volume   215.35259792
_cell_formula_units_Z   2
loop_
 _symmetry_equiv_pos_site_id
 _symmetry_equiv_pos_as_xyz
  1  'x, y, z'
loop_
 _atom_site_type_symbol
 _atom_site_label
 _atom_site_symmetry_multiplicity
 _atom_site_fract_x
 _atom_site_fract_y
 _atom_site_fract_z
 _atom_site_occupancy
  Li  Li0  1  0.99349562  0.49052348  0.48632574  1
  Li  Li1  1  0.33333300  0.16666700  0.83333300  1
  Li  Li2  1  0.33333300  0.66666700  0.83333300  1
  Li  Li3  1  0.67317138  0.84280952  0.18034026  1
  Mn  Mn4  1  -0.00010002  0.49780229  0.00702950  1
  Mn  Mn5  1  0.99553340  0.99897750  0.01586676  1
  Mn  Mn6  1  0.67113260  0.33435550  0.65079924  1
  Mn  Mn7  1  0.66676702  0.83553171  0.65963650  1
  Co  Co8  1  0.33333300  0.16666700  0.33333300  1
  Co  Co9  1  0.33333300  0.66666700  0.33333300  1
  O  O10  1  0.35140640  0.41749584  0.55749688  1
  O  O11  1  0.35367253  0.91600884  0.55963375  1
  O  O12  1  0.67772346  0.05726563  0.90554007  1
  O  O13  1  0.67663372  0.59151173  0.88273151  1
  O  O14  1  0.31299447  0.41732416  0.10703325  1
  O  O15  1  0.31525960  0.91583816  0.10917012  1
  O  O16  1  0.64780349  0.07507910  0.44002914  1
  O  O17  1  0.64942883  0.61613179  0.41944421  1
  O  O18  1  0.98894354  0.27606737  0.76112693  1
  O  O19  1  0.99003228  0.74182227  0.78393549  1
  O  O20  1  0.01886351  0.25825390  0.22663786  1
  O  O21  1  0.01723817  0.71720221  0.24722279  1
