# generated using pymatgen
data_Ta2CN
_symmetry_space_group_name_H-M   'P 1'
_cell_length_a   6.28933613
_cell_length_b   8.34167337
_cell_length_c   5.47975750
_cell_angle_alpha   29.16114128
_cell_angle_beta   54.97946930
_cell_angle_gamma   41.06490497
_symmetry_Int_Tables_number   1
_chemical_formula_structural   Ta2CN
_chemical_formula_sum   'Ta4 C2 N2'
_cell_volume   88.75575175
_cell_formula_units_Z   2
loop_
 _symmetry_equiv_pos_site_id
 _symmetry_equiv_pos_as_xyz
  1  'x, y, z'
loop_
 _atom_site_type_symbol
 _atom_site_label
 _atom_site_symmetry_multiplicity
 _atom_site_fract_x
 _atom_site_fract_y
 _atom_site_fract_z
 _atom_site_occupancy
  Ta  Ta0  1  0.99042634  0.00000000  0.01914732  1
  Ta  Ta1  1  0.50957366  1.00000000  0.98085268  1
  Ta  Ta2  1  0.25957366  0.50000000  0.98085268  1
  Ta  Ta3  1  0.74042634  0.50000000  0.01914732  1
  C  C4  1  0.75000000  -0.00000000  0.50000000  1
  C  C5  1  0.50000000  0.50000000  0.50000000  1
  N  N6  1  0.25000000  0.00000000  0.50000000  1
  N  N7  1  0.00000000  0.50000000  0.50000000  1
