# generated using pymatgen
data_Li4V2Fe3Sb3O16
_symmetry_space_group_name_H-M   'P 1'
_cell_length_a   6.13542539
_cell_length_b   6.14400565
_cell_length_c   9.77365263
_cell_angle_alpha   90.18595798
_cell_angle_beta   91.11186028
_cell_angle_gamma   119.19893025
_symmetry_Int_Tables_number   1
_chemical_formula_structural   Li4V2Fe3Sb3O16
_chemical_formula_sum   'Li4 V2 Fe3 Sb3 O16'
_cell_volume   321.51803988
_cell_formula_units_Z   1
loop_
 _symmetry_equiv_pos_site_id
 _symmetry_equiv_pos_as_xyz
  1  'x, y, z'
loop_
 _atom_site_type_symbol
 _atom_site_label
 _atom_site_symmetry_multiplicity
 _atom_site_fract_x
 _atom_site_fract_y
 _atom_site_fract_z
 _atom_site_occupancy
  Li  Li0  1  0.32618956  0.65978496  0.88287246  1
  Li  Li1  1  0.97320511  0.98767594  0.98773402  1
  Li  Li2  1  0.98425065  0.99053478  0.50326127  1
  Li  Li3  1  0.64909829  0.32397729  0.40126880  1
  V  V4  1  0.34904424  0.67950811  0.49903092  1
  V  V5  1  0.69427493  0.34480275  0.97585057  1
  Fe  Fe6  1  0.66460609  0.83211956  0.21484417  1
  Fe  Fe7  1  0.83435505  0.66420444  0.71212935  1
  Fe  Fe8  1  0.83302754  0.17135534  0.71294568  1
  Sb  Sb9  1  0.16999925  0.83283148  0.21390171  1
  Sb  Sb10  1  0.17060641  0.33902599  0.21488442  1
  Sb  Sb11  1  0.34294440  0.17073823  0.71413231  1
  O  O12  1  0.18016191  0.85250546  0.59736312  1
  O  O13  1  0.03542699  0.52186872  0.33742736  1
  O  O14  1  0.31479890  0.65570294  0.10064263  1
  O  O15  1  0.01830526  0.01187081  0.31766976  1
  O  O16  1  0.01602975  0.01678961  0.80740521  1
  O  O17  1  0.17145606  0.33051763  0.60049521  1
  O  O18  1  0.46808055  0.96017995  0.33752383  1
  O  O19  1  0.46587917  0.50490017  0.33947394  1
  O  O20  1  0.31747665  0.15716554  0.10270509  1
  O  O21  1  0.66970608  0.84258844  0.59547924  1
  O  O22  1  0.50555724  0.46095520  0.85005989  1
  O  O23  1  0.52003648  0.03506252  0.83982996  1
  O  O24  1  0.65358785  0.31879327  0.60281486  1
  O  O25  1  0.85806921  0.68705664  0.10070851  1
  O  O26  1  0.95766966  0.46889511  0.84419235  1
  O  O27  1  0.85615673  0.17889011  0.10119335  1
