# generated using pymatgen
data_Ba3(BO3)2
_symmetry_space_group_name_H-M   'P 1'
_cell_length_a   7.15440102
_cell_length_b   5.27462218
_cell_length_c   10.30437163
_cell_angle_alpha   90.00000000
_cell_angle_beta   90.00000000
_cell_angle_gamma   90.00000000
_symmetry_Int_Tables_number   1
_chemical_formula_structural   Ba3(BO3)2
_chemical_formula_sum   'Ba6 B4 O12'
_cell_volume   388.85362290
_cell_formula_units_Z   2
loop_
 _symmetry_equiv_pos_site_id
 _symmetry_equiv_pos_as_xyz
  1  'x, y, z'
loop_
 _atom_site_type_symbol
 _atom_site_label
 _atom_site_symmetry_multiplicity
 _atom_site_fract_x
 _atom_site_fract_y
 _atom_site_fract_z
 _atom_site_occupancy
  Ba  Ba0  1  0.00000000  0.00000000  0.00000000  1
  Ba  Ba1  1  0.00000000  0.50000000  0.31080469  1
  Ba  Ba2  1  0.00000000  0.50000000  0.68919531  1
  Ba  Ba3  1  0.50000000  0.00000000  0.81080469  1
  Ba  Ba4  1  0.50000000  0.00000000  0.18919531  1
  Ba  Ba5  1  0.50000000  0.50000000  0.50000000  1
  B  B6  1  0.23432401  0.02849109  0.50000000  1
  B  B7  1  0.26567599  0.52849109  0.00000000  1
  B  B8  1  0.73432401  0.47150891  0.00000000  1
  B  B9  1  0.76567599  0.97150891  0.50000000  1
  O  O10  1  0.18987240  0.77196587  0.50000000  1
  O  O11  1  0.23450614  0.65828761  0.88256654  1
  O  O12  1  0.23450614  0.65828761  0.11743346  1
  O  O13  1  0.26549386  0.15828761  0.38256654  1
  O  O14  1  0.26549386  0.15828761  0.61743346  1
  O  O15  1  0.31012760  0.27196587  0.00000000  1
  O  O16  1  0.68987240  0.72803413  0.00000000  1
  O  O17  1  0.73450614  0.84171239  0.61743346  1
  O  O18  1  0.73450614  0.84171239  0.38256654  1
  O  O19  1  0.76549386  0.34171239  0.11743346  1
  O  O20  1  0.76549386  0.34171239  0.88256654  1
  O  O21  1  0.81012760  0.22803413  0.50000000  1
