# generated using pymatgen
data_LiMnF3
_symmetry_space_group_name_H-M   'P 1'
_cell_length_a   5.97504674
_cell_length_b   5.97504674
_cell_length_c   12.14397364
_cell_angle_alpha   75.75387930
_cell_angle_beta   104.24612070
_cell_angle_gamma   119.98370488
_symmetry_Int_Tables_number   1
_chemical_formula_structural   LiMnF3
_chemical_formula_sum   'Li6 Mn6 F18'
_cell_volume   360.04774418
_cell_formula_units_Z   6
loop_
 _symmetry_equiv_pos_site_id
 _symmetry_equiv_pos_as_xyz
  1  'x, y, z'
loop_
 _atom_site_type_symbol
 _atom_site_label
 _atom_site_symmetry_multiplicity
 _atom_site_fract_x
 _atom_site_fract_y
 _atom_site_fract_z
 _atom_site_occupancy
  Li  Li0  1  0.43630992  0.75029085  0.75004181  1
  Li  Li1  1  0.06454334  0.06454334  0.75000000  1
  Li  Li2  1  0.24970915  0.56369008  0.25004181  1
  Li  Li3  1  0.75029085  0.43630992  0.74995819  1
  Li  Li4  1  0.93545666  0.93545666  0.25000000  1
  Li  Li5  1  0.56369008  0.24970915  0.24995819  1
  Mn  Mn6  1  0.00000000  0.50000000  0.50000000  1
  Mn  Mn7  1  0.65610071  0.84399014  0.46820200  1
  Mn  Mn8  1  0.84399014  0.65610071  0.03179800  1
  Mn  Mn9  1  0.15600986  0.34389929  0.96820200  1
  Mn  Mn10  1  0.34389929  0.15600986  0.53179800  1
  Mn  Mn11  1  0.50000000  0.00000000  0.00000000  1
  F  F12  1  0.36663358  0.79111316  0.57609390  1
  F  F13  1  0.49950911  0.70908292  0.92389168  1
  F  F14  1  0.09202689  0.40818936  0.77569410  1
  F  F15  1  0.20888684  0.63336642  0.07609390  1
  F  F16  1  0.29091708  0.50049089  0.42389168  1
  F  F17  1  0.00050790  0.13355844  0.57599242  1
  F  F18  1  0.75025157  0.75025157  0.75000000  1
  F  F19  1  0.13355844  0.00050790  0.92400758  1
  F  F20  1  0.59181064  0.90797311  0.27569410  1
  F  F21  1  0.40818936  0.09202689  0.72430590  1
  F  F22  1  0.86644156  0.99949210  0.07599242  1
  F  F23  1  0.24974843  0.24974843  0.25000000  1
  F  F24  1  0.99949210  0.86644156  0.42400758  1
  F  F25  1  0.70908292  0.49950911  0.57610832  1
  F  F26  1  0.79111316  0.36663358  0.92390610  1
  F  F27  1  0.90797311  0.59181064  0.22430590  1
  F  F28  1  0.50049089  0.29091708  0.07610832  1
  F  F29  1  0.63336642  0.20888684  0.42390610  1
