# generated using pymatgen
data_Ni(IO3)2
_symmetry_space_group_name_H-M   'P 1'
_cell_length_a   5.61410060
_cell_length_b   17.86165832
_cell_length_c   5.43522932
_cell_angle_alpha   90.00000000
_cell_angle_beta   90.00000000
_cell_angle_gamma   90.00000000
_symmetry_Int_Tables_number   1
_chemical_formula_structural   Ni(IO3)2
_chemical_formula_sum   'Ni4 I8 O24'
_cell_volume   545.02928782
_cell_formula_units_Z   4
loop_
 _symmetry_equiv_pos_site_id
 _symmetry_equiv_pos_as_xyz
  1  'x, y, z'
loop_
 _atom_site_type_symbol
 _atom_site_label
 _atom_site_symmetry_multiplicity
 _atom_site_fract_x
 _atom_site_fract_y
 _atom_site_fract_z
 _atom_site_occupancy
  Ni  Ni0  1  0.16695272  0.10706337  0.72062916  1
  Ni  Ni1  1  0.33304728  0.89293663  0.22062916  1
  Ni  Ni2  1  0.66695272  0.39293663  0.27937084  1
  Ni  Ni3  1  0.83304728  0.60706337  0.77937084  1
  I  I4  1  0.14592873  0.42372534  0.99091750  1
  I  I5  1  0.23495657  0.20271499  0.25763748  1
  I  I6  1  0.26504343  0.79728501  0.75763748  1
  I  I7  1  0.35407127  0.57627466  0.49091750  1
  I  I8  1  0.64592873  0.07627466  0.00908250  1
  I  I9  1  0.73495657  0.29728501  0.74236252  1
  I  I10  1  0.76504343  0.70271499  0.24236252  1
  I  I11  1  0.85407127  0.92372534  0.50908250  1
  O  O12  1  0.02187209  0.33004302  0.08649864  1
  O  O13  1  0.03233560  0.15556706  0.03517248  1
  O  O14  1  0.02376127  0.19992392  0.52061757  1
  O  O15  1  0.12029220  0.97217034  0.39463862  1
  O  O16  1  0.11328721  0.88028843  0.89117832  1
  O  O17  1  0.16104638  0.55322314  0.76226691  1
  O  O18  1  0.33895362  0.44677686  0.26226691  1
  O  O19  1  0.38671279  0.11971157  0.39117832  1
  O  O20  1  0.37970780  0.02782966  0.89463862  1
  O  O21  1  0.47623873  0.80007608  0.02061757  1
  O  O22  1  0.46766440  0.84443294  0.53517248  1
  O  O23  1  0.47812791  0.66995698  0.58649864  1
  O  O24  1  0.52187209  0.16995698  0.91350136  1
  O  O25  1  0.53233560  0.34443294  0.96482752  1
  O  O26  1  0.52376127  0.30007608  0.47938243  1
  O  O27  1  0.62029220  0.52782966  0.60536138  1
  O  O28  1  0.61328721  0.61971157  0.10882168  1
  O  O29  1  0.66104638  0.94677686  0.23773309  1
  O  O30  1  0.83895362  0.05322314  0.73773309  1
  O  O31  1  0.88671279  0.38028843  0.60882168  1
  O  O32  1  0.87970780  0.47217034  0.10536138  1
  O  O33  1  0.97623873  0.69992392  0.97938243  1
  O  O34  1  0.96766440  0.65556706  0.46482752  1
  O  O35  1  0.97812791  0.83004302  0.41350136  1
