# generated using pymatgen
data_Na5V2P(CO4)4
_symmetry_space_group_name_H-M   'P 1'
_cell_length_a   9.94322927
_cell_length_b   10.01624435
_cell_length_c   9.94322927
_cell_angle_alpha   59.41788135
_cell_angle_beta   91.43355034
_cell_angle_gamma   120.58211865
_symmetry_Int_Tables_number   1
_chemical_formula_structural   Na5V2P(CO4)4
_chemical_formula_sum   'Na10 V4 P2 C8 O32'
_cell_volume   696.46356060
_cell_formula_units_Z   2
loop_
 _symmetry_equiv_pos_site_id
 _symmetry_equiv_pos_as_xyz
  1  'x, y, z'
loop_
 _atom_site_type_symbol
 _atom_site_label
 _atom_site_symmetry_multiplicity
 _atom_site_fract_x
 _atom_site_fract_y
 _atom_site_fract_z
 _atom_site_occupancy
  Na  Na0  1  0.68432385  0.34512872  0.08222636  1
  Na  Na1  1  0.91777364  0.84512872  0.31567615  1
  Na  Na2  1  0.33811379  0.26768105  0.31482489  1
  Na  Na3  1  0.91749406  0.23231895  0.92956727  1
  Na  Na4  1  0.07043273  0.73231895  0.08250594  1
  Na  Na5  1  0.07264492  0.15487128  0.66080487  1
  Na  Na6  1  0.68517511  0.76768105  0.66188621  1
  Na  Na7  1  0.32812412  0.25000000  0.92187588  1
  Na  Na8  1  0.33919513  0.65487128  0.92735508  1
  Na  Na9  1  0.07812412  0.75000000  0.67187588  1
  V  V10  1  0.50028542  0.99745871  0.00293424  1
  V  V11  1  0.50282671  0.00254129  0.50039295  1
  V  V12  1  0.49960705  0.50254129  0.49717329  1
  V  V13  1  0.99706576  0.49745871  0.49971458  1
  P  P14  1  0.12731590  0.25000000  0.12268410  1
  P  P15  1  0.87731590  0.75000000  0.87268410  1
  C  C16  1  0.71231445  0.07369720  0.71869974  1
  C  C17  1  0.70760306  0.42630280  0.36138275  1
  C  C18  1  0.35982382  0.07381146  0.71186038  1
  C  C19  1  0.71432716  0.42618854  0.71398764  1
  C  C20  1  0.63861725  0.92630280  0.29239694  1
  C  C21  1  0.28130026  0.57369720  0.28768555  1
  C  C22  1  0.28601236  0.92618854  0.28567284  1
  C  C23  1  0.28813962  0.57381146  0.64017518  1
  O  O24  1  0.64069830  0.04264624  0.14708127  1
  O  O25  1  0.85485327  0.21004893  0.60871249  1
  O  O26  1  0.68123858  0.28995107  0.35519566  1
  O  O27  1  0.40019068  0.04219904  0.31384499  1
  O  O28  1  0.85291873  0.54264624  0.35930170  1
  O  O29  1  0.32064765  0.37813804  0.05730347  1
  O  O30  1  0.06455849  0.12186196  0.05749139  1
  O  O31  1  0.68185944  0.04628247  0.85902158  1
  O  O32  1  0.59469495  0.45371753  0.36442303  1
  O  O33  1  0.35775208  0.04308796  0.59938616  1
  O  O34  1  0.85752588  0.45691204  0.68533688  1
  O  O35  1  0.06865722  0.38203511  0.04969868  1
  O  O36  1  0.06826621  0.11796489  0.31337788  1
  O  O37  1  0.64480434  0.78995107  0.31876142  1
  O  O38  1  0.39128751  0.71004893  0.14514673  1
  O  O39  1  0.68615501  0.54219904  0.59980932  1
  O  O40  1  0.31027249  0.45735376  0.40194694  1
  O  O41  1  0.35733152  0.21278587  0.68492146  1
  O  O42  1  0.60229267  0.28721413  0.85545535  1
  O  O43  1  0.94250861  0.62186196  0.93544151  1
  O  O44  1  0.94269653  0.87813804  0.67935235  1
  O  O45  1  0.14097842  0.54628247  0.31814056  1
  O  O46  1  0.63557697  0.95371753  0.40530505  1
  O  O47  1  0.31466312  0.95691204  0.14247412  1
  O  O48  1  0.40061384  0.54308796  0.64224792  1
  O  O49  1  0.95030132  0.88203511  0.93134278  1
  O  O50  1  0.68662212  0.61796489  0.93173379  1
  O  O51  1  0.14395597  0.45780096  0.64200836  1
  O  O52  1  0.59805306  0.95735376  0.68972751  1
  O  O53  1  0.31507854  0.71278587  0.64266848  1
  O  O54  1  0.14454465  0.78721413  0.39770733  1
  O  O55  1  0.35799164  0.95780096  0.85604403  1
