# generated using pymatgen
data_Fe5O3F7
_symmetry_space_group_name_H-M   'P 1'
_cell_length_a   4.79750715
_cell_length_b   4.79750715
_cell_length_c   15.68223091
_cell_angle_alpha   89.69444144
_cell_angle_beta   89.69444144
_cell_angle_gamma   91.39171291
_symmetry_Int_Tables_number   1
_chemical_formula_structural   Fe5O3F7
_chemical_formula_sum   'Fe10 O6 F14'
_cell_volume   360.82640854
_cell_formula_units_Z   2
loop_
 _symmetry_equiv_pos_site_id
 _symmetry_equiv_pos_as_xyz
  1  'x, y, z'
loop_
 _atom_site_type_symbol
 _atom_site_label
 _atom_site_symmetry_multiplicity
 _atom_site_fract_x
 _atom_site_fract_y
 _atom_site_fract_z
 _atom_site_occupancy
  Fe  Fe0  1  0.97905173  0.95400212  0.99397925  1
  Fe  Fe1  1  0.03425934  0.03457093  0.19920650  1
  Fe  Fe2  1  0.96542907  0.96574066  0.40079350  1
  Fe  Fe3  1  0.04599788  0.02094827  0.60602075  1
  Fe  Fe4  1  0.02893895  0.97106105  0.80000000  1
  Fe  Fe5  1  0.50059370  0.49309775  0.10079290  1
  Fe  Fe6  1  0.50690225  0.49940630  0.49920710  1
  Fe  Fe7  1  0.50098062  0.49901938  0.30000000  1
  Fe  Fe8  1  0.47392713  0.51414392  0.69523401  1
  Fe  Fe9  1  0.48585608  0.52607287  0.90476599  1
  O  O10  1  0.18999777  0.81983686  0.70054590  1
  O  O11  1  0.18016314  0.81000223  0.89945410  1
  O  O12  1  0.33292476  0.33037435  0.20024171  1
  O  O13  1  0.31033796  0.31039516  0.58964043  1
  O  O14  1  0.68960484  0.68966204  0.01035957  1
  O  O15  1  0.66962565  0.66707524  0.39975829  1
  F  F16  1  0.19855594  0.79844087  0.09635525  1
  F  F17  1  0.20555697  0.79444303  0.30000000  1
  F  F18  1  0.20155913  0.80144406  0.50364475  1
  F  F19  1  0.28289355  0.28366511  0.00920912  1
  F  F20  1  0.28871234  0.28653192  0.39819600  1
  F  F21  1  0.29294313  0.30204317  0.80260312  1
  F  F22  1  0.71346808  0.71128766  0.20180400  1
  F  F23  1  0.71633489  0.71710645  0.59079088  1
  F  F24  1  0.69795683  0.70705687  0.79739688  1
  F  F25  1  0.80289876  0.19571095  0.09497980  1
  F  F26  1  0.80428905  0.19710124  0.50502020  1
  F  F27  1  0.79527706  0.20472294  0.30000000  1
  F  F28  1  0.79519633  0.19023294  0.89893326  1
  F  F29  1  0.80976706  0.20480367  0.70106674  1
