# generated using pymatgen
data_Li5Fe3O8
_symmetry_space_group_name_H-M   'P 1'
_cell_length_a   5.85348103
_cell_length_b   5.81015556
_cell_length_c   9.90420968
_cell_angle_alpha   91.00290093
_cell_angle_beta   89.08673134
_cell_angle_gamma   119.91420077
_symmetry_Int_Tables_number   1
_chemical_formula_structural   Li5Fe3O8
_chemical_formula_sum   'Li10 Fe6 O16'
_cell_volume   291.90779816
_cell_formula_units_Z   2
loop_
 _symmetry_equiv_pos_site_id
 _symmetry_equiv_pos_as_xyz
  1  'x, y, z'
loop_
 _atom_site_type_symbol
 _atom_site_label
 _atom_site_symmetry_multiplicity
 _atom_site_fract_x
 _atom_site_fract_y
 _atom_site_fract_z
 _atom_site_occupancy
  Li  Li0  1  0.18732088  0.82300851  0.05000901  1
  Li  Li1  1  0.35963966  0.67517409  0.53362494  1
  Li  Li2  1  0.34605005  0.66078352  0.28153114  1
  Li  Li3  1  0.68354367  0.82555183  0.04702763  1
  Li  Li4  1  0.85651179  0.67385419  0.55071414  1
  Li  Li5  1  0.18208576  0.32130143  0.04942261  1
  Li  Li6  1  0.36407293  0.18035124  0.55014054  1
  Li  Li7  1  0.68544055  0.34096372  0.78161680  1
  Li  Li8  1  0.67489940  0.31534140  0.03307831  1
  Li  Li9  1  0.86014871  0.17397809  0.54908869  1
  Fe  Fe10  1  0.84567995  0.66001184  0.28664169  1
  Fe  Fe11  1  0.18550169  0.34134228  0.78756815  1
  Fe  Fe12  1  0.68396172  0.83973636  0.78681560  1
  Fe  Fe13  1  0.84559335  0.16194014  0.28706990  1
  Fe  Fe14  1  0.18552275  0.84035111  0.78701922  1
  Fe  Fe15  1  0.34657365  0.16116995  0.28775464  1
  O  O16  1  0.02456644  0.01200793  0.66706258  1
  O  O17  1  0.17729384  0.84375140  0.39397392  1
  O  O18  1  0.51193550  0.98806942  0.67763394  1
  O  O19  1  0.34662431  0.66713123  0.90985875  1
  O  O20  1  0.69501383  0.83423880  0.39663671  1
  O  O21  1  0.03889727  0.52631341  0.67427659  1
  O  O22  1  0.52404646  0.52671798  0.67493846  1
  O  O23  1  0.85646080  0.68865912  0.89225793  1
  O  O24  1  0.18260956  0.31694790  0.39626919  1
  O  O25  1  0.51760541  0.47713829  0.17625449  1
  O  O26  1  0.99534038  0.48681288  0.17367511  1
  O  O27  1  0.00930683  0.99145000  0.16775680  1
  O  O28  1  0.68572847  0.33178365  0.40953476  1
  O  O29  1  0.33417243  0.15362568  0.89672908  1
  O  O30  1  0.51219606  0.00865682  0.17581059  1
  O  O31  1  0.84422089  0.15181882  0.89724009  1
