# generated using pymatgen
data_Li9Cr2(H9O7)3
_symmetry_space_group_name_H-M   'P 1'
_cell_length_a   8.39934729
_cell_length_b   10.82613581
_cell_length_c   10.94635342
_cell_angle_alpha   73.75815053
_cell_angle_beta   87.80890810
_cell_angle_gamma   68.65421339
_symmetry_Int_Tables_number   1
_chemical_formula_structural   Li9Cr2(H9O7)3
_chemical_formula_sum   'Li18 Cr4 H54 O42'
_cell_volume   887.84360641
_cell_formula_units_Z   2
loop_
 _symmetry_equiv_pos_site_id
 _symmetry_equiv_pos_as_xyz
  1  'x, y, z'
loop_
 _atom_site_type_symbol
 _atom_site_label
 _atom_site_symmetry_multiplicity
 _atom_site_fract_x
 _atom_site_fract_y
 _atom_site_fract_z
 _atom_site_occupancy
  Li  Li0  1  0.01723754  0.41033358  0.62730467  1
  Li  Li1  1  0.20182859  0.33153929  0.36407353  1
  Li  Li2  1  0.19902703  0.32059119  0.85902086  1
  Li  Li3  1  0.42699015  0.02606909  0.36306782  1
  Li  Li4  1  0.41297819  0.03242597  0.86394283  1
  Li  Li5  1  0.43462822  0.51041556  0.36732664  1
  Li  Li6  1  0.42011688  0.51414716  0.87990473  1
  Li  Li7  1  0.58396613  0.22368563  0.38257159  1
  Li  Li8  1  0.56419901  0.22295632  0.88266797  1
  Li  Li9  1  0.43580099  0.77704368  0.11733203  1
  Li  Li10  1  0.41603387  0.77631437  0.61742841  1
  Li  Li11  1  0.57988312  0.48585284  0.12009527  1
  Li  Li12  1  0.56537178  0.48958444  0.63267336  1
  Li  Li13  1  0.58702181  0.96757403  0.13605717  1
  Li  Li14  1  0.57300985  0.97393091  0.63693218  1
  Li  Li15  1  0.80097297  0.67940881  0.14097914  1
  Li  Li16  1  0.79817141  0.66846071  0.63592647  1
  Li  Li17  1  0.98276246  0.58966642  0.37269533  1
  Cr  Cr18  1  0.41141874  0.27324218  0.12661959  1
  Cr  Cr19  1  0.40081744  0.27787063  0.62176490  1
  Cr  Cr20  1  0.59918256  0.72212937  0.37823510  1
  Cr  Cr21  1  0.58858126  0.72675782  0.87338041  1
  H  H22  1  0.01987586  0.07656009  0.19923738  1
  H  H23  1  0.02161227  0.04929377  0.70844674  1
  H  H24  1  0.12112003  0.02805490  0.03860581  1
  H  H25  1  0.13794623  0.05824963  0.49404416  1
  H  H26  1  0.03884870  0.47309519  0.18471533  1
  H  H27  1  0.15493414  0.20839435  0.19751590  1
  H  H28  1  0.18837586  0.15749403  0.70720332  1
  H  H29  1  0.13075729  0.40490928  0.01015063  1
  H  H30  1  0.11156416  0.58288794  0.02850131  1
  H  H31  1  0.32505373  0.11019937  0.04305718  1
  H  H32  1  0.29445038  0.14334161  0.51771174  1
  H  H33  1  0.06830861  0.72576221  0.59023671  1
  H  H34  1  0.03887495  0.79805788  0.43946207  1
  H  H35  1  0.12742751  0.67789334  0.17471111  1
  H  H36  1  0.12011040  0.60863153  0.74650857  1
  H  H37  1  0.03390301  0.75153564  0.96864130  1
  H  H38  1  0.20272625  0.52560659  0.52259143  1
  H  H39  1  0.15121775  0.76063978  0.26926912  1
  H  H40  1  0.15066510  0.73845727  0.78295576  1
  H  H41  1  0.32078516  0.47802846  0.20544538  1
  H  H42  1  0.30575772  0.46867253  0.72447108  1
  H  H43  1  0.16255763  0.94298953  0.42703094  1
  H  H44  1  0.15357455  0.93813872  0.94245711  1
  H  H45  1  0.31185424  0.71208974  0.44939407  1
  H  H46  1  0.30693123  0.71316485  0.95986086  1
  H  H47  1  0.30793742  0.90102394  0.26781905  1
  H  H48  1  0.28985858  0.88639699  0.78220695  1
  H  H49  1  0.71014142  0.11360301  0.21779305  1
  H  H50  1  0.69206258  0.09897606  0.73218095  1
  H  H51  1  0.69306877  0.28683515  0.04013914  1
  H  H52  1  0.68814576  0.28791026  0.55060593  1
  H  H53  1  0.84642545  0.06186128  0.05754289  1
  H  H54  1  0.83744237  0.05701047  0.57296906  1
  H  H55  1  0.69424228  0.53132747  0.27552892  1
  H  H56  1  0.67921484  0.52197154  0.79455462  1
  H  H57  1  0.84933490  0.26154273  0.21704424  1
  H  H58  1  0.84878225  0.23936022  0.73073088  1
  H  H59  1  0.79727375  0.47439341  0.47740857  1
  H  H60  1  0.96609699  0.24846436  0.03135870  1
  H  H61  1  0.87988960  0.39136847  0.25349143  1
  H  H62  1  0.87257249  0.32210666  0.82528889  1
  H  H63  1  0.96112505  0.20194212  0.56053793  1
  H  H64  1  0.93169139  0.27423779  0.40976329  1
  H  H65  1  0.70554962  0.85665839  0.48228826  1
  H  H66  1  0.67494627  0.88980063  0.95694282  1
  H  H67  1  0.88843584  0.41711206  0.97149869  1
  H  H68  1  0.86924271  0.59509072  0.98984937  1
  H  H69  1  0.81162414  0.84250597  0.29279668  1
  H  H70  1  0.84506586  0.79160565  0.80248410  1
  H  H71  1  0.96115130  0.52690481  0.81528467  1
  H  H72  1  0.86205377  0.94175037  0.50595584  1
  H  H73  1  0.87887997  0.97194510  0.96139419  1
  H  H74  1  0.97838773  0.95070623  0.29155326  1
  H  H75  1  0.98012414  0.92343991  0.80076262  1
  O  O76  1  0.02641122  0.52082604  0.74030187  1
  O  O77  1  0.02070047  0.67272181  0.04060945  1
  O  O78  1  0.25280256  0.20559804  0.24455780  1
  O  O79  1  0.99120163  0.74482569  0.51478253  1
  O  O80  1  0.22174420  0.22509615  0.73102782  1
  O  O81  1  0.22309153  0.43923897  0.01445120  1
  O  O82  1  0.20780002  0.44114439  0.50431156  1
  O  O83  1  0.39845995  0.16062900  0.00535962  1
  O  O84  1  0.07469200  0.86229899  0.86459273  1
  O  O85  1  0.09495144  0.88938512  0.32527839  1
  O  O86  1  0.39963472  0.16228439  0.50488619  1
  O  O87  1  0.19314166  0.66624693  0.25359822  1
  O  O88  1  0.20082088  0.66734879  0.73645697  1
  O  O89  1  0.41734229  0.39189339  0.24143063  1
  O  O90  1  0.41334267  0.38903601  0.74094528  1
  O  O91  1  0.21950386  0.96668269  0.49253633  1
  O  O92  1  0.59824555  0.10935620  0.24191582  1
  O  O93  1  0.57172843  0.11331957  0.74831798  1
  O  O94  1  0.21404948  0.97178902  0.99709201  1
  O  O95  1  0.57371218  0.34097448  0.00927541  1
  O  O96  1  0.42786242  0.65992854  0.48844982  1
  O  O97  1  0.57213758  0.34007146  0.51155018  1
  O  O98  1  0.42628782  0.65902552  0.99072459  1
  O  O99  1  0.78595052  0.02821098  0.00290799  1
  O  O100  1  0.42827157  0.88668043  0.25168202  1
  O  O101  1  0.40175445  0.89064380  0.75808418  1
  O  O102  1  0.78049614  0.03331731  0.50746367  1
  O  O103  1  0.58665733  0.61096399  0.25905472  1
  O  O104  1  0.58265771  0.60810661  0.75856937  1
  O  O105  1  0.79917912  0.33265121  0.26354303  1
  O  O106  1  0.80685834  0.33375307  0.74640178  1
  O  O107  1  0.60036528  0.83771561  0.49511381  1
  O  O108  1  0.90504856  0.11061388  0.67472161  1
  O  O109  1  0.92530800  0.13770101  0.13540727  1
  O  O110  1  0.60154005  0.83937100  0.99464038  1
  O  O111  1  0.79219998  0.55885561  0.49568844  1
  O  O112  1  0.77690847  0.56076103  0.98554880  1
  O  O113  1  0.77825580  0.77490385  0.26897218  1
  O  O114  1  0.00879837  0.25517431  0.48521747  1
  O  O115  1  0.74719744  0.79440196  0.75544220  1
  O  O116  1  0.97929953  0.32727819  0.95939055  1
  O  O117  1  0.97358878  0.47917396  0.25969813  1
