# generated using pymatgen
data_V5P6WO24
_symmetry_space_group_name_H-M   'P 1'
_cell_length_a   8.65685450
_cell_length_b   8.70851050
_cell_length_c   8.70851098
_cell_angle_alpha   59.99999784
_cell_angle_beta   59.80241728
_cell_angle_gamma   59.80240988
_symmetry_Int_Tables_number   1
_chemical_formula_structural   V5P6WO24
_chemical_formula_sum   'V5 P6 W1 O24'
_cell_volume   462.83840892
_cell_formula_units_Z   1
loop_
 _symmetry_equiv_pos_site_id
 _symmetry_equiv_pos_as_xyz
  1  'x, y, z'
loop_
 _atom_site_type_symbol
 _atom_site_label
 _atom_site_symmetry_multiplicity
 _atom_site_fract_x
 _atom_site_fract_y
 _atom_site_fract_z
 _atom_site_occupancy
  V  V0  1  0.00807749  0.99730717  0.99730717  1
  V  V1  1  0.07306781  0.64231040  0.64231040  1
  V  V2  1  0.50206611  0.49931163  0.49931163  1
  V  V3  1  0.43208305  0.85597198  0.85597198  1
  V  V4  1  0.92699408  0.35766897  0.35766897  1
  P  P5  1  0.24553444  0.25166239  0.54840000  1
  P  P6  1  0.24553444  0.95440317  0.25166239  1
  P  P7  1  0.24553444  0.54840000  0.95440317  1
  P  P8  1  0.74896890  0.46093437  0.04352815  1
  P  P9  1  0.74896890  0.04352815  0.74656858  1
  P  P10  1  0.74896890  0.74656858  0.46093437  1
  W  W11  1  0.56877767  0.14374111  0.14374111  1
  O  O12  1  0.07200120  0.11124164  0.31577919  1
  O  O13  1  0.07200120  0.50097797  0.11124164  1
  O  O14  1  0.07200120  0.31577919  0.50097797  1
  O  O15  1  0.23194738  0.08944741  0.73944274  1
  O  O16  1  0.43055078  0.18240804  0.38763742  1
  O  O17  1  0.27566164  0.40834323  0.55539104  1
  O  O18  1  0.23194738  0.93916247  0.08944741  1
  O  O19  1  0.27566164  0.76060410  0.40834323  1
  O  O20  1  0.56850087  0.60998901  0.00472974  1
  O  O21  1  0.27566164  0.55539104  0.76060410  1
  O  O22  1  0.76239664  0.26006971  0.06485897  1
  O  O23  1  0.56850087  0.00472974  0.81677938  1
  O  O24  1  0.43055078  0.99940477  0.18240804  1
  O  O25  1  0.23194738  0.73944274  0.93916247  1
  O  O26  1  0.73012597  0.43797615  0.24031241  1
  O  O27  1  0.43055078  0.38763742  0.99940477  1
  O  O28  1  0.73012597  0.24031241  0.59158548  1
  O  O29  1  0.76239664  0.06485897  0.91267468  1
  O  O30  1  0.73012597  0.59158548  0.43797615  1
  O  O31  1  0.56850087  0.81677938  0.60998901  1
  O  O32  1  0.76239664  0.91267468  0.26006971  1
  O  O33  1  0.93062345  0.69028108  0.49168048  1
  O  O34  1  0.93062345  0.49168048  0.88741399  1
  O  O35  1  0.93062345  0.88741399  0.69028108  1
