# generated using pymatgen
data_Li5LaO4
_symmetry_space_group_name_H-M   'P 1'
_cell_length_a   13.84296244
_cell_length_b   13.84296244
_cell_length_c   4.86188794
_cell_angle_alpha   90.00000000
_cell_angle_beta   90.00000000
_cell_angle_gamma   90.00000000
_symmetry_Int_Tables_number   1
_chemical_formula_structural   Li5LaO4
_chemical_formula_sum   'Li40 La8 O32'
_cell_volume   931.67196173
_cell_formula_units_Z   8
loop_
 _symmetry_equiv_pos_site_id
 _symmetry_equiv_pos_as_xyz
  1  'x, y, z'
loop_
 _atom_site_type_symbol
 _atom_site_label
 _atom_site_symmetry_multiplicity
 _atom_site_fract_x
 _atom_site_fract_y
 _atom_site_fract_z
 _atom_site_occupancy
  Li  Li0  1  0.99354100  0.00645900  0.25000000  1
  Li  Li1  1  0.00645900  0.99354100  0.75000000  1
  Li  Li2  1  0.99354100  0.49354100  0.25000000  1
  Li  Li3  1  0.00645900  0.50645900  0.75000000  1
  Li  Li4  1  0.10881964  0.36023661  0.81819267  1
  Li  Li5  1  0.10881964  0.13976339  0.81819267  1
  Li  Li6  1  0.12211516  0.62211516  0.25000000  1
  Li  Li7  1  0.12211516  0.87788484  0.25000000  1
  Li  Li8  1  0.13976339  0.10881964  0.31819267  1
  Li  Li9  1  0.13976339  0.39118036  0.31819267  1
  Li  Li10  1  0.25000000  0.25000000  0.33926316  1
  Li  Li11  1  0.25000000  0.75000000  0.75000000  1
  Li  Li12  1  0.25000000  0.75000000  0.25000000  1
  Li  Li13  1  0.25000000  0.25000000  0.83926316  1
  Li  Li14  1  0.36023661  0.10881964  0.31819267  1
  Li  Li15  1  0.36023661  0.39118036  0.31819267  1
  Li  Li16  1  0.37788484  0.62211516  0.25000000  1
  Li  Li17  1  0.37788484  0.87788484  0.25000000  1
  Li  Li18  1  0.39118036  0.13976339  0.81819267  1
  Li  Li19  1  0.39118036  0.36023661  0.81819267  1
  Li  Li20  1  0.50645900  0.49354100  0.25000000  1
  Li  Li21  1  0.49354100  0.50645900  0.75000000  1
  Li  Li22  1  0.50645900  0.00645900  0.25000000  1
  Li  Li23  1  0.49354100  0.99354100  0.75000000  1
  Li  Li24  1  0.60881964  0.63976339  0.18180733  1
  Li  Li25  1  0.60881964  0.86023661  0.18180733  1
  Li  Li26  1  0.62211516  0.12211516  0.75000000  1
  Li  Li27  1  0.62211516  0.37788484  0.75000000  1
  Li  Li28  1  0.63976339  0.60881964  0.68180733  1
  Li  Li29  1  0.63976339  0.89118036  0.68180733  1
  Li  Li30  1  0.75000000  0.25000000  0.25000000  1
  Li  Li31  1  0.75000000  0.25000000  0.75000000  1
  Li  Li32  1  0.75000000  0.75000000  0.16073684  1
  Li  Li33  1  0.75000000  0.75000000  0.66073684  1
  Li  Li34  1  0.86023661  0.60881964  0.68180733  1
  Li  Li35  1  0.86023661  0.89118036  0.68180733  1
  Li  Li36  1  0.87788484  0.12211516  0.75000000  1
  Li  Li37  1  0.87788484  0.37788484  0.75000000  1
  Li  Li38  1  0.89118036  0.63976339  0.18180733  1
  Li  Li39  1  0.89118036  0.86023661  0.18180733  1
  La  La40  1  0.02376695  0.75000000  0.70475631  1
  La  La41  1  0.25000000  0.52376695  0.79524369  1
  La  La42  1  0.25000000  0.97623305  0.79524369  1
  La  La43  1  0.47623305  0.75000000  0.70475631  1
  La  La44  1  0.52376695  0.25000000  0.29524369  1
  La  La45  1  0.75000000  0.02376695  0.20475631  1
  La  La46  1  0.75000000  0.47623305  0.20475631  1
  La  La47  1  0.97623305  0.25000000  0.29524369  1
  O  O48  1  0.01124697  0.11229420  0.53441533  1
  O  O49  1  0.01124697  0.38770580  0.53441533  1
  O  O50  1  0.11229420  0.01124697  0.03441533  1
  O  O51  1  0.11229420  0.48875303  0.03441533  1
  O  O52  1  0.13195194  0.25000000  0.08349488  1
  O  O53  1  0.13812792  0.75000000  0.02863935  1
  O  O54  1  0.25000000  0.13195194  0.58349488  1
  O  O55  1  0.25000000  0.63812792  0.47136065  1
  O  O56  1  0.25000000  0.86187208  0.47136065  1
  O  O57  1  0.25000000  0.36804806  0.58349488  1
  O  O58  1  0.36187208  0.75000000  0.02863935  1
  O  O59  1  0.36804806  0.25000000  0.08349488  1
  O  O60  1  0.38770580  0.48875303  0.03441533  1
  O  O61  1  0.38770580  0.01124697  0.03441533  1
  O  O62  1  0.48875303  0.11229420  0.53441533  1
  O  O63  1  0.48875303  0.38770580  0.53441533  1
  O  O64  1  0.51124697  0.61229420  0.46558467  1
  O  O65  1  0.51124697  0.88770580  0.46558467  1
  O  O66  1  0.61229420  0.98875303  0.96558467  1
  O  O67  1  0.61229420  0.51124697  0.96558467  1
  O  O68  1  0.63195194  0.75000000  0.91650512  1
  O  O69  1  0.63812792  0.25000000  0.97136065  1
  O  O70  1  0.75000000  0.13812792  0.52863935  1
  O  O71  1  0.75000000  0.36187208  0.52863935  1
  O  O72  1  0.75000000  0.63195194  0.41650512  1
  O  O73  1  0.75000000  0.86804806  0.41650512  1
  O  O74  1  0.86187208  0.25000000  0.97136065  1
  O  O75  1  0.86804806  0.75000000  0.91650512  1
  O  O76  1  0.88770580  0.98875303  0.96558467  1
  O  O77  1  0.88770580  0.51124697  0.96558467  1
  O  O78  1  0.98875303  0.61229420  0.46558467  1
  O  O79  1  0.98875303  0.88770580  0.46558467  1
