# generated using pymatgen
data_Na2Cr4O13
_symmetry_space_group_name_H-M   'P 1'
_cell_length_a   17.45733782
_cell_length_b   7.24524747
_cell_length_c   9.17067573
_cell_angle_alpha   90.00000000
_cell_angle_beta   92.26523535
_cell_angle_gamma   90.00000000
_symmetry_Int_Tables_number   1
_chemical_formula_structural   Na2Cr4O13
_chemical_formula_sum   'Na8 Cr16 O52'
_cell_volume   1159.02571125
_cell_formula_units_Z   4
loop_
 _symmetry_equiv_pos_site_id
 _symmetry_equiv_pos_as_xyz
  1  'x, y, z'
loop_
 _atom_site_type_symbol
 _atom_site_label
 _atom_site_symmetry_multiplicity
 _atom_site_fract_x
 _atom_site_fract_y
 _atom_site_fract_z
 _atom_site_occupancy
  Na  Na0  1  0.05489664  0.67398518  0.82190508  1
  Na  Na1  1  0.05489664  0.82601482  0.32190508  1
  Na  Na2  1  0.43310785  0.14513342  0.68228706  1
  Na  Na3  1  0.43310785  0.35486658  0.18228706  1
  Na  Na4  1  0.56689215  0.64513342  0.81771294  1
  Na  Na5  1  0.56689215  0.85486658  0.31771294  1
  Na  Na6  1  0.94510336  0.17398518  0.67809492  1
  Na  Na7  1  0.94510336  0.32601482  0.17809492  1
  Cr  Cr8  1  0.08414866  0.17289433  0.94477141  1
  Cr  Cr9  1  0.08414866  0.32710567  0.44477141  1
  Cr  Cr10  1  0.25125994  0.35357859  0.82362177  1
  Cr  Cr11  1  0.24375582  0.69344951  0.58656951  1
  Cr  Cr12  1  0.25125994  0.14642141  0.32362177  1
  Cr  Cr13  1  0.24375582  0.80655049  0.08656951  1
  Cr  Cr14  1  0.41865344  0.67627428  0.53952196  1
  Cr  Cr15  1  0.41865344  0.82372572  0.03952196  1
  Cr  Cr16  1  0.58134656  0.17627428  0.96047804  1
  Cr  Cr17  1  0.58134656  0.32372572  0.46047804  1
  Cr  Cr18  1  0.75624418  0.19344951  0.91343049  1
  Cr  Cr19  1  0.74874006  0.85357859  0.67637823  1
  Cr  Cr20  1  0.75624418  0.30655049  0.41343049  1
  Cr  Cr21  1  0.74874006  0.64642141  0.17637823  1
  Cr  Cr22  1  0.91585134  0.67289433  0.55522859  1
  Cr  Cr23  1  0.91585134  0.82710567  0.05522859  1
  O  O24  1  0.01047507  0.31322156  0.92976767  1
  O  O25  1  0.01047507  0.18677844  0.42976767  1
  O  O26  1  0.07416271  0.01225478  0.82120006  1
  O  O27  1  0.07416271  0.48774522  0.32120006  1
  O  O28  1  0.08799218  0.41666057  0.60750364  1
  O  O29  1  0.08799218  0.08333943  0.10750364  1
  O  O30  1  0.17008629  0.30760762  0.91943087  1
  O  O31  1  0.17008629  0.19239238  0.41943087  1
  O  O32  1  0.17308097  0.83366145  0.56485932  1
  O  O33  1  0.17308097  0.66633855  0.06485932  1
  O  O34  1  0.24161634  0.95504957  0.95845105  1
  O  O35  1  0.23716156  0.58230213  0.75728838  1
  O  O36  1  0.24161634  0.54495043  0.45845105  1
  O  O37  1  0.23716156  0.91769787  0.25728838  1
  O  O38  1  0.26169452  0.21403364  0.69149416  1
  O  O39  1  0.26169452  0.28596636  0.19149416  1
  O  O40  1  0.32845016  0.34908454  0.92452511  1
  O  O41  1  0.32845016  0.15091546  0.42452511  1
  O  O42  1  0.33176282  0.80600244  0.58469105  1
  O  O43  1  0.33176282  0.69399756  0.08469105  1
  O  O44  1  0.41466165  0.87288399  0.86693583  1
  O  O45  1  0.41466165  0.62711601  0.36693583  1
  O  O46  1  0.42424909  0.48767773  0.63580831  1
  O  O47  1  0.42424909  0.01232227  0.13580831  1
  O  O48  1  0.49231080  0.81054763  0.57773534  1
  O  O49  1  0.49231080  0.68945237  0.07773534  1
  O  O50  1  0.50768920  0.31054763  0.92226466  1
  O  O51  1  0.50768920  0.18945237  0.42226466  1
  O  O52  1  0.57575091  0.98767773  0.86419169  1
  O  O53  1  0.57575091  0.51232227  0.36419169  1
  O  O54  1  0.58533835  0.37288399  0.63306417  1
  O  O55  1  0.58533835  0.12711601  0.13306417  1
  O  O56  1  0.66823718  0.30600244  0.91530895  1
  O  O57  1  0.66823718  0.19399756  0.41530895  1
  O  O58  1  0.67154984  0.84908454  0.57547489  1
  O  O59  1  0.67154984  0.65091546  0.07547489  1
  O  O60  1  0.73830548  0.71403364  0.80850584  1
  O  O61  1  0.73830548  0.78596636  0.30850584  1
  O  O62  1  0.76283844  0.08230213  0.74271162  1
  O  O63  1  0.75838366  0.45504957  0.54154895  1
  O  O64  1  0.76283844  0.41769787  0.24271162  1
  O  O65  1  0.75838366  0.04495043  0.04154895  1
  O  O66  1  0.82691903  0.33366145  0.93514068  1
  O  O67  1  0.82691903  0.16633855  0.43514068  1
  O  O68  1  0.82991371  0.80760762  0.58056913  1
  O  O69  1  0.82991371  0.69239238  0.08056913  1
  O  O70  1  0.91200782  0.91666057  0.89249636  1
  O  O71  1  0.91200782  0.58333943  0.39249636  1
  O  O72  1  0.92583729  0.51225478  0.67879994  1
  O  O73  1  0.92583729  0.98774522  0.17879994  1
  O  O74  1  0.98952493  0.81322156  0.57023233  1
  O  O75  1  0.98952493  0.68677844  0.07023233  1
