# generated using pymatgen
data_Li2Mn3(BO3)3
_symmetry_space_group_name_H-M   'P 1'
_cell_length_a   7.78523943
_cell_length_b   9.18562678
_cell_length_c   6.21507528
_cell_angle_alpha   103.69911724
_cell_angle_beta   80.37787160
_cell_angle_gamma   66.31316928
_symmetry_Int_Tables_number   1
_chemical_formula_structural   Li2Mn3(BO3)3
_chemical_formula_sum   'Li4 Mn6 B6 O18'
_cell_volume   377.85874299
_cell_formula_units_Z   2
loop_
 _symmetry_equiv_pos_site_id
 _symmetry_equiv_pos_as_xyz
  1  'x, y, z'
loop_
 _atom_site_type_symbol
 _atom_site_label
 _atom_site_symmetry_multiplicity
 _atom_site_fract_x
 _atom_site_fract_y
 _atom_site_fract_z
 _atom_site_occupancy
  Li  Li0  1  0.95384055  0.71858358  0.73862832  1
  Li  Li1  1  0.39293597  0.61339670  0.94625924  1
  Li  Li2  1  0.71282545  0.94808242  0.59470468  1
  Li  Li3  1  0.27373003  0.05326930  0.38707376  1
  Mn  Mn4  1  0.97796577  0.39564074  0.76501450  1
  Mn  Mn5  1  0.68870123  0.27102526  0.56831850  1
  Mn  Mn6  1  0.65095276  0.07073422  0.09844261  1
  Mn  Mn7  1  0.34017714  0.95882438  0.89737944  1
  Mn  Mn8  1  0.32648886  0.70784262  0.43595456  1
  Mn  Mn9  1  0.01571424  0.59593178  0.23489039  1
  B  B10  1  0.98435626  0.04365631  0.73610298  1
  B  B11  1  0.35209266  0.28400154  0.87712116  1
  B  B12  1  0.68231074  0.62300969  0.59723002  1
  B  B13  1  0.31457434  0.38266546  0.45621284  1
  B  B14  1  0.64116835  0.72843045  0.09513645  1
  B  B15  1  0.02549865  0.93823655  0.23819755  1
  O  O16  1  0.87468154  0.21261755  0.75349757  1
  O  O17  1  0.84643836  0.64266746  0.97794593  1
  O  O18  1  0.89366372  0.95354299  0.80211507  1
  O  O19  1  0.82022864  0.02399954  0.35538807  1
  O  O20  1  0.46741374  0.11629115  0.84984985  1
  O  O21  1  0.79198546  0.45404845  0.57983543  1
  O  O22  1  0.43479076  0.38384557  0.82929586  1
  O  O23  1  0.77300328  0.71312301  0.53121793  1
  O  O24  1  0.48090112  0.69524661  0.69423919  1
  O  O25  1  0.52047367  0.31038452  0.35979053  1
  O  O26  1  0.23187524  0.28282143  0.50403814  1
  O  O27  1  0.55277936  0.63774832  0.15412117  1
  O  O28  1  0.19925226  0.55037585  0.48348415  1
  O  O29  1  0.54009872  0.90106163  0.13397123  1
  O  O30  1  0.18576588  0.97141939  0.63909381  1
  O  O31  1  0.11388664  0.02891868  0.17921283  1
  O  O32  1  0.14619333  0.35628248  0.97354247  1
  O  O33  1  0.12656728  0.76560437  0.19936277  1
