# generated using pymatgen
data_LiMn(PO3)3
_symmetry_space_group_name_H-M   'P 1'
_cell_length_a   9.89679190
_cell_length_b   11.07183007
_cell_length_c   12.14885295
_cell_angle_alpha   66.09634704
_cell_angle_beta   69.52096798
_cell_angle_gamma   97.37776111
_symmetry_Int_Tables_number   1
_chemical_formula_structural   LiMn(PO3)3
_chemical_formula_sum   'Li6 Mn6 P18 O54'
_cell_volume   1081.90443968
_cell_formula_units_Z   6
loop_
 _symmetry_equiv_pos_site_id
 _symmetry_equiv_pos_as_xyz
  1  'x, y, z'
loop_
 _atom_site_type_symbol
 _atom_site_label
 _atom_site_symmetry_multiplicity
 _atom_site_fract_x
 _atom_site_fract_y
 _atom_site_fract_z
 _atom_site_occupancy
  Li  Li0  1  0.05811159  0.26104250  0.93380183  1
  Li  Li1  1  0.18816705  0.85284612  0.74319874  1
  Li  Li2  1  0.66359493  0.60469976  0.73762618  1
  Li  Li3  1  0.49122040  0.19477588  0.06253060  1
  Li  Li4  1  0.42433847  0.59067585  0.26295298  1
  Li  Li5  1  0.90331760  0.34271280  0.26261748  1
  Mn  Mn6  1  0.53859116  0.07465712  0.50870500  1
  Mn  Mn7  1  0.18342122  0.25290553  0.18715315  1
  Mn  Mn8  1  0.86976099  0.44076918  0.81287975  1
  Mn  Mn9  1  0.55147386  0.58401322  0.48972531  1
  Mn  Mn10  1  0.84841767  0.92768719  0.84113048  1
  Mn  Mn11  1  0.18938594  0.76831582  0.15978650  1
  P  P12  1  0.28634535  0.13719303  0.94924183  1
  P  P13  1  0.23718093  0.11739821  0.72250581  1
  P  P14  1  0.10613900  0.51942635  0.95230928  1
  P  P15  1  0.17436104  0.38925210  0.60688112  1
  P  P16  1  0.60415034  0.32998840  0.72027528  1
  P  P17  1  0.07963337  0.40360352  0.38521168  1
  P  P18  1  0.79647347  0.17204030  0.61207527  1
  P  P19  1  0.48266803  0.73856286  0.94349410  1
  P  P20  1  0.42694737  0.70741871  0.72687967  1
  P  P21  1  0.82428876  0.05177999  0.27803900  1
  P  P22  1  0.73380647  0.08636207  0.05158435  1
  P  P23  1  0.65293977  0.43315535  0.27258822  1
  P  P24  1  0.28192635  0.99603651  0.39114424  1
  P  P25  1  0.55730305  0.47096542  0.04779072  1
  P  P26  1  0.96561203  0.79030067  0.61451638  1
  P  P27  1  0.45826260  0.83823897  0.27850030  1
  P  P28  1  0.91115487  0.78689055  0.38686599  1
  P  P29  1  0.92612361  0.68160000  0.05596317  1
  O  O30  1  0.22015614  0.16059204  0.83970503  1
  O  O31  1  0.80902173  0.01531364  0.97885137  1
  O  O32  1  0.02539346  0.34926285  0.72560205  1
  O  O33  1  0.46145939  0.23814033  0.87073008  1
  O  O34  1  0.39207531  0.10669252  0.66362235  1
  O  O35  1  0.05501496  0.65637245  0.94090711  1
  O  O36  1  0.21715322  0.24975260  0.61785760  1
  O  O37  1  0.71656046  0.22697431  0.97741474  1
  O  O38  1  0.38631744  0.07663321  0.41918497  1
  O  O39  1  0.25439959  0.07525723  0.27126748  1
  O  O40  1  0.68219152  0.21523669  0.71241001  1
  O  O41  1  0.32200188  0.73841302  0.99823591  1
  O  O42  1  0.26501392  0.58658436  0.81991440  1
  O  O43  1  0.70947997  0.08960165  0.57382661  1
  O  O44  1  0.89710123  0.11514447  0.67266073  1
  O  O45  1  0.70242038  0.52333444  0.92257957  1
  O  O46  1  0.15101001  0.30836720  0.34186371  1
  O  O47  1  0.66293058  0.00274106  0.37885896  1
  O  O48  1  0.15746347  0.44186917  0.46892812  1
  O  O49  1  0.54486467  0.38238202  0.61864997  1
  O  O50  1  0.30682662  0.49875713  0.57752348  1
  O  O51  1  0.00178180  0.42919047  0.92966259  1
  O  O52  1  0.70362988  0.43597713  0.73172021  1
  O  O53  1  0.50799219  0.69428690  0.82573789  1
  O  O54  1  0.55861008  0.99933878  0.16235659  1
  O  O55  1  0.10609993  0.98906144  0.77871683  1
  O  O56  1  0.19574669  0.20402571  0.02300335  1
  O  O57  1  0.09027229  0.53936594  0.27929076  1
  O  O58  1  0.66519611  0.29848229  0.36229289  1
  O  O59  1  0.60974326  0.86017296  0.89852803  1
  O  O60  1  0.52885034  0.66189474  0.63764540  1
  O  O61  1  0.12674796  0.91293051  0.52877147  1
  O  O62  1  0.89913708  0.32580347  0.48102564  1
  O  O63  1  0.12559910  0.44706129  0.07723463  1
  O  O64  1  0.39530292  0.84307736  0.67285463  1
  O  O65  1  0.07294634  0.79285625  0.32498815  1
  O  O66  1  0.56755943  0.51480151  0.32680949  1
  O  O67  1  0.93566109  0.16863706  0.26707732  1
  O  O68  1  0.43156384  0.35752327  0.07018994  1
  O  O69  1  0.83244220  0.11096482  0.12763437  1
  O  O70  1  0.58304272  0.40634145  0.18024903  1
  O  O71  1  0.99327713  0.65097352  0.65837515  1
  O  O72  1  0.00684090  0.75564909  0.10423681  1
  O  O73  1  0.87118887  0.82077886  0.71947156  1
  O  O74  1  0.33317391  0.86543485  0.38314632  1
  O  O75  1  0.78722515  0.66397473  0.42560494  1
  O  O76  1  0.38365684  0.76644703  0.22210893  1
  O  O77  1  0.55497453  0.76875850  0.33639614  1
  O  O78  1  0.88249516  0.80922241  0.51754115  1
  O  O79  1  0.49384775  0.59620075  0.05811714  1
  O  O80  1  0.83301728  0.51886636  0.17244301  1
  O  O81  1  0.28945884  0.99357420  0.02274336  1
  O  O82  1  0.89426453  0.92864974  0.28639672  1
  O  O83  1  0.82195966  0.73689122  0.00072688  1
