# generated using pymatgen
data_Mn2OF3
_symmetry_space_group_name_H-M   'P 1'
_cell_length_a   5.81530476
_cell_length_b   10.22330424
_cell_length_c   5.81168104
_cell_angle_alpha   82.18627646
_cell_angle_beta   65.88759210
_cell_angle_gamma   101.46410202
_symmetry_Int_Tables_number   1
_chemical_formula_structural   Mn2OF3
_chemical_formula_sum   'Mn8 O4 F12'
_cell_volume   299.82976359
_cell_formula_units_Z   4
loop_
 _symmetry_equiv_pos_site_id
 _symmetry_equiv_pos_as_xyz
  1  'x, y, z'
loop_
 _atom_site_type_symbol
 _atom_site_label
 _atom_site_symmetry_multiplicity
 _atom_site_fract_x
 _atom_site_fract_y
 _atom_site_fract_z
 _atom_site_occupancy
  Mn  Mn0  1  0.96839621  0.98250967  0.98537133  1
  Mn  Mn1  1  0.12934287  0.24981486  0.37075065  1
  Mn  Mn2  1  0.37101058  0.75114889  0.12708708  1
  Mn  Mn3  1  0.53115205  0.01874295  0.51094926  1
  Mn  Mn4  1  0.74902102  0.49993947  0.25157059  1
  Mn  Mn5  1  0.24789805  0.50068319  0.75032661  1
  Mn  Mn6  1  0.61829991  0.24952755  0.88070962  1
  Mn  Mn7  1  0.88058606  0.75072268  0.61683127  1
  O  O8  1  0.50408960  0.33819548  0.16775848  1
  O  O9  1  0.99601502  0.66119853  0.33137483  1
  O  O10  1  0.75160385  0.16476759  0.58639802  1
  O  O11  1  0.74922449  0.83639345  0.90969080  1
  F  F12  1  0.04635297  0.39763567  0.15206149  1
  F  F13  1  0.20352970  0.14174315  0.07025084  1
  F  F14  1  0.02541402  0.35220694  0.67264447  1
  F  F15  1  0.29191754  0.85778444  0.43144643  1
  F  F16  1  0.45380726  0.60359862  0.34875010  1
  F  F17  1  0.69275473  0.10083394  0.10169175  1
  F  F18  1  0.20325074  0.10193019  0.59704273  1
  F  F19  1  0.54605363  0.39609610  0.65258268  1
  F  F20  1  0.80314070  0.89864670  0.39386018  1
  F  F21  1  0.29771928  0.90103542  0.90144921  1
  F  F22  1  0.47470275  0.64830254  0.82589489  1
  F  F23  1  0.94891094  0.60342097  0.85054169  1
