# generated using pymatgen
data_LiFe2Si2O7
_symmetry_space_group_name_H-M   'P 1'
_cell_length_a   8.89277209
_cell_length_b   12.99193158
_cell_length_c   5.66627022
_cell_angle_alpha   90.00000000
_cell_angle_beta   88.70243575
_cell_angle_gamma   90.00000000
_symmetry_Int_Tables_number   1
_chemical_formula_structural   LiFe2Si2O7
_chemical_formula_sum   'Li4 Fe8 Si8 O28'
_cell_volume   654.48061753
_cell_formula_units_Z   4
loop_
 _symmetry_equiv_pos_site_id
 _symmetry_equiv_pos_as_xyz
  1  'x, y, z'
loop_
 _atom_site_type_symbol
 _atom_site_label
 _atom_site_symmetry_multiplicity
 _atom_site_fract_x
 _atom_site_fract_y
 _atom_site_fract_z
 _atom_site_occupancy
  Li  Li0  1  0.12370544  0.72648646  0.81149792  1
  Li  Li1  1  0.37629456  0.22648646  0.68850208  1
  Li  Li2  1  0.62370544  0.77351354  0.31149792  1
  Li  Li3  1  0.87629456  0.27351354  0.18850208  1
  Fe  Fe4  1  0.12430418  0.10158730  0.34395485  1
  Fe  Fe5  1  0.22205167  0.49297503  0.62479522  1
  Fe  Fe6  1  0.27794833  0.99297503  0.87520478  1
  Fe  Fe7  1  0.37569582  0.60158730  0.15604515  1
  Fe  Fe8  1  0.62430418  0.39841270  0.84395485  1
  Fe  Fe9  1  0.72205167  0.00702497  0.12479522  1
  Fe  Fe10  1  0.77794833  0.50702497  0.37520478  1
  Fe  Fe11  1  0.87569582  0.89841270  0.65604515  1
  Si  Si12  1  0.02704212  0.88476302  0.18082358  1
  Si  Si13  1  0.04970822  0.66526554  0.31883795  1
  Si  Si14  1  0.45029178  0.16526554  0.18116205  1
  Si  Si15  1  0.47295788  0.38476302  0.31917642  1
  Si  Si16  1  0.52704212  0.61523698  0.68082358  1
  Si  Si17  1  0.54970822  0.83473446  0.81883795  1
  Si  Si18  1  0.95029178  0.33473446  0.68116205  1
  Si  Si19  1  0.97295788  0.11523698  0.81917642  1
  O  O20  1  0.00509465  0.16001027  0.07897509  1
  O  O21  1  0.03404797  0.79213181  0.38435900  1
  O  O22  1  0.11132914  0.61480325  0.56444532  1
  O  O23  1  0.10669117  0.04126726  0.69752946  1
  O  O24  1  0.11809688  0.37840695  0.73576341  1
  O  O25  1  0.16851493  0.65554394  0.09962337  1
  O  O26  1  0.17952867  0.95725737  0.17196232  1
  O  O27  1  0.32047133  0.45725737  0.32803768  1
  O  O28  1  0.33148507  0.15554394  0.40037663  1
  O  O29  1  0.38190312  0.87840695  0.76423659  1
  O  O30  1  0.39330883  0.54126726  0.80247054  1
  O  O31  1  0.38867086  0.11480325  0.93555468  1
  O  O32  1  0.46595203  0.29213181  0.11564100  1
  O  O33  1  0.49490535  0.66001027  0.42102491  1
  O  O34  1  0.50509465  0.33998973  0.57897509  1
  O  O35  1  0.53404797  0.70786819  0.88435900  1
  O  O36  1  0.61132914  0.88519675  0.06444532  1
  O  O37  1  0.60669117  0.45873274  0.19752946  1
  O  O38  1  0.61809688  0.12159305  0.23576341  1
  O  O39  1  0.66851493  0.84445606  0.59962337  1
  O  O40  1  0.67952867  0.54274263  0.67196232  1
  O  O41  1  0.82047133  0.04274263  0.82803768  1
  O  O42  1  0.83148507  0.34445606  0.90037663  1
  O  O43  1  0.88190312  0.62159305  0.26423659  1
  O  O44  1  0.89330883  0.95873274  0.30247054  1
  O  O45  1  0.88867086  0.38519675  0.43555468  1
  O  O46  1  0.96595203  0.20786819  0.61564100  1
  O  O47  1  0.99490535  0.83998973  0.92102491  1
