# generated using pymatgen
data_NaCu3O2
_symmetry_space_group_name_H-M   'P 1'
_cell_length_a   14.34357708
_cell_length_b   7.48683575
_cell_length_c   7.45815179
_cell_angle_alpha   90.00000000
_cell_angle_beta   90.00000000
_cell_angle_gamma   90.00000000
_symmetry_Int_Tables_number   1
_chemical_formula_structural   NaCu3O2
_chemical_formula_sum   'Na8 Cu24 O16'
_cell_volume   800.91604668
_cell_formula_units_Z   8
loop_
 _symmetry_equiv_pos_site_id
 _symmetry_equiv_pos_as_xyz
  1  'x, y, z'
loop_
 _atom_site_type_symbol
 _atom_site_label
 _atom_site_symmetry_multiplicity
 _atom_site_fract_x
 _atom_site_fract_y
 _atom_site_fract_z
 _atom_site_occupancy
  Na  Na0  1  0.07331741  0.11472440  0.18130431  1
  Na  Na1  1  0.07331741  0.38527560  0.68130431  1
  Na  Na2  1  0.42668259  0.61472440  0.18130431  1
  Na  Na3  1  0.42668259  0.88527560  0.68130431  1
  Na  Na4  1  0.57331741  0.11472440  0.31869569  1
  Na  Na5  1  0.57331741  0.38527560  0.81869569  1
  Na  Na6  1  0.92668259  0.61472440  0.31869569  1
  Na  Na7  1  0.92668259  0.88527560  0.81869569  1
  Cu  Cu8  1  0.12059748  0.50242651  0.13449923  1
  Cu  Cu9  1  0.12059748  0.99757349  0.63450023  1
  Cu  Cu10  1  0.12235063  0.79959656  0.90337203  1
  Cu  Cu11  1  0.12235063  0.70040344  0.40337203  1
  Cu  Cu12  1  0.23697719  0.06172613  0.89140601  1
  Cu  Cu13  1  0.23697719  0.43827387  0.39140601  1
  Cu  Cu14  1  0.26302281  0.93827387  0.39140601  1
  Cu  Cu15  1  0.26302281  0.56172613  0.89140601  1
  Cu  Cu16  1  0.37764937  0.29959656  0.90337203  1
  Cu  Cu17  1  0.37764937  0.20040344  0.40337203  1
  Cu  Cu18  1  0.37940252  0.00242651  0.13449923  1
  Cu  Cu19  1  0.37940252  0.49757349  0.63450023  1
  Cu  Cu20  1  0.62059748  0.50242651  0.36550077  1
  Cu  Cu21  1  0.62059748  0.99757349  0.86549977  1
  Cu  Cu22  1  0.62235063  0.70040344  0.09662797  1
  Cu  Cu23  1  0.62235063  0.79959656  0.59662797  1
  Cu  Cu24  1  0.73697719  0.06172613  0.60859399  1
  Cu  Cu25  1  0.73697719  0.43827387  0.10859399  1
  Cu  Cu26  1  0.76302281  0.56172613  0.60859399  1
  Cu  Cu27  1  0.76302281  0.93827387  0.10859399  1
  Cu  Cu28  1  0.87764937  0.20040344  0.09662797  1
  Cu  Cu29  1  0.87764937  0.29959656  0.59662797  1
  Cu  Cu30  1  0.87940252  0.00242651  0.36550077  1
  Cu  Cu31  1  0.87940252  0.49757349  0.86549977  1
  O  O32  1  0.13382941  0.55535993  0.89676420  1
  O  O33  1  0.13382941  0.94464007  0.39676420  1
  O  O34  1  0.10650976  0.04801990  0.87832405  1
  O  O35  1  0.10650976  0.45198010  0.37832405  1
  O  O36  1  0.39349024  0.95198010  0.37832405  1
  O  O37  1  0.39349024  0.54801990  0.87832405  1
  O  O38  1  0.36617059  0.05535993  0.89676420  1
  O  O39  1  0.36617059  0.44464007  0.39676420  1
  O  O40  1  0.63382941  0.55535993  0.60323580  1
  O  O41  1  0.63382941  0.94464007  0.10323580  1
  O  O42  1  0.60650976  0.04801990  0.62167595  1
  O  O43  1  0.60650976  0.45198010  0.12167595  1
  O  O44  1  0.89349024  0.54801990  0.62167595  1
  O  O45  1  0.89349024  0.95198010  0.12167595  1
  O  O46  1  0.86617059  0.05535993  0.60323580  1
  O  O47  1  0.86617059  0.44464007  0.10323580  1
