# generated using pymatgen
data_Na6FeO4
_symmetry_space_group_name_H-M   'P 1'
_cell_length_a   7.61469923
_cell_length_b   7.61470652
_cell_length_c   5.42079429
_cell_angle_alpha   90.00083978
_cell_angle_beta   90.00028356
_cell_angle_gamma   89.99703548
_symmetry_Int_Tables_number   1
_chemical_formula_structural   Na6FeO4
_chemical_formula_sum   'Na12 Fe2 O8'
_cell_volume   314.31770896
_cell_formula_units_Z   2
loop_
 _symmetry_equiv_pos_site_id
 _symmetry_equiv_pos_as_xyz
  1  'x, y, z'
loop_
 _atom_site_type_symbol
 _atom_site_label
 _atom_site_symmetry_multiplicity
 _atom_site_fract_x
 _atom_site_fract_y
 _atom_site_fract_z
 _atom_site_occupancy
  Na  Na0  1  0.04024408  0.54024910  0.75001170  1
  Na  Na1  1  0.04040026  0.95962168  0.74999898  1
  Na  Na2  1  0.25001297  0.25001132  0.65428675  1
  Na  Na3  1  0.25000073  0.25000713  0.15428309  1
  Na  Na4  1  0.45960675  0.54041234  0.75000358  1
  Na  Na5  1  0.45975511  0.95975884  0.74998541  1
  Na  Na6  1  0.54066686  0.04066898  0.25000108  1
  Na  Na7  1  0.54065062  0.45936436  0.24999890  1
  Na  Na8  1  0.75000519  0.75001410  0.34572824  1
  Na  Na9  1  0.75001418  0.75001751  0.84572563  1
  Na  Na10  1  0.95939685  0.04062744  0.25000644  1
  Na  Na11  1  0.95934894  0.45935240  0.24999584  1
  Fe  Fe12  1  0.25001364  0.75000593  0.24999213  1
  Fe  Fe13  1  0.74999964  0.25000275  0.74999489  1
  O  O14  1  0.99933809  0.24998384  0.92115407  1
  O  O15  1  0.25004499  0.99943140  0.42123531  1
  O  O16  1  0.24998685  0.50057259  0.42125474  1
  O  O17  1  0.50065626  0.25004050  0.92116944  1
  O  O18  1  0.49945351  0.75002934  0.07874149  1
  O  O19  1  0.75002767  0.00067406  0.57884163  1
  O  O20  1  0.74996997  0.49935823  0.57882727  1
  O  O21  1  0.00058783  0.74997517  0.07876340  1
