# generated using pymatgen
data_Li2VCr2O6
_symmetry_space_group_name_H-M   'P 1'
_cell_length_a   7.87141091
_cell_length_b   7.87141038
_cell_length_c   6.00303649
_cell_angle_alpha   101.90466346
_cell_angle_beta   101.90465697
_cell_angle_gamma   69.35987205
_symmetry_Int_Tables_number   1
_chemical_formula_structural   Li2VCr2O6
_chemical_formula_sum   'Li6 V3 Cr6 O18'
_cell_volume   336.93979160
_cell_formula_units_Z   3
loop_
 _symmetry_equiv_pos_site_id
 _symmetry_equiv_pos_as_xyz
  1  'x, y, z'
loop_
 _atom_site_type_symbol
 _atom_site_label
 _atom_site_symmetry_multiplicity
 _atom_site_fract_x
 _atom_site_fract_y
 _atom_site_fract_z
 _atom_site_occupancy
  Li  Li0  1  0.00030969  0.33246897  0.83972373  1
  Li  Li1  1  0.33246897  0.00030969  0.83972373  1
  Li  Li2  1  0.66635731  0.33419803  0.49360927  1
  Li  Li3  1  0.33419803  0.66635731  0.49360927  1
  Li  Li4  1  0.66408506  0.00258194  0.16666700  1
  Li  Li5  1  0.00258194  0.66408506  0.16666700  1
  V  V6  1  0.66934207  0.99732493  0.66666700  1
  V  V7  1  0.33333300  0.33333300  0.66666700  1
  V  V8  1  0.99732493  0.66934207  0.66666700  1
  Cr  Cr9  1  0.00222588  0.33167527  0.33068424  1
  Cr  Cr10  1  0.66855074  0.66855074  0.33042391  1
  Cr  Cr11  1  0.33167527  0.00222588  0.33068424  1
  Cr  Cr12  1  0.66444112  0.33499073  0.00264976  1
  Cr  Cr13  1  0.33499073  0.66444112  0.00264976  1
  Cr  Cr14  1  0.99811626  0.99811626  0.00290909  1
  O  O15  1  0.82857943  0.82857943  0.43736249  1
  O  O16  1  0.83231232  0.48902439  0.10701722  1
  O  O17  1  0.48902439  0.83231232  0.10701722  1
  O  O18  1  0.83808757  0.83808757  0.89597051  1
  O  O19  1  0.84998582  0.50854849  0.56881176  1
  O  O20  1  0.50854849  0.84998582  0.56881176  1
  O  O21  1  0.83435468  0.17764261  0.22631678  1
  O  O22  1  0.51159197  0.51159197  0.23613165  1
  O  O23  1  0.17764261  0.83435468  0.22631678  1
  O  O24  1  0.81668018  0.15811851  0.76452124  1
  O  O25  1  0.48352849  0.48352849  0.75428224  1
  O  O26  1  0.15811851  0.81668018  0.76452124  1
  O  O27  1  0.50166256  0.15870572  0.44454202  1
  O  O28  1  0.15870572  0.50166256  0.44454202  1
  O  O29  1  0.15507503  0.15507503  0.09720135  1
  O  O30  1  0.50796028  0.16500444  0.88879098  1
  O  O31  1  0.16500444  0.50796028  0.88879098  1
  O  O32  1  0.18313851  0.18313851  0.57905176  1
