# generated using pymatgen
data_Li2Mn3(SiO4)2
_symmetry_space_group_name_H-M   'P 1'
_cell_length_a   5.12390817
_cell_length_b   9.06894941
_cell_length_c   13.79353316
_cell_angle_alpha   69.81880397
_cell_angle_beta   79.41414558
_cell_angle_gamma   89.50743392
_symmetry_Int_Tables_number   1
_chemical_formula_structural   Li2Mn3(SiO4)2
_chemical_formula_sum   'Li6 Mn9 Si6 O24'
_cell_volume   590.33079467
_cell_formula_units_Z   3
loop_
 _symmetry_equiv_pos_site_id
 _symmetry_equiv_pos_as_xyz
  1  'x, y, z'
loop_
 _atom_site_type_symbol
 _atom_site_label
 _atom_site_symmetry_multiplicity
 _atom_site_fract_x
 _atom_site_fract_y
 _atom_site_fract_z
 _atom_site_occupancy
  Li  Li0  1  0.43997371  0.40725342  0.23298214  1
  Li  Li1  1  0.39026626  0.05801292  0.31418123  1
  Li  Li2  1  0.25678821  0.93910828  0.53294920  1
  Li  Li3  1  0.48555512  0.75679577  0.14675196  1
  Li  Li4  1  0.72498976  0.01857500  0.63990039  1
  Li  Li5  1  0.60732182  0.87357568  0.90233269  1
  Mn  Mn6  1  0.01261378  0.98923011  0.00094652  1
  Mn  Mn7  1  0.28140581  0.28060343  0.50131644  1
  Mn  Mn8  1  0.19902900  0.73578989  0.81319137  1
  Mn  Mn9  1  0.28335532  0.48359146  0.65779791  1
  Mn  Mn10  1  0.93221910  0.23750724  0.16203102  1
  Mn  Mn11  1  0.59696655  0.50881564  0.96950193  1
  Mn  Mn12  1  0.68099703  0.26133765  0.80995340  1
  Mn  Mn13  1  0.92791783  0.56384211  0.31066781  1
  Mn  Mn14  1  0.84993214  0.82104116  0.46439754  1
  Si  Si15  1  0.03037355  0.62254036  0.06681168  1
  Si  Si16  1  0.49145337  0.14081346  0.06158056  1
  Si  Si17  1  0.18707770  0.09727465  0.74611157  1
  Si  Si18  1  0.38254362  0.66659610  0.40166933  1
  Si  Si19  1  0.83218143  0.18102482  0.40316762  1
  Si  Si20  1  0.75992795  0.64859209  0.71726568  1
  O  O21  1  0.04586424  0.04273581  0.40923988  1
  O  O22  1  0.02300039  0.33572202  0.39199666  1
  O  O23  1  0.18035500  0.59080896  0.16751197  1
  O  O24  1  0.07541690  0.69749827  0.38370930  1
  O  O25  1  0.37941661  0.98824039  0.03881332  1
  O  O26  1  0.06082831  0.12402948  0.64060990  1
  O  O27  1  0.32105385  0.18825631  0.15948636  1
  O  O28  1  0.38751784  0.50191480  0.50339005  1
  O  O29  1  0.39142756  0.95305825  0.76917360  1
  O  O30  1  0.48157363  0.82062523  0.42715901  1
  O  O31  1  0.55320742  0.63795419  0.29625285  1
  O  O32  1  0.36605684  0.25394909  0.73615274  1
  O  O33  1  0.28032479  0.65645952  0.96473011  1
  O  O34  1  0.43851536  0.63236320  0.72028929  1
  O  O35  1  0.78573209  0.09746219  0.09244933  1
  O  O36  1  0.58869953  0.12264934  0.50775742  1
  O  O37  1  0.67926941  0.22449162  0.30138336  1
  O  O38  1  0.83431911  0.46728583  0.08290782  1
  O  O39  1  0.83045268  0.76789803  0.04394728  1
  O  O40  1  0.52807027  0.29718394  0.95111461  1
  O  O41  1  0.90922076  0.79850820  0.61636194  1
  O  O42  1  0.80001916  0.67853030  0.82675250  1
  O  O43  1  0.87896422  0.47945043  0.71653719  1
  O  O44  1  0.92490700  0.06390434  0.84596452  1
