# generated using pymatgen
data_Li5Mn4(P2O7)4
_symmetry_space_group_name_H-M   'P 1'
_cell_length_a   9.81276294
_cell_length_b   9.79439241
_cell_length_c   11.28100727
_cell_angle_alpha   90.16055183
_cell_angle_beta   102.11123428
_cell_angle_gamma   89.83682257
_symmetry_Int_Tables_number   1
_chemical_formula_structural   Li5Mn4(P2O7)4
_chemical_formula_sum   'Li10 Mn8 P16 O56'
_cell_volume   1060.07878710
_cell_formula_units_Z   2
loop_
 _symmetry_equiv_pos_site_id
 _symmetry_equiv_pos_as_xyz
  1  'x, y, z'
loop_
 _atom_site_type_symbol
 _atom_site_label
 _atom_site_symmetry_multiplicity
 _atom_site_fract_x
 _atom_site_fract_y
 _atom_site_fract_z
 _atom_site_occupancy
  Li  Li0  1  0.08792367  0.10622807  0.02380631  1
  Li  Li1  1  0.40872849  0.60970813  0.97385440  1
  Li  Li2  1  0.33885211  0.91717102  0.46313141  1
  Li  Li3  1  0.39017988  0.21913326  0.55026739  1
  Li  Li4  1  0.58480191  0.39450903  0.02712198  1
  Li  Li5  1  0.85085889  0.58756822  0.95185002  1
  Li  Li6  1  0.64607881  0.09196603  0.04533089  1
  Li  Li7  1  0.91120642  0.89332216  0.96923497  1
  Li  Li8  1  0.83948705  0.57984194  0.46403651  1
  Li  Li9  1  0.88974667  0.28007613  0.55086247  1
  Mn  Mn10  1  0.20352308  0.91905053  0.67503253  1
  Mn  Mn11  1  0.25485781  0.20947673  0.82439498  1
  Mn  Mn12  1  0.23335886  0.71507513  0.17295843  1
  Mn  Mn13  1  0.30597600  0.42866312  0.33348713  1
  Mn  Mn14  1  0.70502564  0.57869489  0.67297017  1
  Mn  Mn15  1  0.75450108  0.28631491  0.82522157  1
  Mn  Mn16  1  0.73316760  0.78463300  0.17303990  1
  Mn  Mn17  1  0.80429033  0.07070957  0.33504983  1
  P  P18  1  0.02558591  0.44836636  0.75405662  1
  P  P19  1  0.11895398  0.70771809  0.88935826  1
  P  P20  1  0.06059537  0.93249998  0.23985646  1
  P  P21  1  0.13030519  0.15416464  0.42454495  1
  P  P22  1  0.37748752  0.64127911  0.56967746  1
  P  P23  1  0.43803010  0.42920728  0.75782685  1
  P  P24  1  0.52130122  0.04994692  0.75697674  1
  P  P25  1  0.37863141  0.21114061  0.11722503  1
  P  P26  1  0.61548367  0.79335703  0.89104422  1
  P  P27  1  0.46816959  0.93998314  0.24285491  1
  P  P28  1  0.56067745  0.56798271  0.24172369  1
  P  P29  1  0.62936845  0.34597451  0.42424712  1
  P  P30  1  0.88041990  0.85433350  0.57544130  1
  P  P31  1  0.93774861  0.07205485  0.75688131  1
  P  P32  1  0.88226348  0.29269264  0.11403646  1
  P  P33  1  0.97034202  0.55947016  0.24177866  1
  O  O34  1  0.01587024  0.42187945  0.62198068  1
  O  O35  1  0.03626861  0.85044717  0.56986566  1
  O  O36  1  0.08655928  0.08156267  0.72982017  1
  O  O37  1  0.10835735  0.34335929  0.84249475  1
  O  O38  1  0.10605358  0.59022874  0.78712810  1
  O  O39  1  0.17471977  0.82900078  0.83135151  1
  O  O40  1  0.22681943  0.65425528  0.00287446  1
  O  O41  1  0.01757441  0.26112073  0.08081847  1
  O  O42  1  0.11861930  0.07605202  0.29507031  1
  O  O43  1  0.05811056  0.93587394  0.10582769  1
  O  O44  1  0.11878829  0.55804996  0.20953553  1
  O  O45  1  0.20070833  0.28955516  0.40864039  1
  O  O46  1  0.16753455  0.82313896  0.30046532  1
  O  O47  1  0.22724125  0.06597522  0.51937218  1
  O  O48  1  0.28893115  0.56063846  0.46345999  1
  O  O49  1  0.34565820  0.30830239  0.70158915  1
  O  O50  1  0.31810069  0.78405429  0.58423216  1
  O  O51  1  0.36654892  0.03566931  0.78048925  1
  O  O52  1  0.36666614  0.56520307  0.69449326  1
  O  O53  1  0.43779159  0.44189544  0.89106281  1
  O  O54  1  0.47867859  0.76810099  0.92367607  1
  O  O55  1  0.27016099  0.16355609  0.00490526  1
  O  O56  1  0.32197770  0.32867881  0.18442274  1
  O  O57  1  0.39794055  0.08754535  0.21414326  1
  O  O58  1  0.41384267  0.58437487  0.27233445  1
  O  O59  1  0.37853088  0.83970762  0.15238936  1
  O  O60  1  0.52215896  0.08623309  0.62859726  1
  O  O61  1  0.48090388  0.33509217  0.44375621  1
  O  O62  1  0.53164672  0.64733856  0.56473122  1
  O  O63  1  0.47552219  0.91506538  0.37393362  1
  O  O64  1  0.60433996  0.14274734  0.85727799  1
  O  O65  1  0.58578004  0.41748445  0.72922706  1
  O  O66  1  0.59392759  0.90198576  0.78113335  1
  O  O67  1  0.68927994  0.67360378  0.84331275  1
  O  O68  1  0.72187061  0.86231176  0.00248275  1
  O  O69  1  0.51848899  0.23332773  0.08509169  1
  O  O70  1  0.55914699  0.56436531  0.10779226  1
  O  O71  1  0.62037455  0.42407869  0.29541558  1
  O  O72  1  0.61638465  0.94687885  0.20556372  1
  O  O73  1  0.69458757  0.20763631  0.40713002  1
  O  O74  1  0.66686712  0.67874811  0.30115728  1
  O  O75  1  0.72780673  0.43224027  0.51866515  1
  O  O76  1  0.79275540  0.93156269  0.46762257  1
  O  O77  1  0.84594156  0.18924275  0.69577667  1
  O  O78  1  0.82506027  0.71063854  0.59020879  1
  O  O79  1  0.87681015  0.46746139  0.78779601  1
  O  O80  1  0.93403163  0.06304135  0.88996685  1
  O  O81  1  0.86988888  0.93089076  0.69960661  1
  O  O82  1  0.97873207  0.72564890  0.92223043  1
  O  O83  1  0.77522574  0.35837096  0.00635260  1
  O  O84  1  0.80949673  0.17354891  0.16893842  1
  O  O85  1  0.90945354  0.40719914  0.22080831  1
  O  O86  1  0.87360998  0.64982342  0.14239265  1
  O  O87  1  0.91232481  0.91464024  0.26861434  1
  O  O88  1  0.98181872  0.16787474  0.44323465  1
  O  O89  1  0.96835980  0.59648322  0.36885023  1
