# generated using pymatgen
data_Mn3(O2F)2
_symmetry_space_group_name_H-M   'P 1'
_cell_length_a   7.21038161
_cell_length_b   5.57439249
_cell_length_c   5.51845569
_cell_angle_alpha   72.09665172
_cell_angle_beta   72.53218602
_cell_angle_gamma   72.80694793
_symmetry_Int_Tables_number   1
_chemical_formula_structural   Mn3(O2F)2
_chemical_formula_sum   'Mn6 O8 F4'
_cell_volume   196.21662102
_cell_formula_units_Z   2
loop_
 _symmetry_equiv_pos_site_id
 _symmetry_equiv_pos_as_xyz
  1  'x, y, z'
loop_
 _atom_site_type_symbol
 _atom_site_label
 _atom_site_symmetry_multiplicity
 _atom_site_fract_x
 _atom_site_fract_y
 _atom_site_fract_z
 _atom_site_occupancy
  Mn  Mn0  1  0.83333300  0.66666700  0.66666700  1
  Mn  Mn1  1  0.67568012  0.36488984  0.31074093  1
  Mn  Mn2  1  0.33333300  0.66666700  0.66666700  1
  Mn  Mn3  1  0.16138044  0.31974515  0.31126958  1
  Mn  Mn4  1  0.50528656  0.01358785  0.02206442  1
  Mn  Mn5  1  0.99098688  0.96844316  0.02259207  1
  O  O6  1  0.33459656  0.35887468  0.97279183  1
  O  O7  1  0.62864340  0.56969072  0.55962132  1
  O  O8  1  0.96263603  0.22250953  0.22463591  1
  O  O9  1  0.70402997  0.11082347  0.10869709  1
  O  O10  1  0.03802360  0.76364228  0.77371168  1
  O  O11  1  0.33207044  0.97445932  0.36054117  1
  O  O12  1  0.65950536  0.66021561  0.02149321  1
  O  O13  1  0.00716064  0.67311739  0.31183979  1
  F  F14  1  0.65101380  0.06098942  0.63968782  1
  F  F15  1  0.29964222  0.90871164  0.91044117  1
  F  F16  1  0.36702478  0.42462136  0.42289183  1
  F  F17  1  0.01565220  0.27234358  0.69364518  1
