# generated using pymatgen
data_Li3V3P8O29
_symmetry_space_group_name_H-M   'P 1'
_cell_length_a   9.76316805
_cell_length_b   9.76334160
_cell_length_c   14.20847946
_cell_angle_alpha   90.33666155
_cell_angle_beta   90.50240648
_cell_angle_gamma   60.09683050
_symmetry_Int_Tables_number   1
_chemical_formula_structural   Li3V3P8O29
_chemical_formula_sum   'Li6 V6 P16 O58'
_cell_volume   1174.01342064
_cell_formula_units_Z   2
loop_
 _symmetry_equiv_pos_site_id
 _symmetry_equiv_pos_as_xyz
  1  'x, y, z'
loop_
 _atom_site_type_symbol
 _atom_site_label
 _atom_site_symmetry_multiplicity
 _atom_site_fract_x
 _atom_site_fract_y
 _atom_site_fract_z
 _atom_site_occupancy
  Li  Li0  1  0.66842213  0.68030604  0.89681827  1
  Li  Li1  1  0.77117095  0.31248250  0.05661602  1
  Li  Li2  1  0.67337833  0.23191624  0.44422989  1
  Li  Li3  1  0.33405649  0.76410196  0.55625430  1
  Li  Li4  1  0.03916308  0.94510897  0.99642818  1
  Li  Li5  1  0.99970436  0.00191469  0.49868759  1
  V  V6  1  0.56023600  0.43871981  0.24797719  1
  V  V7  1  0.42915169  0.56736223  0.75357224  1
  V  V8  1  0.56693779  0.99922510  0.75049613  1
  V  V9  1  0.43668918  0.00301324  0.24500997  1
  V  V10  1  0.99882282  0.56223261  0.25349945  1
  V  V11  1  0.00173471  0.43502656  0.74313035  1
  P  P12  1  0.91521489  0.77875425  0.84221237  1
  P  P13  1  0.77768297  0.91786827  0.33879826  1
  P  P14  1  0.91525104  0.30391843  0.34539321  1
  P  P15  1  0.66794379  0.66369432  0.13192309  1
  P  P16  1  0.66074696  0.66786903  0.63147915  1
  P  P17  1  0.77801614  0.31942001  0.83937490  1
  P  P18  1  0.68591459  0.22646977  0.66065991  1
  P  P19  1  0.30653980  0.91499333  0.84704642  1
  P  P20  1  0.69538399  0.08383147  0.15329630  1
  P  P21  1  0.31440622  0.77866578  0.34020647  1
  P  P22  1  0.21587224  0.69303557  0.16102467  1
  P  P23  1  0.33642420  0.33179925  0.36624016  1
  P  P24  1  0.33174917  0.33182991  0.86821289  1
  P  P25  1  0.08010962  0.70041133  0.65605673  1
  P  P26  1  0.22361746  0.07968703  0.66068983  1
  P  P27  1  0.08145325  0.22359369  0.16038782  1
  O  O28  1  0.00810525  0.79581134  0.57056421  1
  O  O29  1  0.90968514  0.74209917  0.33289319  1
  O  O30  1  0.78731397  0.01310641  0.06714275  1
  O  O31  1  0.73784375  0.91439291  0.83232430  1
  O  O32  1  0.90792961  0.62368433  0.83078723  1
  O  O33  1  0.81452289  0.65967507  0.17910296  1
  O  O34  1  0.92425613  0.45789185  0.33317525  1
  O  O35  1  0.99439529  0.21456470  0.07659242  1
  O  O36  1  0.91847043  0.35010354  0.82938372  1
  O  O37  1  0.65985102  0.81301109  0.68122759  1
  O  O38  1  0.61586233  0.92533640  0.32694143  1
  O  O39  1  0.81084788  0.52232386  0.67625689  1
  O  O40  1  0.67281535  0.65577816  0.02683114  1
  O  O41  1  0.65505378  0.67267635  0.52725469  1
  O  O42  1  0.66859967  0.51135539  0.17000402  1
  O  O43  1  0.46984713  0.90542492  0.83690477  1
  O  O44  1  0.52235598  0.81221200  0.17330888  1
  O  O45  1  0.73727593  0.34852698  0.33411182  1
  O  O46  1  0.79641756  0.20859829  0.75011859  1
  O  O47  1  0.76557888  0.21636132  0.57005610  1
  O  O48  1  0.77935166  0.24195321  0.92898596  1
  O  O49  1  0.62433598  0.48367604  0.82571723  1
  O  O50  1  0.51045845  0.66835188  0.67172613  1
  O  O51  1  0.65300073  0.26148724  0.16341792  1
  O  O52  1  0.47085013  0.61910410  0.32334987  1
  O  O53  1  0.35057421  0.91403934  0.32646011  1
  O  O54  1  0.79967842  0.99901090  0.24579170  1
  O  O55  1  0.79191669  0.00449317  0.42176881  1
  O  O56  1  0.20849393  0.99333563  0.57813059  1
  O  O57  1  0.65200414  0.08741590  0.67139933  1
  O  O58  1  0.53181053  0.38386936  0.67693702  1
  O  O59  1  0.34517077  0.73857317  0.83215504  1
  O  O60  1  0.48725392  0.33140959  0.32285284  1
  O  O61  1  0.37890272  0.53677592  0.17399686  1
  O  O62  1  0.20463724  0.78472980  0.07649962  1
  O  O63  1  0.24112803  0.78411745  0.43249093  1
  O  O64  1  0.19811703  0.79463499  0.25561066  1
  O  O65  1  0.25828085  0.65616073  0.66518398  1
  O  O66  1  0.47194355  0.18100051  0.82251168  1
  O  O67  1  0.53954603  0.07829029  0.16747738  1
  O  O68  1  0.34344317  0.47477167  0.82333779  1
  O  O69  1  0.33420518  0.33414138  0.97195130  1
  O  O70  1  0.35166756  0.32683086  0.47033248  1
  O  O71  1  0.18796849  0.47890220  0.32413804  1
  O  O72  1  0.38422686  0.07294309  0.67247053  1
  O  O73  1  0.33742389  0.18633426  0.31846911  1
  O  O74  1  0.08475723  0.64924266  0.17080517  1
  O  O75  1  0.99868633  0.79897876  0.74993872  1
  O  O76  1  0.99242438  0.79789612  0.92684310  1
  O  O77  1  0.07285818  0.54516704  0.66919631  1
  O  O78  1  0.18144183  0.34560055  0.81891531  1
  O  O79  1  0.07730237  0.38368517  0.17404650  1
  O  O80  1  0.25731111  0.09042023  0.16590516  1
  O  O81  1  0.21053547  0.98625512  0.93180087  1
  O  O82  1  0.20219403  0.00256630  0.75496726  1
  O  O83  1  0.08979354  0.25664919  0.66535570  1
  O  O84  1  0.98437376  0.20723678  0.43099366  1
  O  O85  1  0.00083578  0.20027294  0.25309768  1
