# generated using pymatgen
data_LiCrP3H8O13
_symmetry_space_group_name_H-M   'P 1'
_cell_length_a   7.69271519
_cell_length_b   9.96535052
_cell_length_c   7.18480917
_cell_angle_alpha   105.57558754
_cell_angle_beta   102.14394299
_cell_angle_gamma   82.72233703
_symmetry_Int_Tables_number   1
_chemical_formula_structural   LiCrP3H8O13
_chemical_formula_sum   'Li2 Cr2 P6 H16 O26'
_cell_volume   517.24939276
_cell_formula_units_Z   2
loop_
 _symmetry_equiv_pos_site_id
 _symmetry_equiv_pos_as_xyz
  1  'x, y, z'
loop_
 _atom_site_type_symbol
 _atom_site_label
 _atom_site_symmetry_multiplicity
 _atom_site_fract_x
 _atom_site_fract_y
 _atom_site_fract_z
 _atom_site_occupancy
  Li  Li0  1  0.00000000  0.00000000  0.00000000  1
  Li  Li1  1  0.50000000  0.50000000  0.00000000  1
  Cr  Cr2  1  0.18138324  0.23049663  0.80730914  1
  Cr  Cr3  1  0.81861676  0.76950337  0.19269086  1
  P  P4  1  0.19467339  0.25762749  0.32629202  1
  P  P5  1  0.19418361  0.52493448  0.24173885  1
  P  P6  1  0.54067053  0.26905589  0.59311547  1
  P  P7  1  0.45932947  0.73094411  0.40688453  1
  P  P8  1  0.80581639  0.47506552  0.75826115  1
  P  P9  1  0.80532661  0.74237251  0.67370798  1
  H  H10  1  0.01956805  0.03648486  0.36031727  1
  H  H11  1  0.18313748  0.56981129  0.81904174  1
  H  H12  1  0.13845048  0.89863482  0.31079693  1
  H  H13  1  0.26055476  0.79507601  0.92000151  1
  H  H14  1  0.30553493  0.60191394  0.69130699  1
  H  H15  1  0.33533336  0.99121286  0.85753410  1
  H  H16  1  0.37184907  0.99863757  0.65131454  1
  H  H17  1  0.34027029  0.91412466  0.09934351  1
  H  H18  1  0.65972971  0.08587534  0.90065649  1
  H  H19  1  0.62815093  0.00136243  0.34868546  1
  H  H20  1  0.66466664  0.00878714  0.14246590  1
  H  H21  1  0.69446507  0.39808606  0.30869301  1
  H  H22  1  0.73944524  0.20492399  0.07999849  1
  H  H23  1  0.86154952  0.10136518  0.68920307  1
  H  H24  1  0.81686252  0.43018871  0.18095826  1
  H  H25  1  0.98043195  0.96351514  0.63968273  1
  O  O26  1  0.12275347  0.20880294  0.47354834  1
  O  O27  1  0.01665892  0.94200770  0.27025661  1
  O  O28  1  0.03465143  0.62091878  0.19285785  1
  O  O29  1  0.13743787  0.42517567  0.36087395  1
  O  O30  1  0.14555389  0.18671982  0.11196744  1
  O  O31  1  0.25519029  0.89880188  0.97439497  1
  O  O32  1  0.28519288  0.62142706  0.82636690  1
  O  O33  1  0.37024315  0.05650827  0.78759148  1
  O  O34  1  0.43982873  0.32783837  0.75835596  1
  O  O35  1  0.29012030  0.44067887  0.08308276  1
  O  O36  1  0.33883456  0.61111016  0.42177378  1
  O  O37  1  0.41108346  0.25370993  0.38070227  1
  O  O38  1  0.34676652  0.86648161  0.41652351  1
  O  O39  1  0.65323348  0.13351839  0.58347649  1
  O  O40  1  0.58891654  0.74629007  0.61929773  1
  O  O41  1  0.66116544  0.38888984  0.57822622  1
  O  O42  1  0.70987970  0.55932113  0.91691724  1
  O  O43  1  0.56017127  0.67216163  0.24164404  1
  O  O44  1  0.62975685  0.94349173  0.21240852  1
  O  O45  1  0.71480712  0.37857294  0.17363310  1
  O  O46  1  0.74480971  0.10119812  0.02560503  1
  O  O47  1  0.85444611  0.81328018  0.88803256  1
  O  O48  1  0.86256213  0.57482433  0.63912605  1
  O  O49  1  0.96534857  0.37908122  0.80714215  1
  O  O50  1  0.98334108  0.05799230  0.72974339  1
  O  O51  1  0.87724653  0.79119706  0.52645166  1
