# generated using pymatgen
data_Ni(PO3)3
_symmetry_space_group_name_H-M   'P 1'
_cell_length_a   13.69599617
_cell_length_b   10.63053077
_cell_length_c   10.00157427
_cell_angle_alpha   90.00000000
_cell_angle_beta   90.00000000
_cell_angle_gamma   90.00000000
_symmetry_Int_Tables_number   1
_chemical_formula_structural   Ni(PO3)3
_chemical_formula_sum   'Ni8 P24 O72'
_cell_volume   1456.18629407
_cell_formula_units_Z   8
loop_
 _symmetry_equiv_pos_site_id
 _symmetry_equiv_pos_as_xyz
  1  'x, y, z'
loop_
 _atom_site_type_symbol
 _atom_site_label
 _atom_site_symmetry_multiplicity
 _atom_site_fract_x
 _atom_site_fract_y
 _atom_site_fract_z
 _atom_site_occupancy
  Ni  Ni0  1  0.00000000  0.00000000  0.00000000  1
  Ni  Ni1  1  0.00000000  0.00000000  0.50000000  1
  Ni  Ni2  1  0.25000000  0.50000000  0.02766953  1
  Ni  Ni3  1  0.25000000  0.50000000  0.52766953  1
  Ni  Ni4  1  0.50000000  0.00000000  0.00000000  1
  Ni  Ni5  1  0.50000000  0.00000000  0.50000000  1
  Ni  Ni6  1  0.75000000  0.50000000  0.47233047  1
  Ni  Ni7  1  0.75000000  0.50000000  0.97233047  1
  P  P8  1  0.10194503  0.47680371  0.28703960  1
  P  P9  1  0.10194503  0.52319629  0.78703960  1
  P  P10  1  0.12494260  0.25326296  0.45092410  1
  P  P11  1  0.12494260  0.74673704  0.95092410  1
  P  P12  1  0.14641469  0.04777758  0.26260213  1
  P  P13  1  0.14641469  0.95222242  0.76260213  1
  P  P14  1  0.35358531  0.04777758  0.76260213  1
  P  P15  1  0.35358531  0.95222242  0.26260213  1
  P  P16  1  0.37505740  0.25326296  0.95092410  1
  P  P17  1  0.37505740  0.74673704  0.45092410  1
  P  P18  1  0.39805497  0.52319629  0.28703960  1
  P  P19  1  0.39805497  0.47680371  0.78703960  1
  P  P20  1  0.60194503  0.47680371  0.71296040  1
  P  P21  1  0.60194503  0.52319629  0.21296040  1
  P  P22  1  0.62494260  0.25326296  0.54907590  1
  P  P23  1  0.62494260  0.74673704  0.04907590  1
  P  P24  1  0.64641469  0.04777758  0.73739787  1
  P  P25  1  0.64641469  0.95222242  0.23739787  1
  P  P26  1  0.85358531  0.04777758  0.23739787  1
  P  P27  1  0.85358531  0.95222242  0.73739787  1
  P  P28  1  0.87505740  0.25326296  0.04907590  1
  P  P29  1  0.87505740  0.74673704  0.54907590  1
  P  P30  1  0.89805497  0.47680371  0.21296040  1
  P  P31  1  0.89805497  0.52319629  0.71296040  1
  O  O32  1  0.00000000  0.54371006  0.25000000  1
  O  O33  1  0.00000000  0.45628994  0.75000000  1
  O  O34  1  0.05873640  0.16939874  0.53132236  1
  O  O35  1  0.05873640  0.83060126  0.03132236  1
  O  O36  1  0.06237786  0.35105337  0.36248653  1
  O  O37  1  0.06237786  0.64894663  0.86248653  1
  O  O38  1  0.08554168  0.08245826  0.14408041  1
  O  O39  1  0.08554168  0.91754174  0.64408041  1
  O  O40  1  0.10571262  0.04260713  0.86440123  1
  O  O41  1  0.10571262  0.95739287  0.36440123  1
  O  O42  1  0.15339306  0.43559937  0.16199368  1
  O  O43  1  0.15339306  0.56440063  0.66199368  1
  O  O44  1  0.15471633  0.43905553  0.88396934  1
  O  O45  1  0.15471633  0.56094447  0.38396934  1
  O  O46  1  0.18192785  0.17504851  0.33755502  1
  O  O47  1  0.18192785  0.82495149  0.83755502  1
  O  O48  1  0.19647845  0.32353172  0.53705915  1
  O  O49  1  0.19647845  0.67646828  0.03705915  1
  O  O50  1  0.25000000  0.00000000  0.20677279  1
  O  O51  1  0.25000000  0.00000000  0.70677279  1
  O  O52  1  0.30352155  0.32353172  0.03705915  1
  O  O53  1  0.30352155  0.67646828  0.53705915  1
  O  O54  1  0.31807215  0.17504851  0.83755502  1
  O  O55  1  0.31807215  0.82495149  0.33755502  1
  O  O56  1  0.34528367  0.43905553  0.38396934  1
  O  O57  1  0.34528367  0.56094447  0.88396934  1
  O  O58  1  0.34660694  0.43559937  0.66199368  1
  O  O59  1  0.34660694  0.56440063  0.16199368  1
  O  O60  1  0.39428738  0.04260713  0.36440123  1
  O  O61  1  0.39428738  0.95739287  0.86440123  1
  O  O62  1  0.41445832  0.08245826  0.64408041  1
  O  O63  1  0.41445832  0.91754174  0.14408041  1
  O  O64  1  0.43762214  0.64894663  0.36248653  1
  O  O65  1  0.43762214  0.35105337  0.86248653  1
  O  O66  1  0.44126360  0.16939874  0.03132236  1
  O  O67  1  0.44126360  0.83060126  0.53132236  1
  O  O68  1  0.50000000  0.45628994  0.25000000  1
  O  O69  1  0.50000000  0.54371006  0.75000000  1
  O  O70  1  0.55873640  0.16939874  0.46867764  1
  O  O71  1  0.55873640  0.83060126  0.96867764  1
  O  O72  1  0.56237786  0.35105337  0.63751347  1
  O  O73  1  0.56237786  0.64894663  0.13751347  1
  O  O74  1  0.58554168  0.08245826  0.85591959  1
  O  O75  1  0.58554168  0.91754174  0.35591959  1
  O  O76  1  0.60571262  0.04260713  0.13559877  1
  O  O77  1  0.60571262  0.95739287  0.63559877  1
  O  O78  1  0.65339306  0.43559937  0.83800632  1
  O  O79  1  0.65339306  0.56440063  0.33800632  1
  O  O80  1  0.65471633  0.43905553  0.11603066  1
  O  O81  1  0.65471633  0.56094447  0.61603066  1
  O  O82  1  0.68192785  0.17504851  0.66244498  1
  O  O83  1  0.68192785  0.82495149  0.16244498  1
  O  O84  1  0.69647845  0.32353172  0.46294085  1
  O  O85  1  0.69647845  0.67646828  0.96294085  1
  O  O86  1  0.75000000  0.00000000  0.29322721  1
  O  O87  1  0.75000000  0.00000000  0.79322721  1
  O  O88  1  0.80352155  0.32353172  0.96294085  1
  O  O89  1  0.80352155  0.67646828  0.46294085  1
  O  O90  1  0.81807215  0.17504851  0.16244498  1
  O  O91  1  0.81807215  0.82495149  0.66244498  1
  O  O92  1  0.84528367  0.43905553  0.61603066  1
  O  O93  1  0.84528367  0.56094447  0.11603066  1
  O  O94  1  0.84660694  0.43559937  0.33800632  1
  O  O95  1  0.84660694  0.56440063  0.83800632  1
  O  O96  1  0.89428738  0.04260713  0.63559877  1
  O  O97  1  0.89428738  0.95739287  0.13559877  1
  O  O98  1  0.91445832  0.08245826  0.35591959  1
  O  O99  1  0.91445832  0.91754174  0.85591959  1
  O  O100  1  0.93762214  0.35105337  0.13751347  1
  O  O101  1  0.93762214  0.64894663  0.63751347  1
  O  O102  1  0.94126360  0.16939874  0.96867764  1
  O  O103  1  0.94126360  0.83060126  0.46867764  1
