# generated using pymatgen
data_LiV2P4(HO8)2
_symmetry_space_group_name_H-M   'P 1'
_cell_length_a   9.28741063
_cell_length_b   9.27979431
_cell_length_c   7.37450480
_cell_angle_alpha   97.51863045
_cell_angle_beta   97.56868486
_cell_angle_gamma   116.54007930
_symmetry_Int_Tables_number   1
_chemical_formula_structural   LiV2P4(HO8)2
_chemical_formula_sum   'Li2 V4 P8 H4 O32'
_cell_volume   550.59781299
_cell_formula_units_Z   2
loop_
 _symmetry_equiv_pos_site_id
 _symmetry_equiv_pos_as_xyz
  1  'x, y, z'
loop_
 _atom_site_type_symbol
 _atom_site_label
 _atom_site_symmetry_multiplicity
 _atom_site_fract_x
 _atom_site_fract_y
 _atom_site_fract_z
 _atom_site_occupancy
  Li  Li0  1  0.26307145  0.13416116  0.85113149  1
  Li  Li1  1  0.36780910  0.73716833  0.65211751  1
  V  V2  1  -0.00004559  0.50046156  0.00284146  1
  V  V3  1  0.50761683  0.49785046  0.49066992  1
  V  V4  1  0.99241981  0.99723210  0.49145031  1
  V  V5  1  0.50590703  0.00259765  0.01314823  1
  P  P6  1  0.26040732  0.11002881  0.23462918  1
  P  P7  1  0.23500104  0.39152369  0.76333083  1
  P  P8  1  0.61153128  0.26336703  0.73301764  1
  P  P9  1  0.11072701  0.76492899  0.73856864  1
  P  P10  1  0.38825592  0.73695161  0.26814449  1
  P  P11  1  0.88965713  0.24443435  0.27339682  1
  P  P12  1  0.76004920  0.61272920  0.22222838  1
  P  P13  1  0.73639129  0.88669319  0.76508249  1
  H  H14  1  0.51653822  0.02590267  0.51256895  1
  H  H15  1  0.00641954  0.51355244  0.50708335  1
  H  H16  1  0.48113400  0.48904521  0.98872642  1
  H  H17  1  0.97461619  0.98468780  0.98778079  1
  O  O18  1  0.15189367  0.20917986  0.65832877  1
  O  O19  1  0.10363751  0.43639971  0.82284002  1
  O  O20  1  0.14903993  0.09499549  0.05557171  1
  O  O21  1  0.99413430  0.33563860  0.13274195  1
  O  O22  1  0.49463893  0.16945923  0.85668212  1
  O  O23  1  0.35039048  0.39864343  0.93975824  1
  O  O24  1  0.39383534  0.06544676  0.18673560  1
  O  O25  1  0.35431649  0.29558089  0.35056461  1
  O  O26  1  0.59957033  0.15110488  0.55295277  1
  O  O27  1  0.10022666  0.64964025  0.56248279  1
  O  O28  1  0.82883729  0.99739061  0.63680613  1
  O  O29  1  0.33157627  0.50713866  0.63976573  1
  O  O30  1  0.56826165  0.39738259  0.67435621  1
  O  O31  1  0.07285573  0.90205170  0.69014388  1
  O  O32  1  0.29444673  0.84807593  0.84594892  1
  O  O33  1  0.79134079  0.35139733  0.84785410  1
  O  O34  1  0.20567735  0.64640459  0.15204540  1
  O  O35  1  0.70785178  0.15184898  0.15455050  1
  O  O36  1  0.93578816  0.11203691  0.31807797  1
  O  O37  1  0.43183987  0.59995468  0.32097138  1
  O  O38  1  0.66809070  0.50303139  0.35981810  1
  O  O39  1  0.17026686  0.00580311  0.36954569  1
  O  O40  1  0.40531592  0.84789330  0.44770562  1
  O  O41  1  0.90774469  0.36268180  0.44498001  1
  O  O42  1  0.64882987  0.70363472  0.64861860  1
  O  O43  1  0.59664097  0.92105968  0.81287776  1
  O  O44  1  0.64148888  0.59094169  0.04977705  1
  O  O45  1  0.49738575  0.82585002  0.13700492  1
  O  O46  1  0.00090840  0.66787800  0.86792927  1
  O  O47  1  0.84834003  0.90248056  0.94768345  1
  O  O48  1  0.89540847  0.56690254  0.17673074  1
  O  O49  1  0.84918240  0.79149290  0.34223410  1
