# generated using pymatgen
data_V9O22
_symmetry_space_group_name_H-M   'P 1'
_cell_length_a   22.18655533
_cell_length_b   3.65304435
_cell_length_c   10.34576418
_cell_angle_alpha   90.00000000
_cell_angle_beta   74.47856093
_cell_angle_gamma   90.00000000
_symmetry_Int_Tables_number   1
_chemical_formula_structural   V9O22
_chemical_formula_sum   'V18 O44'
_cell_volume   807.92829116
_cell_formula_units_Z   2
loop_
 _symmetry_equiv_pos_site_id
 _symmetry_equiv_pos_as_xyz
  1  'x, y, z'
loop_
 _atom_site_type_symbol
 _atom_site_label
 _atom_site_symmetry_multiplicity
 _atom_site_fract_x
 _atom_site_fract_y
 _atom_site_fract_z
 _atom_site_occupancy
  V  V0  1  0.02667034  0.25000000  0.59300404  1
  V  V1  1  0.09081908  0.75000000  0.13391995  1
  V  V2  1  0.06116338  0.25000000  0.90423649  1
  V  V3  1  0.28450786  0.25000000  0.17423314  1
  V  V4  1  0.25423951  0.75000000  0.94683139  1
  V  V5  1  0.31435646  0.25000000  0.49100542  1
  V  V6  1  0.36772862  0.75000000  0.67451605  1
  V  V7  1  0.42962811  0.25000000  0.21886888  1
  V  V8  1  0.40694176  0.75000000  0.98560307  1
  V  V9  1  0.59253205  0.25000000  0.01353816  1
  V  V10  1  0.56970374  0.75000000  0.77987702  1
  V  V11  1  0.63204025  0.25000000  0.32458898  1
  V  V12  1  0.68575791  0.75000000  0.50800708  1
  V  V13  1  0.74556841  0.25000000  0.05200451  1
  V  V14  1  0.71455906  0.75000000  0.82526776  1
  V  V15  1  0.93925144  0.75000000  0.09679778  1
  V  V16  1  0.90950680  0.25000000  0.86710054  1
  V  V17  1  0.97327251  0.75000000  0.40803309  1
  O  O18  1  0.00429040  0.75000000  0.57459004  1
  O  O19  1  0.07946818  0.25000000  0.08809375  1
  O  O20  1  0.01065816  0.25000000  0.78111872  1
  O  O21  1  0.09369254  0.75000000  0.28888830  1
  O  O22  1  0.04607468  0.75000000  0.95456833  1
  O  O23  1  0.10107320  0.25000000  0.54586773  1
  O  O24  1  0.17241384  0.75000000  0.04100785  1
  O  O25  1  0.13003566  0.25000000  0.80466456  1
  O  O26  1  0.21508460  0.25000000  0.27145587  1
  O  O27  1  0.23986404  0.25000000  0.53481663  1
  O  O28  1  0.30180705  0.75000000  0.12345768  1
  O  O29  1  0.25004214  0.75000000  0.79300141  1
  O  O30  1  0.33309383  0.25000000  0.29921205  1
  O  O31  1  0.26569221  0.25000000  0.99211955  1
  O  O32  1  0.39106543  0.25000000  0.02905430  1
  O  O33  1  0.33616398  0.75000000  0.50553358  1
  O  O34  1  0.34390251  0.25000000  0.65562172  1
  O  O35  1  0.42544841  0.75000000  0.16630979  1
  O  O36  1  0.35502972  0.75000000  0.85785367  1
  O  O37  1  0.43604452  0.25000000  0.37061015  1
  O  O38  1  0.44216334  0.75000000  0.61908138  1
  O  O39  1  0.51930094  0.25000000  0.11805147  1
  O  O40  1  0.48020087  0.75000000  0.88101861  1
  O  O41  1  0.55769337  0.25000000  0.38054452  1
  O  O42  1  0.56305491  0.75000000  0.62837876  1
  O  O43  1  0.64418838  0.25000000  0.14147539  1
  O  O44  1  0.57400068  0.25000000  0.83244511  1
  O  O45  1  0.65596645  0.75000000  0.34360530  1
  O  O46  1  0.66408365  0.25000000  0.49324605  1
  O  O47  1  0.73392285  0.75000000  0.00674536  1
  O  O48  1  0.60830527  0.75000000  0.97002042  1
  O  O49  1  0.66617709  0.75000000  0.69985261  1
  O  O50  1  0.74923725  0.25000000  0.20605550  1
  O  O51  1  0.69730622  0.25000000  0.87604390  1
  O  O52  1  0.76029892  0.75000000  0.46543624  1
  O  O53  1  0.78395784  0.75000000  0.72766181  1
  O  O54  1  0.87028996  0.75000000  0.19644658  1
  O  O55  1  0.82749908  0.25000000  0.95894178  1
  O  O56  1  0.89871973  0.75000000  0.45583404  1
  O  O57  1  0.95418668  0.25000000  0.04620034  1
  O  O58  1  0.90703828  0.25000000  0.71201314  1
  O  O59  1  0.98955361  0.75000000  0.21999398  1
  O  O60  1  0.92048077  0.75000000  0.91325497  1
  O  O61  1  0.99572547  0.25000000  0.42617368  1
