# generated using pymatgen
data_Li5La4TiNb7O28
_symmetry_space_group_name_H-M   'P 1'
_cell_length_a   5.59493843
_cell_length_b   5.59165675
_cell_length_c   19.00613039
_cell_angle_alpha   89.95384167
_cell_angle_beta   89.88540393
_cell_angle_gamma   89.97460794
_symmetry_Int_Tables_number   1
_chemical_formula_structural   Li5La4TiNb7O28
_chemical_formula_sum   'Li5 La4 Ti1 Nb7 O28'
_cell_volume   594.60487910
_cell_formula_units_Z   1
loop_
 _symmetry_equiv_pos_site_id
 _symmetry_equiv_pos_as_xyz
  1  'x, y, z'
loop_
 _atom_site_type_symbol
 _atom_site_label
 _atom_site_symmetry_multiplicity
 _atom_site_fract_x
 _atom_site_fract_y
 _atom_site_fract_z
 _atom_site_occupancy
  Li  Li0  1  0.00316478  0.99429856  0.24529127  1
  Li  Li1  1  0.00135310  0.99900590  0.75659013  1
  Li  Li2  1  0.49692546  0.99738179  0.25796563  1
  Li  Li3  1  0.48988747  0.50701612  0.27057823  1
  Li  Li4  1  0.49853653  0.50181261  0.73295601  1
  La  La5  1  0.23649928  0.76467767  0.99886003  1
  La  La6  1  0.26219472  0.26371655  0.49510495  1
  La  La7  1  0.73528652  0.74051803  0.49516393  1
  La  La8  1  0.76333258  0.23526314  0.99882205  1
  Ti  Ti9  1  0.24791808  0.75485259  0.38295130  1
  Nb  Nb10  1  0.24546399  0.75398610  0.61721819  1
  Nb  Nb11  1  0.25273892  0.25331304  0.11840604  1
  Nb  Nb12  1  0.25412939  0.25411995  0.87959493  1
  Nb  Nb13  1  0.74666987  0.74649490  0.11838273  1
  Nb  Nb14  1  0.74623731  0.74581570  0.87957621  1
  Nb  Nb15  1  0.75547586  0.25022364  0.38257981  1
  Nb  Nb16  1  0.75370358  0.24622297  0.61879636  1
  O  O17  1  0.00023700  0.99919003  0.12144262  1
  O  O18  1  0.99989204  0.49987313  0.09629281  1
  O  O19  1  0.00192469  0.99947713  0.41415382  1
  O  O20  1  0.00280334  0.50161691  0.40266672  1
  O  O21  1  0.99968261  0.00017838  0.58319989  1
  O  O22  1  0.99935678  0.49920484  0.59408965  1
  O  O23  1  0.00025205  0.99996799  0.88074156  1
  O  O24  1  0.00011014  0.49995209  0.90633948  1
  O  O25  1  0.19423313  0.19316151  0.00166864  1
  O  O26  1  0.24273468  0.79330054  0.29033137  1
  O  O27  1  0.21992138  0.77957385  0.71223450  1
  O  O28  1  0.29636737  0.26270533  0.21340495  1
  O  O29  1  0.28217026  0.28210755  0.78626854  1
  O  O30  1  0.30715535  0.69410835  0.49953198  1
  O  O31  1  0.49979196  0.49995219  0.08343572  1
  O  O32  1  0.49984154  0.99994236  0.09449898  1
  O  O33  1  0.50011887  0.99877526  0.40429735  1
  O  O34  1  0.49990062  0.50120461  0.37955451  1
  O  O35  1  0.50014673  0.99994913  0.90601173  1
  O  O36  1  0.50008606  0.49994933  0.91617368  1
  O  O37  1  0.50060143  0.00050682  0.59428654  1
  O  O38  1  0.50077662  0.49902067  0.62220074  1
  O  O39  1  0.69649332  0.30287451  0.49799312  1
  O  O40  1  0.70193455  0.73596574  0.21337941  1
  O  O41  1  0.71843447  0.71793040  0.78628886  1
  O  O42  1  0.75915918  0.20491107  0.28554376  1
  O  O43  1  0.78067143  0.21907362  0.71344082  1
  O  O44  1  0.80568499  0.80680539  0.00169144  1
