# generated using pymatgen
data_Mn2OF3
_symmetry_space_group_name_H-M   'P 1'
_cell_length_a   4.88376347
_cell_length_b   4.88376347
_cell_length_c   15.91330812
_cell_angle_alpha   90.00000000
_cell_angle_beta   90.00000000
_cell_angle_gamma   93.32818351
_symmetry_Int_Tables_number   1
_chemical_formula_structural   Mn2OF3
_chemical_formula_sum   'Mn10 O5 F15'
_cell_volume   378.91047146
_cell_formula_units_Z   5
loop_
 _symmetry_equiv_pos_site_id
 _symmetry_equiv_pos_as_xyz
  1  'x, y, z'
loop_
 _atom_site_type_symbol
 _atom_site_label
 _atom_site_symmetry_multiplicity
 _atom_site_fract_x
 _atom_site_fract_y
 _atom_site_fract_z
 _atom_site_occupancy
  Mn  Mn0  1  0.01464515  0.01464515  0.39933557  1
  Mn  Mn1  1  0.02338365  0.02338365  0.19932974  1
  Mn  Mn2  1  0.96411287  0.96411287  0.00000000  1
  Mn  Mn3  1  0.01464515  0.01464515  0.60066443  1
  Mn  Mn4  1  0.02338365  0.02338365  0.80067026  1
  Mn  Mn5  1  0.48021499  0.48021499  0.50000000  1
  Mn  Mn6  1  0.49482943  0.49482943  0.09983454  1
  Mn  Mn7  1  0.48822350  0.48822350  0.29963691  1
  Mn  Mn8  1  0.49482943  0.49482943  0.90016546  1
  Mn  Mn9  1  0.48822350  0.48822350  0.70036309  1
  O  O10  1  0.32016548  0.32016548  0.19792528  1
  O  O11  1  0.30669595  0.30669595  0.39770622  1
  O  O12  1  0.30669595  0.30669595  0.60229378  1
  O  O13  1  0.32016548  0.32016548  0.80207472  1
  O  O14  1  0.66535109  0.66535109  0.00000000  1
  F  F15  1  0.19665031  0.79305915  0.89979100  1
  F  F16  1  0.19665031  0.79305915  0.10020900  1
  F  F17  1  0.20041924  0.81091996  0.30029861  1
  F  F18  1  0.19518459  0.80810312  0.50000000  1
  F  F19  1  0.20041924  0.81091996  0.69970139  1
  F  F20  1  0.28002339  0.28002339  0.00000000  1
  F  F21  1  0.70573816  0.70573816  0.20412373  1
  F  F22  1  0.69877549  0.69877549  0.39948929  1
  F  F23  1  0.69877549  0.69877549  0.60051071  1
  F  F24  1  0.70573816  0.70573816  0.79587627  1
  F  F25  1  0.79305915  0.19665031  0.10020900  1
  F  F26  1  0.81091996  0.20041924  0.30029861  1
  F  F27  1  0.80810312  0.19518459  0.50000000  1
  F  F28  1  0.79305915  0.19665031  0.89979100  1
  F  F29  1  0.81091996  0.20041924  0.69970139  1
