# generated using pymatgen
data_Na6Cr2B4SO16
_symmetry_space_group_name_H-M   'P 1'
_cell_length_a   9.93031823
_cell_length_b   9.93031751
_cell_length_c   9.93031771
_cell_angle_alpha   90.00000117
_cell_angle_beta   60.00000165
_cell_angle_gamma   60.00000104
_symmetry_Int_Tables_number   1
_chemical_formula_structural   Na6Cr2B4SO16
_chemical_formula_sum   'Na12 Cr4 B8 S2 O32'
_cell_volume   692.42774272
_cell_formula_units_Z   2
loop_
 _symmetry_equiv_pos_site_id
 _symmetry_equiv_pos_as_xyz
  1  'x, y, z'
loop_
 _atom_site_type_symbol
 _atom_site_label
 _atom_site_symmetry_multiplicity
 _atom_site_fract_x
 _atom_site_fract_y
 _atom_site_fract_z
 _atom_site_occupancy
  Na  Na0  1  0.75000000  0.90633305  0.65633305  1
  Na  Na1  1  0.68733490  0.65633305  0.90633305  1
  Na  Na2  1  0.75000000  0.34366695  0.65633305  1
  Na  Na3  1  0.75000000  0.90633305  0.09366695  1
  Na  Na4  1  0.81266510  0.09366695  0.34366695  1
  Na  Na5  1  0.25000000  0.65633305  0.90633305  1
  Na  Na6  1  0.18733490  0.90633305  0.65633305  1
  Na  Na7  1  0.75000000  0.34366695  0.09366695  1
  Na  Na8  1  0.25000000  0.65633305  0.34366695  1
  Na  Na9  1  0.25000000  0.09366695  0.90633305  1
  Na  Na10  1  0.31266510  0.34366695  0.09366695  1
  Na  Na11  1  0.25000000  0.09366695  0.34366695  1
  Cr  Cr12  1  0.50000000  0.50000000  0.50000000  1
  Cr  Cr13  1  0.50000000  0.00000000  0.50000000  1
  Cr  Cr14  1  0.00000000  0.50000000  0.50000000  1
  Cr  Cr15  1  0.00000000  0.50000000  0.00000000  1
  B  B16  1  0.92377466  0.71188733  0.28811267  1
  B  B17  1  0.92377466  0.36433801  0.28811267  1
  B  B18  1  0.57622534  0.71188733  0.63566199  1
  B  B19  1  0.57622534  0.71188733  0.28811267  1
  B  B20  1  0.42377466  0.28811267  0.71188733  1
  B  B21  1  0.42377466  0.28811267  0.36433801  1
  B  B22  1  0.07622534  0.63566199  0.71188733  1
  B  B23  1  0.07622534  0.28811267  0.71188733  1
  S  S24  1  0.75000000  0.12500000  0.87500000  1
  S  S25  1  0.25000000  0.87500000  0.12500000  1
  O  O26  1  0.95414397  0.64186456  0.67912311  1
  O  O27  1  0.95414397  0.40399147  0.86673292  1
  O  O28  1  0.96274145  0.67912311  0.40399147  1
  O  O29  1  0.77513064  0.86673292  0.32087689  1
  O  O30  1  0.87316350  0.06341875  0.93658225  1
  O  O31  1  0.72486936  0.59600853  0.64186456  1
  O  O32  1  0.53725855  0.86673292  0.64186456  1
  O  O33  1  0.87316350  0.06341875  0.69025425  1
  O  O34  1  0.62683650  0.30974575  0.93658225  1
  O  O35  1  0.96274145  0.35813544  0.13326708  1
  O  O36  1  0.77513064  0.35813544  0.40399147  1
  O  O37  1  0.62683650  0.06341875  0.93658225  1
  O  O38  1  0.72486936  0.67912311  0.13326708  1
  O  O39  1  0.45414397  0.67912311  0.64186456  1
  O  O40  1  0.45414397  0.86673292  0.40399147  1
  O  O41  1  0.46274145  0.40399147  0.67912311  1
  O  O42  1  0.53725855  0.59600853  0.32087689  1
  O  O43  1  0.54585603  0.13326708  0.59600853  1
  O  O44  1  0.54585603  0.32087689  0.35813544  1
  O  O45  1  0.27513064  0.32087689  0.86673292  1
  O  O46  1  0.37316350  0.93658225  0.06341875  1
  O  O47  1  0.22486936  0.64186456  0.59600853  1
  O  O48  1  0.03725855  0.64186456  0.86673292  1
  O  O49  1  0.12683650  0.93658225  0.30974575  1
  O  O50  1  0.37316350  0.69025425  0.06341875  1
  O  O51  1  0.46274145  0.13326708  0.35813544  1
  O  O52  1  0.27513064  0.40399147  0.35813544  1
  O  O53  1  0.12683650  0.93658225  0.06341875  1
  O  O54  1  0.22486936  0.13326708  0.67912311  1
  O  O55  1  0.03725855  0.32087689  0.59600853  1
  O  O56  1  0.04585603  0.59600853  0.13326708  1
  O  O57  1  0.04585603  0.35813544  0.32087689  1
