# generated using pymatgen
data_Li4V3P8O29
_symmetry_space_group_name_H-M   'P 1'
_cell_length_a   9.76780094
_cell_length_b   9.78989347
_cell_length_c   14.15608516
_cell_angle_alpha   90.31278212
_cell_angle_beta   89.89405181
_cell_angle_gamma   59.84966400
_symmetry_Int_Tables_number   1
_chemical_formula_structural   Li4V3P8O29
_chemical_formula_sum   'Li8 V6 P16 O58'
_cell_volume   1170.51253886
_cell_formula_units_Z   2
loop_
 _symmetry_equiv_pos_site_id
 _symmetry_equiv_pos_as_xyz
  1  'x, y, z'
loop_
 _atom_site_type_symbol
 _atom_site_label
 _atom_site_symmetry_multiplicity
 _atom_site_fract_x
 _atom_site_fract_y
 _atom_site_fract_z
 _atom_site_occupancy
  Li  Li0  1  0.76372150  0.90339596  0.56165587  1
  Li  Li1  1  0.90363065  0.33214645  0.55896908  1
  Li  Li2  1  0.77295594  0.30890125  0.05983824  1
  Li  Li3  1  0.31933041  0.90797393  0.05800588  1
  Li  Li4  1  0.32905706  0.76723885  0.56107079  1
  Li  Li5  1  0.22248869  0.68165656  0.94040385  1
  Li  Li6  1  0.08871353  0.22492019  0.93998934  1
  Li  Li7  1  0.99716298  0.00834915  0.50226868  1
  V  V8  1  0.56441644  0.43114791  0.25438313  1
  V  V9  1  0.43516990  0.56592720  0.74879762  1
  V  V10  1  0.56799786  0.00009314  0.75060612  1
  V  V11  1  0.43733916  0.00380807  0.25226700  1
  V  V12  1  0.99947877  0.56842166  0.24892260  1
  V  V13  1  0.99904290  0.43935116  0.74734655  1
  P  P14  1  0.91220075  0.77350917  0.84331932  1
  P  P15  1  0.77669276  0.91472068  0.34191332  1
  P  P16  1  0.91416341  0.31321426  0.34200437  1
  P  P17  1  0.66489763  0.66276824  0.13162397  1
  P  P18  1  0.66858745  0.66562578  0.62902163  1
  P  P19  1  0.76930732  0.32173128  0.84275279  1
  P  P20  1  0.69398081  0.22292436  0.66065092  1
  P  P21  1  0.32014205  0.91294716  0.84299188  1
  P  P22  1  0.68994634  0.08442442  0.15750405  1
  P  P23  1  0.31286776  0.77772594  0.34121760  1
  P  P24  1  0.22898718  0.68189676  0.16023146  1
  P  P25  1  0.32921740  0.33644188  0.36860071  1
  P  P26  1  0.33001870  0.33569300  0.86722706  1
  P  P27  1  0.08278013  0.69497239  0.65849517  1
  P  P28  1  0.22379849  0.08339088  0.66086185  1
  P  P29  1  0.09018671  0.22867447  0.15922306  1
  O  O30  1  0.99261998  0.79152753  0.57551988  1
  O  O31  1  0.91548762  0.74289478  0.32916964  1
  O  O32  1  0.77210464  0.99667404  0.07172547  1
  O  O33  1  0.74234849  0.91347073  0.83672384  1
  O  O34  1  0.90585113  0.61863954  0.82033305  1
  O  O35  1  0.81533721  0.65609048  0.17859947  1
  O  O36  1  0.91614168  0.46858677  0.32890793  1
  O  O37  1  0.00017493  0.23887819  0.07143594  1
  O  O38  1  0.92025781  0.33888183  0.83350501  1
  O  O39  1  0.68113338  0.80952751  0.66619220  1
  O  O40  1  0.61859751  0.91291970  0.32674998  1
  O  O41  1  0.81450415  0.50933887  0.67286974  1
  O  O42  1  0.66826570  0.65495913  0.02700978  1
  O  O43  1  0.68166939  0.64925560  0.52387612  1
  O  O44  1  0.66170080  0.51569048  0.17467436  1
  O  O45  1  0.48177849  0.89594318  0.82178638  1
  O  O46  1  0.51637816  0.81625690  0.17165566  1
  O  O47  1  0.74190798  0.34461583  0.33031955  1
  O  O48  1  0.78694261  0.20295684  0.75933401  1
  O  O49  1  0.80274913  0.20741963  0.58143682  1
  O  O50  1  0.76578737  0.25483195  0.93553030  1
  O  O51  1  0.62040919  0.48260051  0.82081651  1
  O  O52  1  0.51198381  0.67880109  0.66803335  1
  O  O53  1  0.65943455  0.25747087  0.16282821  1
  O  O54  1  0.46973745  0.61792574  0.32761488  1
  O  O55  1  0.34671514  0.91526139  0.32877318  1
  O  O56  1  0.79078344  0.00922925  0.25444987  1
  O  O57  1  0.78559624  0.98362518  0.43390921  1
  O  O58  1  0.20312874  0.99338187  0.58170520  1
  O  O59  1  0.66230936  0.08288112  0.66025331  1
  O  O60  1  0.53727050  0.38208780  0.66807855  1
  O  O61  1  0.33304306  0.74852437  0.83967545  1
  O  O62  1  0.48133844  0.33198570  0.32425362  1
  O  O63  1  0.38115619  0.52242436  0.17888805  1
  O  O64  1  0.24139920  0.75819567  0.07178749  1
  O  O65  1  0.22976280  0.79135277  0.43189186  1
  O  O66  1  0.20529937  0.79392706  0.25074480  1
  O  O67  1  0.25559756  0.66054276  0.65946767  1
  O  O68  1  0.47587702  0.19223175  0.82135033  1
  O  O69  1  0.52843456  0.09134637  0.17891165  1
  O  O70  1  0.32576349  0.48943491  0.83057592  1
  O  O71  1  0.31279249  0.33466307  0.97149071  1
  O  O72  1  0.33247985  0.33325783  0.47274173  1
  O  O73  1  0.18455519  0.48365503  0.32356677  1
  O  O74  1  0.38474231  0.07545355  0.66758654  1
  O  O75  1  0.33015943  0.18698772  0.32285124  1
  O  O76  1  0.08476133  0.65742720  0.16418350  1
  O  O77  1  0.00317865  0.79370580  0.75332246  1
  O  O78  1  0.00354737  0.75725794  0.92933849  1
  O  O79  1  0.08302256  0.53596711  0.67070006  1
  O  O80  1  0.18001270  0.33508458  0.82045402  1
  O  O81  1  0.09802769  0.38013280  0.17713530  1
  O  O82  1  0.25874200  0.08148183  0.15873613  1
  O  O83  1  0.24713080  0.99884383  0.93428546  1
  O  O84  1  0.20008394  0.01433304  0.75976259  1
  O  O85  1  0.08526771  0.25874140  0.66000058  1
  O  O86  1  0.98406617  0.22720965  0.43140573  1
  O  O87  1  0.00510386  0.20475240  0.25059453  1
