# generated using pymatgen
data_Li3V3P8O29
_symmetry_space_group_name_H-M   'P 1'
_cell_length_a   9.78427750
_cell_length_b   9.80646529
_cell_length_c   14.30669689
_cell_angle_alpha   90.00395238
_cell_angle_beta   89.36225042
_cell_angle_gamma   59.89644218
_symmetry_Int_Tables_number   1
_chemical_formula_structural   Li3V3P8O29
_chemical_formula_sum   'Li6 V6 P16 O58'
_cell_volume   1187.46536484
_cell_formula_units_Z   2
loop_
 _symmetry_equiv_pos_site_id
 _symmetry_equiv_pos_as_xyz
  1  'x, y, z'
loop_
 _atom_site_type_symbol
 _atom_site_label
 _atom_site_symmetry_multiplicity
 _atom_site_fract_x
 _atom_site_fract_y
 _atom_site_fract_z
 _atom_site_occupancy
  Li  Li0  1  0.22752699  0.08084276  0.43891952  1
  Li  Li1  1  0.22731665  0.69158775  0.93884111  1
  Li  Li2  1  0.77925220  0.30507512  0.05794350  1
  Li  Li3  1  0.90805486  0.31819687  0.55772358  1
  Li  Li4  1  0.77987485  0.91560009  0.55774360  1
  Li  Li5  1  0.90838459  0.77341232  0.05743382  1
  V  V6  1  0.00403916  0.56509022  0.25409799  1
  V  V7  1  0.43539682  0.99423557  0.24158029  1
  V  V8  1  0.43544449  0.57097117  0.74130720  1
  V  V9  1  0.56309625  0.43390529  0.25521704  1
  V  V10  1  0.56307285  0.00320763  0.75529055  1
  V  V11  1  0.00429888  0.43061660  0.75420516  1
  P  P12  1  0.08647851  0.23051268  0.16009360  1
  P  P13  1  0.23256283  0.08740151  0.65801526  1
  P  P14  1  0.08657292  0.68267158  0.66016418  1
  P  P15  1  0.33273514  0.32688337  0.36920449  1
  P  P16  1  0.33241824  0.34073623  0.86936149  1
  P  P17  1  0.23221942  0.68026847  0.15820008  1
  P  P18  1  0.31058096  0.77418699  0.33963688  1
  P  P19  1  0.68633163  0.08734455  0.16264064  1
  P  P20  1  0.31077068  0.91503982  0.83939008  1
  P  P21  1  0.68626898  0.22642025  0.66266051  1
  P  P22  1  0.76319426  0.32216387  0.84208247  1
  P  P23  1  0.67487528  0.65842447  0.13054631  1
  P  P24  1  0.67510236  0.66701607  0.63029081  1
  P  P25  1  0.91132842  0.31911133  0.34102236  1
  P  P26  1  0.76363897  0.91445351  0.34207710  1
  P  P27  1  0.91137811  0.76969134  0.84103447  1
  O  O28  1  0.99333261  0.24720060  0.43058752  1
  O  O29  1  0.08423084  0.25575028  0.66618814  1
  O  O30  1  0.21394548  0.99217273  0.74375324  1
  O  O31  1  0.23110341  0.00141110  0.92517283  1
  O  O32  1  0.09313469  0.38339788  0.17740023  1
  O  O33  1  0.25785609  0.08791937  0.16497660  1
  O  O34  1  0.18340674  0.33963473  0.82407226  1
  O  O35  1  0.09338586  0.52304769  0.67738732  1
  O  O36  1  0.99349570  0.75948230  0.93055454  1
  O  O37  1  0.08420075  0.65986487  0.16631090  1
  O  O38  1  0.33263050  0.17881058  0.32861458  1
  O  O39  1  0.18354519  0.47615452  0.32372876  1
  O  O40  1  0.38354709  0.09584465  0.68131768  1
  O  O41  1  0.32508374  0.33424185  0.47245351  1
  O  O42  1  0.32491216  0.34066760  0.97263409  1
  O  O43  1  0.52313651  0.09549495  0.17628250  1
  O  O44  1  0.33169041  0.48896363  0.82870860  1
  O  O45  1  0.48011554  0.18787599  0.82518642  1
  O  O46  1  0.25792554  0.65376653  0.66513454  1
  O  O47  1  0.21354315  0.79404394  0.24403158  1
  O  O48  1  0.24002667  0.74436809  0.06602898  1
  O  O49  1  0.23153858  0.76674795  0.42549961  1
  O  O50  1  0.38342062  0.52076216  0.18132931  1
  O  O51  1  0.48021118  0.33215600  0.32514697  1
  O  O52  1  0.65963445  0.08339280  0.66215532  1
  O  O53  1  0.33811072  0.74400959  0.83327463  1
  O  O54  1  0.52341104  0.38196752  0.67607216  1
  O  O55  1  0.24081461  0.01530248  0.56585051  1
  O  O56  1  0.75728213  0.98487634  0.43409155  1
  O  O57  1  0.47524979  0.61854384  0.32105224  1
  O  O58  1  0.66010213  0.25691178  0.16205308  1
  O  O59  1  0.78069760  0.01574568  0.25895049  1
  O  O60  1  0.33806154  0.91773217  0.33349598  1
  O  O61  1  0.52290730  0.66634912  0.67448737  1
  O  O62  1  0.61269017  0.48039214  0.81856178  1
  O  O63  1  0.75839738  0.25750008  0.93414175  1
  O  O64  1  0.77582369  0.23339817  0.58060672  1
  O  O65  1  0.78037784  0.20362690  0.75906905  1
  O  O66  1  0.74328413  0.34302882  0.33302620  1
  O  O67  1  0.52281471  0.81135018  0.17442187  1
  O  O68  1  0.47552409  0.90580389  0.82096186  1
  O  O69  1  0.67028593  0.51214317  0.17181530  1
  O  O70  1  0.67319730  0.66286177  0.52669336  1
  O  O71  1  0.67401921  0.66391988  0.02693430  1
  O  O72  1  0.61354815  0.90616588  0.31821358  1
  O  O73  1  0.82129359  0.51592527  0.67042385  1
  O  O74  1  0.67063508  0.81788930  0.67152220  1
  O  O75  1  0.90799909  0.34615287  0.82736963  1
  O  O76  1  0.00901953  0.20539901  0.25574586  1
  O  O77  1  0.99422748  0.23527149  0.07831728  1
  O  O78  1  0.90183185  0.48015628  0.32309111  1
  O  O79  1  0.82134761  0.66275189  0.17083164  1
  O  O80  1  0.74327777  0.91392496  0.83320693  1
  O  O81  1  0.90227862  0.61795107  0.82305669  1
  O  O82  1  0.77561950  0.99044971  0.08058788  1
  O  O83  1  0.90924747  0.74587070  0.32782782  1
  O  O84  1  0.99476437  0.77042506  0.57833018  1
  O  O85  1  0.00873876  0.78569878  0.75562002  1
