# generated using pymatgen
data_Li5NiP3O11
_symmetry_space_group_name_H-M   'P 1'
_cell_length_a   5.33976559
_cell_length_b   8.40437464
_cell_length_c   9.56395722
_cell_angle_alpha   95.95724960
_cell_angle_beta   88.55218754
_cell_angle_gamma   94.08520844
_symmetry_Int_Tables_number   1
_chemical_formula_structural   Li5NiP3O11
_chemical_formula_sum   'Li10 Ni2 P6 O22'
_cell_volume   425.73382940
_cell_formula_units_Z   2
loop_
 _symmetry_equiv_pos_site_id
 _symmetry_equiv_pos_as_xyz
  1  'x, y, z'
loop_
 _atom_site_type_symbol
 _atom_site_label
 _atom_site_symmetry_multiplicity
 _atom_site_fract_x
 _atom_site_fract_y
 _atom_site_fract_z
 _atom_site_occupancy
  Li  Li0  1  0.22345590  0.67319652  0.34338385  1
  Li  Li1  1  0.27909003  0.36624197  0.82784445  1
  Li  Li2  1  0.32060759  0.61776626  0.68280583  1
  Li  Li3  1  0.17939632  0.37939920  0.15429463  1
  Li  Li4  1  0.51349801  0.99843715  0.84004030  1
  Li  Li5  1  0.48650199  0.00156285  0.15995970  1
  Li  Li6  1  0.82060368  0.62060080  0.84570537  1
  Li  Li7  1  0.67939241  0.38223374  0.31719417  1
  Li  Li8  1  0.72090997  0.63375803  0.17215555  1
  Li  Li9  1  0.77654410  0.32680348  0.65661615  1
  Ni  Ni10  1  0.00000000  0.00000000  0.00000000  1
  Ni  Ni11  1  0.50000000  0.00000000  0.50000000  1
  P  P12  1  0.02989779  0.04331050  0.31394919  1
  P  P13  1  0.22452464  0.70395256  0.01574504  1
  P  P14  1  0.26796230  0.32688375  0.47678212  1
  P  P15  1  0.73203770  0.67311625  0.52321788  1
  P  P16  1  0.77547536  0.29604744  0.98425496  1
  P  P17  1  0.97010221  0.95668950  0.68605081  1
  O  O18  1  0.96008562  0.76191483  0.06647036  1
  O  O19  1  0.03942123  0.19430844  0.43399176  1
  O  O20  1  0.11349751  0.11852537  0.17840254  1
  O  O21  1  0.19207114  0.59327691  0.87556586  1
  O  O22  1  0.17683357  0.40251887  0.61887008  1
  O  O23  1  0.24477486  0.02220536  0.68350546  1
  O  O24  1  0.23029501  0.93177243  0.34699174  1
  O  O25  1  0.30028670  0.43533299  0.35749695  1
  O  O26  1  0.34260365  0.61704508  0.13037242  1
  O  O27  1  0.38194160  0.86090162  0.98712639  1
  O  O28  1  0.48708519  0.75943988  0.51820590  1
  O  O29  1  0.51291481  0.24056012  0.48179410  1
  O  O30  1  0.61805840  0.13909838  0.01287361  1
  O  O31  1  0.65739635  0.38295492  0.86962758  1
  O  O32  1  0.69971330  0.56466701  0.64250305  1
  O  O33  1  0.76970499  0.06822757  0.65300826  1
  O  O34  1  0.75522514  0.97779464  0.31649454  1
  O  O35  1  0.82316643  0.59748113  0.38112992  1
  O  O36  1  0.80792886  0.40672309  0.12443414  1
  O  O37  1  0.88650249  0.88147463  0.82159746  1
  O  O38  1  0.96057877  0.80569156  0.56600824  1
  O  O39  1  0.03991438  0.23808517  0.93352964  1
