# generated using pymatgen
data_Y(Bi5O8)3
_symmetry_space_group_name_H-M   'P 1'
_cell_length_a   7.76817439
_cell_length_b   7.93483318
_cell_length_c   11.36640894
_cell_angle_alpha   89.11314904
_cell_angle_beta   90.00000000
_cell_angle_gamma   90.00000000
_symmetry_Int_Tables_number   1
_chemical_formula_structural   Y(Bi5O8)3
_chemical_formula_sum   'Y1 Bi15 O24'
_cell_volume   700.53206284
_cell_formula_units_Z   1
loop_
 _symmetry_equiv_pos_site_id
 _symmetry_equiv_pos_as_xyz
  1  'x, y, z'
loop_
 _atom_site_type_symbol
 _atom_site_label
 _atom_site_symmetry_multiplicity
 _atom_site_fract_x
 _atom_site_fract_y
 _atom_site_fract_z
 _atom_site_occupancy
  Y  Y0  1  0.00000000  0.28915491  0.11442082  1
  Bi  Bi1  1  0.00000000  0.75391118  0.12530255  1
  Bi  Bi2  1  0.00000000  0.26026324  0.61990794  1
  Bi  Bi3  1  0.00000000  0.74075368  0.61975137  1
  Bi  Bi4  1  0.24365552  0.50639579  0.37081153  1
  Bi  Bi5  1  0.24541338  0.49584571  0.87250340  1
  Bi  Bi6  1  0.25175482  0.01076026  0.37594522  1
  Bi  Bi7  1  0.25422733  0.99532120  0.87917607  1
  Bi  Bi8  1  0.50000000  0.23116491  0.13481975  1
  Bi  Bi9  1  0.50000000  0.23796458  0.62870349  1
  Bi  Bi10  1  0.50000000  0.75699847  0.63044130  1
  Bi  Bi11  1  0.50000000  0.75502170  0.13056081  1
  Bi  Bi12  1  0.74824518  0.01076026  0.37594522  1
  Bi  Bi13  1  0.74577267  0.99532120  0.87917607  1
  Bi  Bi14  1  0.75634448  0.50639579  0.37081153  1
  Bi  Bi15  1  0.75458662  0.49584571  0.87250340  1
  O  O16  1  0.00000000  0.51663661  0.21262541  1
  O  O17  1  0.00000000  0.49881620  0.45832823  1
  O  O18  1  0.00000000  0.49862438  0.70785570  1
  O  O19  1  0.00000000  0.49590830  0.95657801  1
  O  O20  1  0.20353549  0.19521585  0.23848468  1
  O  O21  1  0.20629112  0.20165676  0.74990917  1
  O  O22  1  0.20854282  0.80320567  0.25066679  1
  O  O23  1  0.20440987  0.79498680  0.75049931  1
  O  O24  1  0.27612818  0.28856020  0.00445458  1
  O  O25  1  0.29516656  0.29371401  0.49618340  1
  O  O26  1  0.29629463  0.69672242  0.00120639  1
  O  O27  1  0.29501843  0.69806567  0.50184208  1
  O  O28  1  0.50000000  0.99880882  0.54439071  1
  O  O29  1  0.50000000  0.99703902  0.04303240  1
  O  O30  1  0.50000000  0.00863581  0.29427717  1
  O  O31  1  0.50000000  0.99940056  0.79564014  1
  O  O32  1  0.72387182  0.28856020  0.00445458  1
  O  O33  1  0.70483344  0.29371401  0.49618340  1
  O  O34  1  0.70370537  0.69672242  0.00120639  1
  O  O35  1  0.70498157  0.69806567  0.50184208  1
  O  O36  1  0.79646451  0.19521585  0.23848468  1
  O  O37  1  0.79145718  0.80320567  0.25066679  1
  O  O38  1  0.79370888  0.20165676  0.74990917  1
  O  O39  1  0.79559013  0.79498680  0.75049931  1
