# generated using pymatgen
data_NaV10O15
_symmetry_space_group_name_H-M   'P 1'
_cell_length_a   7.86244121
_cell_length_b   7.86244121
_cell_length_c   9.72592157
_cell_angle_alpha   90.00000000
_cell_angle_beta   90.00000000
_cell_angle_gamma   82.48957147
_symmetry_Int_Tables_number   1
_chemical_formula_structural   NaV10O15
_chemical_formula_sum   'Na2 V20 O30'
_cell_volume   596.07888359
_cell_formula_units_Z   2
loop_
 _symmetry_equiv_pos_site_id
 _symmetry_equiv_pos_as_xyz
  1  'x, y, z'
loop_
 _atom_site_type_symbol
 _atom_site_label
 _atom_site_symmetry_multiplicity
 _atom_site_fract_x
 _atom_site_fract_y
 _atom_site_fract_z
 _atom_site_occupancy
  Na  Na0  1  0.00000000  0.00000000  0.00000000  1
  Na  Na1  1  0.50000000  0.50000000  0.50000000  1
  V  V2  1  0.18414354  0.81585646  0.36753505  1
  V  V3  1  0.31585646  0.68414354  0.86753505  1
  V  V4  1  0.59861507  0.92086912  0.88451569  1
  V  V5  1  0.57913088  0.90138493  0.61548431  1
  V  V6  1  0.09861507  0.42086912  0.61548431  1
  V  V7  1  0.07913088  0.40138493  0.88451569  1
  V  V8  1  0.54112088  0.71105391  0.14506076  1
  V  V9  1  0.78894609  0.95887912  0.35493924  1
  V  V10  1  0.04112088  0.21105391  0.35493924  1
  V  V11  1  0.28894609  0.45887912  0.14506076  1
  V  V12  1  0.45887912  0.28894609  0.85493924  1
  V  V13  1  0.95887912  0.78894609  0.64506076  1
  V  V14  1  0.21105391  0.04112088  0.64506076  1
  V  V15  1  0.71105391  0.54112088  0.85493924  1
  V  V16  1  0.92086912  0.59861507  0.11548431  1
  V  V17  1  0.40138493  0.07913088  0.11548431  1
  V  V18  1  0.42086912  0.09861507  0.38451569  1
  V  V19  1  0.90138493  0.57913088  0.38451569  1
  V  V20  1  0.68414354  0.31585646  0.13246495  1
  V  V21  1  0.81585646  0.18414354  0.63246495  1
  O  O22  1  0.15483020  0.84516980  0.75568134  1
  O  O23  1  0.39354255  0.86157470  0.00478513  1
  O  O24  1  0.13842530  0.60645745  0.00478513  1
  O  O25  1  0.36157470  0.89354255  0.50478513  1
  O  O26  1  0.10645745  0.63842530  0.50478513  1
  O  O27  1  0.06866494  0.43133506  0.25000000  1
  O  O28  1  0.56866494  0.93133506  0.25000000  1
  O  O29  1  0.34516980  0.65483020  0.25568134  1
  O  O30  1  0.78213747  0.96176803  0.73632582  1
  O  O31  1  0.53823197  0.71786253  0.76367418  1
  O  O32  1  0.28213747  0.46176803  0.76367418  1
  O  O33  1  0.03823197  0.21786253  0.73632582  1
  O  O34  1  0.74022784  0.74022784  0.00000000  1
  O  O35  1  0.25977216  0.25977216  0.00000000  1
  O  O36  1  0.00000000  0.00000000  0.50000000  1
  O  O37  1  0.50000000  0.50000000  0.00000000  1
  O  O38  1  0.24022784  0.24022784  0.50000000  1
  O  O39  1  0.75977216  0.75977216  0.50000000  1
  O  O40  1  0.21786253  0.03823197  0.26367418  1
  O  O41  1  0.46176803  0.28213747  0.23632582  1
  O  O42  1  0.71786253  0.53823197  0.23632582  1
  O  O43  1  0.96176803  0.78213747  0.26367418  1
  O  O44  1  0.65483020  0.34516980  0.74431866  1
  O  O45  1  0.93133506  0.56866494  0.75000000  1
  O  O46  1  0.43133506  0.06866494  0.75000000  1
  O  O47  1  0.63842530  0.10645745  0.49521487  1
  O  O48  1  0.89354255  0.36157470  0.49521487  1
  O  O49  1  0.60645745  0.13842530  0.99521487  1
  O  O50  1  0.86157470  0.39354255  0.99521487  1
  O  O51  1  0.84516980  0.15483020  0.24431866  1
