# generated using pymatgen
data_Li9Mn7Cr12O48
_symmetry_space_group_name_H-M   'P 1'
_cell_length_a   5.14796853
_cell_length_b   10.35787025
_cell_length_c   17.43450476
_cell_angle_alpha   90.12498213
_cell_angle_beta   90.51513463
_cell_angle_gamma   90.19960033
_symmetry_Int_Tables_number   1
_chemical_formula_structural   Li9Mn7Cr12O48
_chemical_formula_sum   'Li9 Mn7 Cr12 O48'
_cell_volume   929.59700106
_cell_formula_units_Z   1
loop_
 _symmetry_equiv_pos_site_id
 _symmetry_equiv_pos_as_xyz
  1  'x, y, z'
loop_
 _atom_site_type_symbol
 _atom_site_label
 _atom_site_symmetry_multiplicity
 _atom_site_fract_x
 _atom_site_fract_y
 _atom_site_fract_z
 _atom_site_occupancy
  Li  Li0  1  0.24318496  0.42401914  0.96886504  1
  Li  Li1  1  0.24486128  0.74738438  0.30230366  1
  Li  Li2  1  0.25887878  0.25500961  0.79901479  1
  Li  Li3  1  0.25470843  0.57762297  0.47047327  1
  Li  Li4  1  0.40260852  0.74841932  0.75055178  1
  Li  Li5  1  0.59782927  0.25202072  0.24935543  1
  Li  Li6  1  0.74473995  0.07784845  0.53029765  1
  Li  Li7  1  0.74019678  0.74596622  0.20230610  1
  Li  Li8  1  0.75591396  0.24950039  0.69850999  1
  Mn  Mn9  1  0.09660589  0.25101032  0.25192014  1
  Mn  Mn10  1  0.24804084  0.08005291  0.97087207  1
  Mn  Mn11  1  0.25053972  0.92793740  0.47427185  1
  Mn  Mn12  1  0.75005974  0.43164895  0.52512241  1
  Mn  Mn13  1  0.75066771  0.57069203  0.02707539  1
  Mn  Mn14  1  0.74968368  0.92135677  0.02917914  1
  Mn  Mn15  1  0.90348908  0.74950389  0.74805259  1
  Cr  Cr16  1  0.21980099  0.74956740  0.94398879  1
  Cr  Cr17  1  0.22257464  0.02721684  0.65628336  1
  Cr  Cr18  1  0.21805659  0.47164434  0.65394174  1
  Cr  Cr19  1  0.27705253  0.52965934  0.15490888  1
  Cr  Cr20  1  0.27734750  0.97075511  0.15643152  1
  Cr  Cr21  1  0.28079889  0.25114263  0.44481587  1
  Cr  Cr22  1  0.71946847  0.74971080  0.55511948  1
  Cr  Cr23  1  0.72212212  0.02932603  0.84408674  1
  Cr  Cr24  1  0.72557266  0.47188983  0.84385145  1
  Cr  Cr25  1  0.77833653  0.52738555  0.34494185  1
  Cr  Cr26  1  0.77853462  0.97171366  0.34512391  1
  Cr  Cr27  1  0.77999543  0.24962403  0.05654726  1
  O  O28  1  0.04330994  0.24872642  0.99911961  1
  O  O29  1  0.04682486  0.60578166  0.36959286  1
  O  O30  1  0.05570265  0.89319573  0.37256732  1
  O  O31  1  0.10150006  0.62564278  0.20830280  1
  O  O32  1  0.09796814  0.87664219  0.20906425  1
  O  O33  1  0.10580698  0.12049705  0.46542496  1
  O  O34  1  0.09281126  0.37702839  0.46540273  1
  O  O35  1  0.09586045  0.00331107  0.07652224  1
  O  O36  1  0.09764017  0.49644775  0.07672208  1
  O  O37  1  0.14982231  0.74986948  0.85038853  1
  O  O38  1  0.15617059  0.60898511  0.70111414  1
  O  O39  1  0.15558954  0.88841457  0.70330637  1
  O  O40  1  0.34077911  0.10998040  0.20297341  1
  O  O41  1  0.34046926  0.39050904  0.20194713  1
  O  O42  1  0.34564793  0.25115912  0.35097451  1
  O  O43  1  0.40067903  0.99350815  0.57675114  1
  O  O44  1  0.40085114  0.50505106  0.57726698  1
  O  O45  1  0.40165048  0.88182350  0.96541419  1
  O  O46  1  0.40633225  0.62379091  0.96563300  1
  O  O47  1  0.40622996  0.12123056  0.70975239  1
  O  O48  1  0.39186196  0.37563108  0.70742054  1
  O  O49  1  0.44910051  0.10834201  0.86989339  1
  O  O50  1  0.45429782  0.39564519  0.86904732  1
  O  O51  1  0.45227344  0.75359716  0.49804414  1
  O  O52  1  0.55309977  0.25773798  0.50269331  1
  O  O53  1  0.55348039  0.60722594  0.12861210  1
  O  O54  1  0.55059364  0.89206005  0.13061879  1
  O  O55  1  0.59387142  0.62041820  0.29184436  1
  O  O56  1  0.60392668  0.87566545  0.29082762  1
  O  O57  1  0.59339214  0.11896883  0.03540537  1
  O  O58  1  0.59840678  0.37761302  0.03567774  1
  O  O59  1  0.59771931  0.00419189  0.42268771  1
  O  O60  1  0.60083006  0.49261450  0.42588178  1
  O  O61  1  0.65426932  0.75067761  0.64874973  1
  O  O62  1  0.65936044  0.61113500  0.79671023  1
  O  O63  1  0.65873863  0.89032492  0.79758404  1
  O  O64  1  0.84405305  0.10951772  0.29808214  1
  O  O65  1  0.84337137  0.38982012  0.29757766  1
  O  O66  1  0.85251997  0.24906453  0.15035041  1
  O  O67  1  0.90419768  0.50601428  0.92314890  1
  O  O68  1  0.90301838  0.99499375  0.92428622  1
  O  O69  1  0.89579228  0.61540356  0.53405481  1
  O  O70  1  0.90941793  0.87533107  0.53374684  1
  O  O71  1  0.90366792  0.12350945  0.79249619  1
  O  O72  1  0.90389974  0.37665220  0.79025288  1
  O  O73  1  0.95398846  0.10537677  0.63102867  1
  O  O74  1  0.93654945  0.39261988  0.62427516  1
  O  O75  1  0.95098380  0.74862690  0.00254915  1
