# generated using pymatgen
data_Na6V2As(CO4)4
_symmetry_space_group_name_H-M   'P 1'
_cell_length_a   10.04648284
_cell_length_b   10.04648245
_cell_length_c   10.04648256
_cell_angle_alpha   90.00000242
_cell_angle_beta   60.00000248
_cell_angle_gamma   60.00000207
_symmetry_Int_Tables_number   1
_chemical_formula_structural   Na6V2As(CO4)4
_chemical_formula_sum   'Na12 V4 As2 C8 O32'
_cell_volume   717.01317189
_cell_formula_units_Z   2
loop_
 _symmetry_equiv_pos_site_id
 _symmetry_equiv_pos_as_xyz
  1  'x, y, z'
loop_
 _atom_site_type_symbol
 _atom_site_label
 _atom_site_symmetry_multiplicity
 _atom_site_fract_x
 _atom_site_fract_y
 _atom_site_fract_z
 _atom_site_occupancy
  Na  Na0  1  0.75000000  0.66632625  0.91632625  1
  Na  Na1  1  0.66734750  0.91632625  0.66632625  1
  Na  Na2  1  0.75000000  0.66632625  0.33367375  1
  Na  Na3  1  0.75000000  0.08367375  0.91632625  1
  Na  Na4  1  0.83265250  0.33367375  0.08367375  1
  Na  Na5  1  0.25000000  0.91632625  0.66632625  1
  Na  Na6  1  0.16734750  0.66632625  0.91632625  1
  Na  Na7  1  0.75000000  0.08367375  0.33367375  1
  Na  Na8  1  0.25000000  0.33367375  0.66632625  1
  Na  Na9  1  0.25000000  0.91632625  0.08367375  1
  Na  Na10  1  0.33265250  0.08367375  0.33367375  1
  Na  Na11  1  0.25000000  0.33367375  0.08367375  1
  V  V12  1  0.50000000  0.50000000  0.50000000  1
  V  V13  1  0.50000000  0.50000000  0.00000000  1
  V  V14  1  0.00000000  0.50000000  0.50000000  1
  V  V15  1  0.00000000  0.00000000  0.50000000  1
  As  As16  1  0.75000000  0.87500000  0.12500000  1
  As  As17  1  0.25000000  0.12500000  0.87500000  1
  C  C18  1  0.92852654  0.28573723  0.71426277  1
  C  C19  1  0.57147346  0.64278931  0.71426277  1
  C  C20  1  0.92852654  0.28573723  0.35721069  1
  C  C21  1  0.57147346  0.28573723  0.71426277  1
  C  C22  1  0.42852554  0.71426277  0.28573723  1
  C  C23  1  0.07147446  0.71426277  0.64278931  1
  C  C24  1  0.42852554  0.35721069  0.28573723  1
  C  C25  1  0.07147446  0.71426277  0.28573723  1
  O  O26  1  0.95578770  0.85531898  0.64514651  1
  O  O27  1  0.95578770  0.68889332  0.39906579  1
  O  O28  1  0.78982753  0.39906579  0.85531898  1
  O  O29  1  0.71017247  0.64514651  0.68889332  1
  O  O30  1  0.95625419  0.14468102  0.68889332  1
  O  O31  1  0.89026968  0.94513534  0.05486466  1
  O  O32  1  0.95625419  0.39906579  0.35485349  1
  O  O33  1  0.89026968  0.66459498  0.05486466  1
  O  O34  1  0.60973032  0.94513534  0.33540502  1
  O  O35  1  0.45578770  0.64514651  0.85531898  1
  O  O36  1  0.54374581  0.64514651  0.60093521  1
  O  O37  1  0.60973032  0.94513534  0.05486466  1
  O  O38  1  0.54374581  0.31110668  0.85531898  1
  O  O39  1  0.78982753  0.31110668  0.35485349  1
  O  O40  1  0.71017247  0.14468102  0.60093521  1
  O  O41  1  0.54421230  0.60093521  0.31110668  1
  O  O42  1  0.45578770  0.39906579  0.68889332  1
  O  O43  1  0.28982753  0.85531898  0.39906579  1
  O  O44  1  0.21017247  0.68889332  0.64514651  1
  O  O45  1  0.45625419  0.68889332  0.14468102  1
  O  O46  1  0.39026968  0.05486466  0.94513534  1
  O  O47  1  0.45625419  0.35485349  0.39906579  1
  O  O48  1  0.54421230  0.35485349  0.14468102  1
  O  O49  1  0.10973032  0.33540502  0.94513534  1
  O  O50  1  0.39026968  0.05486466  0.66459498  1
  O  O51  1  0.04374581  0.60093521  0.64514651  1
  O  O52  1  0.10973032  0.05486466  0.94513534  1
  O  O53  1  0.04374581  0.85531898  0.31110668  1
  O  O54  1  0.28982753  0.35485349  0.31110668  1
  O  O55  1  0.21017247  0.60093521  0.14468102  1
  O  O56  1  0.04421230  0.31110668  0.60093521  1
  O  O57  1  0.04421230  0.14468102  0.35485349  1
