# generated using pymatgen
data_Li4V3P8O29
_symmetry_space_group_name_H-M   'P 1'
_cell_length_a   9.78957206
_cell_length_b   9.73904540
_cell_length_c   14.17419812
_cell_angle_alpha   89.81037831
_cell_angle_beta   90.53623860
_cell_angle_gamma   59.74251443
_symmetry_Int_Tables_number   1
_chemical_formula_structural   Li4V3P8O29
_chemical_formula_sum   'Li8 V6 P16 O58'
_cell_volume   1167.18254496
_cell_formula_units_Z   2
loop_
 _symmetry_equiv_pos_site_id
 _symmetry_equiv_pos_as_xyz
  1  'x, y, z'
loop_
 _atom_site_type_symbol
 _atom_site_label
 _atom_site_symmetry_multiplicity
 _atom_site_fract_x
 _atom_site_fract_y
 _atom_site_fract_z
 _atom_site_occupancy
  Li  Li0  1  0.90491062  0.76429292  0.05444929  1
  Li  Li1  1  0.76814558  0.32366924  0.05411687  1
  Li  Li2  1  0.32566134  0.90693121  0.05936709  1
  Li  Li3  1  0.68560065  0.23207583  0.44229466  1
  Li  Li4  1  0.33304487  0.76647393  0.56234613  1
  Li  Li5  1  0.31892165  0.33570109  0.60784817  1
  Li  Li6  1  0.00250309  0.99790908  0.98373631  1
  Li  Li7  1  0.00202826  0.98733676  0.51429177  1
  V  V8  1  0.56547658  0.43634705  0.24645463  1
  V  V9  1  0.43081457  0.56843862  0.75273903  1
  V  V10  1  0.56990848  0.99721270  0.75299999  1
  V  V11  1  0.43678507  0.00190475  0.25247156  1
  V  V12  1  0.99929856  0.56140504  0.25593248  1
  V  V13  1  0.99868305  0.43224177  0.74690924  1
  P  P14  1  0.92142528  0.77270724  0.84098071  1
  P  P15  1  0.77882622  0.91614692  0.34203570  1
  P  P16  1  0.91886558  0.30181099  0.34644910  1
  P  P17  1  0.66823948  0.66908686  0.13214460  1
  P  P18  1  0.66181645  0.67054966  0.62976406  1
  P  P19  1  0.77965444  0.30720117  0.83891261  1
  P  P20  1  0.68339246  0.22205035  0.65863116  1
  P  P21  1  0.31075770  0.91705624  0.84490093  1
  P  P22  1  0.69137933  0.08302954  0.15553899  1
  P  P23  1  0.31625737  0.77280679  0.34500442  1
  P  P24  1  0.21586162  0.69680952  0.16391087  1
  P  P25  1  0.33835328  0.33135543  0.36902249  1
  P  P26  1  0.33072192  0.33280335  0.86685359  1
  P  P27  1  0.08597047  0.69658822  0.65638439  1
  P  P28  1  0.21770357  0.08897781  0.66112384  1
  P  P29  1  0.08253106  0.22232918  0.16064031  1
  O  O30  1  0.99841860  0.80403260  0.57647630  1
  O  O31  1  0.91439158  0.74031891  0.33531249  1
  O  O32  1  0.78721860  0.99253258  0.07330744  1
  O  O33  1  0.74647307  0.91279919  0.82981116  1
  O  O34  1  0.92378251  0.61484727  0.82664608  1
  O  O35  1  0.81425061  0.67348770  0.17777042  1
  O  O36  1  0.91872762  0.46271941  0.32939294  1
  O  O37  1  0.99321576  0.21223879  0.07796362  1
  O  O38  1  0.91945962  0.33970954  0.82635922  1
  O  O39  1  0.65269161  0.81962889  0.67996178  1
  O  O40  1  0.61869080  0.91824050  0.32861834  1
  O  O41  1  0.81294557  0.52849228  0.67818637  1
  O  O42  1  0.67053793  0.67759565  0.02727922  1
  O  O43  1  0.66752556  0.67512387  0.52578390  1
  O  O44  1  0.67595618  0.51253673  0.16785731  1
  O  O45  1  0.46620058  0.91824765  0.83030322  1
  O  O46  1  0.51510217  0.81451039  0.17390430  1
  O  O47  1  0.74410580  0.34001646  0.33474578  1
  O  O48  1  0.79425957  0.19916403  0.74915568  1
  O  O49  1  0.76912529  0.21085836  0.57023537  1
  O  O50  1  0.80382151  0.21670847  0.92863079  1
  O  O51  1  0.62234342  0.46270147  0.82844361  1
  O  O52  1  0.51467367  0.66574691  0.66638526  1
  O  O53  1  0.65764191  0.25670144  0.15688181  1
  O  O54  1  0.47154432  0.61824521  0.32778462  1
  O  O55  1  0.34546104  0.91504108  0.32609496  1
  O  O56  1  0.79625917  0.00230507  0.25005259  1
  O  O57  1  0.78856488  0.00222733  0.42569315  1
  O  O58  1  0.20388831  0.99254177  0.58426399  1
  O  O59  1  0.65085691  0.08157215  0.66642839  1
  O  O60  1  0.52149959  0.37636463  0.67042015  1
  O  O61  1  0.34489415  0.74495181  0.83005119  1
  O  O62  1  0.48890254  0.32742121  0.33286461  1
  O  O63  1  0.37886571  0.53907231  0.17270209  1
  O  O64  1  0.20222065  0.80270440  0.08389000  1
  O  O65  1  0.24145975  0.78829134  0.43765945  1
  O  O66  1  0.19461078  0.78886317  0.26232620  1
  O  O67  1  0.26119069  0.65825719  0.65918329  1
  O  O68  1  0.47734025  0.18408002  0.81992813  1
  O  O69  1  0.53489263  0.08125162  0.17109179  1
  O  O70  1  0.32897535  0.48046305  0.82444720  1
  O  O71  1  0.32899732  0.32205173  0.97048553  1
  O  O72  1  0.33281209  0.32840350  0.47386347  1
  O  O73  1  0.18866802  0.47944896  0.32311923  1
  O  O74  1  0.37183160  0.09649196  0.66752225  1
  O  O75  1  0.33540981  0.18554819  0.32218854  1
  O  O76  1  0.08003851  0.65806067  0.16322643  1
  O  O77  1  0.01450234  0.79106204  0.75495234  1
  O  O78  1  0.98751318  0.79087281  0.93240755  1
  O  O79  1  0.09198625  0.53373597  0.66448537  1
  O  O80  1  0.18512063  0.33331272  0.81555281  1
  O  O81  1  0.07593159  0.38455651  0.17407859  1
  O  O82  1  0.25823655  0.08600035  0.16097753  1
  O  O83  1  0.22894409  0.98179681  0.93597602  1
  O  O84  1  0.19459777  0.02003667  0.76011328  1
  O  O85  1  0.07900799  0.26522161  0.65917464  1
  O  O86  1  0.99522405  0.21382795  0.43387666  1
  O  O87  1  0.00781138  0.19701882  0.25529656  1
