# generated using pymatgen
data_LiCoPO4
_symmetry_space_group_name_H-M   'P 1'
_cell_length_a   14.96660658
_cell_length_b   14.96498280
_cell_length_c   7.89774201
_cell_angle_alpha   90.01072725
_cell_angle_beta   90.00367675
_cell_angle_gamma   119.98243518
_symmetry_Int_Tables_number   1
_chemical_formula_structural   LiCoPO4
_chemical_formula_sum   'Li18 Co18 P18 O72'
_cell_volume   1532.18062099
_cell_formula_units_Z   18
loop_
 _symmetry_equiv_pos_site_id
 _symmetry_equiv_pos_as_xyz
  1  'x, y, z'
loop_
 _atom_site_type_symbol
 _atom_site_label
 _atom_site_symmetry_multiplicity
 _atom_site_fract_x
 _atom_site_fract_y
 _atom_site_fract_z
 _atom_site_occupancy
  Li  Li0  1  0.00981763  0.69047158  0.49736404  1
  Li  Li1  1  0.33910096  0.98920035  0.57206747  1
  Li  Li2  1  0.01080384  0.34988441  0.57207268  1
  Li  Li3  1  0.33329534  0.66662991  0.66336233  1
  Li  Li4  1  0.00024320  0.00011390  0.90938879  1
  Li  Li5  1  0.99990740  0.99986269  0.40904681  1
  Li  Li6  1  0.33334039  0.66663496  0.16241779  1
  Li  Li7  1  0.30950138  0.31949384  0.49752065  1
  Li  Li8  1  0.34989086  0.33910278  0.07206990  1
  Li  Li9  1  0.68047283  0.99007952  0.49731922  1
  Li  Li10  1  0.31949434  0.00998438  0.99748633  1
  Li  Li11  1  0.65014729  0.66081546  0.57189194  1
  Li  Li12  1  0.69056058  0.68044836  0.99786768  1
  Li  Li13  1  0.66664695  0.33330976  0.16338280  1
  Li  Li14  1  0.66666015  0.33328907  0.66243272  1
  Li  Li15  1  0.98905746  0.65007605  0.07224799  1
  Li  Li16  1  0.66085645  0.01084418  0.07218574  1
  Li  Li17  1  0.99002334  0.30950135  0.99755422  1
  Co  Co18  1  0.09111366  0.87072673  0.81235390  1
  Co  Co19  1  0.11387267  0.57762628  0.75023907  1
  Co  Co20  1  0.24678331  0.79878018  0.26225398  1
  Co  Co21  1  0.20120855  0.44794427  0.26225565  1
  Co  Co22  1  0.46370422  0.88605209  0.75022660  1
  Co  Co23  1  0.12923427  0.22041088  0.81245211  1
  Co  Co24  1  0.42233948  0.53626980  0.75026882  1
  Co  Co25  1  0.22043610  0.09118709  0.31250170  1
  Co  Co26  1  0.55212031  0.75327887  0.26232939  1
  Co  Co27  1  0.44791676  0.24671462  0.76222205  1
  Co  Co28  1  0.77952491  0.90884930  0.81248998  1
  Co  Co29  1  0.57769064  0.46374679  0.25031477  1
  Co  Co30  1  0.87110732  0.78003204  0.31267526  1
  Co  Co31  1  0.53628139  0.11392363  0.25027218  1
  Co  Co32  1  0.79876627  0.55199679  0.76221135  1
  Co  Co33  1  0.75325736  0.20117464  0.76231187  1
  Co  Co34  1  0.88607591  0.42234952  0.25029299  1
  Co  Co35  1  0.90887281  0.12928564  0.31247469  1
  P  P36  1  0.09509126  0.87073041  0.20927666  1
  P  P37  1  0.10747675  0.57607541  0.35976599  1
  P  P38  1  0.24034634  0.79686663  0.86185110  1
  P  P39  1  0.20313352  0.44360019  0.86193724  1
  P  P40  1  0.46863631  0.89253243  0.35972640  1
  P  P41  1  0.12920068  0.22420417  0.20968421  1
  P  P42  1  0.42380854  0.53133980  0.35976672  1
  P  P43  1  0.55637534  0.75952396  0.86189709  1
  P  P44  1  0.22424888  0.09489554  0.70972715  1
  P  P45  1  0.77578541  0.90521183  0.20964218  1
  P  P46  1  0.44358698  0.24048789  0.36196675  1
  P  P47  1  0.57610772  0.46843654  0.85968605  1
  P  P48  1  0.87083662  0.77581237  0.70984623  1
  P  P49  1  0.53153582  0.10768882  0.85976139  1
  P  P50  1  0.79691755  0.55637735  0.36195470  1
  P  P51  1  0.75954782  0.20314777  0.36200410  1
  P  P52  1  0.89236009  0.42378982  0.85975328  1
  P  P53  1  0.90502165  0.12929722  0.70960229  1
  O  O54  1  0.01912911  0.89482373  0.30749894  1
  O  O55  1  0.04325698  0.81331637  0.04248628  1
  O  O56  1  0.19626171  0.97353053  0.16808705  1
  O  O57  1  0.11778283  0.79886164  0.32179817  1
  O  O58  1  0.01417008  0.55793133  0.24974640  1
  O  O59  1  0.22099324  0.87377020  0.75611671  1
  O  O60  1  0.13868421  0.69442400  0.89748476  1
  O  O61  1  0.10503212  0.63044161  0.52619766  1
  O  O62  1  0.29240405  0.85257862  0.03048813  1
  O  O63  1  0.20949310  0.64943066  0.26373290  1
  O  O64  1  0.10471403  0.47264223  0.40113609  1
  O  O65  1  0.36795146  0.89531791  0.40115763  1
  O  O66  1  0.02646685  0.22270636  0.16815958  1
  O  O67  1  0.31603753  0.77341358  0.76109150  1
  O  O68  1  0.22658948  0.54264723  0.76122465  1
  O  O69  1  0.14746807  0.43986949  0.03044138  1
  O  O70  1  0.12620930  0.34726814  0.75603035  1
  O  O71  1  0.20108470  0.31886075  0.32188067  1
  O  O72  1  0.54374929  0.98577362  0.24981386  1
  O  O73  1  0.52540431  0.89496191  0.52620265  1
  O  O74  1  0.18669532  0.22986029  0.04255692  1
  O  O75  1  0.10526138  0.12428447  0.30771199  1
  O  O76  1  0.43995320  0.79046433  0.26370539  1
  O  O77  1  0.35052233  0.56001734  0.26380978  1
  O  O78  1  0.30563372  0.44429491  0.89749866  1
  O  O79  1  0.22269539  0.19625073  0.66809036  1
  O  O80  1  0.55567663  0.86131767  0.89759330  1
  O  O81  1  0.12442908  0.01904729  0.80766887  1
  O  O82  1  0.45734814  0.68397348  0.76120392  1
  O  O83  1  0.36959325  0.47462771  0.52617797  1
  O  O84  1  0.22986777  0.04311032  0.54247022  1
  O  O85  1  0.56005116  0.70750949  0.03055299  1
  O  O86  1  0.52735155  0.63205713  0.40118533  1
  O  O87  1  0.44205279  0.45619219  0.24974988  1
  O  O88  1  0.34721899  0.22102988  0.25608813  1
  O  O89  1  0.68111132  0.88231210  0.32191576  1
  O  O90  1  0.31887988  0.11776030  0.82177106  1
  O  O91  1  0.65270285  0.77888959  0.75622339  1
  O  O92  1  0.55790146  0.54378187  0.74969934  1
  O  O93  1  0.47270518  0.36796966  0.90111201  1
  O  O94  1  0.43984230  0.29241109  0.53043804  1
  O  O95  1  0.77013387  0.95686627  0.04269683  1
  O  O96  1  0.63043030  0.52537517  0.02627971  1
  O  O97  1  0.54258742  0.31600517  0.26122313  1
  O  O98  1  0.87563424  0.98092781  0.30767311  1
  O  O99  1  0.44426543  0.13862936  0.39753623  1
  O  O100  1  0.77721519  0.80364794  0.16832226  1
  O  O101  1  0.69444900  0.55580241  0.39747970  1
  O  O102  1  0.64943939  0.43996555  0.76375956  1
  O  O103  1  0.55999654  0.20944176  0.76382918  1
  O  O104  1  0.89474282  0.87570493  0.80774565  1
  O  O105  1  0.81324347  0.77011953  0.54248071  1
  O  O106  1  0.47460615  0.10504103  0.02623600  1
  O  O107  1  0.45615667  0.01409902  0.74965568  1
  O  O108  1  0.79892304  0.68113807  0.82181968  1
  O  O109  1  0.87392049  0.65288076  0.25604253  1
  O  O110  1  0.85256032  0.56016923  0.53038685  1
  O  O111  1  0.77337228  0.45735354  0.26131612  1
  O  O112  1  0.68392599  0.22657226  0.26120108  1
  O  O113  1  0.97348271  0.77727789  0.66803765  1
  O  O114  1  0.63203164  0.10470493  0.90111311  1
  O  O115  1  0.89525995  0.52734905  0.90118856  1
  O  O116  1  0.79055685  0.35054649  0.76382117  1
  O  O117  1  0.70759405  0.14749558  0.53044679  1
  O  O118  1  0.89498332  0.36957441  0.02621393  1
  O  O119  1  0.86131201  0.30562287  0.39756442  1
  O  O120  1  0.77896546  0.12618907  0.25612905  1
  O  O121  1  0.98585893  0.44205567  0.74971358  1
  O  O122  1  0.88225845  0.20112477  0.82182151  1
  O  O123  1  0.80376123  0.02647344  0.66803013  1
  O  O124  1  0.95680755  0.18671435  0.54258127  1
  O  O125  1  0.98100147  0.10529009  0.80770115  1
