# generated using pymatgen
data_Li3V3P8O29
_symmetry_space_group_name_H-M   'P 1'
_cell_length_a   9.78364476
_cell_length_b   9.74132218
_cell_length_c   14.13952208
_cell_angle_alpha   89.97294067
_cell_angle_beta   90.30384328
_cell_angle_gamma   60.02473340
_symmetry_Int_Tables_number   1
_chemical_formula_structural   Li3V3P8O29
_chemical_formula_sum   'Li6 V6 P16 O58'
_cell_volume   1167.30192830
_cell_formula_units_Z   2
loop_
 _symmetry_equiv_pos_site_id
 _symmetry_equiv_pos_as_xyz
  1  'x, y, z'
loop_
 _atom_site_type_symbol
 _atom_site_label
 _atom_site_symmetry_multiplicity
 _atom_site_fract_x
 _atom_site_fract_y
 _atom_site_fract_z
 _atom_site_occupancy
  Li  Li0  1  0.67761618  0.66251816  0.38915456  1
  Li  Li1  1  0.31725410  0.76778254  0.55797473  1
  Li  Li2  1  0.67293666  0.09268077  0.94381111  1
  Li  Li3  1  0.09306766  0.23293959  0.94458611  1
  Li  Li4  1  0.03146591  0.95170017  0.00835827  1
  Li  Li5  1  0.94934698  0.03985559  0.48629607  1
  V  V6  1  0.56880767  0.43103439  0.24756891  1
  V  V7  1  0.43458843  0.55997738  0.75628005  1
  V  V8  1  0.56535459  0.99808965  0.74403189  1
  V  V9  1  0.43045334  0.00214177  0.24931253  1
  V  V10  1  0.00261835  0.56878460  0.24904071  1
  V  V11  1  0.99778769  0.44098627  0.74484839  1
  P  P12  1  0.91547399  0.77858041  0.84260780  1
  P  P13  1  0.78049547  0.91129088  0.34216159  1
  P  P14  1  0.91179939  0.30723524  0.34220790  1
  P  P15  1  0.66691209  0.66730345  0.13098753  1
  P  P16  1  0.66095830  0.66675534  0.62941413  1
  P  P17  1  0.77959402  0.30673112  0.84058771  1
  P  P18  1  0.69053602  0.22681781  0.65546104  1
  P  P19  1  0.31097510  0.91624832  0.84166343  1
  P  P20  1  0.68928759  0.08333952  0.15781792  1
  P  P21  1  0.31681538  0.77464332  0.34397900  1
  P  P22  1  0.22305693  0.69575294  0.16050524  1
  P  P23  1  0.33460261  0.33406105  0.36936855  1
  P  P24  1  0.33449039  0.32624785  0.86906019  1
  P  P25  1  0.08454377  0.69605349  0.65696582  1
  P  P26  1  0.22264740  0.08591225  0.65740239  1
  P  P27  1  0.08271563  0.22682480  0.15823898  1
  O  O28  1  0.00675064  0.78205267  0.56963908  1
  O  O29  1  0.91818444  0.73492499  0.33462849  1
  O  O30  1  0.76867182  0.01427490  0.06659146  1
  O  O31  1  0.73974695  0.91443335  0.83390439  1
  O  O32  1  0.91995379  0.61699573  0.82567331  1
  O  O33  1  0.81597383  0.66155492  0.17884907  1
  O  O34  1  0.90400396  0.47021863  0.33384750  1
  O  O35  1  0.01548743  0.21443706  0.06626442  1
  O  O36  1  0.91642440  0.34383412  0.83852086  1
  O  O37  1  0.66335126  0.81448184  0.67419364  1
  O  O38  1  0.62642998  0.90244395  0.33311588  1
  O  O39  1  0.81168767  0.52047287  0.67477817  1
  O  O40  1  0.66681607  0.66872566  0.02678395  1
  O  O41  1  0.66168578  0.67048831  0.52416409  1
  O  O42  1  0.66354728  0.52119204  0.17663765  1
  O  O43  1  0.46636972  0.91894046  0.82690969  1
  O  O44  1  0.52341744  0.81609649  0.17836476  1
  O  O45  1  0.73571775  0.34615587  0.33274426  1
  O  O46  1  0.80105534  0.20732109  0.74564025  1
  O  O47  1  0.77676508  0.21173525  0.56788553  1
  O  O48  1  0.78192427  0.21251587  0.92374704  1
  O  O49  1  0.61921313  0.46643343  0.82732901  1
  O  O50  1  0.51157293  0.66934727  0.66848169  1
  O  O51  1  0.65511550  0.25726746  0.16850154  1
  O  O52  1  0.48054846  0.62400728  0.32993381  1
  O  O53  1  0.34671163  0.91740123  0.33315096  1
  O  O54  1  0.80096150  0.98928584  0.24515490  1
  O  O55  1  0.79824135  0.99425648  0.42389364  1
  O  O56  1  0.21891082  0.99836599  0.57288917  1
  O  O57  1  0.65043992  0.09104371  0.66996974  1
  O  O58  1  0.53417097  0.38532041  0.67354828  1
  O  O59  1  0.35028053  0.74060105  0.83258679  1
  O  O60  1  0.47203585  0.34787398  0.32116691  1
  O  O61  1  0.38318973  0.54117683  0.17089081  1
  O  O62  1  0.20243366  0.79511197  0.07735142  1
  O  O63  1  0.23665024  0.78171957  0.43390911  1
  O  O64  1  0.20367488  0.79377744  0.25666384  1
  O  O65  1  0.25980277  0.65642068  0.66595152  1
  O  O66  1  0.48641777  0.18203483  0.82698929  1
  O  O67  1  0.53303535  0.08370539  0.17381993  1
  O  O68  1  0.33388179  0.47718990  0.82301544  1
  O  O69  1  0.33879338  0.32545150  0.97392563  1
  O  O70  1  0.33642614  0.33415763  0.47341343  1
  O  O71  1  0.18163849  0.47447186  0.32305999  1
  O  O72  1  0.38146244  0.08615650  0.67179816  1
  O  O73  1  0.34575352  0.18145760  0.32337157  1
  O  O74  1  0.08697669  0.65539635  0.16856190  1
  O  O75  1  0.00049305  0.79816286  0.75003808  1
  O  O76  1  0.99135985  0.79353866  0.92931111  1
  O  O77  1  0.08409148  0.53495551  0.67339017  1
  O  O78  1  0.18471905  0.32743552  0.82739638  1
  O  O79  1  0.08213121  0.38388573  0.17389471  1
  O  O80  1  0.25660306  0.08761221  0.17000079  1
  O  O81  1  0.21627001  0.00003494  0.92613666  1
  O  O82  1  0.20275236  0.00107566  0.74972071  1
  O  O83  1  0.08720394  0.26057078  0.66636778  1
  O  O84  1  0.99166821  0.20470599  0.42453013  1
  O  O85  1  0.98973780  0.20885024  0.24525194  1
