# generated using pymatgen
data_Li3V3P8O29
_symmetry_space_group_name_H-M   'P 1'
_cell_length_a   9.76516310
_cell_length_b   9.76023479
_cell_length_c   14.16811556
_cell_angle_alpha   90.41769846
_cell_angle_beta   90.21421369
_cell_angle_gamma   60.16071939
_symmetry_Int_Tables_number   1
_chemical_formula_structural   Li3V3P8O29
_chemical_formula_sum   'Li6 V6 P16 O58'
_cell_volume   1171.31044232
_cell_formula_units_Z   2
loop_
 _symmetry_equiv_pos_site_id
 _symmetry_equiv_pos_as_xyz
  1  'x, y, z'
loop_
 _atom_site_type_symbol
 _atom_site_label
 _atom_site_symmetry_multiplicity
 _atom_site_fract_x
 _atom_site_fract_y
 _atom_site_fract_z
 _atom_site_occupancy
  Li  Li0  1  0.77646655  0.31041326  0.05691572  1
  Li  Li1  1  0.31299237  0.91498172  0.05995617  1
  Li  Li2  1  0.33075803  0.77074161  0.55740047  1
  Li  Li3  1  0.22151064  0.68667567  0.94342942  1
  Li  Li4  1  0.08917926  0.67219430  0.44112027  1
  Li  Li5  1  0.95208235  0.06592098  0.50168981  1
  V  V6  1  0.56800864  0.42699314  0.25529581  1
  V  V7  1  0.43990954  0.56109137  0.74817577  1
  V  V8  1  0.56855984  0.99628384  0.74993098  1
  V  V9  1  0.43794271  0.00511159  0.25487140  1
  V  V10  1  0.99479774  0.56602320  0.24575075  1
  V  V11  1  0.00002711  0.43325131  0.74778378  1
  P  P12  1  0.91379563  0.77302687  0.83844401  1
  P  P13  1  0.78006973  0.91636000  0.34212786  1
  P  P14  1  0.91881871  0.30771777  0.34383036  1
  P  P15  1  0.65990708  0.66485924  0.13097424  1
  P  P16  1  0.66630247  0.66688480  0.63055426  1
  P  P17  1  0.77380690  0.31668625  0.84141995  1
  P  P18  1  0.69243752  0.21902417  0.66048001  1
  P  P19  1  0.31794369  0.91125149  0.84426952  1
  P  P20  1  0.68986508  0.08215198  0.15539565  1
  P  P21  1  0.31718147  0.77302902  0.33976136  1
  P  P22  1  0.23231334  0.67750404  0.16021509  1
  P  P23  1  0.32854882  0.33918789  0.37073094  1
  P  P24  1  0.33232666  0.33422529  0.86743716  1
  P  P25  1  0.08837160  0.68572545  0.65593518  1
  P  P26  1  0.22433577  0.08315791  0.66171868  1
  P  P27  1  0.08773284  0.22567948  0.15913804  1
  O  O28  1  0.01962850  0.76443177  0.56435968  1
  O  O29  1  0.91627569  0.74054529  0.33484757  1
  O  O30  1  0.76291783  0.99968325  0.06683227  1
  O  O31  1  0.74294922  0.91398009  0.83397426  1
  O  O32  1  0.90823005  0.61828670  0.82082689  1
  O  O33  1  0.81248109  0.65984533  0.17837015  1
  O  O34  1  0.92040511  0.46479001  0.32920171  1
  O  O35  1  0.99526621  0.23697329  0.07374186  1
  O  O36  1  0.91623066  0.34303477  0.83091297  1
  O  O37  1  0.66843678  0.81329806  0.67600352  1
  O  O38  1  0.61899790  0.91703743  0.32802757  1
  O  O39  1  0.81255325  0.51887709  0.67336030  1
  O  O40  1  0.66394881  0.66199347  0.02633558  1
  O  O41  1  0.65434944  0.67214164  0.52591922  1
  O  O42  1  0.66306759  0.51450867  0.17227075  1
  O  O43  1  0.47708891  0.90383945  0.82279476  1
  O  O44  1  0.51436722  0.81642486  0.17354906  1
  O  O45  1  0.74388583  0.34561881  0.33045229  1
  O  O46  1  0.79185869  0.20120055  0.75564386  1
  O  O47  1  0.78427751  0.21005876  0.57622226  1
  O  O48  1  0.75804532  0.25444745  0.93303887  1
  O  O49  1  0.62110629  0.47784636  0.81824817  1
  O  O50  1  0.51057749  0.67315557  0.67182055  1
  O  O51  1  0.66175953  0.25460476  0.16371750  1
  O  O52  1  0.47509989  0.61630541  0.32563853  1
  O  O53  1  0.34664849  0.91378952  0.33374477  1
  O  O54  1  0.79685900  0.99726983  0.24774911  1
  O  O55  1  0.79401909  0.99425890  0.42825950  1
  O  O56  1  0.21128620  0.99338355  0.57974468  1
  O  O57  1  0.65341199  0.08434609  0.66800458  1
  O  O58  1  0.53478138  0.38025017  0.67271344  1
  O  O59  1  0.34091362  0.74097426  0.83657102  1
  O  O60  1  0.48155239  0.33222406  0.32537514  1
  O  O61  1  0.38342089  0.51924328  0.17929698  1
  O  O62  1  0.24276382  0.75419052  0.07152576  1
  O  O63  1  0.23428515  0.77053277  0.42814241  1
  O  O64  1  0.20886716  0.79278039  0.24896215  1
  O  O65  1  0.26099984  0.65667030  0.66409213  1
  O  O66  1  0.47538680  0.18446017  0.82293205  1
  O  O67  1  0.52780427  0.09076412  0.17975168  1
  O  O68  1  0.33681498  0.48312314  0.82416038  1
  O  O69  1  0.32785287  0.34534676  0.97196941  1
  O  O70  1  0.33330867  0.34174398  0.47518292  1
  O  O71  1  0.18252136  0.49057651  0.33016500  1
  O  O72  1  0.38409269  0.07945381  0.67132963  1
  O  O73  1  0.32877533  0.18977593  0.32530020  1
  O  O74  1  0.08730315  0.65376005  0.16640057  1
  O  O75  1  0.99552815  0.79685017  0.74405169  1
  O  O76  1  0.00684537  0.76556580  0.92290061  1
  O  O77  1  0.08882468  0.52862778  0.67117735  1
  O  O78  1  0.18222492  0.34097891  0.82154206  1
  O  O79  1  0.09462647  0.38088527  0.17789941  1
  O  O80  1  0.25850826  0.08341705  0.16128768  1
  O  O81  1  0.24876119  0.98572545  0.93661125  1
  O  O82  1  0.20286078  0.00703175  0.75856248  1
  O  O83  1  0.08779586  0.25668230  0.66556801  1
  O  O84  1  0.99027782  0.21652731  0.43021272  1
  O  O85  1  0.00682147  0.20209464  0.25184645  1
