# generated using pymatgen
data_Pr2Fe17
_symmetry_space_group_name_H-M   'P 1'
_cell_length_a   6.48556311
_cell_length_b   6.48556312
_cell_length_c   6.48556312
_cell_angle_alpha   83.02989933
_cell_angle_beta   83.02989938
_cell_angle_gamma   83.02989931
_symmetry_Int_Tables_number   1
_chemical_formula_structural   Pr2Fe17
_chemical_formula_sum   'Pr2 Fe17'
_cell_volume   267.20337162
_cell_formula_units_Z   1
loop_
 _symmetry_equiv_pos_site_id
 _symmetry_equiv_pos_as_xyz
  1  'x, y, z'
loop_
 _atom_site_type_symbol
 _atom_site_label
 _atom_site_symmetry_multiplicity
 _atom_site_fract_x
 _atom_site_fract_y
 _atom_site_fract_z
 _atom_site_occupancy
  Fe  Fe0  1  0.34113337  0.34113337  0.84620622  1
  Fe  Fe1  1  0.34113337  0.84620622  0.34113337  1
  Fe  Fe2  1  0.09611324  0.09611324  0.09611324  1
  Fe  Fe3  1  0.90388676  0.90388676  0.90388676  1
  Fe  Fe4  1  0.00000000  0.00000000  0.50000000  1
  Fe  Fe5  1  0.50000000  0.00000000  0.00000000  1
  Fe  Fe6  1  0.00000000  0.50000000  0.00000000  1
  Fe  Fe7  1  0.28845175  0.71154825  0.00000000  1
  Fe  Fe8  1  0.00000000  0.28845175  0.71154825  1
  Fe  Fe9  1  0.71154825  0.00000000  0.28845175  1
  Fe  Fe10  1  0.71154825  0.28845175  0.00000000  1
  Fe  Fe11  1  0.00000000  0.71154825  0.28845175  1
  Fe  Fe12  1  0.28845175  0.00000000  0.71154825  1
  Fe  Fe13  1  0.65886663  0.15379378  0.65886663  1
  Fe  Fe14  1  0.65886663  0.65886663  0.15379378  1
  Fe  Fe15  1  0.15379378  0.65886663  0.65886663  1
  Fe  Fe16  1  0.84620622  0.34113337  0.34113337  1
  Pr  Pr17  1  0.65897132  0.65897132  0.65897132  1
  Pr  Pr18  1  0.34102868  0.34102868  0.34102868  1
