# generated using pymatgen
data_Rb2CoS2
_symmetry_space_group_name_H-M   'P 1'
_cell_length_a   6.09372073
_cell_length_b   7.05777546
_cell_length_c   8.10110271
_cell_angle_alpha   115.82230840
_cell_angle_beta   112.09684297
_cell_angle_gamma   90.00174552
_symmetry_Int_Tables_number   1
_chemical_formula_structural   Rb2CoS2
_chemical_formula_sum   'Rb4 Co2 S4'
_cell_volume   284.92279549
_cell_formula_units_Z   2
loop_
 _symmetry_equiv_pos_site_id
 _symmetry_equiv_pos_as_xyz
  1  'x, y, z'
loop_
 _atom_site_type_symbol
 _atom_site_label
 _atom_site_symmetry_multiplicity
 _atom_site_fract_x
 _atom_site_fract_y
 _atom_site_fract_z
 _atom_site_occupancy
  Rb  Rb0  1  0.35300589  0.18767978  0.70602395  1
  Rb  Rb1  1  0.85300539  0.51834114  0.70603312  1
  Rb  Rb2  1  0.64699411  0.81232022  0.29397605  1
  Rb  Rb3  1  0.14699461  0.48165886  0.29396688  1
  Co  Co4  1  0.25002414  0.00001955  -0.00000577  1
  Co  Co5  1  0.74997586  0.99998045  1.00000577  1
  S  S6  1  0.40503465  0.73272829  0.81014617  1
  S  S7  1  0.90501308  0.07734158  0.81011058  1
  S  S8  1  0.59496535  0.26727171  0.18985383  1
  S  S9  1  0.09498692  0.92265842  0.18988942  1
