# generated using pymatgen
data_LiCuF4
_symmetry_space_group_name_H-M   'P 1'
_cell_length_a   3.84941800
_cell_length_b   7.71143969
_cell_length_c   10.69894100
_cell_angle_alpha   81.18201798
_cell_angle_beta   79.61796918
_cell_angle_gamma   75.55377890
_symmetry_Int_Tables_number   1
_chemical_formula_structural   LiCuF4
_chemical_formula_sum   'Li4 Cu4 F16'
_cell_volume   300.55338510
_cell_formula_units_Z   4
loop_
 _symmetry_equiv_pos_site_id
 _symmetry_equiv_pos_as_xyz
  1  'x, y, z'
loop_
 _atom_site_type_symbol
 _atom_site_label
 _atom_site_symmetry_multiplicity
 _atom_site_fract_x
 _atom_site_fract_y
 _atom_site_fract_z
 _atom_site_occupancy
  Li  Li0  1  0.80220912  0.22891098  0.16734363  1
  Li  Li1  1  0.34269776  0.97210494  0.34233246  1
  Li  Li2  1  0.65466507  0.02852227  0.66205290  1
  Li  Li3  1  0.19413504  0.77810016  0.83312282  1
  Cu  Cu4  1  0.96391972  0.20409909  0.86754424  1
  Cu  Cu5  1  0.86280559  0.63595427  0.63926356  1
  Cu  Cu6  1  0.13777411  0.36324515  0.36097365  1
  Cu  Cu7  1  0.03516366  0.79690902  0.13262328  1
  F  F8  1  0.92684964  0.40858732  0.73780040  1
  F  F9  1  0.89358481  0.95189379  0.26137071  1
  F  F10  1  0.80492630  0.85755330  0.53410786  1
  F  F11  1  0.72005579  0.77655521  0.78308426  1
  F  F12  1  0.82836332  0.34760219  0.99525561  1
  F  F13  1  0.47834649  0.18904446  0.85362546  1
  F  F14  1  0.65159214  0.35307458  0.34362061  1
  F  F15  1  0.34870792  0.64724275  0.65601095  1
  F  F16  1  0.52541300  0.80692923  0.14216061  1
  F  F17  1  0.17013122  0.65651461  0.00271882  1
  F  F18  1  0.28101318  0.21976999  0.21850148  1
  F  F19  1  0.19438739  0.14368234  0.46775754  1
  F  F20  1  0.99774354  0.00297686  0.00124828  1
  F  F21  1  0.10757750  0.04350774  0.74065899  1
  F  F22  1  -0.00002791  0.50158235  0.49909556  1
  F  F23  1  0.07796458  0.58563640  0.25772534  1
