# generated using pymatgen
data_NaNiCSO7
_symmetry_space_group_name_H-M   'P 1'
_cell_length_a   9.05199681
_cell_length_b   6.55335074
_cell_length_c   5.18278938
_cell_angle_alpha   90.00000000
_cell_angle_beta   87.85702100
_cell_angle_gamma   90.00000000
_symmetry_Int_Tables_number   1
_chemical_formula_structural   NaNiCSO7
_chemical_formula_sum   'Na2 Ni2 C2 S2 O14'
_cell_volume   307.23276094
_cell_formula_units_Z   2
loop_
 _symmetry_equiv_pos_site_id
 _symmetry_equiv_pos_as_xyz
  1  'x, y, z'
loop_
 _atom_site_type_symbol
 _atom_site_label
 _atom_site_symmetry_multiplicity
 _atom_site_fract_x
 _atom_site_fract_y
 _atom_site_fract_z
 _atom_site_occupancy
  Na  Na0  1  0.23917695  0.47591107  0.23876603  1
  Na  Na1  1  0.76082305  0.97591107  0.76123397  1
  Ni  Ni2  1  0.35141716  0.76329768  0.78293105  1
  Ni  Ni3  1  0.64858284  0.26329768  0.21706895  1
  C  C4  1  0.08249916  0.74442631  0.72351259  1
  C  C5  1  0.91750084  0.24442631  0.27648741  1
  S  S6  1  0.42569884  0.25414218  0.72298577  1
  S  S7  1  0.57430116  0.75414218  0.27701423  1
  O  O8  1  0.05441769  0.24387388  0.30754125  1
  O  O9  1  0.13974015  0.74655665  0.94907184  1
  O  O10  1  0.17978435  0.74428789  0.53287295  1
  O  O11  1  0.33341447  0.07432326  0.78430477  1
  O  O12  1  0.33844670  0.43757540  0.80291768  1
  O  O13  1  0.43093630  0.74549231  0.14440579  1
  O  O14  1  0.45904702  0.26796337  0.43693327  1
  O  O15  1  0.54095298  0.76796337  0.56306673  1
  O  O16  1  0.56906370  0.24549231  0.85559421  1
  O  O17  1  0.66155330  0.93757540  0.19708232  1
  O  O18  1  0.66658553  0.57432326  0.21569523  1
  O  O19  1  0.82021565  0.24428789  0.46712705  1
  O  O20  1  0.86025985  0.24655665  0.05092816  1
  O  O21  1  0.94558231  0.74387388  0.69245875  1
