# generated using pymatgen
data_K3Pu(PS4)2
_symmetry_space_group_name_H-M   'P 1'
_cell_length_a   9.12925842
_cell_length_b   9.62077096
_cell_length_c   17.28054279
_cell_angle_alpha   90.00000000
_cell_angle_beta   90.00000000
_cell_angle_gamma   90.41601171
_symmetry_Int_Tables_number   1
_chemical_formula_structural   K3Pu(PS4)2
_chemical_formula_sum   'K12 Pu4 P8 S32'
_cell_volume   1517.71878072
_cell_formula_units_Z   4
loop_
 _symmetry_equiv_pos_site_id
 _symmetry_equiv_pos_as_xyz
  1  'x, y, z'
loop_
 _atom_site_type_symbol
 _atom_site_label
 _atom_site_symmetry_multiplicity
 _atom_site_fract_x
 _atom_site_fract_y
 _atom_site_fract_z
 _atom_site_occupancy
  Pu  Pu0  1  0.27948109  0.47534211  0.01187130  1
  Pu  Pu1  1  0.72051891  0.02465789  0.51187130  1
  Pu  Pu2  1  0.72051891  0.52465789  0.98812870  1
  Pu  Pu3  1  0.27948109  0.97534211  0.48812870  1
  P  P4  1  0.97313840  0.28343470  0.90362674  1
  P  P5  1  0.02686160  0.21656530  0.40362674  1
  P  P6  1  0.02686160  0.71656530  0.09637326  1
  P  P7  1  0.97313840  0.78343470  0.59637326  1
  P  P8  1  0.50093643  0.26031931  0.10027603  1
  P  P9  1  0.49906357  0.23968069  0.60027603  1
  P  P10  1  0.49906357  0.73968069  0.89972397  1
  P  P11  1  0.50093643  0.76031931  0.39972397  1
  K  K12  1  0.23192986  0.51193859  0.53114497  1
  K  K13  1  0.76807014  0.98806141  0.03114497  1
  K  K14  1  0.76807014  0.48806141  0.46885503  1
  K  K15  1  0.23192986  0.01193859  0.96885503  1
  K  K16  1  0.62226464  0.62766329  0.70808602  1
  K  K17  1  0.37773536  0.87233671  0.20808602  1
  K  K18  1  0.37773536  0.37233671  0.29191398  1
  K  K19  1  0.62226464  0.12766329  0.79191398  1
  K  K20  1  0.11489501  0.63249714  0.78824207  1
  K  K21  1  0.88510499  0.86750286  0.28824207  1
  K  K22  1  0.88510499  0.36750286  0.21175793  1
  K  K23  1  0.11489501  0.13249714  0.71175793  1
  S  S24  1  0.17094733  0.58686092  0.15206266  1
  S  S25  1  0.82905267  0.91313908  0.65206266  1
  S  S26  1  0.82905267  0.41313908  0.84793734  1
  S  S27  1  0.17094733  0.08686092  0.34793734  1
  S  S28  1  0.18674399  0.33647139  0.87534225  1
  S  S29  1  0.81325601  0.16352861  0.37534225  1
  S  S30  1  0.81325601  0.66352861  0.12465775  1
  S  S31  1  0.18674399  0.83647139  0.62465775  1
  S  S32  1  0.95344159  0.32553020  0.02064625  1
  S  S33  1  0.04655841  0.17446980  0.52064625  1
  S  S34  1  0.04655841  0.67446980  0.97935375  1
  S  S35  1  0.95344159  0.82553020  0.47935375  1
  S  S36  1  0.53370707  0.47128049  0.11989481  1
  S  S37  1  0.46629293  0.02871951  0.61989481  1
  S  S38  1  0.46629293  0.52871951  0.88010519  1
  S  S39  1  0.53370707  0.97128049  0.38010519  1
  S  S40  1  0.27981481  0.23116963  0.10977637  1
  S  S41  1  0.72018519  0.26883037  0.60977637  1
  S  S42  1  0.72018519  0.76883037  0.89022363  1
  S  S43  1  0.27981481  0.73116963  0.39022363  1
  S  S44  1  0.55455705  0.25206063  0.98433813  1
  S  S45  1  0.44544295  0.24793937  0.48433813  1
  S  S46  1  0.44544295  0.74793937  0.01566187  1
  S  S47  1  0.55455705  0.75206063  0.51566187  1
  S  S48  1  0.61488376  0.14114903  0.17525090  1
  S  S49  1  0.38511624  0.35885097  0.67525090  1
  S  S50  1  0.38511624  0.85885097  0.82474910  1
  S  S51  1  0.61488376  0.64114903  0.32474910  1
  S  S52  1  0.93455194  0.08225097  0.87463536  1
  S  S53  1  0.06544806  0.41774903  0.37463536  1
  S  S54  1  0.06544806  0.91774903  0.12536464  1
  S  S55  1  0.93455194  0.58225097  0.62536464  1
