# generated using pymatgen
data_Zr9V4S
_symmetry_space_group_name_H-M   'P 1'
_cell_length_a   8.65631967
_cell_length_b   8.65631967
_cell_length_c   8.53839633
_cell_angle_alpha   90.00000000
_cell_angle_beta   90.00000000
_cell_angle_gamma   120.00000002
_symmetry_Int_Tables_number   1
_chemical_formula_structural   Zr9V4S
_chemical_formula_sum   'Zr18 V8 S2'
_cell_volume   554.08132647
_cell_formula_units_Z   2
loop_
 _symmetry_equiv_pos_site_id
 _symmetry_equiv_pos_as_xyz
  1  'x, y, z'
loop_
 _atom_site_type_symbol
 _atom_site_label
 _atom_site_symmetry_multiplicity
 _atom_site_fract_x
 _atom_site_fract_y
 _atom_site_fract_z
 _atom_site_occupancy
  S  S0  1  0.66666667  0.33333333  0.25000000  1
  S  S1  1  0.33333333  0.66666667  0.75000000  1
  V  V2  1  0.00000000  0.00000000  0.50000000  1
  V  V3  1  0.00000000  0.00000000  0.00000000  1
  V  V4  1  0.89612649  0.79225298  0.75000000  1
  V  V5  1  0.10387351  0.89612649  0.25000000  1
  V  V6  1  0.79225298  0.89612649  0.25000000  1
  V  V7  1  0.20774702  0.10387351  0.75000000  1
  V  V8  1  0.89612649  0.10387351  0.75000000  1
  V  V9  1  0.10387351  0.20774702  0.25000000  1
  Zr  Zr10  1  0.19552952  0.39105905  0.94876800  1
  Zr  Zr11  1  0.19552952  0.80447048  0.94876800  1
  Zr  Zr12  1  0.45800627  0.91601255  0.25000000  1
  Zr  Zr13  1  0.54199373  0.45800627  0.75000000  1
  Zr  Zr14  1  0.91601255  0.45800627  0.75000000  1
  Zr  Zr15  1  0.08398745  0.54199373  0.25000000  1
  Zr  Zr16  1  0.45800627  0.54199373  0.25000000  1
  Zr  Zr17  1  0.54199373  0.08398745  0.75000000  1
  Zr  Zr18  1  0.60894095  0.80447048  0.94876800  1
  Zr  Zr19  1  0.39105905  0.19552952  0.44876800  1
  Zr  Zr20  1  0.80447048  0.60894095  0.05123200  1
  Zr  Zr21  1  0.80447048  0.19552952  0.44876800  1
  Zr  Zr22  1  0.80447048  0.60894095  0.44876800  1
  Zr  Zr23  1  0.19552952  0.80447048  0.55123200  1
  Zr  Zr24  1  0.60894095  0.80447048  0.55123200  1
  Zr  Zr25  1  0.39105905  0.19552952  0.05123200  1
  Zr  Zr26  1  0.80447048  0.19552952  0.05123200  1
  Zr  Zr27  1  0.19552952  0.39105905  0.55123200  1
