# generated using pymatgen
data_KRhO3
_symmetry_space_group_name_H-M   'P 1'
_cell_length_a   3.99183143
_cell_length_b   3.99132162
_cell_length_c   3.99157818
_cell_angle_alpha   89.99995923
_cell_angle_beta   90.00021645
_cell_angle_gamma   89.99991330
_symmetry_Int_Tables_number   1
_chemical_formula_structural   KRhO3
_chemical_formula_sum   'K1 Rh1 O3'
_cell_volume   63.59655017
_cell_formula_units_Z   1
loop_
 _symmetry_equiv_pos_site_id
 _symmetry_equiv_pos_as_xyz
  1  'x, y, z'
loop_
 _atom_site_type_symbol
 _atom_site_label
 _atom_site_symmetry_multiplicity
 _atom_site_fract_x
 _atom_site_fract_y
 _atom_site_fract_z
 _atom_site_occupancy
  K  K0  1  0.99999905  0.99999872  0.00000140  1
  Rh  Rh1  1  0.49999754  0.50000276  0.49999857  1
  O  O2  1  0.50000200  0.50000061  0.00000143  1
  O  O3  1  0.50000182  0.00000064  0.50000057  1
  O  O4  1  0.00000259  0.50000027  0.50000103  1
