# generated using pymatgen
data_Tm3Mg
_symmetry_space_group_name_H-M   'P 1'
_cell_length_a   6.91639496
_cell_length_b   6.91639529
_cell_length_c   5.49807966
_cell_angle_alpha   90.00000000
_cell_angle_beta   90.00000000
_cell_angle_gamma   119.99999842
_symmetry_Int_Tables_number   1
_chemical_formula_structural   Tm3Mg
_chemical_formula_sum   'Tm6 Mg2'
_cell_volume   227.77248428
_cell_formula_units_Z   2
loop_
 _symmetry_equiv_pos_site_id
 _symmetry_equiv_pos_as_xyz
  1  'x, y, z'
loop_
 _atom_site_type_symbol
 _atom_site_label
 _atom_site_symmetry_multiplicity
 _atom_site_fract_x
 _atom_site_fract_y
 _atom_site_fract_z
 _atom_site_occupancy
  Tm  Tm0  1  0.16873868  0.33747636  0.25000000  1
  Tm  Tm1  1  0.16873868  0.83126132  0.25000000  1
  Tm  Tm2  1  0.66252264  0.83126132  0.25000000  1
  Tm  Tm3  1  0.33747636  0.16873868  0.74999900  1
  Tm  Tm4  1  0.83126132  0.16873868  0.74999900  1
  Tm  Tm5  1  0.83126132  0.66252264  0.74999900  1
  Mg  Mg6  1  0.66666800  0.33333400  0.25000000  1
  Mg  Mg7  1  0.33333400  0.66666800  0.74999900  1
