# generated using pymatgen
data_Tb2TiO5
_symmetry_space_group_name_H-M   'P 1'
_cell_length_a   7.38028731
_cell_length_b   7.60453633
_cell_length_c   22.71375534
_cell_angle_alpha   59.35098741
_cell_angle_beta   57.91483478
_cell_angle_gamma   58.08166657
_symmetry_Int_Tables_number   1
_chemical_formula_structural   Tb2TiO5
_chemical_formula_sum   'Tb16 Ti8 O40'
_cell_volume   869.07114624
_cell_formula_units_Z   8
loop_
 _symmetry_equiv_pos_site_id
 _symmetry_equiv_pos_as_xyz
  1  'x, y, z'
loop_
 _atom_site_type_symbol
 _atom_site_label
 _atom_site_symmetry_multiplicity
 _atom_site_fract_x
 _atom_site_fract_y
 _atom_site_fract_z
 _atom_site_occupancy
  Tb  Tb0  1  0.47632078  0.98114709  0.99606239  1
  Tb  Tb1  1  0.46283292  0.48866782  0.01265733  1
  Tb  Tb2  1  0.41559232  0.52633270  0.17565311  1
  Tb  Tb3  1  0.49555453  0.00449111  0.33040648  1
  Tb  Tb4  1  0.01693700  0.52531525  0.47915366  1
  Tb  Tb5  1  0.98514371  0.46233393  0.00063959  1
  Tb  Tb6  1  0.57760550  0.47928055  0.32408635  1
  Tb  Tb7  1  0.51343465  0.02019082  0.49020911  1
  Tb  Tb8  1  0.43570998  0.00916514  0.17782912  1
  Tb  Tb9  1  0.49254159  0.47773996  0.49700871  1
  Tb  Tb10  1  0.53455860  0.99637408  0.66251195  1
  Tb  Tb11  1  0.98513713  0.51398507  0.83560483  1
  Tb  Tb12  1  0.51628091  0.49186508  0.66371944  1
  Tb  Tb13  1  0.48776731  0.02357786  0.82580164  1
  Tb  Tb14  1  0.46856760  0.49552157  0.83663164  1
  Tb  Tb15  1  0.01426846  0.00996372  0.81460481  1
  Ti  Ti16  1  0.95658573  0.05626402  0.99054943  1
  Ti  Ti17  1  0.96969458  0.52455224  0.13692887  1
  Ti  Ti18  1  0.99830127  0.92572535  0.51564590  1
  Ti  Ti19  1  0.99295690  0.99520835  0.17980461  1
  Ti  Ti20  1  0.98997463  0.99892439  0.33944625  1
  Ti  Ti21  1  0.98790363  0.48701564  0.34905394  1
  Ti  Ti22  1  0.98414815  0.03114074  0.65785271  1
  Ti  Ti23  1  0.01688948  0.47080253  0.66556368  1
  O  O24  1  0.03658264  0.70668753  0.04288753  1
  O  O25  1  0.03173125  0.05682632  0.23983105  1
  O  O26  1  0.26644937  0.39409492  0.14238554  1
  O  O27  1  0.02233612  0.70626454  0.22845061  1
  O  O28  1  0.65695046  0.07758473  0.04986343  1
  O  O29  1  0.31817577  0.37505449  0.30283585  1
  O  O30  1  0.99670315  0.70105551  0.36430870  1
  O  O31  1  0.31422678  0.90802832  0.12806478  1
  O  O32  1  0.89084765  0.32273856  0.59114228  1
  O  O33  1  0.65407800  0.10657241  0.20272187  1
  O  O34  1  0.60564618  0.61362898  0.05437386  1
  O  O35  1  0.32351901  0.87976562  0.30645373  1
  O  O36  1  0.95525863  0.33052058  0.11979670  1
  O  O37  1  0.37795052  0.37484975  0.44928760  1
  O  O38  1  0.08773822  0.62053934  0.54597848  1
  O  O39  1  0.65672975  0.10650491  0.36388402  1
  O  O40  1  0.66586176  0.63289799  0.19952583  1
  O  O41  1  0.34545754  0.43067952  0.62142056  1
  O  O42  1  0.35284057  0.40004916  0.78598694  1
  O  O43  1  0.30783675  0.90681987  0.46558951  1
  O  O44  1  0.07491873  0.08952396  0.89010922  1
  O  O45  1  0.94794824  0.28614270  0.32373267  1
  O  O46  1  0.09734340  0.08306211  0.03230280  1
  O  O47  1  0.65132686  0.63095063  0.37052932  1
  O  O48  1  0.64225806  0.10728200  0.53951020  1
  O  O49  1  0.93146874  0.32953373  0.44947810  1
  O  O50  1  0.31286635  0.87649025  0.61246186  1
  O  O51  1  0.07851117  0.65477972  0.88063327  1
  O  O52  1  0.63851409  0.13006834  0.70143559  1
  O  O53  1  0.37341290  0.37393260  0.95994763  1
  O  O54  1  0.40499364  0.85542972  0.78619978  1
  O  O55  1  0.64238444  0.12434040  0.86860623  1
  O  O56  1  0.09703304  0.17323026  0.68660826  1
  O  O57  1  0.90949627  0.89317996  0.44861286  1
  O  O58  1  0.70232292  0.62182571  0.67520990  1
  O  O59  1  0.93331751  0.43201289  0.76359168  1
  O  O60  1  0.46626798  0.80581999  0.93688503  1
  O  O61  1  0.93732294  0.90032712  0.61073413  1
  O  O62  1  0.84034421  0.37629996  0.95585986  1
  O  O63  1  0.92631907  0.85901689  0.76200416  1
