# generated using pymatgen
data_Ac3La
_symmetry_space_group_name_H-M   'P 1'
_cell_length_a   7.91620300
_cell_length_b   7.91620334
_cell_length_c   6.39217700
_cell_angle_alpha   90.00000000
_cell_angle_beta   90.00000000
_cell_angle_gamma   120.00000277
_symmetry_Int_Tables_number   1
_chemical_formula_structural   Ac3La
_chemical_formula_sum   'Ac6 La2'
_cell_volume   346.90716937
_cell_formula_units_Z   2
loop_
 _symmetry_equiv_pos_site_id
 _symmetry_equiv_pos_as_xyz
  1  'x, y, z'
loop_
 _atom_site_type_symbol
 _atom_site_label
 _atom_site_symmetry_multiplicity
 _atom_site_fract_x
 _atom_site_fract_y
 _atom_site_fract_z
 _atom_site_occupancy
  Ac  Ac0  1  0.83204300  0.16795700  0.75000000  1
  Ac  Ac1  1  0.33591400  0.16795700  0.75000000  1
  Ac  Ac2  1  0.83204300  0.66408600  0.75000000  1
  Ac  Ac3  1  0.16795600  0.83204400  0.24999900  1
  Ac  Ac4  1  0.66408800  0.83204400  0.24999900  1
  Ac  Ac5  1  0.16795600  0.33591200  0.24999900  1
  La  La6  1  0.66666700  0.33333500  0.24999900  1
  La  La7  1  0.33333300  0.66666600  0.75000000  1
