# generated using pymatgen
data_CaWO3
_symmetry_space_group_name_H-M   'P 1'
_cell_length_a   5.58086621
_cell_length_b   5.79424219
_cell_length_c   7.91017335
_cell_angle_alpha   89.50210744
_cell_angle_beta   89.99775197
_cell_angle_gamma   90.09345147
_symmetry_Int_Tables_number   1
_chemical_formula_structural   CaWO3
_chemical_formula_sum   'Ca4 W4 O12'
_cell_volume   255.78041079
_cell_formula_units_Z   4
loop_
 _symmetry_equiv_pos_site_id
 _symmetry_equiv_pos_as_xyz
  1  'x, y, z'
loop_
 _atom_site_type_symbol
 _atom_site_label
 _atom_site_symmetry_multiplicity
 _atom_site_fract_x
 _atom_site_fract_y
 _atom_site_fract_z
 _atom_site_occupancy
  Ca  Ca0  1  0.98613695  0.04971380  0.25009069  1
  Ca  Ca1  1  0.48706666  0.45086490  0.74957691  1
  Ca  Ca2  1  0.51293273  0.54913627  0.25042353  1
  Ca  Ca3  1  0.01386128  0.95028378  0.74990763  1
  W  W4  1  0.50000022  0.00000039  0.99999999  1
  W  W5  1  0.00000016  0.49999970  0.00000040  1
  W  W6  1  0.00000007  0.50000003  0.49999984  1
  W  W7  1  0.49999990  0.00000043  0.49999933  1
  O  O8  1  0.89827874  0.54088595  0.74988248  1
  O  O9  1  0.40024691  0.96101885  0.25065203  1
  O  O10  1  0.59975310  0.03898118  0.74934739  1
  O  O11  1  0.10172115  0.45911372  0.25011766  1
  O  O12  1  0.69011387  0.29651042  0.44502243  1
  O  O13  1  0.18833210  0.20333702  0.55451817  1
  O  O14  1  0.80032403  0.80805475  0.05163751  1
  O  O15  1  0.30025838  0.69232785  0.94804402  1
  O  O16  1  0.69974202  0.30767313  0.05195606  1
  O  O17  1  0.19967677  0.19194578  0.94836187  1
  O  O18  1  0.30988638  0.70349049  0.55497741  1
  O  O19  1  0.81166858  0.79666356  0.44548265  1
