# generated using pymatgen
data_MgMn2(PO4)2
_symmetry_space_group_name_H-M   'P 1'
_cell_length_a   5.12241099
_cell_length_b   8.45578496
_cell_length_c   15.55314448
_cell_angle_alpha   89.49925136
_cell_angle_beta   80.49091435
_cell_angle_gamma   72.38324763
_symmetry_Int_Tables_number   1
_chemical_formula_structural   MgMn2(PO4)2
_chemical_formula_sum   'Mg4 Mn8 P8 O32'
_cell_volume   632.64262938
_cell_formula_units_Z   4
loop_
 _symmetry_equiv_pos_site_id
 _symmetry_equiv_pos_as_xyz
  1  'x, y, z'
loop_
 _atom_site_type_symbol
 _atom_site_label
 _atom_site_symmetry_multiplicity
 _atom_site_fract_x
 _atom_site_fract_y
 _atom_site_fract_z
 _atom_site_occupancy
  Mg  Mg0  1  0.47814811  0.80890587  0.84690369  1
  Mg  Mg1  1  0.13253954  0.69101180  0.65352555  1
  Mg  Mg2  1  0.86416022  0.30916586  0.34681706  1
  Mg  Mg3  1  0.51972324  0.18974178  0.15362359  1
  Mn  Mn4  1  0.23689068  0.19902920  0.96653150  1
  Mn  Mn5  1  0.40234299  0.30175840  0.53342203  1
  Mn  Mn6  1  0.76064453  0.80097889  0.03344935  1
  Mn  Mn7  1  0.49668601  0.50009679  0.00054642  1
  Mn  Mn8  1  0.59360415  0.69960378  0.46670975  1
  Mn  Mn9  1  0.51668166  0.75034282  0.25052452  1
  Mn  Mn10  1  0.47877102  0.24981684  0.75045820  1
  Mn  Mn11  1  0.99808659  0.00114674  0.50049461  1
  P  P12  1  0.06571554  0.56472927  0.86203200  1
  P  P13  1  0.77541178  0.43400261  0.61771585  1
  P  P14  1  0.92801450  0.43560842  0.13835903  1
  P  P15  1  0.17081610  0.93340798  0.11772594  1
  P  P16  1  0.50449107  0.06448259  0.36199490  1
  P  P17  1  0.49308376  0.93620459  0.63840869  1
  P  P18  1  0.21991110  0.56695725  0.38250711  1
  P  P19  1  0.82771806  0.06683050  0.88260715  1
  O  O20  1  0.70362728  0.36941443  0.10763261  1
  O  O21  1  0.68501674  0.93242722  0.91626259  1
  O  O22  1  0.81389429  0.86917523  0.60686784  1
  O  O23  1  0.82800446  0.27095801  0.56202289  1
  O  O24  1  0.18734840  0.39343974  0.06333259  1
  O  O25  1  0.67652519  0.42014458  0.71450115  1
  O  O26  1  0.66062383  0.22974360  0.93833545  1
  O  O27  1  0.86458756  0.98539455  0.10138589  1
  O  O28  1  0.16826774  0.73009492  0.43803530  1
  O  O29  1  0.53251405  0.56809962  0.58370668  1
  O  O30  1  0.82104520  0.62883193  0.14721018  1
  O  O31  1  0.58861313  0.14813407  0.27850128  1
  O  O32  1  0.31498636  0.06684460  0.08330280  1
  O  O33  1  0.04629006  0.48598710  0.60175561  1
  O  O34  1  0.28794114  0.63165847  0.89360415  1
  O  O35  1  0.17398243  0.37152548  0.85347769  1
  O  O36  1  0.98012373  0.64935899  0.77884567  1
  O  O37  1  0.33730644  0.76961423  0.06271559  1
  O  O38  1  0.40008038  0.12955165  0.64655315  1
  O  O39  1  0.40900578  0.85228979  0.72182367  1
  O  O40  1  0.94936468  0.51460250  0.39888571  1
  O  O41  1  0.34807587  0.89342561  0.56434615  1
  O  O42  1  0.13423927  0.01447519  0.89885987  1
  O  O43  1  0.18516453  0.92095690  0.21466532  1
  O  O44  1  0.46347718  0.43286819  0.41621578  1
  O  O45  1  0.18378140  0.13162353  0.39362629  1
  O  O46  1  0.01584462  0.35028803  0.22116044  1
  O  O47  1  0.64967376  0.10780283  0.43586809  1
  O  O48  1  0.80367104  0.60739825  0.93616563  1
  O  O49  1  0.81364240  0.08141225  0.78575498  1
  O  O50  1  0.31653493  0.58098083  0.28558757  1
  O  O51  1  0.59764247  0.87116769  0.35384945  1
