# generated using pymatgen
data_GeH6CI3N
_symmetry_space_group_name_H-M   'P 1'
_cell_length_a   8.61862976
_cell_length_b   8.62627210
_cell_length_c   12.38091043
_cell_angle_alpha   90.36532764
_cell_angle_beta   90.37212433
_cell_angle_gamma   89.91447642
_symmetry_Int_Tables_number   1
_chemical_formula_structural   GeH6CI3N
_chemical_formula_sum   'Ge4 H24 C4 I12 N4'
_cell_volume   920.44006393
_cell_formula_units_Z   4
loop_
 _symmetry_equiv_pos_site_id
 _symmetry_equiv_pos_as_xyz
  1  'x, y, z'
loop_
 _atom_site_type_symbol
 _atom_site_label
 _atom_site_symmetry_multiplicity
 _atom_site_fract_x
 _atom_site_fract_y
 _atom_site_fract_z
 _atom_site_occupancy
  Ge  Ge0  1  0.00379579  0.00246144  0.02027732  1
  Ge  Ge1  1  0.49665871  0.49825179  0.52027014  1
  Ge  Ge2  1  0.00320614  0.99774633  0.52025135  1
  Ge  Ge3  1  0.50431632  0.50279484  0.02027437  1
  H  H4  1  0.41698935  0.91919698  0.70217660  1
  H  H5  1  0.62027670  0.96396126  0.70565432  1
  H  H6  1  0.39460926  0.03219601  0.88305263  1
  H  H7  1  0.58069316  0.08247391  0.88475195  1
  H  H8  1  0.53396635  0.89559196  0.88569616  1
  H  H9  1  0.92092902  0.41527613  0.70044843  1
  H  H10  1  0.12180358  0.47007199  0.70519817  1
  H  H11  1  0.89060835  0.52286642  0.88096153  1
  H  H12  1  0.07454569  0.58283915  0.88604245  1
  H  H13  1  0.03528001  0.39381145  0.88360830  1
  H  H14  1  0.88401820  0.49014583  0.20146277  1
  H  H15  1  0.07007191  0.39589866  0.20451187  1
  H  H16  1  0.93224008  0.59008056  0.38242320  1
  H  H17  1  0.10940445  0.51110702  0.38560310  1
  H  H18  1  0.95227612  0.39837575  0.38354097  1
  H  H19  1  0.42163586  0.91517473  0.20117874  1
  H  H20  1  0.62109452  0.97522629  0.20544662  1
  H  H21  1  0.39092145  0.01939875  0.38295100  1
  H  H22  1  0.57366483  0.08304113  0.38729404  1
  H  H23  1  0.53820259  0.89346478  0.38313199  1
  H  H24  1  0.05811507  0.60355253  0.20406767  1
  H  H25  1  0.97408522  0.61648227  0.70367926  1
  H  H26  1  0.47968818  0.11751382  0.70383517  1
  H  H27  1  0.46965922  0.11773846  0.20535033  1
  C  C28  1  0.50370440  0.00254284  0.23242107  1
  C  C29  1  0.00487123  0.50064683  0.73157342  1
  C  C30  1  0.00307019  0.49771365  0.23183974  1
  C  C31  1  0.50463250  0.00000108  0.73236889  1
  I  I32  1  0.00098090  0.00001172  0.24289042  1
  I  I33  1  0.50169278  0.50053916  0.74275622  1
  I  I34  1  0.00136251  0.00068680  0.74273333  1
  I  I35  1  0.49882000  0.50053810  0.24282182  1
  I  I36  1  0.24129951  0.74397278  0.00939033  1
  I  I37  1  0.74508860  0.24524283  0.50862510  1
  I  I38  1  0.24915829  0.23652577  0.00804730  1
  I  I39  1  0.75748556  0.74496869  0.50793709  1
  I  I40  1  0.75338256  0.25571515  0.00804062  1
  I  I41  1  0.25637728  0.75663126  0.50942614  1
  I  I42  1  0.73664335  0.74911977  0.00923019  1
  I  I43  1  0.24456642  0.25789672  0.50898236  1
  N  N44  1  0.50077249  0.99906518  0.35288236  1
  N  N45  1  0.00038792  0.49935848  0.85197017  1
  N  N46  1  0.99975436  0.49902724  0.35225612  1
  N  N47  1  0.50252602  0.00183471  0.85282885  1
