# generated using pymatgen
data_CaCo2(P2O7)2
_symmetry_space_group_name_H-M   'P 1'
_cell_length_a   6.71316449
_cell_length_b   6.42243714
_cell_length_c   6.48937722
_cell_angle_alpha   82.89602031
_cell_angle_beta   65.88095195
_cell_angle_gamma   87.18862847
_symmetry_Int_Tables_number   1
_chemical_formula_structural   CaCo2(P2O7)2
_chemical_formula_sum   'Ca1 Co2 P4 O14'
_cell_volume   253.40202054
_cell_formula_units_Z   1
loop_
 _symmetry_equiv_pos_site_id
 _symmetry_equiv_pos_as_xyz
  1  'x, y, z'
loop_
 _atom_site_type_symbol
 _atom_site_label
 _atom_site_symmetry_multiplicity
 _atom_site_fract_x
 _atom_site_fract_y
 _atom_site_fract_z
 _atom_site_occupancy
  Ca  Ca0  1  0.82172332  0.12930533  0.72339008  1
  Co  Co1  1  0.78128245  0.65170884  0.10332512  1
  Co  Co2  1  0.22302529  0.34654862  0.90890795  1
  P  P3  1  0.75741818  0.13314138  0.22934280  1
  P  P4  1  0.23768640  0.86592035  0.77526346  1
  P  P5  1  0.34161744  0.38272258  0.35599674  1
  P  P6  1  0.65915822  0.62226607  0.64451472  1
  O  O7  1  0.47200379  0.77633531  0.62229224  1
  O  O8  1  0.51178026  0.20262517  0.37280731  1
  O  O9  1  0.74161525  0.96095005  0.08990036  1
  O  O10  1  0.28016205  0.04262373  0.89330992  1
  O  O11  1  0.48073013  0.58322589  0.24792772  1
  O  O12  1  0.54821532  0.40555857  0.76054951  1
  O  O13  1  0.17942341  0.38795688  0.60521873  1
  O  O14  1  0.81807378  0.60131114  0.40016792  1
  O  O15  1  0.13285540  0.94456157  0.61762818  1
  O  O16  1  0.85934874  0.06356501  0.38918136  1
  O  O17  1  0.11582405  0.67033538  0.94587014  1
  O  O18  1  0.75160950  0.71579289  0.79204970  1
  O  O19  1  0.23304522  0.32504151  0.20572353  1
  O  O20  1  0.87116579  0.32490371  0.04805952  1
