# generated using pymatgen
data_Mg5Al34O56
_symmetry_space_group_name_H-M   'P 1'
_cell_length_a   5.70319853
_cell_length_b   5.74704166
_cell_length_c   40.13839113
_cell_angle_alpha   59.92109209
_cell_angle_beta   59.63120360
_cell_angle_gamma   59.74269699
_symmetry_Int_Tables_number   1
_chemical_formula_structural   Mg5Al34O56
_chemical_formula_sum   'Mg5 Al34 O56'
_cell_volume   925.29141616
_cell_formula_units_Z   1
loop_
 _symmetry_equiv_pos_site_id
 _symmetry_equiv_pos_as_xyz
  1  'x, y, z'
loop_
 _atom_site_type_symbol
 _atom_site_label
 _atom_site_symmetry_multiplicity
 _atom_site_fract_x
 _atom_site_fract_y
 _atom_site_fract_z
 _atom_site_occupancy
  Al  Al0  1  0.08784285  0.10760230  0.02816012  1
  Al  Al1  1  0.48440797  0.98578697  0.07676960  1
  Al  Al2  1  0.43211163  0.49780063  0.01035349  1
  Al  Al3  1  0.15093429  0.11410989  0.16009842  1
  Al  Al4  1  0.48434948  0.49250027  0.07676723  1
  Al  Al5  1  0.50381064  1.00012397  0.21321023  1
  Al  Al6  1  0.51401072  0.48835514  0.14416018  1
  Al  Al7  1  0.16485522  0.12384871  0.29825192  1
  Al  Al8  1  0.50367821  0.50367851  0.21320849  1
  Al  Al9  1  0.52121547  0.01156146  0.35198706  1
  Al  Al10  1  0.50666955  0.50560407  0.28320980  1
  Al  Al11  1  0.84024906  0.88089979  0.12827740  1
  Al  Al12  1  0.01564089  0.50620971  0.49599666  1
  Al  Al13  1  0.52099915  0.50346485  0.35200539  1
  Al  Al14  1  0.51040726  0.01245679  0.49569193  1
  Al  Al15  1  0.53128356  0.50465465  0.42278712  1
  Al  Al16  1  0.85921580  0.88256769  0.26792562  1
  Al  Al17  1  0.01087785  0.50005063  0.64126463  1
  Al  Al18  1  0.51036896  0.50738744  0.49569419  1
  Al  Al19  1  0.50150068  0.01043380  0.64119693  1
  Al  Al20  1  0.50969266  0.50912000  0.56744328  1
  Al  Al21  1  0.88363867  0.88911065  0.40545717  1
  Al  Al22  1  0.00062720  0.49226336  0.78782933  1
  Al  Al23  1  0.50145317  0.49950898  0.64120966  1
  Al  Al24  1  0.49549284  0.49561471  0.71615913  1
  Al  Al25  1  0.49119615  0.00261385  0.78774596  1
  Al  Al26  1  0.98801947  0.48943713  0.93331098  1
  Al  Al27  1  0.49121714  0.49186569  0.78773755  1
  Al  Al28  1  0.48136103  0.99853835  0.93316637  1
  Al  Al29  1  0.48539809  0.48999933  0.86210927  1
  Al  Al30  1  0.87095015  0.87341391  0.69741361  1
  Al  Al31  1  0.48133497  0.48802348  0.93316885  1
  Al  Al32  1  0.86338854  0.86962183  0.84247162  1
  Al  Al33  1  0.83935346  0.87480398  0.98728976  1
  Mg  Mg34  1  0.15769148  0.13942984  0.43766035  1
  Mg  Mg35  1  0.13715183  0.13112114  0.58579137  1
  Mg  Mg36  1  0.12656550  0.12254867  0.73260900  1
  Mg  Mg37  1  0.11123694  0.11379224  0.88019659  1
  Mg  Mg38  1  0.89099261  0.89228238  0.54635714  1
  O  O39  1  0.27353574  0.24158181  0.03337447  1
  O  O40  1  0.27829730  0.24927658  0.10330668  1
  O  O41  1  0.27349555  0.75141404  0.03338080  1
  O  O42  1  0.71630734  0.27354868  0.03381104  1
  O  O43  1  0.29882455  0.24304862  0.17482551  1
  O  O44  1  0.25598216  0.75280441  0.10548960  1
  O  O45  1  0.29235677  0.25064119  0.24377151  1
  O  O46  1  0.73361547  0.26578761  0.10533479  1
  O  O47  1  0.29885617  0.73421420  0.17481658  1
  O  O48  1  0.71029860  0.75820136  0.03904335  1
  O  O49  1  0.73366079  0.76324403  0.10533311  1
  O  O50  1  0.75305427  0.25404704  0.17696009  1
  O  O51  1  0.29762448  0.24236978  0.31716979  1
  O  O52  1  0.26309587  0.75052612  0.24798664  1
  O  O53  1  0.72090547  0.26852022  0.24972216  1
  O  O54  1  0.31201489  0.26156409  0.38068126  1
  O  O55  1  0.29752015  0.74013296  0.31717890  1
  O  O56  1  0.72476624  0.75160453  0.18170190  1
  O  O57  1  0.72120623  0.76238076  0.24969123  1
  O  O58  1  0.76519264  0.25386294  0.31817808  1
  O  O59  1  0.25800564  0.25769410  0.46686029  1
  O  O60  1  0.27212963  0.74088688  0.39229449  1
  O  O61  1  0.27170958  0.26396496  0.52862994  1
  O  O62  1  0.25800158  0.71636871  0.46685391  1
  O  O63  1  0.71822065  0.25869843  0.39499857  1
  O  O64  1  0.73247602  0.75196153  0.32336842  1
  O  O65  1  0.71835990  0.75809321  0.39498639  1
  O  O66  1  0.72440022  0.25867911  0.46547806  1
  O  O67  1  0.25904390  0.25804749  0.61030690  1
  O  O68  1  0.29559622  0.73446019  0.53364353  1
  O  O69  1  0.26128166  0.26159202  0.67361860  1
  O  O70  1  0.25903909  0.71064466  0.61030956  1
  O  O71  1  0.74931837  0.74330775  0.46630652  1
  O  O72  1  0.73619416  0.29433733  0.53363931  1
  O  O73  1  0.73618061  0.73404976  0.53364024  1
  O  O74  1  0.71379320  0.25719529  0.61024364  1
  O  O75  1  0.25705896  0.25846315  0.75429003  1
  O  O76  1  0.26486988  0.73560684  0.68052846  1
  O  O77  1  0.73523113  0.26578876  0.68042096  1
  O  O78  1  0.73026760  0.72954980  0.61577937  1
  O  O79  1  0.25474190  0.25678090  0.81879079  1
  O  O80  1  0.25710446  0.70440073  0.75427055  1
  O  O81  1  0.73522510  0.73579899  0.68040832  1
  O  O82  1  0.70545085  0.25774588  0.75413027  1
  O  O83  1  0.25676618  0.26136405  0.89704854  1
  O  O84  1  0.26789722  0.73798386  0.82230417  1
  O  O85  1  0.24335099  0.25679710  0.96330709  1
  O  O86  1  0.73502229  0.27206804  0.82215332  1
  O  O87  1  0.25674362  0.70271735  0.89705151  1
  O  O88  1  0.73570652  0.73761545  0.75555932  1
  O  O89  1  0.69760556  0.26262133  0.89675176  1
  O  O90  1  0.73497021  0.73775164  0.82214243  1
  O  O91  1  0.26118063  0.74615145  0.96380084  1
  O  O92  1  0.74691801  0.27131241  0.96081209  1
  O  O93  1  0.73151167  0.74249764  0.89768203  1
  O  O94  1  0.74682497  0.75602551  0.96083091  1
