# generated using pymatgen
data_Ca5Nb4(CoO9)2
_symmetry_space_group_name_H-M   'P 1'
_cell_length_a   5.47246630
_cell_length_b   9.62281665
_cell_length_c   13.74919968
_cell_angle_alpha   90.52176183
_cell_angle_beta   90.00000000
_cell_angle_gamma   90.00000000
_symmetry_Int_Tables_number   1
_chemical_formula_structural   Ca5Nb4(CoO9)2
_chemical_formula_sum   'Ca10 Nb8 Co4 O36'
_cell_volume   724.01025601
_cell_formula_units_Z   2
loop_
 _symmetry_equiv_pos_site_id
 _symmetry_equiv_pos_as_xyz
  1  'x, y, z'
loop_
 _atom_site_type_symbol
 _atom_site_label
 _atom_site_symmetry_multiplicity
 _atom_site_fract_x
 _atom_site_fract_y
 _atom_site_fract_z
 _atom_site_occupancy
  Ca  Ca0  1  0.51238526  0.14501394  0.59786529  1
  Ca  Ca1  1  0.98761474  0.64501394  0.09786529  1
  Ca  Ca2  1  0.02347832  0.68742982  0.56619197  1
  Ca  Ca3  1  0.49295872  0.84811676  0.40643351  1
  Ca  Ca4  1  0.50506144  0.48580871  0.26974733  1
  Ca  Ca5  1  0.00704128  0.34811676  0.90643351  1
  Ca  Ca6  1  0.51738204  0.81268399  0.93422557  1
  Ca  Ca7  1  0.47652168  0.18742982  0.06619197  1
  Ca  Ca8  1  0.98261796  0.31268399  0.43422557  1
  Ca  Ca9  1  0.99493856  0.98580871  0.76974733  1
  Nb  Nb10  1  0.98917098  0.32062693  0.16525168  1
  Nb  Nb11  1  0.99789123  0.66537801  0.33737796  1
  Nb  Nb12  1  0.01474357  0.66217090  0.83884787  1
  Nb  Nb13  1  0.51082902  0.82062693  0.66525168  1
  Nb  Nb14  1  0.01247372  0.34372495  0.66534432  1
  Nb  Nb15  1  0.48752628  0.84372495  0.16534432  1
  Nb  Nb16  1  0.48525643  0.16217090  0.33884787  1
  Nb  Nb17  1  0.50210877  0.16537801  0.83737796  1
  Co  Co18  1  0.50818542  0.49048394  0.50590072  1
  Co  Co19  1  0.99181458  0.99048394  0.00590072  1
  Co  Co20  1  0.49693404  0.50162082  0.00341041  1
  Co  Co21  1  0.00306596  0.00162082  0.50341041  1
  O  O22  1  0.18578496  0.46105965  0.57645902  1
  O  O23  1  0.28876712  0.56996263  0.89540447  1
  O  O24  1  0.70169944  0.36833627  0.57506717  1
  O  O25  1  0.20007337  0.12715802  0.91591497  1
  O  O26  1  0.19970400  0.40002358  0.05525712  1
  O  O27  1  0.41378120  0.00995858  0.74061413  1
  O  O28  1  0.29992663  0.62715802  0.41591497  1
  O  O29  1  0.08621880  0.50995858  0.24061413  1
  O  O30  1  0.09394680  0.83945939  0.90739952  1
  O  O31  1  0.41787689  0.67597300  0.07750408  1
  O  O32  1  0.79830056  0.86833627  0.07506717  1
  O  O33  1  0.79650714  0.93434928  0.61355223  1
  O  O34  1  0.71036964  0.77745689  0.78109668  1
  O  O35  1  0.90853204  0.16435962  0.08563214  1
  O  O36  1  0.79805421  0.53674234  0.41238311  1
  O  O37  1  0.78446020  0.20769725  0.74710395  1
  O  O38  1  0.70349286  0.43434928  0.11355223  1
  O  O39  1  0.91721985  0.82242553  0.42633873  1
  O  O40  1  0.19438743  0.74635192  0.71996256  1
  O  O41  1  0.70512746  0.10197944  0.44430511  1
  O  O42  1  0.30029600  0.90002358  0.55525712  1
  O  O43  1  0.21123288  0.06996263  0.39540447  1
  O  O44  1  0.92517943  0.49349392  0.75826557  1
  O  O45  1  0.27719898  0.28586494  0.74985981  1
  O  O46  1  0.22280102  0.78586494  0.24985981  1
  O  O47  1  0.70194579  0.03674234  0.91238311  1
  O  O48  1  0.59146796  0.66435962  0.58563214  1
  O  O49  1  0.79487254  0.60197944  0.94430511  1
  O  O50  1  0.30561257  0.24635192  0.21996256  1
  O  O51  1  0.40605320  0.33945939  0.40739952  1
  O  O52  1  0.08212311  0.17597300  0.57750408  1
  O  O53  1  0.78963036  0.27745689  0.28109668  1
  O  O54  1  0.71553980  0.70769725  0.24710395  1
  O  O55  1  0.57482057  0.99349392  0.25826557  1
  O  O56  1  0.58278015  0.32242553  0.92633873  1
  O  O57  1  0.31421504  0.96105965  0.07645902  1
