# generated using pymatgen
data_MgCr(GeO3)2
_symmetry_space_group_name_H-M   'P 1'
_cell_length_a   5.43612780
_cell_length_b   9.36822489
_cell_length_c   9.86794154
_cell_angle_alpha   90.00000000
_cell_angle_beta   102.95839969
_cell_angle_gamma   90.00000000
_symmetry_Int_Tables_number   1
_chemical_formula_structural   MgCr(GeO3)2
_chemical_formula_sum   'Mg4 Cr4 Ge8 O24'
_cell_volume   489.74515148
_cell_formula_units_Z   4
loop_
 _symmetry_equiv_pos_site_id
 _symmetry_equiv_pos_as_xyz
  1  'x, y, z'
loop_
 _atom_site_type_symbol
 _atom_site_label
 _atom_site_symmetry_multiplicity
 _atom_site_fract_x
 _atom_site_fract_y
 _atom_site_fract_z
 _atom_site_occupancy
  Mg  Mg0  1  0.44575195  0.48848936  0.24196956  1
  Mg  Mg1  1  0.05424805  0.98848936  0.75803044  1
  Mg  Mg2  1  0.55424805  0.51151064  0.75803044  1
  Mg  Mg3  1  0.94575195  0.01151064  0.24196956  1
  Cr  Cr4  1  0.95419588  0.65430746  0.24461117  1
  Cr  Cr5  1  0.54580412  0.15430746  0.75538883  1
  Cr  Cr6  1  0.04580412  0.34569254  0.75538883  1
  Cr  Cr7  1  0.45419588  0.84569254  0.24461117  1
  Ge  Ge8  1  0.82882814  0.33532989  0.05521984  1
  Ge  Ge9  1  0.67117186  0.83532989  0.94478016  1
  Ge  Ge10  1  0.17117186  0.66467011  0.94478016  1
  Ge  Ge11  1  0.32882814  0.16467011  0.05521984  1
  Ge  Ge12  1  0.24074824  0.34507505  0.45600265  1
  Ge  Ge13  1  0.25925176  0.84507505  0.54399735  1
  Ge  Ge14  1  0.75925176  0.65492495  0.54399735  1
  Ge  Ge15  1  0.74074824  0.15492495  0.45600265  1
  O  O16  1  0.51111381  0.29003569  0.38835073  1
  O  O17  1  0.98888619  0.79003569  0.61164927  1
  O  O18  1  0.48888619  0.70996431  0.61164927  1
  O  O19  1  0.01111381  0.20996431  0.38835073  1
  O  O20  1  0.17443300  0.32448071  0.10704849  1
  O  O21  1  0.32556700  0.82448071  0.89295251  1
  O  O22  1  0.82556700  0.67551929  0.89295251  1
  O  O23  1  0.67443300  0.17551929  0.10704849  1
  O  O24  1  0.69602287  0.99276789  0.36863452  1
  O  O25  1  0.80397713  0.49276789  0.63136548  1
  O  O26  1  0.30397713  0.00723211  0.63136548  1
  O  O27  1  0.19602287  0.50723211  0.36863452  1
  O  O28  1  0.21538015  0.02484364  0.13522040  1
  O  O29  1  0.28461985  0.52484364  0.86477960  1
  O  O30  1  0.78461985  0.97515636  0.86477960  1
  O  O31  1  0.71538015  0.47515636  0.13522040  1
  O  O32  1  0.76035079  0.33826015  0.86972447  1
  O  O33  1  0.73964921  0.83826015  0.13027553  1
  O  O34  1  0.23964921  0.66173985  0.13027553  1
  O  O35  1  0.26035079  0.16173985  0.86972447  1
  O  O36  1  0.31585227  0.35343869  0.63812144  1
  O  O37  1  0.18414773  0.85343869  0.36187856  1
  O  O38  1  0.68414773  0.64656131  0.36187856  1
  O  O39  1  0.81585227  0.14656131  0.63812144  1
