# generated using pymatgen
data_VZnBiO5
_symmetry_space_group_name_H-M   'P 1'
_cell_length_a   5.66391878
_cell_length_b   10.95993512
_cell_length_c   15.31204646
_cell_angle_alpha   90.00000000
_cell_angle_beta   90.00000000
_cell_angle_gamma   90.00000000
_symmetry_Int_Tables_number   1
_chemical_formula_structural   VZnBiO5
_chemical_formula_sum   'V8 Zn8 Bi8 O40'
_cell_volume   950.51338826
_cell_formula_units_Z   8
loop_
 _symmetry_equiv_pos_site_id
 _symmetry_equiv_pos_as_xyz
  1  'x, y, z'
loop_
 _atom_site_type_symbol
 _atom_site_label
 _atom_site_symmetry_multiplicity
 _atom_site_fract_x
 _atom_site_fract_y
 _atom_site_fract_z
 _atom_site_occupancy
  V  V0  1  0.91931072  0.38935766  0.59301915  1
  V  V1  1  0.58068928  0.88935766  0.40698085  1
  V  V2  1  0.08068928  0.61064234  0.40698085  1
  V  V3  1  0.41931072  0.11064234  0.59301915  1
  V  V4  1  0.08068928  0.11064234  0.09301915  1
  V  V5  1  0.91931072  0.88935766  0.90698085  1
  V  V6  1  0.58068928  0.38935766  0.09301915  1
  V  V7  1  0.41931072  0.61064234  0.90698085  1
  Zn  Zn8  1  0.41788876  0.35859042  0.47200082  1
  Zn  Zn9  1  0.91788876  0.14140958  0.47200082  1
  Zn  Zn10  1  0.91788876  0.64140958  0.02799918  1
  Zn  Zn11  1  0.08211124  0.35859042  0.97200082  1
  Zn  Zn12  1  0.58211124  0.14140958  0.97200082  1
  Zn  Zn13  1  0.08211124  0.85859042  0.52799918  1
  Zn  Zn14  1  0.58211124  0.64140958  0.52799918  1
  Zn  Zn15  1  0.41788876  0.85859042  0.02799918  1
  Bi  Bi16  1  0.03307572  0.84492000  0.22338601  1
  Bi  Bi17  1  0.96692428  0.15508000  0.77661399  1
  Bi  Bi18  1  0.46692428  0.34492000  0.77661399  1
  Bi  Bi19  1  0.96692428  0.65508000  0.72338601  1
  Bi  Bi20  1  0.53307572  0.15508000  0.27661399  1
  Bi  Bi21  1  0.53307572  0.65508000  0.22338601  1
  Bi  Bi22  1  0.46692428  0.84492000  0.72338601  1
  Bi  Bi23  1  0.03307572  0.34492000  0.27661399  1
  O  O24  1  0.82777358  0.31112747  0.68807919  1
  O  O25  1  0.33300150  0.04369466  0.04750878  1
  O  O26  1  0.16699850  0.54369466  0.95249122  1
  O  O27  1  0.35451322  0.79566161  0.14952293  1
  O  O28  1  0.14548678  0.29566161  0.85047707  1
  O  O29  1  0.82777358  0.81112747  0.81192081  1
  O  O30  1  0.14548678  0.79566161  0.64952293  1
  O  O31  1  0.67222642  0.81112747  0.31192081  1
  O  O32  1  0.33300150  0.54369466  0.45249122  1
  O  O33  1  0.17222642  0.68887253  0.31192081  1
  O  O34  1  0.67222642  0.31112747  0.18807919  1
  O  O35  1  0.58705780  0.20136557  0.52083383  1
  O  O36  1  0.83300150  0.95630534  0.45249122  1
  O  O37  1  0.64548678  0.70433839  0.64952293  1
  O  O38  1  0.09925068  0.00475186  0.87168039  1
  O  O39  1  0.83300150  0.45630534  0.04750878  1
  O  O40  1  0.17222642  0.18887253  0.18807919  1
  O  O41  1  0.85451322  0.20433839  0.35047707  1
  O  O42  1  0.08705780  0.79863443  0.97916617  1
  O  O43  1  0.16699850  0.04369466  0.54750878  1
  O  O44  1  0.41294220  0.79863443  0.47916617  1
  O  O45  1  0.90074932  0.99524814  0.12831961  1
  O  O46  1  0.64548678  0.20433839  0.85047707  1
  O  O47  1  0.59925068  0.99524814  0.62831961  1
  O  O48  1  0.41294220  0.29863443  0.02083383  1
  O  O49  1  0.08705780  0.29863443  0.52083383  1
  O  O50  1  0.66699850  0.45630534  0.54750878  1
  O  O51  1  0.66699850  0.95630534  0.95249122  1
  O  O52  1  0.59925068  0.49524814  0.87168039  1
  O  O53  1  0.91294220  0.70136557  0.47916617  1
  O  O54  1  0.91294220  0.20136557  0.02083383  1
  O  O55  1  0.58705780  0.70136557  0.97916617  1
  O  O56  1  0.90074932  0.49524814  0.37168039  1
  O  O57  1  0.85451322  0.70433839  0.14952293  1
  O  O58  1  0.35451322  0.29566161  0.35047707  1
  O  O59  1  0.09925068  0.50475186  0.62831961  1
  O  O60  1  0.40074932  0.50475186  0.12831961  1
  O  O61  1  0.32777358  0.18887253  0.68807919  1
  O  O62  1  0.40074932  0.00475186  0.37168039  1
  O  O63  1  0.32777358  0.68887253  0.81192081  1
