# generated using pymatgen
data_Mg7Bi
_symmetry_space_group_name_H-M   'P 1'
_cell_length_a   6.39885346
_cell_length_b   6.39885294
_cell_length_c   5.38612284
_cell_angle_alpha   90.00000000
_cell_angle_beta   90.00000000
_cell_angle_gamma   120.00000269
_symmetry_Int_Tables_number   1
_chemical_formula_structural   Mg7Bi
_chemical_formula_sum   'Mg7 Bi1'
_cell_volume   190.99023699
_cell_formula_units_Z   1
loop_
 _symmetry_equiv_pos_site_id
 _symmetry_equiv_pos_as_xyz
  1  'x, y, z'
loop_
 _atom_site_type_symbol
 _atom_site_label
 _atom_site_symmetry_multiplicity
 _atom_site_fract_x
 _atom_site_fract_y
 _atom_site_fract_z
 _atom_site_occupancy
  Mg  Mg0  1  0.16547551  0.83273726  0.25000000  1
  Mg  Mg1  1  0.66726274  0.33452449  0.25000000  1
  Mg  Mg2  1  0.66726274  0.83273726  0.25000000  1
  Mg  Mg3  1  0.33545180  0.16454820  0.75000000  1
  Mg  Mg4  1  0.33545180  0.67090460  0.75000000  1
  Mg  Mg5  1  0.82909540  0.16454820  0.75000000  1
  Mg  Mg6  1  0.83333300  0.66666700  0.75000000  1
  Bi  Bi7  1  0.16666700  0.33333300  0.25000000  1
