# generated using pymatgen
data_Mg7Zn
_symmetry_space_group_name_H-M   'P 1'
_cell_length_a   6.29668263
_cell_length_b   6.29668213
_cell_length_c   5.05998662
_cell_angle_alpha   90.00000000
_cell_angle_beta   90.00000000
_cell_angle_gamma   120.00000259
_symmetry_Int_Tables_number   1
_chemical_formula_structural   Mg7Zn
_chemical_formula_sum   'Mg7 Zn1'
_cell_volume   173.74149838
_cell_formula_units_Z   1
loop_
 _symmetry_equiv_pos_site_id
 _symmetry_equiv_pos_as_xyz
  1  'x, y, z'
loop_
 _atom_site_type_symbol
 _atom_site_label
 _atom_site_symmetry_multiplicity
 _atom_site_fract_x
 _atom_site_fract_y
 _atom_site_fract_z
 _atom_site_occupancy
  Mg  Mg0  1  0.16552902  0.83276401  0.25000000  1
  Mg  Mg1  1  0.66723599  0.33447098  0.25000000  1
  Mg  Mg2  1  0.66723599  0.83276401  0.25000000  1
  Mg  Mg3  1  0.33074312  0.16925688  0.75000000  1
  Mg  Mg4  1  0.33074312  0.66148725  0.75000000  1
  Mg  Mg5  1  0.83851275  0.16925688  0.75000000  1
  Mg  Mg6  1  0.83333300  0.66666700  0.75000000  1
  Zn  Zn7  1  0.16666700  0.33333300  0.25000000  1
