# generated using pymatgen
data_CaMn2O4
_symmetry_space_group_name_H-M   'P 1'
_cell_length_a   3.32790611
_cell_length_b   5.10515782
_cell_length_c   5.94233296
_cell_angle_alpha   67.61633546
_cell_angle_beta   80.28792856
_cell_angle_gamma   82.32303408
_symmetry_Int_Tables_number   1
_chemical_formula_structural   CaMn2O4
_chemical_formula_sum   'Ca1 Mn2 O4'
_cell_volume   91.74588742
_cell_formula_units_Z   1
loop_
 _symmetry_equiv_pos_site_id
 _symmetry_equiv_pos_as_xyz
  1  'x, y, z'
loop_
 _atom_site_type_symbol
 _atom_site_label
 _atom_site_symmetry_multiplicity
 _atom_site_fract_x
 _atom_site_fract_y
 _atom_site_fract_z
 _atom_site_occupancy
  Ca  Ca0  1  0.24994059  0.25000692  0.50001598  1
  Mn  Mn1  1  0.94735315  0.96921518  0.04058855  1
  Mn  Mn2  1  0.55254324  0.53079650  0.95944414  1
  O  O3  1  0.10183913  0.78164218  0.80160300  1
  O  O4  1  0.65745768  0.27372926  0.78298873  1
  O  O5  1  0.84243053  0.22627953  0.21704548  1
  O  O6  1  0.39805668  0.71836843  0.19843012  1
