# generated using pymatgen
data_Mg2SiO4
_symmetry_space_group_name_H-M   'P 1'
_cell_length_a   5.77495330
_cell_length_b   5.77495361
_cell_length_c   29.05060511
_cell_angle_alpha   60.20002115
_cell_angle_beta   60.20001929
_cell_angle_gamma   59.99999524
_symmetry_Int_Tables_number   1
_chemical_formula_structural   Mg2SiO4
_chemical_formula_sum   'Mg20 Si10 O40'
_cell_volume   687.13734977
_cell_formula_units_Z   10
loop_
 _symmetry_equiv_pos_site_id
 _symmetry_equiv_pos_as_xyz
  1  'x, y, z'
loop_
 _atom_site_type_symbol
 _atom_site_label
 _atom_site_symmetry_multiplicity
 _atom_site_fract_x
 _atom_site_fract_y
 _atom_site_fract_z
 _atom_site_occupancy
  Mg  Mg0  1  0.26550517  0.26550517  0.04069690  1
  Mg  Mg1  1  0.13055341  0.62053304  0.12567610  1
  Mg  Mg2  1  0.62053304  0.13055341  0.12567610  1
  Mg  Mg3  1  0.25326029  0.25326029  0.24804383  1
  Mg  Mg4  1  0.62053304  0.62053304  0.12567610  1
  Mg  Mg5  1  0.12441451  0.61759827  0.32807779  1
  Mg  Mg6  1  0.61759827  0.12441451  0.32807779  1
  Mg  Mg7  1  0.61759827  0.61759827  0.32807779  1
  Mg  Mg8  1  0.12363955  0.62263526  0.52621799  1
  Mg  Mg9  1  0.62263526  0.12363955  0.52621799  1
  Mg  Mg10  1  0.62282318  0.62282318  0.42630609  1
  Mg  Mg11  1  0.62263526  0.62263526  0.52621799  1
  Mg  Mg12  1  0.12541318  0.62561452  0.72467156  1
  Mg  Mg13  1  0.62561452  0.12541318  0.72467156  1
  Mg  Mg14  1  0.62419222  0.62419222  0.62548467  1
  Mg  Mg15  1  0.62561452  0.62561452  0.72467156  1
  Mg  Mg16  1  0.13125502  0.62995418  0.92176733  1
  Mg  Mg17  1  0.62552556  0.62552556  0.82468466  1
  Mg  Mg18  1  0.62995418  0.13125502  0.92176733  1
  Mg  Mg19  1  0.62995418  0.62995418  0.92176733  1
  O  O20  1  0.40262668  0.40262668  0.06965799  1
  O  O21  1  0.40262668  0.84645672  0.06965799  1
  O  O22  1  0.38421438  0.38421438  0.16947137  1
  O  O23  1  0.35858101  0.86753491  0.18126983  1
  O  O24  1  0.39945616  0.39945616  0.27325532  1
  O  O25  1  0.84645672  0.40262668  0.06965799  1
  O  O26  1  0.87706998  0.87706998  0.07375801  1
  O  O27  1  0.86753491  0.35858101  0.18126983  1
  O  O28  1  0.36251500  0.36251500  0.38249100  1
  O  O29  1  0.39945616  0.83481110  0.27325532  1
  O  O30  1  0.35472808  0.88268400  0.37598079  1
  O  O31  1  0.36808426  0.36808426  0.47489863  1
  O  O32  1  0.83481110  0.39945616  0.27325532  1
  O  O33  1  0.86753491  0.86753491  0.18126983  1
  O  O34  1  0.87515984  0.87515984  0.27490409  1
  O  O35  1  0.88268400  0.35472808  0.37598079  1
  O  O36  1  0.36808426  0.88933833  0.47489863  1
  O  O37  1  0.36851036  0.36851036  0.57889378  1
  O  O38  1  0.35679676  0.88114888  0.57618110  1
  O  O39  1  0.37011157  0.37011157  0.67310505  1
  O  O40  1  0.88933833  0.36808426  0.47489863  1
  O  O41  1  0.88268400  0.88268400  0.37598079  1
  O  O42  1  0.88114888  0.35679676  0.57618110  1
  O  O43  1  0.88096770  0.88096770  0.47141938  1
  O  O44  1  0.37011157  0.89425163  0.67310505  1
  O  O45  1  0.37426215  0.37426215  0.77544271  1
  O  O46  1  0.35840279  0.88303179  0.77510672  1
  O  O47  1  0.37172105  0.37172105  0.87052576  1
  O  O48  1  0.89425163  0.37011157  0.67310505  1
  O  O49  1  0.88114888  0.88114888  0.57618110  1
  O  O50  1  0.88303179  0.35840279  0.77510672  1
  O  O51  1  0.88200980  0.88200980  0.67079412  1
  O  O52  1  0.37172105  0.90392910  0.87052576  1
  O  O53  1  0.39786279  0.39786279  0.96128233  1
  O  O54  1  0.36240227  0.86933713  0.97978469  1
  O  O55  1  0.90392910  0.37172105  0.87052576  1
  O  O56  1  0.88303179  0.88303179  0.77510672  1
  O  O57  1  0.88344217  0.88344217  0.86993470  1
  O  O58  1  0.86933713  0.36240227  0.97978469  1
  O  O59  1  0.86933713  0.86933713  0.97978469  1
  Si  Si60  1  0.99425075  0.99425075  0.00344955  1
  Si  Si61  1  0.99112945  0.99112945  0.20532233  1
  Si  Si62  1  0.61007992  0.61007992  0.03395205  1
  Si  Si63  1  0.99821570  0.99821570  0.40107058  1
  Si  Si64  1  0.60653449  0.60653449  0.23607930  1
  Si  Si65  1  0.24605211  0.24605211  0.45236873  1
  Si  Si66  1  0.25010995  0.25010995  0.64993403  1
  Si  Si67  1  1.00176691  1.00176691  0.79893985  1
  Si  Si68  1  0.25596560  0.25596560  0.84642064  1
  Si  Si69  1  0.99945769  0.99945769  0.60032539  1
