# generated using pymatgen
data_CaNiAsO5
_symmetry_space_group_name_H-M   'P 1'
_cell_length_a   7.52921700
_cell_length_b   5.86842641
_cell_length_c   8.85417482
_cell_angle_alpha   89.99637480
_cell_angle_beta   90.00285293
_cell_angle_gamma   89.99594892
_symmetry_Int_Tables_number   1
_chemical_formula_structural   CaNiAsO5
_chemical_formula_sum   'Ca4 Ni4 As4 O20'
_cell_volume   391.21866487
_cell_formula_units_Z   4
loop_
 _symmetry_equiv_pos_site_id
 _symmetry_equiv_pos_as_xyz
  1  'x, y, z'
loop_
 _atom_site_type_symbol
 _atom_site_label
 _atom_site_symmetry_multiplicity
 _atom_site_fract_x
 _atom_site_fract_y
 _atom_site_fract_z
 _atom_site_occupancy
  Ca  Ca0  1  0.90092310  0.77621178  0.08314244  1
  Ca  Ca1  1  0.59907437  0.22378088  0.58322762  1
  Ca  Ca2  1  0.40096726  0.72381510  0.91674301  1
  Ca  Ca3  1  0.09902232  0.27621984  0.41671598  1
  Ni  Ni4  1  0.99580543  0.49896928  0.75381700  1
  Ni  Ni5  1  0.50416160  0.50099841  0.25392639  1
  Ni  Ni6  1  0.49576777  0.00105310  0.24621602  1
  Ni  Ni7  1  0.00424549  0.99895587  0.74614052  1
  As  As8  1  0.64309617  0.26732603  0.94275205  1
  As  As9  1  0.85689203  0.73255017  0.44274065  1
  As  As10  1  0.14311050  0.23254130  0.05727632  1
  As  As11  1  0.35690046  0.76765751  0.55719036  1
  O  O12  1  0.82700934  0.24172168  0.82301966  1
  O  O13  1  0.67290764  0.75826464  0.32307638  1
  O  O14  1  0.32702495  0.25825090  0.17701726  1
  O  O15  1  0.17299380  0.74173968  0.67698756  1
  O  O16  1  0.47610035  0.33672704  0.82209774  1
  O  O17  1  0.02384141  0.66329498  0.32204676  1
  O  O18  1  0.97611273  0.16326869  0.17783768  1
  O  O19  1  0.52392954  0.83673395  0.67784934  1
  O  O20  1  0.61653916  0.00927091  0.03400658  1
  O  O21  1  0.88346878  0.99081403  0.53403660  1
  O  O22  1  0.11662183  0.49075073  0.96598246  1
  O  O23  1  0.38338051  0.50913691  0.46598847  1
  O  O24  1  0.65701073  0.50126327  0.06036876  1
  O  O25  1  0.84301148  0.49883477  0.56029953  1
  O  O26  1  0.15709601  0.99872916  0.93968760  1
  O  O27  1  0.34294121  0.00115642  0.43971080  1
  O  O28  1  0.87666493  0.75443380  0.82417100  1
  O  O29  1  0.62336908  0.24556393  0.32423120  1
  O  O30  1  0.37657603  0.74553615  0.17586158  1
  O  O31  1  0.12343201  0.25443107  0.67583469  1
