# generated using pymatgen
data_NaMg14Cd
_symmetry_space_group_name_H-M   'P 1'
_cell_length_a   6.40777103
_cell_length_b   6.40303586
_cell_length_c   10.39625303
_cell_angle_alpha   90.00000000
_cell_angle_beta   90.00000000
_cell_angle_gamma   119.97556337
_symmetry_Int_Tables_number   1
_chemical_formula_structural   NaMg14Cd
_chemical_formula_sum   'Na1 Mg14 Cd1'
_cell_volume   369.49390577
_cell_formula_units_Z   1
loop_
 _symmetry_equiv_pos_site_id
 _symmetry_equiv_pos_as_xyz
  1  'x, y, z'
loop_
 _atom_site_type_symbol
 _atom_site_label
 _atom_site_symmetry_multiplicity
 _atom_site_fract_x
 _atom_site_fract_y
 _atom_site_fract_z
 _atom_site_occupancy
  Na  Na0  1  0.16615210  0.33307555  0.12500000  1
  Mg  Mg1  1  0.16644402  0.33322151  0.62500000  1
  Mg  Mg2  1  0.16709552  0.83354726  0.62500000  1
  Mg  Mg3  1  0.66703740  0.33181010  0.12500000  1
  Mg  Mg4  1  0.66649858  0.33277361  0.62500000  1
  Mg  Mg5  1  0.66703740  0.83522630  0.12500000  1
  Mg  Mg6  1  0.66649858  0.83372397  0.62500000  1
  Mg  Mg7  1  0.33357133  0.16528964  0.37587949  1
  Mg  Mg8  1  0.33357133  0.16528964  0.87412051  1
  Mg  Mg9  1  0.33357133  0.66828270  0.37587949  1
  Mg  Mg10  1  0.33357133  0.66828270  0.87412051  1
  Mg  Mg11  1  0.83183336  0.16591718  0.37711770  1
  Mg  Mg12  1  0.83183336  0.16591718  0.87288230  1
  Mg  Mg13  1  0.83378765  0.66689433  0.37387308  1
  Mg  Mg14  1  0.83378765  0.66689433  0.87612692  1
  Cd  Cd15  1  0.16770904  0.83385402  0.12500000  1
