# generated using pymatgen
data_NiP2O7
_symmetry_space_group_name_H-M   'P 1'
_cell_length_a   7.07749926
_cell_length_b   8.12440879
_cell_length_c   4.93909037
_cell_angle_alpha   90.00000000
_cell_angle_beta   106.93925820
_cell_angle_gamma   90.00000000
_symmetry_Int_Tables_number   1
_chemical_formula_structural   NiP2O7
_chemical_formula_sum   'Ni2 P4 O14'
_cell_volume   271.67857081
_cell_formula_units_Z   2
loop_
 _symmetry_equiv_pos_site_id
 _symmetry_equiv_pos_as_xyz
  1  'x, y, z'
loop_
 _atom_site_type_symbol
 _atom_site_label
 _atom_site_symmetry_multiplicity
 _atom_site_fract_x
 _atom_site_fract_y
 _atom_site_fract_z
 _atom_site_occupancy
  O  O0  1  0.50767333  0.35847305  0.27145794  1
  O  O1  1  0.83659034  0.32100817  0.03341535  1
  O  O2  1  0.16340966  0.82100817  0.96658565  1
  O  O3  1  0.09300197  0.17981922  0.86658117  1
  O  O4  1  0.08618195  0.92605847  0.40569097  1
  O  O5  1  0.26200594  0.64803982  0.41389067  1
  O  O6  1  0.37645373  0.18037269  0.57700996  1
  O  O7  1  0.49232667  0.85847205  0.72854206  1
  O  O8  1  0.91381805  0.42605847  0.59430903  1
  O  O9  1  0.47479662  0.05140771  0.16491751  1
  O  O10  1  0.90699803  0.67981922  0.13341983  1
  O  O11  1  0.62354627  0.68037169  0.42298804  1
  O  O12  1  0.73799406  0.14804082  0.58610933  1
  O  O13  1  0.52520338  0.55140671  0.83508249  1
  P  P14  1  0.48415055  0.68383506  0.60867353  1
  P  P15  1  0.51584945  0.18383506  0.39132747  1
  P  P16  1  0.09951767  0.77492236  0.22651634  1
  P  P17  1  0.90048233  0.27492236  0.77348366  1
  Ni  Ni18  1  0.72531485  0.50566444  0.21529534  1
  Ni  Ni19  1  0.27468515  0.00566544  0.78470566  1
