# generated using pymatgen
data_CaAl2SiO6
_symmetry_space_group_name_H-M   'P 1'
_cell_length_a   9.78556876
_cell_length_b   8.75944640
_cell_length_c   5.32981406
_cell_angle_alpha   90.00000000
_cell_angle_beta   106.61889421
_cell_angle_gamma   90.00000000
_symmetry_Int_Tables_number   1
_chemical_formula_structural   CaAl2SiO6
_chemical_formula_sum   'Ca4 Al8 Si4 O24'
_cell_volume   437.76777531
_cell_formula_units_Z   4
loop_
 _symmetry_equiv_pos_site_id
 _symmetry_equiv_pos_as_xyz
  1  'x, y, z'
loop_
 _atom_site_type_symbol
 _atom_site_label
 _atom_site_symmetry_multiplicity
 _atom_site_fract_x
 _atom_site_fract_y
 _atom_site_fract_z
 _atom_site_occupancy
  Ca  Ca0  1  0.01773284  0.31219266  0.25224604  1
  Ca  Ca1  1  0.48226716  0.81219266  0.24775396  1
  Ca  Ca2  1  0.01773284  0.68780734  0.75224604  1
  Ca  Ca3  1  0.48226716  0.18780734  0.74775396  1
  Al  Al4  1  0.28779840  0.09715302  0.20556721  1
  Al  Al5  1  0.21220160  0.59715302  0.29443279  1
  Al  Al6  1  0.21220160  0.40284698  0.79443279  1
  Al  Al7  1  0.28779840  0.90284698  0.70556721  1
  Al  Al8  1  0.00658140  0.90874887  0.23990762  1
  Al  Al9  1  0.49341860  0.40874887  0.26009238  1
  Al  Al10  1  0.00658140  0.09125113  0.73990762  1
  Al  Al11  1  0.49341860  0.59125113  0.76009238  1
  Si  Si12  1  0.78635651  0.59628034  0.22094406  1
  Si  Si13  1  0.71364349  0.09628034  0.27905594  1
  Si  Si14  1  0.71364349  0.90371966  0.77905594  1
  Si  Si15  1  0.78635651  0.40371966  0.72094406  1
  O  O16  1  0.09633504  0.08016449  0.10815003  1
  O  O17  1  0.36737567  0.27232447  0.32345616  1
  O  O18  1  0.36404702  0.02374184  0.97345323  1
  O  O19  1  0.61158198  0.58442530  0.13322242  1
  O  O20  1  0.86470675  0.75921460  0.29516845  1
  O  O21  1  0.84555738  0.50847297  0.99509080  1
  O  O22  1  0.88841802  0.08442530  0.36677758  1
  O  O23  1  0.63529325  0.25921460  0.20483155  1
  O  O24  1  0.65444262  0.00847297  0.50490920  1
  O  O25  1  0.40366496  0.58016449  0.39184997  1
  O  O26  1  0.13262433  0.77232447  0.17654384  1
  O  O27  1  0.13595298  0.52374184  0.52654677  1
  O  O28  1  0.88841802  0.91557470  0.86677758  1
  O  O29  1  0.63529325  0.74078540  0.70483155  1
  O  O30  1  0.65444262  0.99152703  0.00490920  1
  O  O31  1  0.40366496  0.41983551  0.89184997  1
  O  O32  1  0.13262433  0.22767553  0.67654384  1
  O  O33  1  0.13595298  0.47625816  0.02654677  1
  O  O34  1  0.09633504  0.91983551  0.60815003  1
  O  O35  1  0.36737567  0.72767553  0.82345616  1
  O  O36  1  0.36404702  0.97625816  0.47345323  1
  O  O37  1  0.61158198  0.41557470  0.63322242  1
  O  O38  1  0.86470675  0.24078540  0.79516845  1
  O  O39  1  0.84555738  0.49152703  0.49509080  1
