# generated using pymatgen
data_Te4Mo3WSe4
_symmetry_space_group_name_H-M   'P 1'
_cell_length_a   3.44186545
_cell_length_b   3.44183080
_cell_length_c   39.07145022
_cell_angle_alpha   90.00029028
_cell_angle_beta   90.00000000
_cell_angle_gamma   120.00033314
_symmetry_Int_Tables_number   1
_chemical_formula_structural   Te4Mo3WSe4
_chemical_formula_sum   'Te4 Mo3 W1 Se4'
_cell_volume   400.84097535
_cell_formula_units_Z   1
loop_
 _symmetry_equiv_pos_site_id
 _symmetry_equiv_pos_as_xyz
  1  'x, y, z'
loop_
 _atom_site_type_symbol
 _atom_site_label
 _atom_site_symmetry_multiplicity
 _atom_site_fract_x
 _atom_site_fract_y
 _atom_site_fract_z
 _atom_site_occupancy
  Te  Te0  1  0.33335485  0.66671071  0.32959534  1
  Te  Te1  1  0.33335660  0.66671420  0.70494345  1
  Te  Te2  1  0.33335253  0.66670606  0.23399755  1
  Te  Te3  1  0.33335158  0.66670416  0.61011673  1
  Mo  Mo4  1  0.33331168  0.66662336  0.09391219  1
  Mo  Mo5  1  0.33331251  0.66662502  0.46966049  1
  Mo  Mo6  1  0.66669455  0.33338910  0.65753003  1
  W  W7  1  0.66669081  0.33338162  0.28179667  1
  Se  Se8  1  0.66663980  0.33327859  0.05206068  1
  Se  Se9  1  0.66664829  0.33329558  0.42778296  1
  Se  Se10  1  0.66664689  0.33329277  0.13580639  1
  Se  Se11  1  0.66663992  0.33327883  0.51154553  1
