# generated using pymatgen
data_MoW(SeS)2
_symmetry_space_group_name_H-M   'P 1'
_cell_length_a   3.25717225
_cell_length_b   3.25718549
_cell_length_c   36.87161875
_cell_angle_alpha   89.99997078
_cell_angle_beta   90.00000000
_cell_angle_gamma   119.99986547
_symmetry_Int_Tables_number   1
_chemical_formula_structural   MoW(SeS)2
_chemical_formula_sum   'Mo2 W2 Se4 S4'
_cell_volume   338.77132447
_cell_formula_units_Z   2
loop_
 _symmetry_equiv_pos_site_id
 _symmetry_equiv_pos_as_xyz
  1  'x, y, z'
loop_
 _atom_site_type_symbol
 _atom_site_label
 _atom_site_symmetry_multiplicity
 _atom_site_fract_x
 _atom_site_fract_y
 _atom_site_fract_z
 _atom_site_occupancy
  Mo  Mo0  1  0.33330733  0.66661466  0.46965244  1
  Mo  Mo1  1  0.66669267  0.33338534  0.28180556  1
  W  W2  1  0.33330912  0.66661824  0.09390774  1
  W  W3  1  0.66669088  0.33338176  0.65755026  1
  Se  Se4  1  0.33335047  0.66670194  0.70382294  1
  Se  Se5  1  0.66664953  0.33329806  0.04763506  1
  Se  Se6  1  0.66665016  0.33329932  0.14019865  1
  Se  Se7  1  0.33334984  0.66670068  0.61125935  1
  S  S8  1  0.33335250  0.66670601  0.32363139  1
  S  S9  1  0.66664750  0.33329399  0.42782661  1
  S  S10  1  0.66664756  0.33329411  0.51148194  1
  S  S11  1  0.33335244  0.66670589  0.23997606  1
