# generated using pymatgen
data_MoW(SeS)2
_symmetry_space_group_name_H-M   'P 1'
_cell_length_a   3.25801684
_cell_length_b   3.25802892
_cell_length_c   36.90352421
_cell_angle_alpha   90.00014181
_cell_angle_beta   90.00000000
_cell_angle_gamma   119.99987733
_symmetry_Int_Tables_number   1
_chemical_formula_structural   MoW(SeS)2
_chemical_formula_sum   'Mo2 W2 Se4 S4'
_cell_volume   339.24016898
_cell_formula_units_Z   2
loop_
 _symmetry_equiv_pos_site_id
 _symmetry_equiv_pos_as_xyz
  1  'x, y, z'
loop_
 _atom_site_type_symbol
 _atom_site_label
 _atom_site_symmetry_multiplicity
 _atom_site_fract_x
 _atom_site_fract_y
 _atom_site_fract_z
 _atom_site_occupancy
  Mo  Mo0  1  0.33331015  0.66662030  0.09392213  1
  Mo  Mo1  1  0.66669461  0.33338923  0.28179600  1
  W  W2  1  0.33330944  0.66661888  0.46963849  1
  W  W3  1  0.66669131  0.33338262  0.65757352  1
  Se  Se4  1  0.33335015  0.66670129  0.70383222  1
  Se  Se5  1  0.66665004  0.33329909  0.42338747  1
  Se  Se6  1  0.66663900  0.33327699  0.51590044  1
  Se  Se7  1  0.33334957  0.66670015  0.61129527  1
  S  S8  1  0.33335247  0.66670594  0.32359321  1
  S  S9  1  0.66664837  0.33329574  0.05209602  1
  S  S10  1  0.66664888  0.33329677  0.13574578  1
  S  S11  1  0.33335599  0.66671298  0.23996746  1
