# generated using pymatgen
data_MoW(SeS)2
_symmetry_space_group_name_H-M   'P 1'
_cell_length_a   3.25791890
_cell_length_b   3.25800234
_cell_length_c   36.70940562
_cell_angle_alpha   89.99691965
_cell_angle_beta   89.99999256
_cell_angle_gamma   119.99913750
_symmetry_Int_Tables_number   1
_chemical_formula_structural   MoW(SeS)2
_chemical_formula_sum   'Mo2 W2 Se4 S4'
_cell_volume   337.44532781
_cell_formula_units_Z   2
loop_
 _symmetry_equiv_pos_site_id
 _symmetry_equiv_pos_as_xyz
  1  'x, y, z'
loop_
 _atom_site_type_symbol
 _atom_site_label
 _atom_site_symmetry_multiplicity
 _atom_site_fract_x
 _atom_site_fract_y
 _atom_site_fract_z
 _atom_site_occupancy
  Mo  Mo0  1  0.33366770  0.66733473  0.09388667  1
  Mo  Mo1  1  0.33318421  0.66636800  0.46967615  1
  W  W2  1  0.66658789  0.33317665  0.28178019  1
  W  W3  1  0.66659681  0.33319469  0.65757002  1
  Se  Se4  1  0.33322288  0.66644609  0.32826548  1
  Se  Se5  1  0.33325743  0.66651549  0.70404679  1
  Se  Se6  1  0.33326124  0.66652298  0.23530333  1
  Se  Se7  1  0.33324675  0.66649414  0.61106728  1
  S  S8  1  0.66696008  0.33391918  0.05187575  1
  S  S9  1  0.66652683  0.33305266  0.42765462  1
  S  S10  1  0.66695452  0.33390881  0.13593736  1
  S  S11  1  0.66653365  0.33306656  0.51168437  1
