# generated using pymatgen
data_MoW(SeS)2
_symmetry_space_group_name_H-M   'P 1'
_cell_length_a   3.25413202
_cell_length_b   3.25411143
_cell_length_c   36.95595650
_cell_angle_alpha   89.99988172
_cell_angle_beta   90.00000000
_cell_angle_gamma   120.00020932
_symmetry_Int_Tables_number   1
_chemical_formula_structural   MoW(SeS)2
_chemical_formula_sum   'Mo2 W2 Se4 S4'
_cell_volume   338.90794598
_cell_formula_units_Z   2
loop_
 _symmetry_equiv_pos_site_id
 _symmetry_equiv_pos_as_xyz
  1  'x, y, z'
loop_
 _atom_site_type_symbol
 _atom_site_label
 _atom_site_symmetry_multiplicity
 _atom_site_fract_x
 _atom_site_fract_y
 _atom_site_fract_z
 _atom_site_occupancy
  Mo  Mo0  1  0.33330368  0.66660735  0.09390918  1
  Mo  Mo1  1  0.66669632  0.33339265  0.65754882  1
  W  W2  1  0.33330195  0.66660390  0.46970905  1
  W  W3  1  0.66669805  0.33339610  0.28174895  1
  Se  Se4  1  0.33335003  0.66670107  0.32799704  1
  Se  Se5  1  0.66664997  0.33329893  0.42346096  1
  Se  Se6  1  0.66664811  0.33329522  0.51592651  1
  Se  Se7  1  0.33335189  0.66670478  0.23553149  1
  S  S8  1  0.33335413  0.66670926  0.69933577  1
  S  S9  1  0.66664587  0.33329074  0.05212223  1
  S  S10  1  0.66664633  0.33329166  0.13569993  1
  S  S11  1  0.33335367  0.66670834  0.61575807  1
