# generated using pymatgen
data_LiNi2(PO4)3
_symmetry_space_group_name_H-M   'P 1'
_cell_length_a   8.90718909
_cell_length_b   8.42021738
_cell_length_c   8.33663783
_cell_angle_alpha   119.76156600
_cell_angle_beta   90.20897975
_cell_angle_gamma   61.69759860
_symmetry_Int_Tables_number   1
_chemical_formula_structural   LiNi2(PO4)3
_chemical_formula_sum   'Li2 Ni4 P6 O24'
_cell_volume   455.40657640
_cell_formula_units_Z   2
loop_
 _symmetry_equiv_pos_site_id
 _symmetry_equiv_pos_as_xyz
  1  'x, y, z'
loop_
 _atom_site_type_symbol
 _atom_site_label
 _atom_site_symmetry_multiplicity
 _atom_site_fract_x
 _atom_site_fract_y
 _atom_site_fract_z
 _atom_site_occupancy
  Li  Li0  1  0.13551579  0.93725640  0.25525542  1
  Li  Li1  1  0.86448421  0.06274360  0.74474458  1
  Ni  Ni2  1  0.57407641  0.28159749  0.14181882  1
  Ni  Ni3  1  0.05469601  0.29845047  0.65058529  1
  Ni  Ni4  1  0.42592359  0.71840251  0.85818118  1
  Ni  Ni5  1  0.94530399  0.70154953  0.34941471  1
  P  P6  1  0.75100277  0.50353428  0.03980491  1
  P  P7  1  0.24891301  0.79071611  0.53620599  1
  P  P8  1  0.24659629  0.21863273  0.25525729  1
  P  P9  1  0.75340371  0.78136727  0.74474271  1
  P  P10  1  0.75108699  0.20928389  0.46379401  1
  P  P11  1  0.24899723  0.49646572  0.96019509  1
  O  O12  1  0.20551992  0.32870222  0.82757543  1
  O  O13  1  0.89374756  0.31666427  0.83623162  1
  O  O14  1  0.89956529  0.61741522  0.78072688  1
  O  O15  1  0.79348767  0.70337836  0.53079592  1
  O  O16  1  0.74142087  0.37535137  0.11757321  1
  O  O17  1  0.20651233  0.29662164  0.46920408  1
  O  O18  1  0.08496587  0.76818013  0.53935021  1
  O  O19  1  0.20940768  0.96176996  0.49093407  1
  O  O20  1  0.43432362  0.36841881  0.97863547  1
  O  O21  1  0.42425135  0.57737852  0.38863738  1
  O  O22  1  0.56567638  0.63158119  0.02136453  1
  O  O23  1  0.79448008  0.67129778  0.17242457  1
  O  O24  1  0.74610606  0.99618242  0.87309431  1
  O  O25  1  0.26209240  0.86887978  0.74282624  1
  O  O26  1  0.57096666  0.82144905  0.81050100  1
  O  O27  1  0.10625244  0.68333573  0.16376838  1
  O  O28  1  0.10043471  0.38258478  0.21927312  1
  O  O29  1  0.73790760  0.13112022  0.25717376  1
  O  O30  1  0.91503413  0.23181987  0.46064979  1
  O  O31  1  0.25389394  0.00381758  0.12690569  1
  O  O32  1  0.79059232  0.03823004  0.50906593  1
  O  O33  1  0.25857913  0.62464863  0.88242679  1
  O  O34  1  0.42903334  0.17855095  0.18949900  1
  O  O35  1  0.57574865  0.42262148  0.61136262  1
