# generated using pymatgen
data_Ge3(BiTe3)2
_symmetry_space_group_name_H-M   'P 1'
_cell_length_a   22.03874194
_cell_length_b   22.03874194
_cell_length_c   22.03874245
_cell_angle_alpha   11.24258902
_cell_angle_beta   11.24258895
_cell_angle_gamma   11.24258869
_symmetry_Int_Tables_number   1
_chemical_formula_structural   Ge3(BiTe3)2
_chemical_formula_sum   'Ge3 Bi2 Te6'
_cell_volume   353.49937911
_cell_formula_units_Z   1
loop_
 _symmetry_equiv_pos_site_id
 _symmetry_equiv_pos_as_xyz
  1  'x, y, z'
loop_
 _atom_site_type_symbol
 _atom_site_label
 _atom_site_symmetry_multiplicity
 _atom_site_fract_x
 _atom_site_fract_y
 _atom_site_fract_z
 _atom_site_occupancy
  Te  Te0  1  0.08454985  0.08454985  0.08454985  1
  Te  Te1  1  0.19062188  0.19062188  0.19062188  1
  Te  Te2  1  0.36332544  0.36332544  0.36332544  1
  Te  Te3  1  0.63747352  0.63747352  0.63747352  1
  Te  Te4  1  0.80834898  0.80834898  0.80834898  1
  Te  Te5  1  0.91134481  0.91134481  0.91134481  1
  Bi  Bi6  1  0.00258326  0.00258326  0.00258326  1
  Bi  Bi7  1  0.27176109  0.27176109  0.27176109  1
  Ge  Ge8  1  0.45404229  0.45404229  0.45404229  1
  Ge  Ge9  1  0.54471155  0.54471155  0.54471155  1
  Ge  Ge10  1  0.73023730  0.73023730  0.73023730  1
