# generated using pymatgen
data_KMg30CoO32
_symmetry_space_group_name_H-M   'P 1'
_cell_length_a   8.59154289
_cell_length_b   8.59154289
_cell_length_c   8.53706389
_cell_angle_alpha   90.00000000
_cell_angle_beta   90.00000000
_cell_angle_gamma   90.00000000
_symmetry_Int_Tables_number   1
_chemical_formula_structural   KMg30CoO32
_chemical_formula_sum   'K1 Mg30 Co1 O32'
_cell_volume   630.16003502
_cell_formula_units_Z   1
loop_
 _symmetry_equiv_pos_site_id
 _symmetry_equiv_pos_as_xyz
  1  'x, y, z'
loop_
 _atom_site_type_symbol
 _atom_site_label
 _atom_site_symmetry_multiplicity
 _atom_site_fract_x
 _atom_site_fract_y
 _atom_site_fract_z
 _atom_site_occupancy
  K  K0  1  0.00000000  -0.00000000  0.50000000  1
  Mg  Mg1  1  0.00000000  0.50000000  -0.00000000  1
  Mg  Mg2  1  0.00000000  0.50000000  0.50000000  1
  Mg  Mg3  1  0.50000000  -0.00000000  -0.00000000  1
  Mg  Mg4  1  0.50000000  -0.00000000  0.50000000  1
  Mg  Mg5  1  0.50000000  0.50000000  -0.00000000  1
  Mg  Mg6  1  0.50000000  0.50000000  0.50000000  1
  Mg  Mg7  1  0.00000000  0.25331602  0.25019082  1
  Mg  Mg8  1  0.00000000  0.25331602  0.74980918  1
  Mg  Mg9  1  0.00000000  0.74668398  0.25019082  1
  Mg  Mg10  1  0.00000000  0.74668398  0.74980918  1
  Mg  Mg11  1  0.50000000  0.25007439  0.25109611  1
  Mg  Mg12  1  0.50000000  0.25007439  0.74890389  1
  Mg  Mg13  1  0.50000000  0.74992561  0.25109611  1
  Mg  Mg14  1  0.50000000  0.74992561  0.74890389  1
  Mg  Mg15  1  0.25331602  -0.00000000  0.25019082  1
  Mg  Mg16  1  0.25331602  -0.00000000  0.74980918  1
  Mg  Mg17  1  0.25007439  0.50000000  0.25109611  1
  Mg  Mg18  1  0.25007439  0.50000000  0.74890389  1
  Mg  Mg19  1  0.74668398  -0.00000000  0.25019082  1
  Mg  Mg20  1  0.74668398  -0.00000000  0.74980918  1
  Mg  Mg21  1  0.74992561  0.50000000  0.25109611  1
  Mg  Mg22  1  0.74992561  0.50000000  0.74890389  1
  Mg  Mg23  1  0.25036243  0.25036243  -0.00000000  1
  Mg  Mg24  1  0.25149608  0.25149608  0.50000000  1
  Mg  Mg25  1  0.25036243  0.74963757  -0.00000000  1
  Mg  Mg26  1  0.25149608  0.74850392  0.50000000  1
  Mg  Mg27  1  0.74963757  0.25036243  0.00000000  1
  Mg  Mg28  1  0.74850392  0.25149608  0.50000000  1
  Mg  Mg29  1  0.74963757  0.74963757  -0.00000000  1
  Mg  Mg30  1  0.74850392  0.74850392  0.50000000  1
  Co  Co31  1  0.00000000  -0.00000000  -0.00000000  1
  O  O32  1  0.24546011  -0.00000000  -0.00000000  1
  O  O33  1  0.27307555  -0.00000000  0.50000000  1
  O  O34  1  0.24918039  0.50000000  0.00000000  1
  O  O35  1  0.25395385  0.50000000  0.50000000  1
  O  O36  1  0.75453989  -0.00000000  -0.00000000  1
  O  O37  1  0.72692445  -0.00000000  0.50000000  1
  O  O38  1  0.75081961  0.50000000  0.00000000  1
  O  O39  1  0.74604615  0.50000000  0.50000000  1
  O  O40  1  0.24913567  0.24913567  0.24950280  1
  O  O41  1  0.24913567  0.24913567  0.75049720  1
  O  O42  1  0.24913567  0.75086433  0.24950280  1
  O  O43  1  0.24913567  0.75086433  0.75049720  1
  O  O44  1  0.75086433  0.24913567  0.24950280  1
  O  O45  1  0.75086433  0.24913567  0.75049720  1
  O  O46  1  0.75086433  0.75086433  0.24950280  1
  O  O47  1  0.75086433  0.75086433  0.75049720  1
  O  O48  1  0.00000000  -0.00000000  0.22115199  1
  O  O49  1  0.00000000  -0.00000000  0.77884801  1
  O  O50  1  0.00000000  0.50000000  0.24353464  1
  O  O51  1  0.00000000  0.50000000  0.75646536  1
  O  O52  1  0.50000000  -0.00000000  0.24353464  1
  O  O53  1  0.50000000  -0.00000000  0.75646536  1
  O  O54  1  0.50000000  0.50000000  0.24818420  1
  O  O55  1  0.50000000  0.50000000  0.75181580  1
  O  O56  1  0.00000000  0.24546011  0.00000000  1
  O  O57  1  0.00000000  0.27307555  0.50000000  1
  O  O58  1  0.00000000  0.75453989  0.00000000  1
  O  O59  1  0.00000000  0.72692445  0.50000000  1
  O  O60  1  0.50000000  0.24918039  -0.00000000  1
  O  O61  1  0.50000000  0.25395385  0.50000000  1
  O  O62  1  0.50000000  0.75081961  0.00000000  1
  O  O63  1  0.50000000  0.74604615  0.50000000  1
