# generated using pymatgen
data_CaMg14CuO16
_symmetry_space_group_name_H-M   'P 1'
_cell_length_a   8.66880977
_cell_length_b   8.50863824
_cell_length_c   4.32321389
_cell_angle_alpha   90.00000000
_cell_angle_beta   90.00000000
_cell_angle_gamma   90.00000000
_symmetry_Int_Tables_number   1
_chemical_formula_structural   CaMg14CuO16
_chemical_formula_sum   'Ca1 Mg14 Cu1 O16'
_cell_volume   318.87924621
_cell_formula_units_Z   1
loop_
 _symmetry_equiv_pos_site_id
 _symmetry_equiv_pos_as_xyz
  1  'x, y, z'
loop_
 _atom_site_type_symbol
 _atom_site_label
 _atom_site_symmetry_multiplicity
 _atom_site_fract_x
 _atom_site_fract_y
 _atom_site_fract_z
 _atom_site_occupancy
  Ca  Ca0  1  0.00000000  -0.00000000  0.00000000  1
  Mg  Mg1  1  0.50000000  -0.00000000  0.00000000  1
  Mg  Mg2  1  0.50000000  0.50000000  0.00000000  1
  Mg  Mg3  1  0.00000000  0.25763705  0.50000000  1
  Mg  Mg4  1  0.00000000  0.74236295  0.50000000  1
  Mg  Mg5  1  0.50000000  0.25152504  0.50000000  1
  Mg  Mg6  1  0.50000000  0.74847496  0.50000000  1
  Mg  Mg7  1  0.25597262  -0.00000000  0.50000000  1
  Mg  Mg8  1  0.25024062  0.50000000  0.50000000  1
  Mg  Mg9  1  0.74402738  -0.00000000  0.50000000  1
  Mg  Mg10  1  0.74975938  0.50000000  0.50000000  1
  Mg  Mg11  1  0.25447596  0.25505117  -0.00000000  1
  Mg  Mg12  1  0.25447596  0.74494883  0.00000000  1
  Mg  Mg13  1  0.74552404  0.25505117  -0.00000000  1
  Mg  Mg14  1  0.74552404  0.74494883  0.00000000  1
  Cu  Cu15  1  0.00000000  0.50000000  0.00000000  1
  O  O16  1  0.26218749  -0.00000000  -0.00000000  1
  O  O17  1  0.26167461  0.50000000  0.00000000  1
  O  O18  1  0.73781251  -0.00000000  0.00000000  1
  O  O19  1  0.73832539  0.50000000  0.00000000  1
  O  O20  1  0.24912059  0.25039126  0.50000000  1
  O  O21  1  0.24912059  0.74960874  0.50000000  1
  O  O22  1  0.75087941  0.25039126  0.50000000  1
  O  O23  1  0.75087941  0.74960874  0.50000000  1
  O  O24  1  0.00000000  -0.00000000  0.50000000  1
  O  O25  1  0.00000000  0.50000000  0.50000000  1
  O  O26  1  0.50000000  -0.00000000  0.50000000  1
  O  O27  1  0.50000000  0.50000000  0.50000000  1
  O  O28  1  0.00000000  0.26632618  -0.00000000  1
  O  O29  1  0.00000000  0.73367382  0.00000000  1
  O  O30  1  0.50000000  0.25086938  0.00000000  1
  O  O31  1  0.50000000  0.74913062  -0.00000000  1
