# generated using pymatgen
data_Te4Mo3WSe4
_symmetry_space_group_name_H-M   'P 1'
_cell_length_a   3.44021006
_cell_length_b   3.44015954
_cell_length_c   39.06346777
_cell_angle_alpha   90.00023473
_cell_angle_beta   90.00005495
_cell_angle_gamma   120.00066659
_symmetry_Int_Tables_number   1
_chemical_formula_structural   Te4Mo3WSe4
_chemical_formula_sum   'Te4 Mo3 W1 Se4'
_cell_volume   400.37048511
_cell_formula_units_Z   1
loop_
 _symmetry_equiv_pos_site_id
 _symmetry_equiv_pos_as_xyz
  1  'x, y, z'
loop_
 _atom_site_type_symbol
 _atom_site_label
 _atom_site_symmetry_multiplicity
 _atom_site_fract_x
 _atom_site_fract_y
 _atom_site_fract_z
 _atom_site_occupancy
  Te  Te0  1  0.33335821  0.66671686  0.32925250  1
  Te  Te1  1  0.33336543  0.66673113  0.70528103  1
  Te  Te2  1  0.33335662  0.66671372  0.23432672  1
  Te  Te3  1  0.33335152  0.66670348  0.60978212  1
  Mo  Mo4  1  0.33330939  0.66661954  0.09393437  1
  Mo  Mo5  1  0.33331144  0.66662208  0.46966217  1
  Mo  Mo6  1  0.66669367  0.33338791  0.28182935  1
  W  W7  1  0.66669095  0.33338260  0.65753480  1
  Se  Se8  1  0.66662448  0.33324841  0.05209215  1
  Se  Se9  1  0.66664210  0.33328336  0.42777723  1
  Se  Se10  1  0.66664987  0.33329913  0.13576943  1
  Se  Se11  1  0.66664631  0.33329177  0.51150613  1
