# generated using pymatgen
data_YMg30CoO32
_symmetry_space_group_name_H-M   'P 1'
_cell_length_a   8.58070933
_cell_length_b   8.58701958
_cell_length_c   8.58701958
_cell_angle_alpha   90.00000000
_cell_angle_beta   90.00000000
_cell_angle_gamma   90.00000000
_symmetry_Int_Tables_number   1
_chemical_formula_structural   YMg30CoO32
_chemical_formula_sum   'Y1 Mg30 Co1 O32'
_cell_volume   632.71495099
_cell_formula_units_Z   1
loop_
 _symmetry_equiv_pos_site_id
 _symmetry_equiv_pos_as_xyz
  1  'x, y, z'
loop_
 _atom_site_type_symbol
 _atom_site_label
 _atom_site_symmetry_multiplicity
 _atom_site_fract_x
 _atom_site_fract_y
 _atom_site_fract_z
 _atom_site_occupancy
  Y  Y0  1  0.00000000  0.00000000  0.00000000  1
  Mg  Mg1  1  0.00000000  0.00000000  0.50000000  1
  Mg  Mg2  1  0.00000000  0.50000000  0.00000000  1
  Mg  Mg3  1  0.50000000  0.00000000  0.00000000  1
  Mg  Mg4  1  0.50000000  0.00000000  0.50000000  1
  Mg  Mg5  1  0.50000000  0.50000000  0.00000000  1
  Mg  Mg6  1  0.50000000  0.50000000  0.50000000  1
  Mg  Mg7  1  0.00000000  0.25987050  0.25987050  1
  Mg  Mg8  1  0.00000000  0.25987050  0.74012950  1
  Mg  Mg9  1  0.00000000  0.74012950  0.25987050  1
  Mg  Mg10  1  0.00000000  0.74012950  0.74012950  1
  Mg  Mg11  1  0.50000000  0.25187321  0.25187321  1
  Mg  Mg12  1  0.50000000  0.25187321  0.74812679  1
  Mg  Mg13  1  0.50000000  0.74812679  0.25187321  1
  Mg  Mg14  1  0.50000000  0.74812679  0.74812679  1
  Mg  Mg15  1  0.25572782  0.00000000  0.25779295  1
  Mg  Mg16  1  0.25572782  0.00000000  0.74220705  1
  Mg  Mg17  1  0.24805469  0.50000000  0.25375502  1
  Mg  Mg18  1  0.24805469  0.50000000  0.74624498  1
  Mg  Mg19  1  0.74427218  0.00000000  0.25779295  1
  Mg  Mg20  1  0.74427218  0.00000000  0.74220705  1
  Mg  Mg21  1  0.75194531  0.50000000  0.25375502  1
  Mg  Mg22  1  0.75194531  0.50000000  0.74624498  1
  Mg  Mg23  1  0.25572782  0.25779295  0.00000000  1
  Mg  Mg24  1  0.24805469  0.25375502  0.50000000  1
  Mg  Mg25  1  0.25572782  0.74220705  0.00000000  1
  Mg  Mg26  1  0.24805469  0.74624498  0.50000000  1
  Mg  Mg27  1  0.74427218  0.25779295  0.00000000  1
  Mg  Mg28  1  0.75194531  0.25375502  0.50000000  1
  Mg  Mg29  1  0.74427218  0.74220705  0.00000000  1
  Mg  Mg30  1  0.75194531  0.74624498  0.50000000  1
  Co  Co31  1  0.00000000  0.50000000  0.50000000  1
  O  O32  1  0.25961615  0.00000000  0.00000000  1
  O  O33  1  0.25356774  0.00000000  0.50000000  1
  O  O34  1  0.25356774  0.50000000  0.00000000  1
  O  O35  1  0.26250355  0.50000000  0.50000000  1
  O  O36  1  0.74038385  0.00000000  0.00000000  1
  O  O37  1  0.74643226  0.00000000  0.50000000  1
  O  O38  1  0.74643226  0.50000000  0.00000000  1
  O  O39  1  0.73749645  0.50000000  0.50000000  1
  O  O40  1  0.24924128  0.24951774  0.24951774  1
  O  O41  1  0.24924128  0.24951774  0.75048226  1
  O  O42  1  0.24924128  0.75048226  0.24951774  1
  O  O43  1  0.24924128  0.75048226  0.75048226  1
  O  O44  1  0.75075872  0.24951774  0.24951774  1
  O  O45  1  0.75075872  0.24951774  0.75048226  1
  O  O46  1  0.75075872  0.75048226  0.24951774  1
  O  O47  1  0.75075872  0.75048226  0.75048226  1
  O  O48  1  0.00000000  0.00000000  0.25825574  1
  O  O49  1  0.00000000  0.00000000  0.74174426  1
  O  O50  1  0.00000000  0.50000000  0.23871470  1
  O  O51  1  0.00000000  0.50000000  0.76128530  1
  O  O52  1  0.50000000  0.00000000  0.25083017  1
  O  O53  1  0.50000000  0.00000000  0.74916983  1
  O  O54  1  0.50000000  0.50000000  0.24806138  1
  O  O55  1  0.50000000  0.50000000  0.75193862  1
  O  O56  1  0.00000000  0.25825574  0.00000000  1
  O  O57  1  0.00000000  0.23871470  0.50000000  1
  O  O58  1  0.00000000  0.74174426  0.00000000  1
  O  O59  1  0.00000000  0.76128530  0.50000000  1
  O  O60  1  0.50000000  0.25083017  0.00000000  1
  O  O61  1  0.50000000  0.24806138  0.50000000  1
  O  O62  1  0.50000000  0.74916983  0.00000000  1
  O  O63  1  0.50000000  0.75193862  0.50000000  1
