# generated using pymatgen
data_RbBi3S5
_symmetry_space_group_name_H-M   'P 1'
_cell_length_a   4.22804765
_cell_length_b   12.72809196
_cell_length_c   19.05364256
_cell_angle_alpha   90.00000000
_cell_angle_beta   90.00000000
_cell_angle_gamma   90.00000000
_symmetry_Int_Tables_number   1
_chemical_formula_structural   RbBi3S5
_chemical_formula_sum   'Rb4 Bi12 S20'
_cell_volume   1025.37137996
_cell_formula_units_Z   4
loop_
 _symmetry_equiv_pos_site_id
 _symmetry_equiv_pos_as_xyz
  1  'x, y, z'
loop_
 _atom_site_type_symbol
 _atom_site_label
 _atom_site_symmetry_multiplicity
 _atom_site_fract_x
 _atom_site_fract_y
 _atom_site_fract_z
 _atom_site_occupancy
  Bi  Bi0  1  0.00000000  0.05093455  0.15068562  1
  Bi  Bi1  1  0.00000000  0.94906545  0.84931438  1
  Bi  Bi2  1  0.50000000  0.55093455  0.34931438  1
  Bi  Bi3  1  0.50000000  0.44906545  0.65068562  1
  Bi  Bi4  1  0.00000000  0.27402461  0.81439582  1
  Bi  Bi5  1  0.00000000  0.72597539  0.18560418  1
  Bi  Bi6  1  0.50000000  0.77402461  0.68560418  1
  Bi  Bi7  1  0.50000000  0.22597539  0.31439582  1
  Bi  Bi8  1  0.00000000  0.33079908  0.47806801  1
  Bi  Bi9  1  0.00000000  0.66920092  0.52193199  1
  Bi  Bi10  1  0.50000000  0.83079908  0.02193199  1
  Bi  Bi11  1  0.50000000  0.16920092  0.97806801  1
  Rb  Rb12  1  0.00000000  0.39802204  0.14889380  1
  Rb  Rb13  1  0.00000000  0.60197796  0.85110620  1
  Rb  Rb14  1  0.50000000  0.89802204  0.35110620  1
  Rb  Rb15  1  0.50000000  0.10197796  0.64889380  1
  S  S16  1  0.00000000  0.67662735  0.04580897  1
  S  S17  1  0.00000000  0.32337265  0.95419103  1
  S  S18  1  0.50000000  0.17662735  0.45419103  1
  S  S19  1  0.50000000  0.82337265  0.54580897  1
  S  S20  1  0.00000000  0.30852735  0.62846985  1
  S  S21  1  0.00000000  0.69147265  0.37153015  1
  S  S22  1  0.50000000  0.80852735  0.87153015  1
  S  S23  1  0.50000000  0.19147265  0.12846985  1
  S  S24  1  0.00000000  0.38942900  0.33258577  1
  S  S25  1  0.00000000  0.61057100  0.66741423  1
  S  S26  1  0.50000000  0.88942900  0.16741423  1
  S  S27  1  0.50000000  0.11057100  0.83258577  1
  S  S28  1  0.00000000  0.08912400  0.29312284  1
  S  S29  1  0.00000000  0.91087600  0.70687716  1
  S  S30  1  0.50000000  0.58912400  0.20687716  1
  S  S31  1  0.50000000  0.41087600  0.79312284  1
  S  S32  1  0.00000000  0.00000000  0.00000000  1
  S  S33  1  0.50000000  0.50000000  0.50000000  1
  S  S34  1  0.50000000  0.00000000  0.50000000  1
  S  S35  1  0.00000000  0.50000000  0.00000000  1
