# generated using pymatgen
data_Mg30AlZnO32
_symmetry_space_group_name_H-M   'P 1'
_cell_length_a   8.54040313
_cell_length_b   8.54040313
_cell_length_c   8.56084514
_cell_angle_alpha   90.00000000
_cell_angle_beta   90.00000000
_cell_angle_gamma   90.00000000
_symmetry_Int_Tables_number   1
_chemical_formula_structural   Mg30AlZnO32
_chemical_formula_sum   'Mg30 Al1 Zn1 O32'
_cell_volume   624.41508016
_cell_formula_units_Z   1
loop_
 _symmetry_equiv_pos_site_id
 _symmetry_equiv_pos_as_xyz
  1  'x, y, z'
loop_
 _atom_site_type_symbol
 _atom_site_label
 _atom_site_symmetry_multiplicity
 _atom_site_fract_x
 _atom_site_fract_y
 _atom_site_fract_z
 _atom_site_occupancy
  Mg  Mg0  1  -0.00000000  0.50000000  -0.00000000  1
  Mg  Mg1  1  -0.00000000  0.50000000  0.50000000  1
  Mg  Mg2  1  0.50000000  0.00000000  -0.00000000  1
  Mg  Mg3  1  0.50000000  0.00000000  0.50000000  1
  Mg  Mg4  1  0.50000000  0.50000000  -0.00000000  1
  Mg  Mg5  1  0.50000000  0.50000000  0.50000000  1
  Mg  Mg6  1  -0.00000000  0.24992381  0.25106337  1
  Mg  Mg7  1  -0.00000000  0.24992381  0.74893663  1
  Mg  Mg8  1  -0.00000000  0.75007619  0.25106337  1
  Mg  Mg9  1  -0.00000000  0.75007619  0.74893663  1
  Mg  Mg10  1  0.50000000  0.25011077  0.25071846  1
  Mg  Mg11  1  0.50000000  0.25011077  0.74928154  1
  Mg  Mg12  1  0.50000000  0.74988923  0.25071846  1
  Mg  Mg13  1  0.50000000  0.74988923  0.74928154  1
  Mg  Mg14  1  0.24992381  0.00000000  0.25106337  1
  Mg  Mg15  1  0.24992381  0.00000000  0.74893663  1
  Mg  Mg16  1  0.25011077  0.50000000  0.25071846  1
  Mg  Mg17  1  0.25011077  0.50000000  0.74928154  1
  Mg  Mg18  1  0.75007619  0.00000000  0.25106337  1
  Mg  Mg19  1  0.75007619  0.00000000  0.74893663  1
  Mg  Mg20  1  0.74988923  0.50000000  0.25071846  1
  Mg  Mg21  1  0.74988923  0.50000000  0.74928154  1
  Mg  Mg22  1  0.25039444  0.25039444  0.00000000  1
  Mg  Mg23  1  0.25011182  0.25011182  0.50000000  1
  Mg  Mg24  1  0.25039444  0.74960556  0.00000000  1
  Mg  Mg25  1  0.25011182  0.74988818  0.50000000  1
  Mg  Mg26  1  0.74960556  0.25039444  -0.00000000  1
  Mg  Mg27  1  0.74988818  0.25011182  0.50000000  1
  Mg  Mg28  1  0.74960556  0.74960556  -0.00000000  1
  Mg  Mg29  1  0.74988818  0.74988818  0.50000000  1
  Al  Al30  1  -0.00000000  0.00000000  -0.00000000  1
  Zn  Zn31  1  -0.00000000  0.00000000  0.50000000  1
  O  O32  1  0.23801678  0.00000000  -0.00000000  1
  O  O33  1  0.25758461  0.00000000  0.50000000  1
  O  O34  1  0.24801032  0.50000000  0.00000000  1
  O  O35  1  0.25099323  0.50000000  0.50000000  1
  O  O36  1  0.76198322  0.00000000  0.00000000  1
  O  O37  1  0.74241539  0.00000000  0.50000000  1
  O  O38  1  0.75198968  0.50000000  -0.00000000  1
  O  O39  1  0.74900677  0.50000000  0.50000000  1
  O  O40  1  0.24950328  0.24950328  0.24941311  1
  O  O41  1  0.24950328  0.24950328  0.75058689  1
  O  O42  1  0.24950328  0.75049672  0.24941311  1
  O  O43  1  0.24950328  0.75049672  0.75058689  1
  O  O44  1  0.75049672  0.24950328  0.24941311  1
  O  O45  1  0.75049672  0.24950328  0.75058689  1
  O  O46  1  0.75049672  0.75049672  0.24941311  1
  O  O47  1  0.75049672  0.75049672  0.75058689  1
  O  O48  1  -0.00000000  0.00000000  0.22266872  1
  O  O49  1  -0.00000000  0.00000000  0.77733128  1
  O  O50  1  -0.00000000  0.50000000  0.24562654  1
  O  O51  1  -0.00000000  0.50000000  0.75437346  1
  O  O52  1  0.50000000  0.00000000  0.24562654  1
  O  O53  1  0.50000000  0.00000000  0.75437346  1
  O  O54  1  0.50000000  0.50000000  0.24866268  1
  O  O55  1  0.50000000  0.50000000  0.75133732  1
  O  O56  1  -0.00000000  0.23801678  -0.00000000  1
  O  O57  1  -0.00000000  0.25758461  0.50000000  1
  O  O58  1  -0.00000000  0.76198322  0.00000000  1
  O  O59  1  -0.00000000  0.74241539  0.50000000  1
  O  O60  1  0.50000000  0.24801032  0.00000000  1
  O  O61  1  0.50000000  0.25099323  0.50000000  1
  O  O62  1  0.50000000  0.75198968  -0.00000000  1
  O  O63  1  0.50000000  0.74900677  0.50000000  1
