# generated using pymatgen
data_LiHfMg30O31
_symmetry_space_group_name_H-M   'P 1'
_cell_length_a   8.53610792
_cell_length_b   8.56941794
_cell_length_c   8.55739299
_cell_angle_alpha   90.00000000
_cell_angle_beta   90.00000000
_cell_angle_gamma   90.00000000
_symmetry_Int_Tables_number   1
_chemical_formula_structural   LiHfMg30O31
_chemical_formula_sum   'Li1 Hf1 Mg30 O31'
_cell_volume   625.96881612
_cell_formula_units_Z   1
loop_
 _symmetry_equiv_pos_site_id
 _symmetry_equiv_pos_as_xyz
  1  'x, y, z'
loop_
 _atom_site_type_symbol
 _atom_site_label
 _atom_site_symmetry_multiplicity
 _atom_site_fract_x
 _atom_site_fract_y
 _atom_site_fract_z
 _atom_site_occupancy
  Li  Li0  1  -0.00005215  -0.00000000  0.00000000  1
  Hf  Hf1  1  0.01264973  -0.00000000  0.50000000  1
  Mg  Mg2  1  0.00017203  0.50000000  0.00000000  1
  Mg  Mg3  1  0.99863947  0.50000000  0.50000000  1
  Mg  Mg4  1  0.50028157  -0.00000000  0.00000000  1
  Mg  Mg5  1  0.49993919  -0.00000000  0.50000000  1
  Mg  Mg6  1  0.49988024  0.50000000  0.00000000  1
  Mg  Mg7  1  0.50014711  0.50000000  0.50000000  1
  Mg  Mg8  1  0.00008874  0.25355328  0.24226112  1
  Mg  Mg9  1  0.00008874  0.25355328  0.75773888  1
  Mg  Mg10  1  0.00008874  0.74644672  0.24226112  1
  Mg  Mg11  1  0.00008874  0.74644672  0.75773888  1
  Mg  Mg12  1  0.49978350  0.25053664  0.24869562  1
  Mg  Mg13  1  0.49978350  0.25053664  0.75130438  1
  Mg  Mg14  1  0.49978350  0.74946336  0.24869562  1
  Mg  Mg15  1  0.49978350  0.74946336  0.75130438  1
  Mg  Mg16  1  0.25384240  -0.00000000  0.24113803  1
  Mg  Mg17  1  0.25384240  -0.00000000  0.75886197  1
  Mg  Mg18  1  0.25044899  0.50000000  0.24798928  1
  Mg  Mg19  1  0.25044899  0.50000000  0.75201072  1
  Mg  Mg20  1  0.74758053  -0.00000000  0.24325601  1
  Mg  Mg21  1  0.74758053  -0.00000000  0.75674399  1
  Mg  Mg22  1  0.74960677  0.50000000  0.24880756  1
  Mg  Mg23  1  0.74960677  0.50000000  0.75119244  1
  Mg  Mg24  1  0.24771578  0.24818254  -0.00000000  1
  Mg  Mg25  1  0.25207792  0.25443811  0.50000000  1
  Mg  Mg26  1  0.24771578  0.75181746  0.00000000  1
  Mg  Mg27  1  0.25207792  0.74556189  0.50000000  1
  Mg  Mg28  1  0.75230553  0.24746275  0.00000000  1
  Mg  Mg29  1  0.74701936  0.25292094  0.50000000  1
  Mg  Mg30  1  0.75230553  0.75253725  -0.00000000  1
  Mg  Mg31  1  0.74701936  0.74707906  0.50000000  1
  O  O32  1  0.25587727  -0.00000000  0.00000000  1
  O  O33  1  0.25076577  0.50000000  0.00000000  1
  O  O34  1  0.24978819  0.50000000  0.50000000  1
  O  O35  1  0.74415383  -0.00000000  0.00000000  1
  O  O36  1  0.74946657  -0.00000000  0.50000000  1
  O  O37  1  0.74926110  0.50000000  0.00000000  1
  O  O38  1  0.74823722  0.50000000  0.50000000  1
  O  O39  1  0.24966554  0.25162345  0.24820659  1
  O  O40  1  0.24966554  0.25162345  0.75179341  1
  O  O41  1  0.24966554  0.74837655  0.24820659  1
  O  O42  1  0.24966554  0.74837655  0.75179341  1
  O  O43  1  0.75052435  0.24902562  0.25025674  1
  O  O44  1  0.75052435  0.24902562  0.74974326  1
  O  O45  1  0.75052435  0.75097438  0.25025674  1
  O  O46  1  0.75052435  0.75097438  0.74974326  1
  O  O47  1  0.00044666  -0.00000000  0.25847980  1
  O  O48  1  0.00044666  -0.00000000  0.74152020  1
  O  O49  1  0.99982934  0.50000000  0.25118394  1
  O  O50  1  0.99982934  0.50000000  0.74881606  1
  O  O51  1  0.49997701  -0.00000000  0.25159074  1
  O  O52  1  0.49997701  -0.00000000  0.74840926  1
  O  O53  1  0.50030560  0.50000000  0.25086870  1
  O  O54  1  0.50030560  0.50000000  0.74913130  1
  O  O55  1  0.99972801  0.25589135  0.00000000  1
  O  O56  1  0.99376273  0.25585942  0.50000000  1
  O  O57  1  0.99972801  0.74410865  0.00000000  1
  O  O58  1  0.99376273  0.74414058  0.50000000  1
  O  O59  1  0.50034464  0.25048619  0.00000000  1
  O  O60  1  0.50028090  0.25039134  0.50000000  1
  O  O61  1  0.50034464  0.74951381  0.00000000  1
  O  O62  1  0.50028090  0.74960866  0.50000000  1
