# generated using pymatgen
data_MgCr2(PO4)2
_symmetry_space_group_name_H-M   'P 1'
_cell_length_a   5.05666965
_cell_length_b   9.23513019
_cell_length_c   14.47907378
_cell_angle_alpha   85.04664969
_cell_angle_beta   80.20177387
_cell_angle_gamma   73.88707830
_symmetry_Int_Tables_number   1
_chemical_formula_structural   MgCr2(PO4)2
_chemical_formula_sum   'Mg4 Cr8 P8 O32'
_cell_volume   639.57434470
_cell_formula_units_Z   4
loop_
 _symmetry_equiv_pos_site_id
 _symmetry_equiv_pos_as_xyz
  1  'x, y, z'
loop_
 _atom_site_type_symbol
 _atom_site_label
 _atom_site_symmetry_multiplicity
 _atom_site_fract_x
 _atom_site_fract_y
 _atom_site_fract_z
 _atom_site_occupancy
  Mg  Mg0  1  0.42595296  0.84504189  0.87506274  1
  Mg  Mg1  1  0.14629364  0.65366453  0.62502904  1
  Mg  Mg2  1  0.85330452  0.34525832  0.37464437  1
  Mg  Mg3  1  0.57415590  0.15334054  0.12488025  1
  Cr  Cr4  1  0.16350978  0.23166116  0.96938340  1
  Cr  Cr5  1  0.36620550  0.26705126  0.52977240  1
  Cr  Cr6  1  0.83542091  0.76730869  0.03025791  1
  Cr  Cr7  1  0.49940322  0.49905453  0.99981538  1
  Cr  Cr8  1  0.63279216  0.73191798  0.46998210  1
  Cr  Cr9  1  0.68392840  0.74833923  0.25064552  1
  Cr  Cr10  1  0.31461910  0.25097141  0.74899889  1
  Cr  Cr11  1  0.99965110  0.99965756  0.49984023  1
  P  P12  1  0.06395091  0.56805791  0.85766081  1
  P  P13  1  0.77479467  0.42648826  0.60703979  1
  P  P14  1  0.93400253  0.43105267  0.14200547  1
  P  P15  1  0.19385155  0.92676189  0.10688525  1
  P  P16  1  0.50682937  0.06776021  0.35771513  1
  P  P17  1  0.49221990  0.93135533  0.64206549  1
  P  P18  1  0.22473952  0.57248711  0.39279218  1
  P  P19  1  0.80497792  0.07255039  0.89307414  1
  O  O20  1  0.70302649  0.37895380  0.10558858  1
  O  O21  1  0.77774968  0.90760299  0.91574133  1
  O  O22  1  0.81158576  0.87965657  0.60557485  1
  O  O23  1  0.82597206  0.32425822  0.52153384  1
  O  O24  1  0.19893875  0.38848161  0.06261672  1
  O  O25  1  0.61445356  0.37222683  0.69361107  1
  O  O26  1  0.66840977  0.17586021  0.97803514  1
  O  O27  1  0.87337788  0.93096243  0.12013693  1
  O  O28  1  0.17361583  0.67468436  0.47830736  1
  O  O29  1  0.60397506  0.59178157  0.58447636  1
  O  O30  1  0.85693904  0.60832061  0.14168863  1
  O  O31  1  0.58350529  0.14084990  0.26367210  1
  O  O32  1  0.22086833  0.09175121  0.08413615  1
  O  O33  1  0.07891673  0.42951402  0.62109319  1
  O  O34  1  0.29481459  0.61965121  0.89449940  1
  O  O35  1  0.13996514  0.39083315  0.85792893  1
  O  O36  1  0.00895841  0.64144866  0.76332664  1
  O  O37  1  0.33101163  0.82336241  0.02204335  1
  O  O38  1  0.38920253  0.10858899  0.64134915  1
  O  O39  1  0.41658000  0.85816500  0.73618687  1
  O  O40  1  0.92070010  0.56945556  0.37874868  1
  O  O41  1  0.34846188  0.88835702  0.56261015  1
  O  O42  1  0.12558012  0.06790769  0.87971129  1
  O  O43  1  0.32500538  0.87310680  0.19367034  1
  O  O44  1  0.39566617  0.40718932  0.41529879  1
  O  O45  1  0.18736689  0.11993296  0.39405097  1
  O  O46  1  0.99052712  0.35792758  0.23628061  1
  O  O47  1  0.65051578  0.11046308  0.43727090  1
  O  O48  1  0.79804083  0.61114093  0.93667531  1
  O  O49  1  0.67290056  0.12673952  0.80653098  1
  O  O50  1  0.38531394  0.62682026  0.30629484  1
  O  O51  1  0.60871710  0.89052368  0.35844505  1
