# generated using pymatgen
data_CaMg2
_symmetry_space_group_name_H-M   'P 1'
_cell_length_a   13.12917913
_cell_length_b   3.48410661
_cell_length_c   7.69029064
_cell_angle_alpha   90.00000000
_cell_angle_beta   105.67969821
_cell_angle_gamma   90.00000000
_symmetry_Int_Tables_number   1
_chemical_formula_structural   CaMg2
_chemical_formula_sum   'Ca4 Mg8'
_cell_volume   338.68989316
_cell_formula_units_Z   4
loop_
 _symmetry_equiv_pos_site_id
 _symmetry_equiv_pos_as_xyz
  1  'x, y, z'
loop_
 _atom_site_type_symbol
 _atom_site_label
 _atom_site_symmetry_multiplicity
 _atom_site_fract_x
 _atom_site_fract_y
 _atom_site_fract_z
 _atom_site_occupancy
  Ca  Ca0  1  0.47813054  -0.00000000  0.22023914  1
  Ca  Ca1  1  0.02186946  0.50000000  0.77976086  1
  Ca  Ca2  1  0.97813054  0.50000000  0.22023914  1
  Ca  Ca3  1  0.52186946  0.00000000  0.77976086  1
  Mg  Mg4  1  0.19868441  -0.00000000  0.13643841  1
  Mg  Mg5  1  0.34010520  0.50000000  0.46218527  1
  Mg  Mg6  1  0.15989480  -0.00000000  0.53781473  1
  Mg  Mg7  1  0.30131559  0.50000000  0.86356159  1
  Mg  Mg8  1  0.69868441  0.50000000  0.13643841  1
  Mg  Mg9  1  0.84010520  0.00000000  0.46218527  1
  Mg  Mg10  1  0.65989480  0.50000000  0.53781473  1
  Mg  Mg11  1  0.80131559  0.00000000  0.86356159  1
