# generated using pymatgen
data_MgMn2P2O9
_symmetry_space_group_name_H-M   'P 1'
_cell_length_a   6.39264851
_cell_length_b   7.24599096
_cell_length_c   14.35715057
_cell_angle_alpha   89.98475084
_cell_angle_beta   89.99978829
_cell_angle_gamma   90.00176122
_symmetry_Int_Tables_number   1
_chemical_formula_structural   MgMn2P2O9
_chemical_formula_sum   'Mg4 Mn8 P8 O36'
_cell_volume   665.03860024
_cell_formula_units_Z   4
loop_
 _symmetry_equiv_pos_site_id
 _symmetry_equiv_pos_as_xyz
  1  'x, y, z'
loop_
 _atom_site_type_symbol
 _atom_site_label
 _atom_site_symmetry_multiplicity
 _atom_site_fract_x
 _atom_site_fract_y
 _atom_site_fract_z
 _atom_site_occupancy
  Mg  Mg0  1  0.74999902  0.90543799  0.77292739  1
  Mg  Mg1  1  0.75000992  0.59456921  0.27281289  1
  Mg  Mg2  1  0.24999630  0.40538953  0.72717936  1
  Mg  Mg3  1  0.24999354  0.09451801  0.22707702  1
  Mn  Mn4  1  0.74999667  0.35307935  0.88105141  1
  Mn  Mn5  1  0.25000526  0.64693335  0.11895733  1
  Mn  Mn6  1  0.24997054  0.85325118  0.61900067  1
  Mn  Mn7  1  0.75002831  0.14684329  0.38099617  1
  Mn  Mn8  1  0.49993914  0.99983640  0.00004073  1
  Mn  Mn9  1  0.50007429  0.49976169  0.49993271  1
  Mn  Mn10  1  0.00001416  0.50014300  0.50001980  1
  Mn  Mn11  1  0.00006063  -0.00001253  -0.00000401  1
  P  P12  1  0.24999945  0.36880073  0.92849577  1
  P  P13  1  0.74998283  0.63121221  0.07149999  1
  P  P14  1  0.74999750  0.86884872  0.57140573  1
  P  P15  1  0.24999568  0.13116733  0.42858875  1
  P  P16  1  0.74999409  0.38744293  0.69975218  1
  P  P17  1  0.74999122  0.11252892  0.19974782  1
  P  P18  1  0.25000590  0.88747216  0.80025188  1
  P  P19  1  0.25000238  0.61255793  0.30024797  1
  O  O20  1  0.04279503  0.60938999  0.35638786  1
  O  O21  1  0.54276729  0.39062552  0.64362494  1
  O  O22  1  0.95721135  0.10938534  0.14356349  1
  O  O23  1  0.45722223  0.89060877  0.85642677  1
  O  O24  1  0.95721840  0.39061315  0.64362288  1
  O  O25  1  0.45723458  0.60937495  0.35637611  1
  O  O26  1  0.04279118  0.89062005  0.85643024  1
  O  O27  1  0.54275825  0.10941069  0.14356592  1
  O  O28  1  0.24997209  0.32202209  0.47830979  1
  O  O29  1  0.75006687  0.67799225  0.52170105  1
  O  O30  1  0.74997224  0.82201898  0.02170389  1
  O  O31  1  0.24998022  0.17799153  0.97828967  1
  O  O32  1  0.75001194  0.12884501  0.95007829  1
  O  O33  1  0.24998981  0.87115996  0.04992389  1
  O  O34  1  0.24998474  0.62884470  0.54995402  1
  O  O35  1  0.75004278  0.37116670  0.45004746  1
  O  O36  1  0.74999959  0.20721148  0.76350983  1
  O  O37  1  0.25000200  0.79280019  0.23649360  1
  O  O38  1  0.24997633  0.70732452  0.73653389  1
  O  O39  1  0.75001632  0.29269180  0.26345952  1
  O  O40  1  0.43397716  0.12107436  0.35887747  1
  O  O41  1  0.93395104  0.87900870  0.64115375  1
  O  O42  1  0.56600392  0.62100029  0.14116512  1
  O  O43  1  0.06605139  0.37900536  0.85880920  1
  O  O44  1  0.56602371  0.87893294  0.64112669  1
  O  O45  1  0.06606149  0.12102101  0.35885835  1
  O  O46  1  0.43398017  0.37899338  0.85883395  1
  O  O47  1  0.93393697  0.62101523  0.14117606  1
  O  O48  1  0.75001120  0.48138699  0.99798628  1
  O  O49  1  0.25001735  0.04626098  0.72630358  1
  O  O50  1  0.24998188  0.45377379  0.22629170  1
  O  O51  1  0.75000957  0.54624826  0.77371487  1
  O  O52  1  0.75000055  0.01859872  0.49797351  1
  O  O53  1  0.24998711  0.98142042  0.50202608  1
  O  O54  1  0.24997479  0.51861835  0.00202062  1
  O  O55  1  0.74997265  0.95375719  0.27369513  1
