# generated using pymatgen
data_NaMg30SbO32
_symmetry_space_group_name_H-M   'P 1'
_cell_length_a   8.59820311
_cell_length_b   8.60173353
_cell_length_c   8.60173353
_cell_angle_alpha   90.00000000
_cell_angle_beta   90.00000000
_cell_angle_gamma   90.00000000
_symmetry_Int_Tables_number   1
_chemical_formula_structural   NaMg30SbO32
_chemical_formula_sum   'Na1 Mg30 Sb1 O32'
_cell_volume   636.17949803
_cell_formula_units_Z   1
loop_
 _symmetry_equiv_pos_site_id
 _symmetry_equiv_pos_as_xyz
  1  'x, y, z'
loop_
 _atom_site_type_symbol
 _atom_site_label
 _atom_site_symmetry_multiplicity
 _atom_site_fract_x
 _atom_site_fract_y
 _atom_site_fract_z
 _atom_site_occupancy
  Na  Na0  1  -0.00000000  -0.00000000  0.00000000  1
  Mg  Mg1  1  -0.00000000  -0.00000000  0.50000000  1
  Mg  Mg2  1  -0.00000000  0.50000000  0.00000000  1
  Mg  Mg3  1  0.50000000  -0.00000000  0.00000000  1
  Mg  Mg4  1  0.50000000  -0.00000000  0.50000000  1
  Mg  Mg5  1  0.50000000  0.50000000  0.00000000  1
  Mg  Mg6  1  0.50000000  0.50000000  0.50000000  1
  Mg  Mg7  1  -0.00000000  0.24183951  0.24183951  1
  Mg  Mg8  1  -0.00000000  0.24183951  0.75816049  1
  Mg  Mg9  1  -0.00000000  0.75816049  0.24183951  1
  Mg  Mg10  1  -0.00000000  0.75816049  0.75816049  1
  Mg  Mg11  1  0.50000000  0.24850002  0.24850002  1
  Mg  Mg12  1  0.50000000  0.24850002  0.75149998  1
  Mg  Mg13  1  0.50000000  0.75149998  0.24850002  1
  Mg  Mg14  1  0.50000000  0.75149998  0.75149998  1
  Mg  Mg15  1  0.24922011  -0.00000000  0.24758751  1
  Mg  Mg16  1  0.24922011  -0.00000000  0.75241249  1
  Mg  Mg17  1  0.25563127  0.50000000  0.24303252  1
  Mg  Mg18  1  0.25563127  0.50000000  0.75696748  1
  Mg  Mg19  1  0.75077989  -0.00000000  0.24758751  1
  Mg  Mg20  1  0.75077989  -0.00000000  0.75241249  1
  Mg  Mg21  1  0.74436873  0.50000000  0.24303252  1
  Mg  Mg22  1  0.74436873  0.50000000  0.75696748  1
  Mg  Mg23  1  0.24922011  0.24758751  0.00000000  1
  Mg  Mg24  1  0.25563127  0.24303252  0.50000000  1
  Mg  Mg25  1  0.24922011  0.75241249  0.00000000  1
  Mg  Mg26  1  0.25563127  0.75696748  0.50000000  1
  Mg  Mg27  1  0.75077989  0.24758751  0.00000000  1
  Mg  Mg28  1  0.74436873  0.24303252  0.50000000  1
  Mg  Mg29  1  0.75077989  0.75241249  0.00000000  1
  Mg  Mg30  1  0.74436873  0.75696748  0.50000000  1
  Sb  Sb31  1  -0.00000000  0.50000000  0.50000000  1
  O  O32  1  0.26344569  -0.00000000  0.00000000  1
  O  O33  1  0.25398609  -0.00000000  0.50000000  1
  O  O34  1  0.25398609  0.50000000  0.00000000  1
  O  O35  1  0.26294020  0.50000000  0.50000000  1
  O  O36  1  0.73655431  -0.00000000  0.00000000  1
  O  O37  1  0.74601391  -0.00000000  0.50000000  1
  O  O38  1  0.74601391  0.50000000  0.00000000  1
  O  O39  1  0.73705980  0.50000000  0.50000000  1
  O  O40  1  0.24916008  0.25117118  0.25117118  1
  O  O41  1  0.24916008  0.25117118  0.74882882  1
  O  O42  1  0.24916008  0.74882882  0.25117118  1
  O  O43  1  0.24916008  0.74882882  0.74882882  1
  O  O44  1  0.75083992  0.25117118  0.25117118  1
  O  O45  1  0.75083992  0.25117118  0.74882882  1
  O  O46  1  0.75083992  0.74882882  0.25117118  1
  O  O47  1  0.75083992  0.74882882  0.74882882  1
  O  O48  1  -0.00000000  -0.00000000  0.26198427  1
  O  O49  1  -0.00000000  -0.00000000  0.73801573  1
  O  O50  1  -0.00000000  0.50000000  0.23936218  1
  O  O51  1  -0.00000000  0.50000000  0.76063782  1
  O  O52  1  0.50000000  -0.00000000  0.25257289  1
  O  O53  1  0.50000000  -0.00000000  0.74742711  1
  O  O54  1  0.50000000  0.50000000  0.24934175  1
  O  O55  1  0.50000000  0.50000000  0.75065825  1
  O  O56  1  -0.00000000  0.26198427  0.00000000  1
  O  O57  1  -0.00000000  0.23936218  0.50000000  1
  O  O58  1  -0.00000000  0.73801573  0.00000000  1
  O  O59  1  -0.00000000  0.76063782  0.50000000  1
  O  O60  1  0.50000000  0.25257289  0.00000000  1
  O  O61  1  0.50000000  0.24934175  0.50000000  1
  O  O62  1  0.50000000  0.74742711  0.00000000  1
  O  O63  1  0.50000000  0.75065825  0.50000000  1
