# generated using pymatgen
data_K3Fe(CN)6
_symmetry_space_group_name_H-M   'P 1'
_cell_length_a   7.11207133
_cell_length_b   8.43281553
_cell_length_c   10.53803184
_cell_angle_alpha   90.00000000
_cell_angle_beta   90.00000000
_cell_angle_gamma   107.17358445
_symmetry_Int_Tables_number   1
_chemical_formula_structural   K3Fe(CN)6
_chemical_formula_sum   'K6 Fe2 C12 N12'
_cell_volume   603.83750055
_cell_formula_units_Z   2
loop_
 _symmetry_equiv_pos_site_id
 _symmetry_equiv_pos_as_xyz
  1  'x, y, z'
loop_
 _atom_site_type_symbol
 _atom_site_label
 _atom_site_symmetry_multiplicity
 _atom_site_fract_x
 _atom_site_fract_y
 _atom_site_fract_z
 _atom_site_occupancy
  K  K0  1  0.49866224  0.87525378  0.27190911  1
  K  K1  1  0.50133776  0.62474622  0.77190911  1
  K  K2  1  0.50133776  0.12474622  0.72809089  1
  K  K3  1  0.49866224  0.37525378  0.22809089  1
  K  K4  1  0.00000000  0.50000000  0.00000000  1
  K  K5  1  0.00000000  0.00000000  0.50000000  1
  Fe  Fe6  1  0.00000000  0.00000000  0.00000000  1
  Fe  Fe7  1  0.00000000  0.50000000  0.50000000  1
  C  C8  1  0.88096830  0.97160121  0.83589162  1
  C  C9  1  0.11903170  0.52839879  0.33589162  1
  C  C10  1  0.11903170  0.02839879  0.16410838  1
  C  C11  1  0.88096830  0.47160121  0.66410838  1
  N  N12  1  0.80237062  0.95212884  0.73622203  1
  N  N13  1  0.19762938  0.54787116  0.23622203  1
  N  N14  1  0.19762938  0.04787116  0.26377797  1
  N  N15  1  0.80237062  0.45212884  0.76377797  1
  C  C16  1  0.81748864  0.79445498  0.05174861  1
  C  C17  1  0.18251136  0.70554502  0.55174861  1
  C  C18  1  0.18251136  0.20554502  0.94825139  1
  C  C19  1  0.81748864  0.29445498  0.44825139  1
  N  N20  1  0.70688024  0.66647876  0.08279948  1
  N  N21  1  0.29311976  0.83352124  0.58279948  1
  N  N22  1  0.29311976  0.33352124  0.91720052  1
  N  N23  1  0.70688024  0.16647876  0.41720052  1
  C  C24  1  0.81674338  0.11271660  0.05455007  1
  C  C25  1  0.18325662  0.38728340  0.55455007  1
  C  C26  1  0.18325662  0.88728340  0.94544993  1
  C  C27  1  0.81674338  0.61271660  0.44544993  1
  N  N28  1  0.70605244  0.18390275  0.08863356  1
  N  N29  1  0.29394756  0.31609725  0.58863356  1
  N  N30  1  0.29394756  0.81609725  0.91136644  1
  N  N31  1  0.70605244  0.68390275  0.41136644  1
