# generated using pymatgen
data_MgBi4O9
_symmetry_space_group_name_H-M   'P 1'
_cell_length_a   5.73821258
_cell_length_b   8.24372924
_cell_length_c   8.94530391
_cell_angle_alpha   82.95227294
_cell_angle_beta   90.01992789
_cell_angle_gamma   90.02888353
_symmetry_Int_Tables_number   1
_chemical_formula_structural   MgBi4O9
_chemical_formula_sum   'Mg2 Bi8 O18'
_cell_volume   419.95380141
_cell_formula_units_Z   2
loop_
 _symmetry_equiv_pos_site_id
 _symmetry_equiv_pos_as_xyz
  1  'x, y, z'
loop_
 _atom_site_type_symbol
 _atom_site_label
 _atom_site_symmetry_multiplicity
 _atom_site_fract_x
 _atom_site_fract_y
 _atom_site_fract_z
 _atom_site_occupancy
  Mg  Mg0  1  0.28757799  0.25023639  0.24937267  1
  Mg  Mg1  1  0.71205365  0.74980298  0.75042815  1
  Bi  Bi2  1  0.77414834  0.52283162  0.35665382  1
  Bi  Bi3  1  0.31534159  0.85646173  0.43581720  1
  Bi  Bi4  1  0.68517380  0.35653122  0.93590969  1
  Bi  Bi5  1  0.22576273  0.02319358  0.85681878  1
  Bi  Bi6  1  0.77442320  0.97693160  0.14331525  1
  Bi  Bi7  1  0.68470845  0.14340884  0.56418300  1
  Bi  Bi8  1  0.22540854  0.47708554  0.64340004  1
  Bi  Bi9  1  0.31483483  0.64356189  0.06408421  1
  O  O10  1  0.46994211  0.74969333  0.25004600  1
  O  O11  1  0.53028611  0.25038016  0.74989796  1
  O  O12  1  0.04315602  0.81092362  0.99635895  1
  O  O13  1  0.87689460  0.52845667  0.79205328  1
  O  O14  1  0.87554946  0.97184377  0.70882943  1
  O  O15  1  0.04351826  0.68901839  0.50323806  1
  O  O16  1  0.95698750  0.18940334  0.00396690  1
  O  O17  1  0.12313729  0.47169735  0.20792730  1
  O  O18  1  0.12454670  0.02811543  0.29122484  1
  O  O19  1  0.95639793  0.31091598  0.49662861  1
  O  O20  1  0.63682026  0.00316117  0.37982275  1
  O  O21  1  0.48586970  0.16998135  0.07538472  1
  O  O22  1  0.48599563  0.32947319  0.42389519  1
  O  O23  1  0.63475763  0.49536561  0.12086481  1
  O  O24  1  0.36529976  0.50477994  0.87905464  1
  O  O25  1  0.51402613  0.83008796  0.92453876  1
  O  O26  1  0.51391106  0.67017192  0.57594668  1
  O  O27  1  0.36347375  0.99648743  0.62033833  1
