# generated using pymatgen
data_AlH15(NF)6
_symmetry_space_group_name_H-M   'P 1'
_cell_length_a   9.06823611
_cell_length_b   9.23626634
_cell_length_c   10.62345304
_cell_angle_alpha   90.00000000
_cell_angle_beta   90.00000000
_cell_angle_gamma   90.00000000
_symmetry_Int_Tables_number   1
_chemical_formula_structural   AlH15(NF)6
_chemical_formula_sum   'Al4 H60 N24 F24'
_cell_volume   889.78477375
_cell_formula_units_Z   4
loop_
 _symmetry_equiv_pos_site_id
 _symmetry_equiv_pos_as_xyz
  1  'x, y, z'
loop_
 _atom_site_type_symbol
 _atom_site_label
 _atom_site_symmetry_multiplicity
 _atom_site_fract_x
 _atom_site_fract_y
 _atom_site_fract_z
 _atom_site_occupancy
  Al  Al0  1  0.45576529  0.51351185  0.55037109  1
  Al  Al1  1  0.95576529  0.98648815  0.44962891  1
  Al  Al2  1  0.54423471  0.01351185  0.94962891  1
  Al  Al3  1  0.04423471  0.48648815  0.05037109  1
  F  F4  1  0.64292550  0.43600356  0.53389600  1
  F  F5  1  0.14292550  0.06399644  0.46610400  1
  F  F6  1  0.35707450  0.93600356  0.96610400  1
  F  F7  1  0.85707450  0.56399644  0.03389600  1
  F  F8  1  0.48273579  0.53951855  0.72316895  1
  F  F9  1  0.98273579  0.96048145  0.27683105  1
  F  F10  1  0.51726421  0.03951855  0.77683105  1
  F  F11  1  0.01726421  0.46048145  0.22316895  1
  F  F12  1  0.26995260  0.58240208  0.56444330  1
  F  F13  1  0.76995260  0.91759792  0.43555670  1
  F  F14  1  0.73004740  0.08240208  0.93555670  1
  F  F15  1  0.23004740  0.41759792  0.06444330  1
  F  F16  1  0.42543819  0.48896915  0.37920126  1
  F  F17  1  0.92543819  0.01103085  0.62079874  1
  F  F18  1  0.57456181  0.98896915  0.12079874  1
  F  F19  1  0.07456181  0.51103085  0.87920126  1
  F  F20  1  0.38924449  0.32826439  0.57879799  1
  F  F21  1  0.88924449  0.17173561  0.42120201  1
  F  F22  1  0.61075551  0.82826439  0.92120201  1
  F  F23  1  0.11075551  0.67173561  0.07879799  1
  F  F24  1  0.53010164  0.69699869  0.52566434  1
  F  F25  1  0.03010164  0.80300131  0.47433566  1
  F  F26  1  0.46989836  0.19699869  0.97433566  1
  F  F27  1  0.96989836  0.30300131  0.02566434  1
  N  N28  1  0.26191738  0.28694432  0.80195682  1
  N  N29  1  0.76191738  0.21305568  0.19804318  1
  N  N30  1  0.73808262  0.78694432  0.69804318  1
  N  N31  1  0.23808262  0.71305568  0.30195682  1
  N  N32  1  0.17299733  0.15782077  0.78552884  1
  N  N33  1  0.67299733  0.34217923  0.21447116  1
  N  N34  1  0.82700267  0.65782077  0.71447116  1
  N  N35  1  0.32700267  0.84217923  0.28552884  1
  N  N36  1  0.24133242  0.26772247  0.30104126  1
  N  N37  1  0.74133242  0.23227753  0.69895874  1
  N  N38  1  0.75866758  0.76772247  0.19895874  1
  N  N39  1  0.25866758  0.73227753  0.80104126  1
  N  N40  1  0.30691285  0.16663717  0.21358443  1
  N  N41  1  0.80691285  0.33336283  0.78641557  1
  N  N42  1  0.69308715  0.66663717  0.28641557  1
  N  N43  1  0.19308715  0.83336283  0.71358443  1
  N  N44  1  0.57651387  0.48425275  0.97085435  1
  N  N45  1  0.07651387  0.01574725  0.02914565  1
  N  N46  1  0.42348613  0.98425275  0.52914565  1
  N  N47  1  0.92348613  0.51574725  0.47085435  1
  N  N48  1  0.49264674  0.58383329  0.04863527  1
  N  N49  1  0.99264674  0.91616671  0.95136473  1
  N  N50  1  0.50735326  0.08383329  0.45136473  1
  N  N51  1  0.00735326  0.41616671  0.54863527  1
  H  H52  1  0.19348048  0.37119965  0.83179565  1
  H  H53  1  0.69348048  0.12880035  0.16820435  1
  H  H54  1  0.80651952  0.87119965  0.66820435  1
  H  H55  1  0.30651952  0.62880035  0.33179565  1
  H  H56  1  0.33752541  0.26392717  0.87363119  1
  H  H57  1  0.83752541  0.23607283  0.12636881  1
  H  H58  1  0.66247459  0.76392717  0.62636881  1
  H  H59  1  0.16247459  0.73607283  0.37363119  1
  H  H60  1  0.31908406  0.31521959  0.71920171  1
  H  H61  1  0.81908406  0.18478041  0.28079829  1
  H  H62  1  0.68091594  0.81521959  0.78079829  1
  H  H63  1  0.18091594  0.68478041  0.21920171  1
  H  H64  1  0.11829220  0.16704662  0.70149221  1
  H  H65  1  0.61829220  0.33295338  0.29850779  1
  H  H66  1  0.88170780  0.66704662  0.79850779  1
  H  H67  1  0.38170780  0.83295338  0.20149221  1
  H  H68  1  0.24613211  0.07417594  0.77279596  1
  H  H69  1  0.74613211  0.42582406  0.22720404  1
  H  H70  1  0.75386789  0.57417594  0.72720404  1
  H  H71  1  0.25386789  0.92582406  0.27279596  1
  H  H72  1  0.19565366  0.20522170  0.37340724  1
  H  H73  1  0.69565366  0.29477830  0.62659276  1
  H  H74  1  0.80434634  0.70522170  0.12659276  1
  H  H75  1  0.30434634  0.79477830  0.87340724  1
  H  H76  1  0.31605600  0.34402167  0.33719527  1
  H  H77  1  0.81605600  0.15597833  0.66280473  1
  H  H78  1  0.68394400  0.84402167  0.16280473  1
  H  H79  1  0.18394400  0.65597833  0.83719527  1
  H  H80  1  0.15796051  0.32578831  0.25598897  1
  H  H81  1  0.65796051  0.17421169  0.74401103  1
  H  H82  1  0.84203949  0.82578831  0.24401103  1
  H  H83  1  0.34203949  0.67421169  0.75598897  1
  H  H84  1  0.34220283  0.22455712  0.13677770  1
  H  H85  1  0.84220283  0.27544288  0.86322230  1
  H  H86  1  0.65779717  0.72455712  0.36322230  1
  H  H87  1  0.15779717  0.77544288  0.63677770  1
  H  H88  1  0.39743667  0.12393944  0.25889600  1
  H  H89  1  0.89743667  0.37606056  0.74110400  1
  H  H90  1  0.60256333  0.62393944  0.24110400  1
  H  H91  1  0.10256333  0.87606056  0.75889600  1
  H  H92  1  0.68883377  0.50347929  0.98604309  1
  H  H93  1  0.18883377  0.99652071  0.01395691  1
  H  H94  1  0.31116623  0.00347929  0.51395691  1
  H  H95  1  0.81116623  0.49652071  0.48604309  1
  H  H96  1  0.55380720  0.37860519  0.99877231  1
  H  H97  1  0.05380720  0.12139481  0.00122769  1
  H  H98  1  0.44619280  0.87860519  0.50122769  1
  H  H99  1  0.94619280  0.62139481  0.49877231  1
  H  H100  1  0.55252680  0.49445806  0.87498765  1
  H  H101  1  0.05252680  0.00554194  0.12501235  1
  H  H102  1  0.44747320  0.99445806  0.62501235  1
  H  H103  1  0.94747320  0.50554194  0.37498765  1
  H  H104  1  0.38589054  0.54480861  0.04977064  1
  H  H105  1  0.88589054  0.95519139  0.95022936  1
  H  H106  1  0.61410946  0.04480861  0.45022936  1
  H  H107  1  0.11410946  0.45519139  0.54977064  1
  H  H108  1  0.49866501  0.68172138  0.00269867  1
  H  H109  1  0.99866501  0.81827862  0.99730133  1
  H  H110  1  0.50133499  0.18172138  0.49730133  1
  H  H111  1  0.00133499  0.31827862  0.50269867  1
