# generated using pymatgen
data_MgFe3(P2O7)2
_symmetry_space_group_name_H-M   'P 1'
_cell_length_a   7.33300559
_cell_length_b   7.54019649
_cell_length_c   9.73665495
_cell_angle_alpha   90.00000000
_cell_angle_beta   111.93690952
_cell_angle_gamma   90.00000000
_symmetry_Int_Tables_number   1
_chemical_formula_structural   MgFe3(P2O7)2
_chemical_formula_sum   'Mg2 Fe6 P8 O28'
_cell_volume   499.38239306
_cell_formula_units_Z   2
loop_
 _symmetry_equiv_pos_site_id
 _symmetry_equiv_pos_as_xyz
  1  'x, y, z'
loop_
 _atom_site_type_symbol
 _atom_site_label
 _atom_site_symmetry_multiplicity
 _atom_site_fract_x
 _atom_site_fract_y
 _atom_site_fract_z
 _atom_site_occupancy
  Mg  Mg0  1  0.50000000  -0.00000000  -0.00000000  1
  Mg  Mg1  1  0.50000000  0.50000000  0.50000000  1
  Fe  Fe2  1  0.18456514  0.86602965  0.51469297  1
  Fe  Fe3  1  0.81543486  0.36602965  0.98530703  1
  Fe  Fe4  1  0.81543486  0.13397035  0.48530703  1
  Fe  Fe5  1  0.18456514  0.63397035  0.01469197  1
  Fe  Fe6  1  0.00000000  -0.00000000  -0.00000000  1
  Fe  Fe7  1  0.00000000  0.50000000  0.50000000  1
  P  P8  1  0.57720826  0.08268252  0.70201158  1
  P  P9  1  0.42279174  0.58268252  0.79798842  1
  P  P10  1  0.42279174  0.91731748  0.29798842  1
  P  P11  1  0.57720826  0.41731748  0.20201158  1
  P  P12  1  0.86065536  0.79777983  0.68610364  1
  P  P13  1  0.13934464  0.29777983  0.81389636  1
  P  P14  1  0.13934464  0.20222017  0.31389636  1
  P  P15  1  0.86065536  0.70222017  0.18610364  1
  O  O16  1  0.79963281  0.61997339  0.60604899  1
  O  O17  1  0.20036719  0.11997339  0.89395101  1
  O  O18  1  0.20036719  0.38002661  0.39395101  1
  O  O19  1  0.79963281  0.88002661  0.10604899  1
  O  O20  1  0.31673464  0.60875497  0.62625729  1
  O  O21  1  0.68326536  0.10875497  0.87374271  1
  O  O22  1  0.68326536  0.39124503  0.37374271  1
  O  O23  1  0.31673464  0.89124503  0.12625729  1
  O  O24  1  0.62659617  0.22820316  0.61210903  1
  O  O25  1  0.37340383  0.72820316  0.88789097  1
  O  O26  1  0.37340383  0.77179684  0.38789097  1
  O  O27  1  0.62659617  0.27179684  0.11210903  1
  O  O28  1  0.65741996  0.89555194  0.66412175  1
  O  O29  1  0.34258004  0.39555194  0.83587825  1
  O  O30  1  0.34258004  0.10444806  0.33587825  1
  O  O31  1  0.65741996  0.60444806  0.16412175  1
  O  O32  1  0.36329267  0.45847591  0.16515896  1
  O  O33  1  0.63670733  0.95847591  0.33484104  1
  O  O34  1  0.63670733  0.54152409  0.83484104  1
  O  O35  1  0.36329267  0.04152409  0.66515896  1
  O  O36  1  0.03008604  0.20780420  0.14385403  1
  O  O37  1  0.96991396  0.70780420  0.35614597  1
  O  O38  1  0.96991396  0.79219580  0.85614597  1
  O  O39  1  0.03008604  0.29219580  0.64385403  1
  O  O40  1  0.97085534  0.58590795  0.11428925  1
  O  O41  1  0.02914466  0.08590795  0.38571075  1
  O  O42  1  0.02914466  0.41409205  0.88571075  1
  O  O43  1  0.97085534  0.91409205  0.61428925  1
