# generated using pymatgen
data_CaCoNiP2O9
_symmetry_space_group_name_H-M   'P 1'
_cell_length_a   6.46415430
_cell_length_b   7.51910754
_cell_length_c   14.18131568
_cell_angle_alpha   90.38959985
_cell_angle_beta   90.00697002
_cell_angle_gamma   90.00738893
_symmetry_Int_Tables_number   1
_chemical_formula_structural   CaCoNiP2O9
_chemical_formula_sum   'Ca4 Co4 Ni4 P8 O36'
_cell_volume   689.26224087
_cell_formula_units_Z   4
loop_
 _symmetry_equiv_pos_site_id
 _symmetry_equiv_pos_as_xyz
  1  'x, y, z'
loop_
 _atom_site_type_symbol
 _atom_site_label
 _atom_site_symmetry_multiplicity
 _atom_site_fract_x
 _atom_site_fract_y
 _atom_site_fract_z
 _atom_site_occupancy
  Ca  Ca0  1  0.74994672  0.87055107  0.77795434  1
  Ca  Ca1  1  0.74999642  0.62793777  0.27978867  1
  Ca  Ca2  1  0.24995287  0.12997923  0.22174154  1
  Ca  Ca3  1  0.24998386  0.37682086  0.71850913  1
  Co  Co4  1  0.74984156  0.34643164  0.88278209  1
  Co  Co5  1  0.24993847  0.65312276  0.11730239  1
  Co  Co6  1  0.24970985  0.84561325  0.61780709  1
  Co  Co7  1  0.74981700  0.15136725  0.38362685  1
  Ni  Ni8  1  0.50018430  0.00039133  0.00049916  1
  Ni  Ni9  1  0.50089827  0.50134129  0.50000694  1
  Ni  Ni10  1  0.99933720  0.50145883  0.49998318  1
  Ni  Ni11  1  0.00015903  0.00050513  0.00039439  1
  P  P12  1  0.24994484  0.35160447  0.93736300  1
  P  P13  1  0.75000707  0.64817549  0.06212604  1
  P  P14  1  0.74975178  0.85232446  0.56180038  1
  P  P15  1  0.25003464  0.14930387  0.43941268  1
  P  P16  1  0.74990869  0.39213468  0.69421425  1
  P  P17  1  0.25007680  0.60788787  0.30590371  1
  P  P18  1  0.25007528  0.88458431  0.80493455  1
  P  P19  1  0.75001624  0.10874590  0.19463900  1
  O  O20  1  0.05209403  0.60394726  0.36634584  1
  O  O21  1  0.55221694  0.39617648  0.63352675  1
  O  O22  1  0.94830276  0.10345424  0.13407291  1
  O  O23  1  0.44759560  0.89877474  0.86493242  1
  O  O24  1  0.94763810  0.39613579  0.63357851  1
  O  O25  1  0.44801169  0.60377800  0.36638961  1
  O  O26  1  0.05255407  0.89853766  0.86491994  1
  O  O27  1  0.55175784  0.10399919  0.13403411  1
  O  O28  1  0.24996533  0.33482643  0.48837842  1
  O  O29  1  0.75008854  0.66952025  0.51145571  1
  O  O30  1  0.75010471  0.83003739  0.01215048  1
  O  O31  1  0.25006947  0.16984443  0.98736407  1
  O  O32  1  0.75012019  0.14357772  0.94759299  1
  O  O33  1  0.25013425  0.85632126  0.05230361  1
  O  O34  1  0.24994384  0.64917404  0.55599825  1
  O  O35  1  0.74999033  0.35613694  0.44821843  1
  O  O36  1  0.74971270  0.21865096  0.75693778  1
  O  O37  1  0.25017490  0.78125250  0.24299749  1
  O  O38  1  0.25014133  0.70990847  0.74403092  1
  O  O39  1  0.75032012  0.28239909  0.25778652  1
  O  O40  1  0.43799397  0.13560447  0.37039052  1
  O  O41  1  0.93690479  0.86608861  0.63041406  1
  O  O42  1  0.56161452  0.63458286  0.13037154  1
  O  O43  1  0.06185091  0.36453465  0.86870400  1
  O  O44  1  0.56285022  0.86552303  0.63054195  1
  O  O45  1  0.06194513  0.13500163  0.37052301  1
  O  O46  1  0.43803556  0.36424908  0.86869484  1
  O  O47  1  0.93845146  0.63486421  0.13040112  1
  O  O48  1  0.74976927  0.95818696  0.27053897  1
  O  O49  1  0.24992687  0.02774718  0.72348889  1
  O  O50  1  0.25004956  0.45746473  0.22891475  1
  O  O51  1  0.74992145  0.54270678  0.77105234  1
  O  O52  1  0.74946544  0.00033307  0.48894871  1
  O  O53  1  0.25073267  0.00620637  0.51405420  1
  O  O54  1  0.24999093  0.50181259  0.00976412  1
  O  O55  1  0.74997864  0.49836250  0.98939282  1
