# generated using pymatgen
data_MgTiNi(PO4)3
_symmetry_space_group_name_H-M   'P 1'
_cell_length_a   8.50992143
_cell_length_b   8.50992117
_cell_length_c   8.50992152
_cell_angle_alpha   60.86427040
_cell_angle_beta   60.86427195
_cell_angle_gamma   60.86427448
_symmetry_Int_Tables_number   1
_chemical_formula_structural   MgTiNi(PO4)3
_chemical_formula_sum   'Mg2 Ti2 Ni2 P6 O24'
_cell_volume   444.26558113
_cell_formula_units_Z   2
loop_
 _symmetry_equiv_pos_site_id
 _symmetry_equiv_pos_as_xyz
  1  'x, y, z'
loop_
 _atom_site_type_symbol
 _atom_site_label
 _atom_site_symmetry_multiplicity
 _atom_site_fract_x
 _atom_site_fract_y
 _atom_site_fract_z
 _atom_site_occupancy
  Mg  Mg0  1  0.99634233  0.99634233  0.99634233  1
  Mg  Mg1  1  0.49634233  0.49634233  0.49634233  1
  Ti  Ti2  1  0.14391299  0.14391299  0.14391299  1
  Ti  Ti3  1  0.64391299  0.64391299  0.64391299  1
  Ni  Ni4  1  0.35670977  0.35670977  0.35670977  1
  Ni  Ni5  1  0.85670977  0.85670977  0.85670977  1
  P  P6  1  0.04585386  0.45685667  0.74926843  1
  P  P7  1  0.45685667  0.74926843  0.04585386  1
  P  P8  1  0.74926843  0.04585386  0.45685667  1
  P  P9  1  0.24926843  0.95685667  0.54585386  1
  P  P10  1  0.54585386  0.24926843  0.95685667  1
  P  P11  1  0.95685667  0.54585386  0.24926843  1
  O  O12  1  0.11386731  0.51275147  0.30930899  1
  O  O13  1  0.30930899  0.11386731  0.51275147  1
  O  O14  1  0.05429247  0.25902031  0.91105751  1
  O  O15  1  0.51275147  0.30930899  0.11386731  1
  O  O16  1  0.01275147  0.61386731  0.80930899  1
  O  O17  1  0.24055971  0.44163007  0.58853700  1
  O  O18  1  0.25902031  0.91105751  0.05429247  1
  O  O19  1  0.44163007  0.58853700  0.24055971  1
  O  O20  1  0.18450194  0.00535559  0.38017259  1
  O  O21  1  0.58853699  0.24055971  0.44163007  1
  O  O22  1  0.08853700  0.94163007  0.74055971  1
  O  O23  1  0.38017259  0.18450194  0.00535559  1
  O  O24  1  0.61386731  0.80930899  0.01275147  1
  O  O25  1  0.91105751  0.05429247  0.25902031  1
  O  O26  1  0.41105751  0.75902031  0.55429247  1
  O  O27  1  0.80930899  0.01275147  0.61386731  1
  O  O28  1  0.55429247  0.41105751  0.75902031  1
  O  O29  1  0.74055971  0.08853700  0.94163007  1
  O  O30  1  0.75902031  0.55429247  0.41105751  1
  O  O31  1  0.00535559  0.38017259  0.18450194  1
  O  O32  1  0.50535559  0.68450194  0.88017259  1
  O  O33  1  0.94163007  0.74055971  0.08853700  1
  O  O34  1  0.68450194  0.88017259  0.50535559  1
  O  O35  1  0.88017259  0.50535559  0.68450194  1
