# generated using pymatgen
data_ZnFeAsO5
_symmetry_space_group_name_H-M   'P 1'
_cell_length_a   8.11993146
_cell_length_b   6.20031516
_cell_length_c   8.41819207
_cell_angle_alpha   90.04219524
_cell_angle_beta   90.19084969
_cell_angle_gamma   89.87290873
_symmetry_Int_Tables_number   1
_chemical_formula_structural   ZnFeAsO5
_chemical_formula_sum   'Zn4 Fe4 As4 O20'
_cell_volume   423.81992053
_cell_formula_units_Z   4
loop_
 _symmetry_equiv_pos_site_id
 _symmetry_equiv_pos_as_xyz
  1  'x, y, z'
loop_
 _atom_site_type_symbol
 _atom_site_label
 _atom_site_symmetry_multiplicity
 _atom_site_fract_x
 _atom_site_fract_y
 _atom_site_fract_z
 _atom_site_occupancy
  Zn  Zn0  1  0.93873724  0.69259364  0.06103488  1
  Zn  Zn1  1  0.55141613  0.29766914  0.56246543  1
  Zn  Zn2  1  0.44363336  0.80212896  0.93817607  1
  Zn  Zn3  1  0.05234678  0.20534252  0.43816078  1
  Fe  Fe4  1  0.99732462  0.49319620  0.74441408  1
  Fe  Fe5  1  0.50402352  0.50727971  0.24464536  1
  Fe  Fe6  1  0.49669372  0.00709471  0.25645954  1
  Fe  Fe7  1  0.00368526  0.99270140  0.75541768  1
  As  As8  1  0.65502843  0.26205581  0.92581917  1
  As  As9  1  0.84714883  0.73696327  0.42491162  1
  As  As10  1  0.15455358  0.23563057  0.07411814  1
  As  As11  1  0.34600156  0.76494209  0.57502249  1
  O  O12  1  0.84623810  0.23765179  0.83532791  1
  O  O13  1  0.65345804  0.75875229  0.33616773  1
  O  O14  1  0.34719757  0.26012459  0.16452680  1
  O  O15  1  0.15453883  0.74303670  0.66571993  1
  O  O16  1  0.50850907  0.29695616  0.78066971  1
  O  O17  1  0.98984524  0.70345809  0.27812974  1
  O  O18  1  0.00972769  0.20561708  0.21952766  1
  O  O19  1  0.49182340  0.79671832  0.72108609  1
  O  O20  1  0.61417296  0.02850826  0.03111679  1
  O  O21  1  0.88757773  0.97065752  0.52961705  1
  O  O22  1  0.11368026  0.46981949  0.96915385  1
  O  O23  1  0.38583365  0.53100336  0.46970057  1
  O  O24  1  0.65619279  0.48558671  0.04814128  1
  O  O25  1  0.84985365  0.51227233  0.54557901  1
  O  O26  1  0.15457329  0.01325485  0.95178581  1
  O  O27  1  0.34687012  0.98873655  0.45322221  1
  O  O28  1  0.89077954  0.74645639  0.84562380  1
  O  O29  1  0.60870796  0.25350436  0.34802211  1
  O  O30  1  0.39163919  0.75459725  0.15320201  1
  O  O31  1  0.10818889  0.24569489  0.65303669  1
