# generated using pymatgen
data_VZn(GeO3)2
_symmetry_space_group_name_H-M   'P 1'
_cell_length_a   5.53183347
_cell_length_b   9.38558353
_cell_length_c   9.84020173
_cell_angle_alpha   90.00000000
_cell_angle_beta   102.77686878
_cell_angle_gamma   90.00000000
_symmetry_Int_Tables_number   1
_chemical_formula_structural   VZn(GeO3)2
_chemical_formula_sum   'V4 Zn4 Ge8 O24'
_cell_volume   498.24771301
_cell_formula_units_Z   4
loop_
 _symmetry_equiv_pos_site_id
 _symmetry_equiv_pos_as_xyz
  1  'x, y, z'
loop_
 _atom_site_type_symbol
 _atom_site_label
 _atom_site_symmetry_multiplicity
 _atom_site_fract_x
 _atom_site_fract_y
 _atom_site_fract_z
 _atom_site_occupancy
  V  V0  1  0.96625959  0.65529833  0.24668744  1
  V  V1  1  0.53374041  0.15529833  0.75331256  1
  V  V2  1  0.03374041  0.34470167  0.75331256  1
  V  V3  1  0.46625959  0.84470167  0.24668744  1
  Zn  Zn4  1  0.45819480  0.49831918  0.24459944  1
  Zn  Zn5  1  0.04180520  0.99831918  0.75540056  1
  Zn  Zn6  1  0.54180520  0.50168082  0.75540056  1
  Zn  Zn7  1  0.95819480  0.00168082  0.24459944  1
  Ge  Ge8  1  0.81413221  0.33610254  0.05771845  1
  Ge  Ge9  1  0.68586779  0.83610254  0.94228155  1
  Ge  Ge10  1  0.18586779  0.66389746  0.94228155  1
  Ge  Ge11  1  0.31413221  0.16389746  0.05771845  1
  Ge  Ge12  1  0.25097288  0.34088494  0.45404107  1
  Ge  Ge13  1  0.24902712  0.84088494  0.54595893  1
  Ge  Ge14  1  0.74902712  0.65911506  0.54595893  1
  Ge  Ge15  1  0.75097288  0.15911506  0.45404107  1
  O  O16  1  0.50637378  0.28014157  0.38400227  1
  O  O17  1  0.99362622  0.78014157  0.61599773  1
  O  O18  1  0.49362622  0.71985843  0.61599773  1
  O  O19  1  0.00637378  0.21985843  0.38400227  1
  O  O20  1  0.14855283  0.31469386  0.10855590  1
  O  O21  1  0.35144717  0.81469386  0.89144510  1
  O  O22  1  0.85144717  0.68530614  0.89144510  1
  O  O23  1  0.64855283  0.18530614  0.10855590  1
  O  O24  1  0.71405002  0.99361082  0.37102512  1
  O  O25  1  0.78594998  0.49361082  0.62897488  1
  O  O26  1  0.28594998  0.00638918  0.62897488  1
  O  O27  1  0.21405002  0.50638918  0.37102512  1
  O  O28  1  0.22957825  0.01491052  0.14248290  1
  O  O29  1  0.27042175  0.51491052  0.85751710  1
  O  O30  1  0.77042175  0.98508948  0.85751710  1
  O  O31  1  0.72957825  0.48508948  0.14248290  1
  O  O32  1  0.74548722  0.33758045  0.87230963  1
  O  O33  1  0.75451278  0.83758045  0.12769037  1
  O  O34  1  0.25451278  0.66241955  0.12769037  1
  O  O35  1  0.24548722  0.16241955  0.87230963  1
  O  O36  1  0.31936345  0.33712282  0.63802383  1
  O  O37  1  0.18063655  0.83712282  0.36197617  1
  O  O38  1  0.68063655  0.66287718  0.36197617  1
  O  O39  1  0.81936345  0.16287718  0.63802383  1
