# generated using pymatgen
data_CaSi4SnO10
_symmetry_space_group_name_H-M   'P 1'
_cell_length_a   7.57353631
_cell_length_b   7.57353631
_cell_length_c   16.01355233
_cell_angle_alpha   90.00000000
_cell_angle_beta   90.00000000
_cell_angle_gamma   90.00000000
_symmetry_Int_Tables_number   1
_chemical_formula_structural   CaSi4SnO10
_chemical_formula_sum   'Ca4 Si16 Sn4 O40'
_cell_volume   918.51257650
_cell_formula_units_Z   4
loop_
 _symmetry_equiv_pos_site_id
 _symmetry_equiv_pos_as_xyz
  1  'x, y, z'
loop_
 _atom_site_type_symbol
 _atom_site_label
 _atom_site_symmetry_multiplicity
 _atom_site_fract_x
 _atom_site_fract_y
 _atom_site_fract_z
 _atom_site_occupancy
  Ca  Ca0  1  0.25000000  0.75000000  0.50000000  1
  Ca  Ca1  1  0.75000000  0.25000000  0.50000000  1
  Ca  Ca2  1  0.75000000  0.25000000  -0.00000000  1
  Ca  Ca3  1  0.25000000  0.75000000  -0.00000000  1
  Si  Si4  1  0.90625708  0.49596316  0.65360353  1
  Si  Si5  1  0.59374292  0.00403684  0.65360353  1
  Si  Si6  1  0.99596316  0.40625708  0.84639647  1
  Si  Si7  1  0.49596316  0.59374292  0.65360353  1
  Si  Si8  1  0.00403684  0.90625708  0.65360353  1
  Si  Si9  1  0.09374292  0.99596316  0.84639647  1
  Si  Si10  1  0.40625708  0.50403684  0.84639647  1
  Si  Si11  1  0.50403684  0.09374292  0.84639647  1
  Si  Si12  1  0.09374292  0.50403684  0.34639647  1
  Si  Si13  1  0.40625708  0.99596316  0.34639647  1
  Si  Si14  1  0.00403684  0.59374292  0.15360353  1
  Si  Si15  1  0.50403684  0.40625708  0.34639647  1
  Si  Si16  1  0.99596316  0.09374292  0.34639647  1
  Si  Si17  1  0.90625708  0.00403684  0.15360353  1
  Si  Si18  1  0.59374292  0.49596316  0.15360353  1
  Si  Si19  1  0.49596316  0.90625708  0.15360353  1
  Sn  Sn20  1  0.25000000  0.25000000  0.54253060  1
  Sn  Sn21  1  0.75000000  0.75000000  0.95746940  1
  Sn  Sn22  1  0.75000000  0.75000000  0.45746940  1
  Sn  Sn23  1  0.25000000  0.25000000  0.04253060  1
  O  O24  1  0.97842327  0.35463854  0.58633561  1
  O  O25  1  0.52157673  0.14536146  0.58633561  1
  O  O26  1  0.85463854  0.47842327  0.91366439  1
  O  O27  1  0.35463854  0.52157673  0.58633561  1
  O  O28  1  0.14536146  0.97842327  0.58633561  1
  O  O29  1  0.02157673  0.85463854  0.91366439  1
  O  O30  1  0.47842327  0.64536146  0.91366439  1
  O  O31  1  0.64536146  0.02157673  0.91366439  1
  O  O32  1  0.02157673  0.64536146  0.41366439  1
  O  O33  1  0.47842327  0.85463854  0.41366439  1
  O  O34  1  0.14536146  0.52157673  0.08633561  1
  O  O35  1  0.64536146  0.47842327  0.41366439  1
  O  O36  1  0.85463854  0.02157673  0.41366439  1
  O  O37  1  0.97842327  0.14536146  0.08633561  1
  O  O38  1  0.52157673  0.35463854  0.08633561  1
  O  O39  1  0.00733886  0.30812787  0.36273622  1
  O  O40  1  0.35463854  0.97842327  0.08633561  1
  O  O41  1  0.50733886  0.80812787  0.63726378  1
  O  O42  1  0.19187213  0.49266114  0.86273622  1
  O  O43  1  0.69187213  0.50733886  0.63726378  1
  O  O44  1  0.80812787  0.99266114  0.63726378  1
  O  O45  1  0.00733886  0.19187213  0.86273622  1
  O  O46  1  0.49266114  0.30812787  0.86273622  1
  O  O47  1  0.30812787  0.00733886  0.86273622  1
  O  O48  1  0.43967322  0.93967322  0.25000000  1
  O  O49  1  0.56032678  0.43967322  0.25000000  1
  O  O50  1  0.93967322  0.06032778  0.25000000  1
  O  O51  1  0.06032778  0.56032678  0.25000000  1
  O  O52  1  0.56032678  0.06032778  0.75000000  1
  O  O53  1  0.43967322  0.56032678  0.75000000  1
  O  O54  1  0.06032778  0.93967322  0.75000000  1
  O  O55  1  0.93967322  0.43967322  0.75000000  1
  O  O56  1  0.69187213  0.99266114  0.13726378  1
  O  O57  1  0.50733886  0.69187213  0.13726378  1
  O  O58  1  0.99266114  0.80812787  0.13726378  1
  O  O59  1  0.19187213  0.00733886  0.36273622  1
  O  O60  1  0.30812787  0.49266114  0.36273622  1
  O  O61  1  0.80812787  0.50733886  0.13726378  1
  O  O62  1  0.49266114  0.19187213  0.36273622  1
  O  O63  1  0.99266114  0.69187213  0.63726378  1
