# generated using pymatgen
data_Mg2CrWO6
_symmetry_space_group_name_H-M   'P 1'
_cell_length_a   5.54164561
_cell_length_b   5.55211659
_cell_length_c   7.54670417
_cell_angle_alpha   84.52568932
_cell_angle_beta   136.90802059
_cell_angle_gamma   124.29161010
_symmetry_Int_Tables_number   1
_chemical_formula_structural   Mg2CrWO6
_chemical_formula_sum   'Mg2 Cr1 W1 O6'
_cell_volume   108.58671158
_cell_formula_units_Z   1
loop_
 _symmetry_equiv_pos_site_id
 _symmetry_equiv_pos_as_xyz
  1  'x, y, z'
loop_
 _atom_site_type_symbol
 _atom_site_label
 _atom_site_symmetry_multiplicity
 _atom_site_fract_x
 _atom_site_fract_y
 _atom_site_fract_z
 _atom_site_occupancy
  Mg  Mg0  1  0.99370490  0.56232521  0.28755259  1
  Mg  Mg1  1  0.99992849  0.56317834  0.79090617  1
  Cr  Cr2  1  0.99927753  0.97815701  0.49553576  1
  W  W3  1  0.99843563  0.97573801  0.99461890  1
  O  O4  1  0.26027010  0.08086179  0.37025759  1
  O  O5  1  0.72817253  0.81023764  0.61251812  1
  O  O6  1  0.39230424  0.47243061  0.11067941  1
  O  O7  1  0.33551832  0.80978984  0.71667704  1
  O  O8  1  0.60302660  0.08220804  0.21270414  1
  O  O9  1  0.66435666  0.47500751  0.87746627  1
