# generated using pymatgen
data_CaCo(SiO3)2
_symmetry_space_group_name_H-M   'P 1'
_cell_length_a   5.42842824
_cell_length_b   9.77238162
_cell_length_c   18.98905315
_cell_angle_alpha   90.00000000
_cell_angle_beta   90.00000000
_cell_angle_gamma   90.00000000
_symmetry_Int_Tables_number   1
_chemical_formula_structural   CaCo(SiO3)2
_chemical_formula_sum   'Ca8 Co8 Si16 O48'
_cell_volume   1007.34405894
_cell_formula_units_Z   8
loop_
 _symmetry_equiv_pos_site_id
 _symmetry_equiv_pos_as_xyz
  1  'x, y, z'
loop_
 _atom_site_type_symbol
 _atom_site_label
 _atom_site_symmetry_multiplicity
 _atom_site_fract_x
 _atom_site_fract_y
 _atom_site_fract_z
 _atom_site_occupancy
  Ca  Ca0  1  0.61192580  0.14600000  0.62140300  1
  Ca  Ca1  1  0.38807420  0.85400000  0.37859700  1
  Ca  Ca2  1  0.61192580  0.64600000  0.87859700  1
  Ca  Ca3  1  0.11192580  0.85400000  0.87859700  1
  Ca  Ca4  1  0.88807420  0.14600000  0.12140300  1
  Ca  Ca5  1  0.38807420  0.35400000  0.12140300  1
  Ca  Ca6  1  0.11192580  0.35400000  0.62140300  1
  Ca  Ca7  1  0.88807420  0.64600000  0.37859700  1
  Co  Co8  1  0.38453073  0.99326567  0.12812277  1
  Co  Co9  1  0.61546927  0.00673433  0.87187723  1
  Co  Co10  1  0.88453073  0.00673433  0.37187723  1
  Co  Co11  1  0.11546927  0.99326567  0.62812277  1
  Co  Co12  1  0.38453073  0.49326567  0.37187723  1
  Co  Co13  1  0.61546927  0.50673433  0.62812277  1
  Co  Co14  1  0.88453073  0.50673433  0.12812277  1
  Co  Co15  1  0.11546927  0.49326567  0.87187723  1
  Si  Si16  1  0.56239676  0.66516614  0.22526151  1
  Si  Si17  1  0.74903823  0.83234039  0.52577596  1
  Si  Si18  1  0.75096177  0.83234039  0.02577596  1
  Si  Si19  1  0.93760324  0.16516614  0.77473849  1
  Si  Si20  1  0.06239676  0.33483386  0.27473849  1
  Si  Si21  1  0.43760324  0.83483386  0.72526151  1
  Si  Si22  1  0.24903823  0.66765961  0.52577596  1
  Si  Si23  1  0.74903823  0.33234039  0.97422404  1
  Si  Si24  1  0.75096177  0.33234039  0.47422404  1
  Si  Si25  1  0.93760324  0.66516614  0.72526151  1
  Si  Si26  1  0.43760324  0.33483386  0.77473849  1
  Si  Si27  1  0.56239676  0.16516614  0.27473849  1
  Si  Si28  1  0.25096177  0.16765961  0.47422404  1
  Si  Si29  1  0.06239676  0.83483386  0.22526151  1
  Si  Si30  1  0.25096177  0.66765961  0.02577596  1
  Si  Si31  1  0.24903823  0.16765961  0.97422404  1
  O  O32  1  0.91747601  0.51848393  0.68542170  1
  O  O33  1  0.32095875  0.03248418  0.92957993  1
  O  O34  1  0.08252399  0.48151607  0.31457830  1
  O  O35  1  0.75265753  0.34927245  0.06016365  1
  O  O36  1  0.25265753  0.15072755  0.06016365  1
  O  O37  1  0.95907289  0.21223704  0.95398939  1
  O  O38  1  0.95807666  0.65498305  0.81112905  1
  O  O39  1  0.04192334  0.84501695  0.31112905  1
  O  O40  1  0.75265753  0.84927245  0.43983635  1
  O  O41  1  0.95807666  0.15498305  0.68887095  1
  O  O42  1  0.41747601  0.48151607  0.81457830  1
  O  O43  1  0.74734247  0.34927245  0.56016365  1
  O  O44  1  0.67904125  0.96751582  0.07042007  1
  O  O45  1  0.45807666  0.84501695  0.81112905  1
  O  O46  1  0.58252399  0.01848393  0.31457830  1
  O  O47  1  0.32095875  0.53248418  0.57042007  1
  O  O48  1  0.41747601  0.98151607  0.68542170  1
  O  O49  1  0.17513969  0.75936095  0.69922847  1
  O  O50  1  0.32486031  0.75936095  0.19922847  1
  O  O51  1  0.54092711  0.71223704  0.04601161  1
  O  O52  1  0.74734247  0.84927245  0.93983635  1
  O  O53  1  0.54192334  0.65498305  0.31112905  1
  O  O54  1  0.82095875  0.46751582  0.92957993  1
  O  O55  1  0.17513969  0.25936095  0.80077153  1
  O  O56  1  0.24734247  0.15072755  0.56016365  1
  O  O57  1  0.54192334  0.15498305  0.18887095  1
  O  O58  1  0.67904125  0.46751582  0.42957993  1
  O  O59  1  0.25265753  0.65072755  0.43983635  1
  O  O60  1  0.17904125  0.53248418  0.07042007  1
  O  O61  1  0.67513969  0.74063905  0.69922847  1
  O  O62  1  0.08252399  0.98151607  0.18542170  1
  O  O63  1  0.82486031  0.74063905  0.19922847  1
  O  O64  1  0.82486031  0.24063905  0.30077153  1
  O  O65  1  0.82095875  0.96751582  0.57042007  1
  O  O66  1  0.24734247  0.65072755  0.93983635  1
  O  O67  1  0.17904125  0.03248418  0.42957993  1
  O  O68  1  0.32486031  0.25936095  0.30077153  1
  O  O69  1  0.04092711  0.78776296  0.04601161  1
  O  O70  1  0.45907289  0.78776296  0.54601061  1
  O  O71  1  0.67513969  0.24063905  0.80077153  1
  O  O72  1  0.45907289  0.28776296  0.95398939  1
  O  O73  1  0.54092711  0.21223704  0.45398839  1
  O  O74  1  0.04092711  0.28776296  0.45398839  1
  O  O75  1  0.45807666  0.34501695  0.68887095  1
  O  O76  1  0.58252399  0.51848393  0.18542170  1
  O  O77  1  0.95907289  0.71223704  0.54601061  1
  O  O78  1  0.04192334  0.34501695  0.18887095  1
  O  O79  1  0.91747601  0.01848393  0.81457830  1
