# generated using pymatgen
data_Zn(CuO2)2
_symmetry_space_group_name_H-M   'P 1'
_cell_length_a   5.91109680
_cell_length_b   6.11490383
_cell_length_c   6.11935341
_cell_angle_alpha   89.92238109
_cell_angle_beta   121.20875441
_cell_angle_gamma   121.18697830
_symmetry_Int_Tables_number   1
_chemical_formula_structural   Zn(CuO2)2
_chemical_formula_sum   'Zn2 Cu4 O8'
_cell_volume   150.68256759
_cell_formula_units_Z   2
loop_
 _symmetry_equiv_pos_site_id
 _symmetry_equiv_pos_as_xyz
  1  'x, y, z'
loop_
 _atom_site_type_symbol
 _atom_site_label
 _atom_site_symmetry_multiplicity
 _atom_site_fract_x
 _atom_site_fract_y
 _atom_site_fract_z
 _atom_site_occupancy
  Zn  Zn0  1  0.24974332  0.12465366  0.87503948  1
  Zn  Zn1  1  0.75028780  0.87522128  0.12501199  1
  Cu  Cu2  1  0.50013821  0.00005247  0.50009383  1
  Cu  Cu3  1  0.49985023  0.49996079  0.49990626  1
  Cu  Cu4  1  0.99996943  0.49997169  0.99996242  1
  Cu  Cu5  1  0.00004494  0.50002933  0.50002254  1
  O  O6  1  0.03898097  0.75616747  0.21724291  1
  O  O7  1  0.46127023  0.78295020  0.71759541  1
  O  O8  1  0.46118171  0.67832191  0.24350030  1
  O  O9  1  0.96105963  0.71712860  0.67831402  1
  O  O10  1  0.53869443  0.32170873  0.75643428  1
  O  O11  1  0.53887358  0.21713487  0.28254639  1
  O  O12  1  0.03867231  0.28278433  0.32148676  1
  O  O13  1  0.96123422  0.24391468  0.78284242  1
