# generated using pymatgen
data_Sr5Ca3TiMn7O20
_symmetry_space_group_name_H-M   'P 1'
_cell_length_a   11.04995386
_cell_length_b   11.18285534
_cell_length_c   17.72235108
_cell_angle_alpha   108.31958151
_cell_angle_beta   108.30675020
_cell_angle_gamma   89.98273707
_symmetry_Int_Tables_number   1
_chemical_formula_structural   Sr5Ca3TiMn7O20
_chemical_formula_sum   'Sr20 Ca12 Ti4 Mn28 O80'
_cell_volume   1961.93598140
_cell_formula_units_Z   4
loop_
 _symmetry_equiv_pos_site_id
 _symmetry_equiv_pos_as_xyz
  1  'x, y, z'
loop_
 _atom_site_type_symbol
 _atom_site_label
 _atom_site_symmetry_multiplicity
 _atom_site_fract_x
 _atom_site_fract_y
 _atom_site_fract_z
 _atom_site_occupancy
  Sr  Sr0  1  0.30826171  0.05824228  0.60780283  1
  Sr  Sr1  1  0.30971655  0.55813987  0.60830264  1
  Sr  Sr2  1  0.80702588  0.05864494  0.60816340  1
  Sr  Sr3  1  0.80815521  0.55791571  0.60961411  1
  Sr  Sr4  1  0.19716195  0.43933713  0.38827413  1
  Sr  Sr5  1  0.19999318  0.44031592  0.89141943  1
  Sr  Sr6  1  0.69776481  0.43940756  0.38806511  1
  Sr  Sr7  1  0.69834935  0.94116537  0.38715461  1
  Sr  Sr8  1  0.70097780  0.94202209  0.89096529  1
  Sr  Sr9  1  0.05936589  0.29959993  0.60859841  1
  Sr  Sr10  1  0.05984739  0.80070677  0.60927530  1
  Sr  Sr11  1  0.55923450  0.30293178  0.61040351  1
  Sr  Sr12  1  0.55917818  0.80012533  0.60896556  1
  Sr  Sr13  1  0.44825744  0.19869276  0.38833811  1
  Sr  Sr14  1  0.44886156  0.20582999  0.89146593  1
  Sr  Sr15  1  0.44686060  0.69993832  0.38824055  1
  Sr  Sr16  1  0.44385756  0.69501400  0.89048791  1
  Sr  Sr17  1  0.94737099  0.19535073  0.38718156  1
  Sr  Sr18  1  0.94793340  0.20316568  0.89044384  1
  Sr  Sr19  1  0.94939515  0.69939234  0.38789577  1
  Ca  Ca20  1  0.30625756  0.06590555  0.10819291  1
  Ca  Ca21  1  0.30837207  0.56605271  0.10711049  1
  Ca  Ca22  1  0.80263191  0.06796574  0.10884258  1
  Ca  Ca23  1  0.80037732  0.56139848  0.10930599  1
  Ca  Ca24  1  0.19840300  0.93738090  0.39395494  1
  Ca  Ca25  1  0.19488994  0.93707865  0.89239758  1
  Ca  Ca26  1  0.69822801  0.43431533  0.89491710  1
  Ca  Ca27  1  0.05383099  0.29274351  0.10935621  1
  Ca  Ca28  1  0.05993109  0.79548974  0.11025073  1
  Ca  Ca29  1  0.55137682  0.29349126  0.10779715  1
  Ca  Ca30  1  0.54880602  0.79260431  0.10948203  1
  Ca  Ca31  1  0.95334063  0.70734876  0.89544310  1
  Ti  Ti32  1  0.00991855  0.00197149  0.00495787  1
  Ti  Ti33  1  0.00808893  0.50574465  0.00624183  1
  Ti  Ti34  1  0.50285495  0.99941711  -0.00014057  1
  Ti  Ti35  1  0.75714545  0.74918199  0.00368091  1
  Mn  Mn36  1  0.00345890  0.99736960  0.49680969  1
  Mn  Mn37  1  0.00274081  0.49930072  0.49854434  1
  Mn  Mn38  1  0.50265692  0.99982361  0.49785173  1
  Mn  Mn39  1  0.50695532  0.50035341  0.00417990  1
  Mn  Mn40  1  0.50474567  0.50085841  0.49981355  1
  Mn  Mn41  1  0.25563640  0.25156303  0.00334772  1
  Mn  Mn42  1  0.25242287  0.24764736  0.49626905  1
  Mn  Mn43  1  0.25605291  0.75347800  0.00392403  1
  Mn  Mn44  1  0.25431944  0.74950591  0.49868212  1
  Mn  Mn45  1  0.75781384  0.25287178  0.00477748  1
  Mn  Mn46  1  0.75327067  0.24962564  0.49879783  1
  Mn  Mn47  1  0.75429008  0.74923875  0.49953698  1
  Mn  Mn48  1  0.10651200  0.09023390  0.24578797  1
  Mn  Mn49  1  0.11108123  0.09362268  0.75074918  1
  Mn  Mn50  1  0.10985120  0.59680324  0.24621126  1
  Mn  Mn51  1  0.10834894  0.60028195  0.75210949  1
  Mn  Mn52  1  0.60447755  0.09009403  0.24229799  1
  Mn  Mn53  1  0.61057365  0.09988921  0.75028166  1
  Mn  Mn54  1  0.60774185  0.59113479  0.24585345  1
  Mn  Mn55  1  0.62112109  0.59755408  0.75546013  1
  Mn  Mn56  1  0.35628492  0.40270347  0.24618632  1
  Mn  Mn57  1  0.36465421  0.40450119  0.75042046  1
  Mn  Mn58  1  0.35226013  0.90533351  0.24880184  1
  Mn  Mn59  1  0.36241942  0.90441551  0.75254274  1
  Mn  Mn60  1  0.85862968  0.40189987  0.24648868  1
  Mn  Mn61  1  0.86119641  0.41078425  0.75813713  1
  Mn  Mn62  1  0.86101659  0.90075274  0.24355193  1
  Mn  Mn63  1  0.86830712  0.90292830  0.75288649  1
  O  O64  1  0.12602446  0.11912993  0.49244048  1
  O  O65  1  0.12717368  0.11987059  0.99205422  1
  O  O66  1  0.12451970  0.62165735  0.49360542  1
  O  O67  1  0.12231899  0.62611841  0.99062457  1
  O  O68  1  0.62575030  0.12456834  0.49552155  1
  O  O69  1  0.62732870  0.12130550  0.99735526  1
  O  O70  1  0.62506796  0.62290669  0.49362049  1
  O  O71  1  0.63443054  0.62334430  0.99270393  1
  O  O72  1  0.13439003  0.38285091  0.01460665  1
  O  O73  1  0.12973243  0.37514104  0.50295719  1
  O  O74  1  0.13723520  0.88232493  0.01315935  1
  O  O75  1  0.13070263  0.87714189  0.50258393  1
  O  O76  1  0.63993084  0.37680685  0.01434354  1
  O  O77  1  0.62923707  0.37556325  0.50115240  1
  O  O78  1  0.64053151  0.87988952  0.01740417  1
  O  O79  1  0.62890688  0.87654605  0.50207730  1
  O  O80  1  0.37185361  0.11749052  0.49039839  1
  O  O81  1  0.37449128  0.11474608  0.99248792  1
  O  O82  1  0.37562275  0.62079782  0.49310632  1
  O  O83  1  0.37446300  0.62767908  0.99915639  1
  O  O84  1  0.87668791  0.12187725  0.49573337  1
  O  O85  1  0.88044791  0.12123088  0.99605378  1
  O  O86  1  0.87492177  0.62178586  0.49395292  1
  O  O87  1  0.87791769  0.61893183  0.98739355  1
  O  O88  1  0.38293492  0.37854655  0.01458074  1
  O  O89  1  0.38013473  0.37646350  0.50229823  1
  O  O90  1  0.38836150  0.88434155  0.01574240  1
  O  O91  1  0.37894112  0.87808881  0.50231707  1
  O  O92  1  0.88576747  0.38904258  0.01347726  1
  O  O93  1  0.87971497  0.37633607  0.50215237  1
  O  O94  1  0.89218563  0.88586756  0.01588067  1
  O  O95  1  0.88028689  0.87669297  0.50214846  1
  O  O96  1  0.08628265  0.08987703  0.12932493  1
  O  O97  1  0.07698328  0.07720827  0.63523772  1
  O  O98  1  0.07898049  0.59549212  0.12620456  1
  O  O99  1  0.06990401  0.58036846  0.63659205  1
  O  O100  1  0.57639108  0.09096299  0.12964508  1
  O  O101  1  0.57251119  0.08172586  0.63512113  1
  O  O102  1  0.58680265  0.59790894  0.13750595  1
  O  O103  1  0.57787763  0.57814472  0.63410915  1
  O  O104  1  0.43567713  0.42202967  0.36136876  1
  O  O105  1  0.44464194  0.41838153  0.86567896  1
  O  O106  1  0.43794714  0.92265605  0.36258623  1
  O  O107  1  0.45302898  0.91561586  0.87752169  1
  O  O108  1  0.93408375  0.42094934  0.36159940  1
  O  O109  1  0.94871908  0.41753207  0.87280353  1
  O  O110  1  0.94262855  0.92160308  0.36547037  1
  O  O111  1  0.95127269  0.91273755  0.87464242  1
  O  O112  1  0.33660324  0.28667330  0.13932426  1
  O  O113  1  0.32481513  0.30374099  0.63585565  1
  O  O114  1  0.32635939  0.79097132  0.14035234  1
  O  O115  1  0.32136924  0.80159992  0.63090311  1
  O  O116  1  0.84315354  0.28887929  0.13937575  1
  O  O117  1  0.82577448  0.31508893  0.64365674  1
  O  O118  1  0.83998818  0.77903082  0.12608989  1
  O  O119  1  0.82470439  0.80527899  0.63496158  1
  O  O120  1  0.18278327  0.19314268  0.36145230  1
  O  O121  1  0.18980392  0.20280822  0.86187587  1
  O  O122  1  0.18994100  0.70351997  0.36708938  1
  O  O123  1  0.19245958  0.71209896  0.86349291  1
  O  O124  1  0.68211610  0.18546577  0.35650106  1
  O  O125  1  0.69112167  0.20702801  0.86390226  1
  O  O126  1  0.68473174  0.68928211  0.36023812  1
  O  O127  1  0.70712781  0.71393788  0.87665925  1
  O  O128  1  0.42215514  0.06376063  0.23979525  1
  O  O129  1  0.43720684  0.07261427  0.75254317  1
  O  O130  1  0.42821268  0.56411355  0.23936119  1
  O  O131  1  0.43847968  0.56544071  0.75176425  1
  O  O132  1  0.92455728  0.06986425  0.23861237  1
  O  O133  1  0.93641328  0.07205101  0.75164411  1
  O  O134  1  0.92381027  0.56082370  0.23992994  1
  O  O135  1  0.93505237  0.57892633  0.76079388  1
  O  O136  1  0.17909872  0.42133038  0.23982696  1
  O  O137  1  0.18710608  0.43958496  0.75254097  1
  O  O138  1  0.17440346  0.91886173  0.24881138  1
  O  O139  1  0.18315935  0.93352484  0.75990204  1
  O  O140  1  0.67479201  0.42092764  0.23914434  1
  O  O141  1  0.68743757  0.42562830  0.76146758  1
  O  O142  1  0.67388343  0.92623574  0.23797663  1
  O  O143  1  0.69077071  0.94088921  0.75250329  1
