# generated using pymatgen
data_Rb2LiC3S3(OF)9
_symmetry_space_group_name_H-M   'P 1'
_cell_length_a   5.42613314
_cell_length_b   16.59466226
_cell_length_c   20.04586791
_cell_angle_alpha   90.00000356
_cell_angle_beta   89.65729739
_cell_angle_gamma   90.00001363
_symmetry_Int_Tables_number   1
_chemical_formula_structural   Rb2LiC3S3(OF)9
_chemical_formula_sum   'Rb8 Li4 C12 S12 O36 F36'
_cell_volume   1804.99481886
_cell_formula_units_Z   4
loop_
 _symmetry_equiv_pos_site_id
 _symmetry_equiv_pos_as_xyz
  1  'x, y, z'
loop_
 _atom_site_type_symbol
 _atom_site_label
 _atom_site_symmetry_multiplicity
 _atom_site_fract_x
 _atom_site_fract_y
 _atom_site_fract_z
 _atom_site_occupancy
  Rb  Rb0  1  0.97609661  0.12446277  0.98764861  1
  Rb  Rb1  1  0.60243569  0.65823149  0.72343883  1
  Rb  Rb2  1  0.52390344  0.62446290  0.51235146  1
  Rb  Rb3  1  0.02390339  0.87553723  0.01235139  1
  Rb  Rb4  1  0.10243574  0.84176857  0.22343879  1
  Rb  Rb5  1  0.89756426  0.15823143  0.77656121  1
  Rb  Rb6  1  0.39756431  0.34176851  0.27656117  1
  Rb  Rb7  1  0.47609656  0.37553710  0.48764854  1
  Li  Li8  1  0.96917923  0.26771993  0.57498904  1
  Li  Li9  1  0.46917919  0.23228052  0.07498896  1
  Li  Li10  1  0.53082081  0.76771948  0.92501104  1
  Li  Li11  1  0.03082077  0.73228007  0.42501096  1
  C  C12  1  0.95189189  0.41038637  0.09718044  1
  C  C13  1  0.45189193  0.08961364  0.59718041  1
  C  C14  1  0.08307642  0.85862408  0.61022083  1
  C  C15  1  0.54810807  0.91038636  0.40281959  1
  C  C16  1  0.58307636  0.64137590  0.11022083  1
  C  C17  1  0.39523161  0.94809941  0.80612635  1
  C  C18  1  0.10476850  0.44809942  0.69387361  1
  C  C19  1  0.89523150  0.55190058  0.30612639  1
  C  C20  1  0.91692358  0.14137592  0.38977917  1
  C  C21  1  0.41692364  0.35862410  0.88977917  1
  C  C22  1  0.04810811  0.58961363  0.90281956  1
  C  C23  1  0.60476839  0.05190059  0.19387365  1
  S  S24  1  0.04494159  0.74947855  0.58957040  1
  S  S25  1  0.98952753  0.46702355  0.60746909  1
  S  S26  1  0.45505835  0.24947858  0.91042960  1
  S  S27  1  0.95505841  0.25052145  0.41042960  1
  S  S28  1  0.53170578  0.80702906  0.36584328  1
  S  S29  1  0.48952734  0.03297658  0.10746910  1
  S  S30  1  0.54494165  0.75052142  0.08957040  1
  S  S31  1  0.01047247  0.53297645  0.39253091  1
  S  S32  1  0.51047266  0.96702342  0.89253090  1
  S  S33  1  0.46829422  0.19297094  0.63415672  1
  S  S34  1  0.96829420  0.30702910  0.13415673  1
  S  S35  1  0.03170580  0.69297090  0.86584327  1
  O  O36  1  0.86859020  0.31688761  0.20118232  1
  O  O37  1  0.61543999  0.75485990  0.01870304  1
  O  O38  1  0.21480522  0.70733686  0.63337475  1
  O  O39  1  0.29646579  0.99847712  0.92840190  1
  O  O40  1  0.08603964  0.61363947  0.41491827  1
  O  O41  1  0.36859025  0.18311238  0.70118233  1
  O  O42  1  0.88456031  0.25485999  0.48129697  1
  O  O43  1  0.28622335  0.97674401  0.11699783  1
  O  O44  1  0.71480521  0.79266315  0.13337477  1
  O  O45  1  0.11543969  0.74514001  0.51870303  1
  O  O46  1  0.20353418  0.49847709  0.57159808  1
  O  O47  1  0.32121532  0.24288560  0.58903056  1
  O  O48  1  0.21589265  0.26614061  0.39784452  1
  O  O49  1  0.78410735  0.73385939  0.60215548  1
  O  O50  1  0.28410737  0.76614057  0.10215541  1
  O  O51  1  0.91396036  0.38636053  0.58508173  1
  O  O52  1  0.58603916  0.88636047  0.91491827  1
  O  O53  1  0.28519479  0.20733685  0.86662523  1
  O  O54  1  0.41396084  0.11363953  0.08508173  1
  O  O55  1  0.78519478  0.29266314  0.36662525  1
  O  O56  1  0.38456001  0.24514010  0.98129696  1
  O  O57  1  0.63140975  0.81688762  0.29881767  1
  O  O58  1  0.73266858  0.21178947  0.63280783  1
  O  O59  1  0.13140980  0.68311239  0.79881768  1
  O  O60  1  0.70353421  0.00152288  0.07159810  1
  O  O61  1  0.78622361  0.52325611  0.61699786  1
  O  O62  1  0.71377665  0.02325599  0.88300217  1
  O  O63  1  0.26733142  0.78821053  0.36719217  1
  O  O64  1  0.23266859  0.28821064  0.13280786  1
  O  O65  1  0.67878468  0.75711440  0.41096944  1
  O  O66  1  0.79646582  0.50152291  0.42840192  1
  O  O67  1  0.71589263  0.23385943  0.89784459  1
  O  O68  1  0.21377639  0.47674389  0.38300214  1
  O  O69  1  0.17878459  0.74288559  0.91096947  1
  O  O70  1  0.82121541  0.25711441  0.08903053  1
  O  O71  1  0.76733141  0.71178936  0.86719214  1
  F  F72  1  0.08991389  0.46166146  0.13417560  1
  F  F73  1  0.17619071  0.37954451  0.89226059  1
  F  F74  1  0.32380936  0.87954451  0.60773939  1
  F  F75  1  0.99677254  0.87331565  0.67277874  1
  F  F76  1  0.78501449  0.93627291  0.40210016  1
  F  F77  1  0.21498551  0.06372709  0.59789984  1
  F  F78  1  0.53634499  0.08892349  0.53387067  1
  F  F79  1  0.67619064  0.12045549  0.39226061  1
  F  F80  1  0.46365501  0.91107651  0.46612933  1
  F  F81  1  0.91008611  0.53833854  0.86582440  1
  F  F82  1  0.82380929  0.62045549  0.10773941  1
  F  F83  1  0.28501457  0.56372714  0.90210016  1
  F  F84  1  0.50322762  0.37331568  0.82722127  1
  F  F85  1  0.49677238  0.62668432  0.17277873  1
  F  F86  1  0.45623603  0.59512900  0.06682094  1
  F  F87  1  0.95623605  0.90487096  0.56682097  1
  F  F88  1  0.58991401  0.03833855  0.63417559  1
  F  F89  1  0.00322746  0.12668435  0.32722126  1
  F  F90  1  0.17688629  0.51874663  0.72265514  1
  F  F91  1  0.70021779  0.60250320  0.30727832  1
  F  F92  1  0.41008599  0.96166145  0.36582441  1
  F  F93  1  0.20021776  0.89749681  0.80727825  1
  F  F94  1  0.96365501  0.58892346  0.96612931  1
  F  F95  1  0.82311371  0.48125337  0.27734486  1
  F  F96  1  0.71498543  0.43627286  0.09789984  1
  F  F97  1  0.07455839  0.58455497  0.26742604  1
  F  F98  1  0.67688638  0.98125316  0.22265525  1
  F  F99  1  0.79978224  0.10250319  0.19272175  1
  F  F100  1  0.42544154  0.08455497  0.23257400  1
  F  F101  1  0.54376397  0.40487100  0.93317906  1
  F  F102  1  0.29978221  0.39749680  0.69272168  1
  F  F103  1  0.04376395  0.09512904  0.43317903  1
  F  F104  1  0.57455846  0.91544503  0.76742600  1
  F  F105  1  0.32311362  0.01874684  0.77734475  1
  F  F106  1  0.03634499  0.41107654  0.03387069  1
  F  F107  1  0.92544161  0.41544503  0.73257396  1
