# generated using pymatgen
data_PrSnAu
_symmetry_space_group_name_H-M   'P 1'
_cell_length_a   4.74847771
_cell_length_b   4.74847771
_cell_length_c   8.04979105
_cell_angle_alpha   90.00000000
_cell_angle_beta   90.00000000
_cell_angle_gamma   120.03976119
_symmetry_Int_Tables_number   1
_chemical_formula_structural   PrSnAu
_chemical_formula_sum   'Pr2 Sn2 Au2'
_cell_volume   157.12666885
_cell_formula_units_Z   2
loop_
 _symmetry_equiv_pos_site_id
 _symmetry_equiv_pos_as_xyz
  1  'x, y, z'
loop_
 _atom_site_type_symbol
 _atom_site_label
 _atom_site_symmetry_multiplicity
 _atom_site_fract_x
 _atom_site_fract_y
 _atom_site_fract_z
 _atom_site_occupancy
  Pr  Pr0  1  -0.00000000  0.00000000  0.50000000  1
  Pr  Pr1  1  -0.00000000  0.00000000  0.00000000  1
  Sn  Sn2  1  0.66661780  0.33338220  0.25000000  1
  Sn  Sn3  1  0.33338220  0.66661780  0.75000000  1
  Au  Au4  1  0.66660116  0.33339884  0.75000000  1
  Au  Au5  1  0.33339884  0.66660116  0.25000000  1
