# generated using pymatgen
data_SrCaMn2O5
_symmetry_space_group_name_H-M   'P 1'
_cell_length_a   11.04211542
_cell_length_b   11.16680632
_cell_length_c   17.58989305
_cell_angle_alpha   108.49793581
_cell_angle_beta   108.40463099
_cell_angle_gamma   90.01717615
_symmetry_Int_Tables_number   1
_chemical_formula_structural   SrCaMn2O5
_chemical_formula_sum   'Sr16 Ca16 Mn32 O80'
_cell_volume   1939.45595391
_cell_formula_units_Z   16
loop_
 _symmetry_equiv_pos_site_id
 _symmetry_equiv_pos_as_xyz
  1  'x, y, z'
loop_
 _atom_site_type_symbol
 _atom_site_label
 _atom_site_symmetry_multiplicity
 _atom_site_fract_x
 _atom_site_fract_y
 _atom_site_fract_z
 _atom_site_occupancy
  Sr  Sr0  1  0.30882984  0.55983388  0.61123090  1
  Sr  Sr1  1  0.80754471  0.05665886  0.60872069  1
  Sr  Sr2  1  0.81065508  0.55864500  0.61119077  1
  Sr  Sr3  1  0.19583148  0.43900138  0.38631785  1
  Sr  Sr4  1  0.20101386  0.44258632  0.89406885  1
  Sr  Sr5  1  0.69635319  0.43941282  0.38620770  1
  Sr  Sr6  1  0.69764268  0.93756445  0.38591164  1
  Sr  Sr7  1  0.70214596  0.94113749  0.89386932  1
  Sr  Sr8  1  0.06098195  0.29985643  0.61057862  1
  Sr  Sr9  1  0.06002743  0.80228560  0.60981128  1
  Sr  Sr10  1  0.55911369  0.30114721  0.61082574  1
  Sr  Sr11  1  0.55920933  0.80175675  0.60968699  1
  Sr  Sr12  1  0.44584474  0.19709477  0.38635632  1
  Sr  Sr13  1  0.45141263  0.20171431  0.89221745  1
  Sr  Sr14  1  0.94711885  0.19624159  0.38632188  1
  Sr  Sr15  1  0.95033997  0.20189940  0.89344761  1
  Ca  Ca16  1  0.30522176  0.06358414  0.10448982  1
  Ca  Ca17  1  0.30695337  0.05898439  0.60399026  1
  Ca  Ca18  1  0.30543826  0.56402981  0.10578673  1
  Ca  Ca19  1  0.80378738  0.06355327  0.10406395  1
  Ca  Ca20  1  0.80703586  0.56303508  0.10618865  1
  Ca  Ca21  1  0.20171104  0.93614592  0.39194417  1
  Ca  Ca22  1  0.20438489  0.93872681  0.89957041  1
  Ca  Ca23  1  0.70334850  0.43960464  0.90007426  1
  Ca  Ca24  1  0.05399189  0.29113194  0.10497090  1
  Ca  Ca25  1  0.05594469  0.79176159  0.10481623  1
  Ca  Ca26  1  0.55286252  0.29072094  0.10347600  1
  Ca  Ca27  1  0.55542198  0.79092499  0.10292486  1
  Ca  Ca28  1  0.44811416  0.70420617  0.39200365  1
  Ca  Ca29  1  0.45145278  0.70948713  0.89832417  1
  Ca  Ca30  1  0.95018968  0.70474238  0.39202702  1
  Ca  Ca31  1  0.95395756  0.71025691  0.89957848  1
  Mn  Mn32  1  0.00971046  0.00062287  0.00373104  1
  Mn  Mn33  1  0.00469996  0.99797162  0.49734250  1
  Mn  Mn34  1  0.00717481  0.50258421  0.00330690  1
  Mn  Mn35  1  0.00227760  0.49966710  0.49761451  1
  Mn  Mn36  1  0.50794603  0.00080498  0.00282234  1
  Mn  Mn37  1  0.50219223  0.99860800  0.49744133  1
  Mn  Mn38  1  0.50842198  0.50225901  0.00299707  1
  Mn  Mn39  1  0.50190416  0.49900446  0.49722725  1
  Mn  Mn40  1  0.25813987  0.25212541  0.00365901  1
  Mn  Mn41  1  0.25342203  0.24799614  0.49855726  1
  Mn  Mn42  1  0.25834302  0.75230195  0.00300776  1
  Mn  Mn43  1  0.25260026  0.74897925  0.49692939  1
  Mn  Mn44  1  0.75830126  0.25397230  0.00466523  1
  Mn  Mn45  1  0.75289849  0.24912565  0.49835644  1
  Mn  Mn46  1  0.75844719  0.74955872  0.00171918  1
  Mn  Mn47  1  0.75257536  0.74697331  0.49628335  1
  Mn  Mn48  1  0.10476885  0.08539122  0.24355814  1
  Mn  Mn49  1  0.11844203  0.09318132  0.75564506  1
  Mn  Mn50  1  0.10525447  0.59837308  0.24487176  1
  Mn  Mn51  1  0.11473424  0.60417315  0.75662237  1
  Mn  Mn52  1  0.60326180  0.08551217  0.24147798  1
  Mn  Mn53  1  0.60876558  0.09984160  0.75185247  1
  Mn  Mn54  1  0.60367211  0.59217710  0.24318814  1
  Mn  Mn55  1  0.61289082  0.59647566  0.75909517  1
  Mn  Mn56  1  0.35328519  0.40834084  0.24341984  1
  Mn  Mn57  1  0.36828600  0.40819104  0.75618537  1
  Mn  Mn58  1  0.35070873  0.89767726  0.24406720  1
  Mn  Mn59  1  0.35979007  0.90497737  0.75387247  1
  Mn  Mn60  1  0.85458459  0.40911410  0.24438688  1
  Mn  Mn61  1  0.86017967  0.41511982  0.75958535  1
  Mn  Mn62  1  0.85877893  0.89619019  0.24165908  1
  Mn  Mn63  1  0.86793791  0.90317783  0.75422620  1
  O  O64  1  0.12840438  0.11835043  0.49383051  1
  O  O65  1  0.12996340  0.12118433  0.99490241  1
  O  O66  1  0.12088391  0.62369499  0.48943806  1
  O  O67  1  0.12495539  0.62610157  0.99322885  1
  O  O68  1  0.62492029  0.12226624  0.49434323  1
  O  O69  1  0.62918977  0.12591981  0.99794151  1
  O  O70  1  0.62195940  0.62298731  0.49159207  1
  O  O71  1  0.62678691  0.62140698  0.99061709  1
  O  O72  1  0.13751758  0.38289979  0.01722665  1
  O  O73  1  0.12920462  0.37550870  0.50270930  1
  O  O74  1  0.13838072  0.88013645  0.01309233  1
  O  O75  1  0.13095875  0.87609395  0.49903534  1
  O  O76  1  0.63940135  0.38456256  0.01669396  1
  O  O77  1  0.62842139  0.37547061  0.50084604  1
  O  O78  1  0.63645443  0.87799022  0.01345979  1
  O  O79  1  0.62526657  0.87106334  0.49747198  1
  O  O80  1  0.37143085  0.11616802  0.49174426  1
  O  O81  1  0.37521139  0.11781441  0.99337873  1
  O  O82  1  0.37577509  0.62396843  0.49272972  1
  O  O83  1  0.38011467  0.62447595  0.99395488  1
  O  O84  1  0.87756203  0.12159829  0.49666603  1
  O  O85  1  0.87967239  0.12249158  0.99746553  1
  O  O86  1  0.87525111  0.62232768  0.49186564  1
  O  O87  1  0.87555364  0.61843821  0.98991466  1
  O  O88  1  0.38766468  0.38553898  0.01556001  1
  O  O89  1  0.37850969  0.37616993  0.50192433  1
  O  O90  1  0.38777552  0.88355476  0.01424602  1
  O  O91  1  0.37787687  0.87850322  0.50273865  1
  O  O92  1  0.88534060  0.38573027  0.01416873  1
  O  O93  1  0.87840724  0.37572768  0.50125733  1
  O  O94  1  0.88990895  0.88199483  0.01504950  1
  O  O95  1  0.88050349  0.87333225  0.49898525  1
  O  O96  1  0.08686658  0.09009976  0.13335900  1
  O  O97  1  0.08707074  0.07488864  0.64028153  1
  O  O98  1  0.07517476  0.59608866  0.13114260  1
  O  O99  1  0.07176598  0.58350391  0.63892558  1
  O  O100  1  0.58005516  0.09232503  0.13153669  1
  O  O101  1  0.57459757  0.07850189  0.63526825  1
  O  O102  1  0.57822806  0.59606942  0.13172952  1
  O  O103  1  0.57636382  0.57985696  0.64341548  1
  O  O104  1  0.42967820  0.41765849  0.35687393  1
  O  O105  1  0.44900775  0.41543603  0.87328128  1
  O  O106  1  0.43198161  0.91325676  0.35895238  1
  O  O107  1  0.44904238  0.91337673  0.87025514  1
  O  O108  1  0.93082108  0.41720285  0.35762650  1
  O  O109  1  0.94563661  0.41502744  0.87267603  1
  O  O110  1  0.93749247  0.91442064  0.35747768  1
  O  O111  1  0.94954628  0.91092096  0.87173786  1
  O  O112  1  0.33425915  0.29120157  0.13328642  1
  O  O113  1  0.32963135  0.30134129  0.63938430  1
  O  O114  1  0.32531134  0.78681190  0.13145922  1
  O  O115  1  0.31945886  0.80372850  0.63835832  1
  O  O116  1  0.83627134  0.29362334  0.13455461  1
  O  O117  1  0.82585980  0.31579351  0.64435180  1
  O  O118  1  0.83148133  0.78357494  0.12924179  1
  O  O119  1  0.82420537  0.80651358  0.63666578  1
  O  O120  1  0.18109132  0.18888225  0.35721328  1
  O  O121  1  0.19450177  0.20617886  0.87061344  1
  O  O122  1  0.19125316  0.69773006  0.35965622  1
  O  O123  1  0.20319008  0.71281409  0.87296090  1
  O  O124  1  0.68166116  0.18337684  0.35622021  1
  O  O125  1  0.68852185  0.20922189  0.87004982  1
  O  O126  1  0.69007816  0.68726735  0.35752997  1
  O  O127  1  0.70283012  0.70725601  0.87200091  1
  O  O128  1  0.42460847  0.05852105  0.23808266  1
  O  O129  1  0.42675693  0.06611089  0.74516036  1
  O  O130  1  0.42626219  0.57788894  0.24627198  1
  O  O131  1  0.43869476  0.58308944  0.76216266  1
  O  O132  1  0.92599945  0.06202081  0.23691982  1
  O  O133  1  0.94276827  0.06721459  0.75255163  1
  O  O134  1  0.92661471  0.57740976  0.24748224  1
  O  O135  1  0.93690938  0.57968931  0.76373725  1
  O  O136  1  0.17400205  0.42830490  0.23796068  1
  O  O137  1  0.19040657  0.44183785  0.75384373  1
  O  O138  1  0.17368901  0.91740385  0.24583981  1
  O  O139  1  0.18696588  0.92719497  0.76256467  1
  O  O140  1  0.67301166  0.42407169  0.23670990  1
  O  O141  1  0.68290609  0.43012972  0.76275030  1
  O  O142  1  0.67934631  0.92155558  0.23720648  1
  O  O143  1  0.69261860  0.94193373  0.75422381  1
