# generated using pymatgen
data_Sr2Ca2Fe3CoO12
_symmetry_space_group_name_H-M   'P 1'
_cell_length_a   7.74956687
_cell_length_b   7.73024905
_cell_length_c   7.69490177
_cell_angle_alpha   90.14447615
_cell_angle_beta   90.00000000
_cell_angle_gamma   90.00000000
_symmetry_Int_Tables_number   1
_chemical_formula_structural   Sr2Ca2Fe3CoO12
_chemical_formula_sum   'Sr4 Ca4 Fe6 Co2 O24'
_cell_volume   460.96995039
_cell_formula_units_Z   2
loop_
 _symmetry_equiv_pos_site_id
 _symmetry_equiv_pos_as_xyz
  1  'x, y, z'
loop_
 _atom_site_type_symbol
 _atom_site_label
 _atom_site_symmetry_multiplicity
 _atom_site_fract_x
 _atom_site_fract_y
 _atom_site_fract_z
 _atom_site_occupancy
  Sr  Sr0  1  0.25000000  0.25153757  0.25254269  1
  Sr  Sr1  1  0.25000000  0.25171262  0.74733139  1
  Sr  Sr2  1  0.75000000  0.25160606  0.74726345  1
  Sr  Sr3  1  0.75000000  0.74841351  0.25269698  1
  Ca  Ca4  1  0.25000000  0.74866424  0.25295376  1
  Ca  Ca5  1  0.25000000  0.74870951  0.74715023  1
  Ca  Ca6  1  0.75000000  0.25133444  0.25274565  1
  Ca  Ca7  1  0.75000000  0.74867034  0.74732291  1
  Fe  Fe8  1  0.99993724  0.99866927  0.00001055  1
  Fe  Fe9  1  0.99998050  0.99824237  0.49997799  1
  Fe  Fe10  1  0.99993943  0.50123864  -0.00002457  1
  Fe  Fe11  1  0.50006276  0.99866927  0.00001055  1
  Fe  Fe12  1  0.50001950  0.99824237  0.49997799  1
  Fe  Fe13  1  0.50006057  0.50123864  -0.00002457  1
  Co  Co14  1  0.99991123  0.50096022  0.49974631  1
  Co  Co15  1  0.50008877  0.50096022  0.49974631  1
  O  O16  1  0.25000000  0.99510948  0.00002862  1
  O  O17  1  0.25000000  0.99482584  0.49994758  1
  O  O18  1  0.25000000  0.50485959  0.00007674  1
  O  O19  1  0.25000000  0.50702121  0.50093130  1
  O  O20  1  0.75000000  0.99875235  0.99991739  1
  O  O21  1  0.75000000  0.99886568  0.50007710  1
  O  O22  1  0.75000000  0.50130736  0.99986414  1
  O  O23  1  0.75000000  0.50093145  0.49994143  1
  O  O24  1  0.99813136  0.25153883  0.00225866  1
  O  O25  1  0.99778154  0.25451177  0.49884820  1
  O  O26  1  0.00167974  0.74844653  0.99791083  1
  O  O27  1  0.00206583  0.74553827  0.50097568  1
  O  O28  1  0.50186864  0.25153883  0.00225866  1
  O  O29  1  0.50221846  0.25451177  0.49884820  1
  O  O30  1  0.49832026  0.74844653  0.99791083  1
  O  O31  1  0.49793417  0.74553827  0.50097568  1
  O  O32  1  0.00007535  0.99904566  0.25058963  1
  O  O33  1  0.99994036  0.99492593  0.74941378  1
  O  O34  1  0.00009395  0.50196903  0.25838205  1
  O  O35  1  0.99991283  0.50375287  0.74151521  1
  O  O36  1  0.49992465  0.99904566  0.25058963  1
  O  O37  1  0.50005964  0.99492593  0.74941378  1
  O  O38  1  0.49990605  0.50196903  0.25838205  1
  O  O39  1  0.50008717  0.50375287  0.74151521  1
