# generated using pymatgen
data_Sr6Ca2Fe3Co5O24
_symmetry_space_group_name_H-M   'P 1'
_cell_length_a   7.69044230
_cell_length_b   7.74635651
_cell_length_c   7.75600835
_cell_angle_alpha   90.00000000
_cell_angle_beta   89.97526346
_cell_angle_gamma   90.00000000
_symmetry_Int_Tables_number   1
_chemical_formula_structural   Sr6Ca2Fe3Co5O24
_chemical_formula_sum   'Sr6 Ca2 Fe3 Co5 O24'
_cell_volume   462.04792707
_cell_formula_units_Z   1
loop_
 _symmetry_equiv_pos_site_id
 _symmetry_equiv_pos_as_xyz
  1  'x, y, z'
loop_
 _atom_site_type_symbol
 _atom_site_label
 _atom_site_symmetry_multiplicity
 _atom_site_fract_x
 _atom_site_fract_y
 _atom_site_fract_z
 _atom_site_occupancy
  Sr  Sr0  1  0.25272029  0.24978189  0.24956032  1
  Sr  Sr1  1  0.25295250  0.24978652  0.75050394  1
  Sr  Sr2  1  0.25302499  0.75021615  0.75057106  1
  Sr  Sr3  1  0.74704750  0.24978652  0.24949606  1
  Sr  Sr4  1  0.74727971  0.24978189  0.75043968  1
  Sr  Sr5  1  0.74697501  0.75021615  0.24942894  1
  Ca  Ca6  1  0.25287725  0.75063406  0.24908207  1
  Ca  Ca7  1  0.74712275  0.75063406  0.75091793  1
  Fe  Fe8  1  -0.00000000  0.99877902  0.00000000  1
  Fe  Fe9  1  -0.00000000  0.99842869  0.50000000  1
  Fe  Fe10  1  -0.00000000  0.50113473  0.00000000  1
  Co  Co11  1  -0.00000000  0.50108131  0.50000000  1
  Co  Co12  1  0.50000000  0.99880916  0.00000000  1
  Co  Co13  1  0.50000000  0.99859271  0.50000000  1
  Co  Co14  1  0.50000000  0.50158633  0.00000000  1
  Co  Co15  1  0.50000000  0.50168986  0.50000000  1
  O  O16  1  0.26098106  0.99722311  0.00170051  1
  O  O17  1  0.25169004  0.99681851  0.49777468  1
  O  O18  1  0.25184435  0.50335659  0.00171641  1
  O  O19  1  0.26121026  0.50309719  0.49781212  1
  O  O20  1  0.73901894  0.99722311  0.99829949  1
  O  O21  1  0.74830996  0.99681851  0.50222532  1
  O  O22  1  0.74815565  0.50335659  0.99828359  1
  O  O23  1  0.73878974  0.50309719  0.50218788  1
  O  O24  1  -0.00000000  0.24764620  0.00000000  1
  O  O25  1  -0.00000000  0.25720640  0.50000000  1
  O  O26  1  -0.00000000  0.75230004  0.00000000  1
  O  O27  1  -0.00000000  0.74257932  0.50000000  1
  O  O28  1  0.50000000  0.25087476  0.00000000  1
  O  O29  1  0.50000000  0.23790997  0.50000000  1
  O  O30  1  0.50000000  0.74928630  0.00000000  1
  O  O31  1  0.50000000  0.76119291  0.50000000  1
  O  O32  1  0.00189991  0.99686149  0.24767546  1
  O  O33  1  0.99810009  0.99686149  0.75232454  1
  O  O34  1  0.00251786  0.50317541  0.25700810  1
  O  O35  1  0.99748214  0.50317541  0.74299190  1
  O  O36  1  0.49735596  0.99622939  0.25065286  1
  O  O37  1  0.50264404  0.99622939  0.74934714  1
  O  O38  1  0.49833554  0.50327082  0.23857873  1
  O  O39  1  0.50166446  0.50327082  0.76142127  1
