# generated using pymatgen
data_UGa3Ni
_symmetry_space_group_name_H-M   'P 1'
_cell_length_a   4.16394468
_cell_length_b   4.16394468
_cell_length_c   5.90200110
_cell_angle_alpha   110.65604309
_cell_angle_beta   110.65604309
_cell_angle_gamma   90.00000000
_symmetry_Int_Tables_number   1
_chemical_formula_structural   UGa3Ni
_chemical_formula_sum   'U1 Ga3 Ni1'
_cell_volume   88.68808267
_cell_formula_units_Z   1
loop_
 _symmetry_equiv_pos_site_id
 _symmetry_equiv_pos_as_xyz
  1  'x, y, z'
loop_
 _atom_site_type_symbol
 _atom_site_label
 _atom_site_symmetry_multiplicity
 _atom_site_fract_x
 _atom_site_fract_y
 _atom_site_fract_z
 _atom_site_occupancy
  U  U0  1  0.99429506  0.99429506  0.98859012  1
  Ga  Ga1  1  0.40963177  0.40963177  0.81926354  1
  Ga  Ga2  1  0.74610351  0.24610351  0.49220702  1
  Ga  Ga3  1  0.24610351  0.74610351  0.49220702  1
  Ni  Ni4  1  0.63386615  0.63386615  0.26773231  1
