# generated using pymatgen
data_CaV2(PO4)2
_symmetry_space_group_name_H-M   'P 1'
_cell_length_a   5.01069822
_cell_length_b   8.90887832
_cell_length_c   15.81383960
_cell_angle_alpha   85.23578346
_cell_angle_beta   80.88436540
_cell_angle_gamma   73.66700498
_symmetry_Int_Tables_number   1
_chemical_formula_structural   CaV2(PO4)2
_chemical_formula_sum   'Ca4 V8 P8 O32'
_cell_volume   668.32834262
_cell_formula_units_Z   4
loop_
 _symmetry_equiv_pos_site_id
 _symmetry_equiv_pos_as_xyz
  1  'x, y, z'
loop_
 _atom_site_type_symbol
 _atom_site_label
 _atom_site_symmetry_multiplicity
 _atom_site_fract_x
 _atom_site_fract_y
 _atom_site_fract_z
 _atom_site_occupancy
  Ca  Ca0  1  0.49414689  0.83702393  0.85011814  1
  Ca  Ca1  1  0.18128796  0.66297607  0.64988186  1
  Ca  Ca2  1  0.81871204  0.33702393  0.35011814  1
  Ca  Ca3  1  0.50585311  0.16297607  0.14988186  1
  V  V4  1  0.17481802  0.22945085  0.96188776  1
  V  V5  1  0.36615662  0.27054915  0.53811224  1
  V  V6  1  0.82518198  0.77054915  0.03811224  1
  V  V7  1  0.50000000  0.50000000  -0.00000000  1
  V  V8  1  0.63384338  0.72945085  0.46188776  1
  V  V9  1  0.69482063  0.75000000  0.25000000  1
  V  V10  1  0.30517937  0.25000000  0.75000000  1
  V  V11  1  0.00000000  -0.00000000  0.50000000  1
  P  P12  1  0.05459626  0.57379582  0.86748608  1
  P  P13  1  0.76931848  0.41151610  0.61345216  1
  P  P14  1  0.94540374  0.42620418  0.13251392  1
  P  P15  1  0.20571326  0.91151610  0.11345216  1
  P  P16  1  0.50412283  0.07379582  0.36748608  1
  P  P17  1  0.49587717  0.92620418  0.63251392  1
  P  P18  1  0.23068152  0.58848390  0.38654784  1
  P  P19  1  0.79428674  0.08848390  0.88654784  1
  O  O20  1  0.69497319  0.37834708  0.10722540  1
  O  O21  1  0.78674898  0.92849470  0.93186270  1
  O  O22  1  0.81945432  0.87834708  0.60722540  1
  O  O23  1  0.82301415  0.27599896  0.54957244  1
  O  O24  1  0.18969523  0.38723830  0.05493781  1
  O  O25  1  0.55436169  0.39971610  0.69235078  1
  O  O26  1  0.64858554  0.22400104  0.95042756  1
  O  O27  1  0.88990246  0.90960744  0.13850818  1
  O  O28  1  0.17698585  0.72400104  0.45042756  1
  O  O29  1  0.64710739  0.57150530  0.56813730  1
  O  O30  1  0.86600246  0.60483457  0.14327350  1
  O  O31  1  0.59844365  0.16658188  0.28810126  1
  O  O32  1  0.21325002  0.07150530  0.06813730  1
  O  O33  1  0.06198392  0.40960744  0.63850818  1
  O  O34  1  0.30502581  0.62165292  0.89277460  1
  O  O35  1  0.13399754  0.39516543  0.85672650  1
  O  O36  1  0.94687320  0.66658188  0.78810127  1
  O  O37  1  0.35141446  0.77599896  0.04957244  1
  O  O38  1  0.38588947  0.10483457  0.64327350  1
  O  O39  1  0.40155635  0.83341812  0.71189874  1
  O  O40  1  0.93801608  0.59039256  0.36149182  1
  O  O41  1  0.36812766  0.88723830  0.55493781  1
  O  O42  1  0.11009754  0.09039256  0.86149182  1
  O  O43  1  0.35357043  0.89971610  0.19235078  1
  O  O44  1  0.35289261  0.42849470  0.43186270  1
  O  O45  1  0.18054568  0.12165292  0.39277460  1
  O  O46  1  0.05312680  0.33341812  0.21189873  1
  O  O47  1  0.63187234  0.11276170  0.44506219  1
  O  O48  1  0.81030477  0.61276170  0.94506219  1
  O  O49  1  0.64642957  0.10028390  0.80764922  1
  O  O50  1  0.44563831  0.60028390  0.30764922  1
  O  O51  1  0.61411053  0.89516543  0.35672650  1
