# generated using pymatgen
data_Ti3Se4
_symmetry_space_group_name_H-M   'P 1'
_cell_length_a   3.53482929
_cell_length_b   6.51646171
_cell_length_c   7.03907441
_cell_angle_alpha   117.06184374
_cell_angle_beta   104.54180337
_cell_angle_gamma   90.00000000
_symmetry_Int_Tables_number   1
_chemical_formula_structural   Ti3Se4
_chemical_formula_sum   'Ti3 Se4'
_cell_volume   138.53185713
_cell_formula_units_Z   1
loop_
 _symmetry_equiv_pos_site_id
 _symmetry_equiv_pos_as_xyz
  1  'x, y, z'
loop_
 _atom_site_type_symbol
 _atom_site_label
 _atom_site_symmetry_multiplicity
 _atom_site_fract_x
 _atom_site_fract_y
 _atom_site_fract_z
 _atom_site_occupancy
  Ti  Ti0  1  0.00000000  -0.00000000  -0.00000000  1
  Ti  Ti1  1  0.74864990  0.70286449  0.49729979  1
  Ti  Ti2  1  0.25135010  0.29713551  0.50270021  1
  Se  Se3  1  0.63415766  0.96550365  0.26831533  1
  Se  Se4  1  0.36584234  0.03449635  0.73168467  1
  Se  Se5  1  0.88994004  0.55366077  0.77988008  1
  Se  Se6  1  0.11005996  0.44633923  0.22011992  1
