# generated using pymatgen
data_Sr6Ca2Mn5(FeO8)3
_symmetry_space_group_name_H-M   'P 1'
_cell_length_a   7.80028367
_cell_length_b   7.75153003
_cell_length_c   7.75680486
_cell_angle_alpha   90.00000000
_cell_angle_beta   90.00082794
_cell_angle_gamma   90.00000000
_symmetry_Int_Tables_number   1
_chemical_formula_structural   Sr6Ca2Mn5(FeO8)3
_chemical_formula_sum   'Sr6 Ca2 Mn5 Fe3 O24'
_cell_volume   469.00848154
_cell_formula_units_Z   1
loop_
 _symmetry_equiv_pos_site_id
 _symmetry_equiv_pos_as_xyz
  1  'x, y, z'
loop_
 _atom_site_type_symbol
 _atom_site_label
 _atom_site_symmetry_multiplicity
 _atom_site_fract_x
 _atom_site_fract_y
 _atom_site_fract_z
 _atom_site_occupancy
  Sr  Sr0  1  0.25100576  0.25062238  0.25048144  1
  Sr  Sr1  1  0.25096417  0.25052251  0.74950247  1
  Sr  Sr2  1  0.25108865  0.74947629  0.74941175  1
  Sr  Sr3  1  0.74903583  0.25052251  0.25049753  1
  Sr  Sr4  1  0.74899424  0.25062238  0.74951856  1
  Sr  Sr5  1  0.74891135  0.74947629  0.25058825  1
  Ca  Ca6  1  0.25141517  0.74918632  0.25077121  1
  Ca  Ca7  1  0.74858483  0.74918632  0.74922879  1
  Mn  Mn8  1  -0.00000000  0.50138122  0.50000000  1
  Mn  Mn9  1  0.50000000  0.99876936  0.00000000  1
  Mn  Mn10  1  0.50000000  0.99843944  0.50000000  1
  Mn  Mn11  1  0.50000000  0.50143868  0.00000000  1
  Mn  Mn12  1  0.50000000  0.50127084  0.50000000  1
  Fe  Fe13  1  -0.00000000  0.99853790  -0.00000000  1
  Fe  Fe14  1  -0.00000000  0.99847401  0.50000000  1
  Fe  Fe15  1  -0.00000000  0.50132625  0.00000000  1
  O  O16  1  0.25273527  0.99643742  0.00223959  1
  O  O17  1  0.25452121  0.99661905  0.49782187  1
  O  O18  1  0.25450696  0.50340101  0.00218264  1
  O  O19  1  0.25075661  0.50372740  0.49723238  1
  O  O20  1  0.74726473  0.99643742  0.99776041  1
  O  O21  1  0.74547879  0.99661905  0.50217813  1
  O  O22  1  0.74549304  0.50340101  0.99781736  1
  O  O23  1  0.74924339  0.50372740  0.50276762  1
  O  O24  1  -0.00000000  0.24810324  0.00000000  1
  O  O25  1  -0.00000000  0.25281649  0.50000000  1
  O  O26  1  -0.00000000  0.75174890  -0.00000000  1
  O  O27  1  -0.00000000  0.74702094  0.50000000  1
  O  O28  1  0.50000000  0.24969388  -0.00000000  1
  O  O29  1  0.50000000  0.25047370  0.50000000  1
  O  O30  1  0.50000000  0.75035839  -0.00000000  1
  O  O31  1  0.50000000  0.74963113  0.50000000  1
  O  O32  1  0.00200914  0.99673599  0.24814331  1
  O  O33  1  0.99799086  0.99673599  0.75185669  1
  O  O34  1  0.00210090  0.50339178  0.25287651  1
  O  O35  1  0.99789910  0.50339178  0.74712349  1
  O  O36  1  0.49732138  0.99648447  0.24966397  1
  O  O37  1  0.50267862  0.99648447  0.75033603  1
  O  O38  1  0.49712586  0.50365318  0.25042637  1
  O  O39  1  0.50287414  0.50365318  0.74957363  1
