# generated using pymatgen
data_CeAlH2Ir
_symmetry_space_group_name_H-M   'P 1'
_cell_length_a   4.36224434
_cell_length_b   4.36224434
_cell_length_c   8.28796403
_cell_angle_alpha   90.00000000
_cell_angle_beta   90.00000000
_cell_angle_gamma   119.99884375
_symmetry_Int_Tables_number   1
_chemical_formula_structural   CeAlH2Ir
_chemical_formula_sum   'Ce2 Al2 H4 Ir2'
_cell_volume   136.58516301
_cell_formula_units_Z   2
loop_
 _symmetry_equiv_pos_site_id
 _symmetry_equiv_pos_as_xyz
  1  'x, y, z'
loop_
 _atom_site_type_symbol
 _atom_site_label
 _atom_site_symmetry_multiplicity
 _atom_site_fract_x
 _atom_site_fract_y
 _atom_site_fract_z
 _atom_site_occupancy
  Ce  Ce0  1  -0.00000000  0.00000000  0.50000000  1
  Ce  Ce1  1  -0.00000000  0.00000000  0.00000000  1
  Al  Al2  1  0.66665967  0.33334033  0.25000000  1
  Al  Al3  1  0.33334033  0.66665967  0.75000000  1
  H  H4  1  0.66668246  0.33331754  0.95504468  1
  H  H5  1  0.33331754  0.66668246  0.04495532  1
  H  H6  1  0.33331754  0.66668246  0.45504468  1
  H  H7  1  0.66668246  0.33331754  0.54495532  1
  Ir  Ir8  1  0.66667080  0.33332920  0.75000000  1
  Ir  Ir9  1  0.33332920  0.66667080  0.25000000  1
