# generated using pymatgen
data_MnAsPd
_symmetry_space_group_name_H-M   'P 1'
_cell_length_a   3.75152647
_cell_length_b   6.67435794
_cell_length_c   6.67414397
_cell_angle_alpha   120.00106312
_cell_angle_beta   90.00000000
_cell_angle_gamma   90.00000000
_symmetry_Int_Tables_number   1
_chemical_formula_structural   MnAsPd
_chemical_formula_sum   'Mn3 As3 Pd3'
_cell_volume   144.72350070
_cell_formula_units_Z   3
loop_
 _symmetry_equiv_pos_site_id
 _symmetry_equiv_pos_as_xyz
  1  'x, y, z'
loop_
 _atom_site_type_symbol
 _atom_site_label
 _atom_site_symmetry_multiplicity
 _atom_site_fract_x
 _atom_site_fract_y
 _atom_site_fract_z
 _atom_site_occupancy
  Mn  Mn0  1  0.50000000  0.59204398  1.00000000  1
  Mn  Mn1  1  0.50000000  0.40782442  0.40783900  1
  Mn  Mn2  1  0.50000000  0.99998542  0.59216100  1
  As  As3  1  -0.00000000  0.33331324  0.66661549  1
  As  As4  1  -0.00000000  0.66669776  0.33338451  1
  As  As5  1  0.50000000  0.00003789  0.00000000  1
  Pd  Pd6  1  -0.00000000  0.26175421  1.00000000  1
  Pd  Pd7  1  -0.00000000  0.73827597  0.73830886  1
  Pd  Pd8  1  0.00000000  -0.00003289  0.26169114  1
