# generated using pymatgen
data_CeAlAu
_symmetry_space_group_name_H-M   'P 1'
_cell_length_a   4.53902614
_cell_length_b   4.53902614
_cell_length_c   7.58562412
_cell_angle_alpha   90.00000000
_cell_angle_beta   90.00000000
_cell_angle_gamma   119.99863508
_symmetry_Int_Tables_number   1
_chemical_formula_structural   CeAlAu
_chemical_formula_sum   'Ce2 Al2 Au2'
_cell_volume   135.34845126
_cell_formula_units_Z   2
loop_
 _symmetry_equiv_pos_site_id
 _symmetry_equiv_pos_as_xyz
  1  'x, y, z'
loop_
 _atom_site_type_symbol
 _atom_site_label
 _atom_site_symmetry_multiplicity
 _atom_site_fract_x
 _atom_site_fract_y
 _atom_site_fract_z
 _atom_site_occupancy
  Ce  Ce0  1  -0.00000000  0.00000000  0.50000000  1
  Ce  Ce1  1  -0.00000000  0.00000000  0.00000000  1
  Al  Al2  1  0.66667067  0.33332933  0.25000000  1
  Al  Al3  1  0.33332933  0.66667067  0.75000000  1
  Au  Au4  1  0.66668372  0.33331628  0.75000000  1
  Au  Au5  1  0.33331628  0.66668372  0.25000000  1
