# generated using pymatgen
data_ErSi2
_symmetry_space_group_name_H-M   'P 1'
_cell_length_a   3.93583521
_cell_length_b   3.93583521
_cell_length_c   7.86819491
_cell_angle_alpha   104.48404687
_cell_angle_beta   104.48404687
_cell_angle_gamma   90.00000000
_symmetry_Int_Tables_number   1
_chemical_formula_structural   ErSi2
_chemical_formula_sum   'Er2 Si4'
_cell_volume   114.00542991
_cell_formula_units_Z   2
loop_
 _symmetry_equiv_pos_site_id
 _symmetry_equiv_pos_as_xyz
  1  'x, y, z'
loop_
 _atom_site_type_symbol
 _atom_site_label
 _atom_site_symmetry_multiplicity
 _atom_site_fract_x
 _atom_site_fract_y
 _atom_site_fract_z
 _atom_site_occupancy
  Er  Er0  1  0.25000000  0.75000000  0.50000000  1
  Er  Er1  1  0.00000000  0.00000000  0.00000000  1
  Si  Si2  1  0.66795298  0.16795298  0.33590597  1
  Si  Si3  1  0.58204702  0.58204702  0.16409403  1
  Si  Si4  1  0.83204702  0.33204702  0.66409403  1
  Si  Si5  1  0.41795298  0.41795298  0.83590597  1
