# generated using pymatgen
data_Fe(RhSe2)2
_symmetry_space_group_name_H-M   'P 1'
_cell_length_a   3.73969269
_cell_length_b   6.48217278
_cell_length_c   6.53223226
_cell_angle_alpha   119.17169996
_cell_angle_beta   106.63353878
_cell_angle_gamma   89.99999976
_symmetry_Int_Tables_number   1
_chemical_formula_structural   Fe(RhSe2)2
_chemical_formula_sum   'Fe1 Rh2 Se4'
_cell_volume   130.62436161
_cell_formula_units_Z   1
loop_
 _symmetry_equiv_pos_site_id
 _symmetry_equiv_pos_as_xyz
  1  'x, y, z'
loop_
 _atom_site_type_symbol
 _atom_site_label
 _atom_site_symmetry_multiplicity
 _atom_site_fract_x
 _atom_site_fract_y
 _atom_site_fract_z
 _atom_site_occupancy
  Fe  Fe0  1  -0.00000000  0.00000000  0.00000000  1
  Rh  Rh1  1  0.73725742  0.71986998  0.47451484  1
  Rh  Rh2  1  0.26274258  0.28013002  0.52548516  1
  Se  Se3  1  0.63345715  0.97528017  0.26691431  1
  Se  Se4  1  0.36654285  0.02471983  0.73308569  1
  Se  Se5  1  0.88119212  0.55420888  0.76238423  1
  Se  Se6  1  0.11880788  0.44579112  0.23761577  1
