# generated using pymatgen
data_AsCS3N2F11
_symmetry_space_group_name_H-M   'P 1'
_cell_length_a   6.31898398
_cell_length_b   7.22139981
_cell_length_c   13.37401924
_cell_angle_alpha   95.59998719
_cell_angle_beta   96.66692475
_cell_angle_gamma   104.08669866
_symmetry_Int_Tables_number   1
_chemical_formula_structural   AsCS3N2F11
_chemical_formula_sum   'As2 C2 S6 N4 F22'
_cell_volume   582.88983685
_cell_formula_units_Z   2
loop_
 _symmetry_equiv_pos_site_id
 _symmetry_equiv_pos_as_xyz
  1  'x, y, z'
loop_
 _atom_site_type_symbol
 _atom_site_label
 _atom_site_symmetry_multiplicity
 _atom_site_fract_x
 _atom_site_fract_y
 _atom_site_fract_z
 _atom_site_occupancy
  As  As0  1  0.48267717  0.75734041  0.83020750  1
  As  As1  1  0.51732283  0.24265959  0.16979250  1
  C  C2  1  0.07187008  0.75870375  0.27071720  1
  C  C3  1  0.92812992  0.24129625  0.72928280  1
  S  S4  1  0.18676917  0.74949275  0.40322239  1
  S  S5  1  0.81323083  0.25050725  0.59677761  1
  S  S6  1  0.87383806  0.85416289  0.12602389  1
  S  S7  1  0.88084915  0.38975060  0.83065591  1
  S  S8  1  0.12616194  0.14583711  0.87397611  1
  S  S9  1  0.11915085  0.61024940  0.16934409  1
  N  N10  1  0.98446072  0.69148961  0.08327724  1
  N  N11  1  0.04830073  0.12528723  0.75278961  1
  N  N12  1  0.01553928  0.30851039  0.91672276  1
  N  N13  1  0.95169927  0.87471277  0.24721039  1
  F  F14  1  0.25474441  0.20867149  0.09353966  1
  F  F15  1  0.35881272  0.76023056  0.94230904  1
  F  F16  1  0.52840166  0.01232686  0.83681991  1
  F  F17  1  0.22152462  0.72454642  0.75696616  1
  F  F18  1  0.17074991  0.52350652  0.37327872  1
  F  F19  1  0.94136026  0.69499653  0.43278325  1
  F  F20  1  0.74525559  0.79132851  0.90646034  1
  F  F21  1  0.47159834  0.98767314  0.16318009  1
  F  F22  1  0.38858996  0.24650127  0.27946933  1
  F  F23  1  0.79446153  0.02628205  0.56715024  1
  F  F24  1  0.77847538  0.27545358  0.24303384  1
  F  F25  1  0.56753090  0.19785722  0.62774120  1
  F  F26  1  0.82925009  0.47649348  0.62672128  1
  F  F27  1  0.28651246  0.73654411  0.51616702  1
  F  F28  1  0.64118728  0.23976944  0.05769096  1
  F  F29  1  0.43246910  0.80214278  0.37225880  1
  F  F30  1  0.56040303  0.49778938  0.17553441  1
  F  F31  1  0.61141004  0.75349873  0.72053067  1
  F  F32  1  0.20553847  0.97371795  0.43284976  1
  F  F33  1  0.71348754  0.26345589  0.48383298  1
  F  F34  1  0.43959697  0.50221062  0.82446559  1
  F  F35  1  0.05863974  0.30500347  0.56721675  1
