# generated using pymatgen
data_La5Mg
_symmetry_space_group_name_H-M   'P 1'
_cell_length_a   6.40903260
_cell_length_b   6.40903245
_cell_length_c   17.58346886
_cell_angle_alpha   90.00000000
_cell_angle_beta   90.00000000
_cell_angle_gamma   120.00000078
_symmetry_Int_Tables_number   1
_chemical_formula_structural   La5Mg
_chemical_formula_sum   'La15 Mg3'
_cell_volume   625.48966172
_cell_formula_units_Z   3
loop_
 _symmetry_equiv_pos_site_id
 _symmetry_equiv_pos_as_xyz
  1  'x, y, z'
loop_
 _atom_site_type_symbol
 _atom_site_label
 _atom_site_symmetry_multiplicity
 _atom_site_fract_x
 _atom_site_fract_y
 _atom_site_fract_z
 _atom_site_occupancy
  La  La0  1  0.65752974  0.65752974  0.00000000  1
  La  La1  1  0.00000000  0.00000000  0.16804827  1
  La  La2  1  0.00000000  0.34247026  -0.00000000  1
  La  La3  1  0.34247026  0.00000000  -0.00000000  1
  La  La4  1  0.66666700  0.33333300  0.16528573  1
  La  La5  1  0.32419574  0.99086274  0.33333300  1
  La  La6  1  0.66666700  0.33333300  0.50138127  1
  La  La7  1  0.66666700  0.67580426  0.33333300  1
  La  La8  1  0.00913726  0.33333300  0.33333300  1
  La  La9  1  0.33333300  0.66666700  0.49861873  1
  La  La10  1  0.99086274  0.32419574  0.66666700  1
  La  La11  1  0.33333300  0.66666700  0.83471427  1
  La  La12  1  0.33333300  0.00913726  0.66666700  1
  La  La13  1  0.67580426  0.66666700  0.66666700  1
  La  La14  1  0.00000000  0.00000000  0.83195173  1
  Mg  Mg15  1  0.33333300  0.66666700  0.16666700  1
  Mg  Mg16  1  0.00000000  0.00000000  0.50000000  1
  Mg  Mg17  1  0.66666700  0.33333300  0.83333300  1
