# generated using pymatgen
data_Er2CuGe6
_symmetry_space_group_name_H-M   'P 1'
_cell_length_a   4.08374749
_cell_length_b   4.05014850
_cell_length_c   10.83879004
_cell_angle_alpha   100.76818370
_cell_angle_beta   90.00000000
_cell_angle_gamma   90.00000000
_symmetry_Int_Tables_number   1
_chemical_formula_structural   Er2CuGe6
_chemical_formula_sum   'Er2 Cu1 Ge6'
_cell_volume   176.11448346
_cell_formula_units_Z   1
loop_
 _symmetry_equiv_pos_site_id
 _symmetry_equiv_pos_as_xyz
  1  'x, y, z'
loop_
 _atom_site_type_symbol
 _atom_site_label
 _atom_site_symmetry_multiplicity
 _atom_site_fract_x
 _atom_site_fract_y
 _atom_site_fract_z
 _atom_site_occupancy
  Er  Er0  1  0.00000000  0.00501390  0.01002781  1
  Er  Er1  1  0.00000000  0.66882308  0.33764616  1
  Cu  Cu2  1  0.50000000  0.22414323  0.44828646  1
  Ge  Ge3  1  0.00000000  0.28533237  0.57066474  1
  Ge  Ge4  1  0.00000000  0.40237129  0.80474258  1
  Ge  Ge5  1  0.50000000  0.54177915  0.08355831  1
  Ge  Ge6  1  0.50000000  0.11542556  0.23085113  1
  Ge  Ge7  1  0.50000000  0.90305059  0.80610119  1
  Ge  Ge8  1  0.50000000  0.78506082  0.57012164  1
