# generated using pymatgen
data_Y5Mg
_symmetry_space_group_name_H-M   'P 1'
_cell_length_a   5.63297006
_cell_length_b   3.59045488
_cell_length_c   18.59357689
_cell_angle_alpha   90.00000000
_cell_angle_beta   90.00000000
_cell_angle_gamma   90.00000000
_symmetry_Int_Tables_number   1
_chemical_formula_structural   Y5Mg
_chemical_formula_sum   'Y10 Mg2'
_cell_volume   376.05369512
_cell_formula_units_Z   2
loop_
 _symmetry_equiv_pos_site_id
 _symmetry_equiv_pos_as_xyz
  1  'x, y, z'
loop_
 _atom_site_type_symbol
 _atom_site_label
 _atom_site_symmetry_multiplicity
 _atom_site_fract_x
 _atom_site_fract_y
 _atom_site_fract_z
 _atom_site_occupancy
  Y  Y0  1  -0.00000000  0.00000000  0.99999330  1
  Y  Y1  1  -0.00000000  0.00000000  0.66972773  1
  Y  Y2  1  -0.00000000  0.50000000  0.83232025  1
  Y  Y3  1  0.50000000  0.00000000  0.88699790  1
  Y  Y4  1  0.50000000  -0.00000000  0.55479587  1
  Y  Y5  1  -0.00000000  0.50000000  0.49999330  1
  Y  Y6  1  0.00000000  0.50000000  0.16972773  1
  Y  Y7  1  -0.00000000  -0.00000000  0.33232025  1
  Y  Y8  1  0.50000000  0.50000000  0.38699790  1
  Y  Y9  1  0.50000000  0.50000000  0.05479587  1
  Mg  Mg10  1  0.50000000  0.50000000  0.72283196  1
  Mg  Mg11  1  0.50000000  -0.00000000  0.22283196  1
