# generated using pymatgen
data_CeSe2
_symmetry_space_group_name_H-M   'P 1'
_cell_length_a   7.09232686
_cell_length_b   6.96464037
_cell_length_c   7.10560686
_cell_angle_alpha   102.53606225
_cell_angle_beta   90.00000000
_cell_angle_gamma   90.00000000
_symmetry_Int_Tables_number   1
_chemical_formula_structural   CeSe2
_chemical_formula_sum   'Ce4 Se8'
_cell_volume   342.61741711
_cell_formula_units_Z   4
loop_
 _symmetry_equiv_pos_site_id
 _symmetry_equiv_pos_as_xyz
  1  'x, y, z'
loop_
 _atom_site_type_symbol
 _atom_site_label
 _atom_site_symmetry_multiplicity
 _atom_site_fract_x
 _atom_site_fract_y
 _atom_site_fract_z
 _atom_site_occupancy
  Ce  Ce0  1  0.55207878  0.71199006  0.30324540  1
  Ce  Ce1  1  0.05207878  0.28800994  0.19675460  1
  Ce  Ce2  1  0.44792122  0.28800994  0.69675460  1
  Ce  Ce3  1  0.94792122  0.71199006  0.80324540  1
  Se  Se4  1  0.83366792  0.94107507  0.16870819  1
  Se  Se5  1  0.33366792  0.05892493  0.33129181  1
  Se  Se6  1  0.16633208  0.05892493  0.83129181  1
  Se  Se7  1  0.66633208  0.94107507  0.66870819  1
  Se  Se8  1  0.25660530  0.56449351  0.01446620  1
  Se  Se9  1  0.75660530  0.43550649  0.48553380  1
  Se  Se10  1  0.74339470  0.43550649  0.98553380  1
  Se  Se11  1  0.24339470  0.56449351  0.51446620  1
