# generated using pymatgen
data_Mg5Zn
_symmetry_space_group_name_H-M   'P 1'
_cell_length_a   11.48529948
_cell_length_b   3.16130891
_cell_length_c   7.26085218
_cell_angle_alpha   90.00000000
_cell_angle_beta   104.15022715
_cell_angle_gamma   90.00000000
_symmetry_Int_Tables_number   1
_chemical_formula_structural   Mg5Zn
_chemical_formula_sum   'Mg10 Zn2'
_cell_volume   255.63215211
_cell_formula_units_Z   2
loop_
 _symmetry_equiv_pos_site_id
 _symmetry_equiv_pos_as_xyz
  1  'x, y, z'
loop_
 _atom_site_type_symbol
 _atom_site_label
 _atom_site_symmetry_multiplicity
 _atom_site_fract_x
 _atom_site_fract_y
 _atom_site_fract_z
 _atom_site_occupancy
  Mg  Mg0  1  0.99679424  0.00000000  0.00797711  1
  Mg  Mg1  1  0.17104462  0.50000000  0.33143599  1
  Mg  Mg2  1  0.05075147  0.00000000  0.60068256  1
  Mg  Mg3  1  0.33327481  -0.00000000  0.66331343  1
  Mg  Mg4  1  0.22505360  0.50000000  0.95100309  1
  Mg  Mg5  1  0.49679424  0.50000000  0.00797711  1
  Mg  Mg6  1  0.67104462  -0.00000000  0.33143599  1
  Mg  Mg7  1  0.55075147  0.50000000  0.60068256  1
  Mg  Mg8  1  0.83327481  0.50000000  0.66331343  1
  Mg  Mg9  1  0.72505360  -0.00000000  0.95100309  1
  Zn  Zn10  1  0.38974827  -0.00000000  0.27892083  1
  Zn  Zn11  1  0.88974827  0.50000000  0.27892083  1
