# generated using pymatgen
data_C4O5F6
_symmetry_space_group_name_H-M   'P 1'
_cell_length_a   5.07103361
_cell_length_b   7.81374475
_cell_length_c   20.93472048
_cell_angle_alpha   90.00000000
_cell_angle_beta   96.44106790
_cell_angle_gamma   90.00000000
_symmetry_Int_Tables_number   1
_chemical_formula_structural   C4O5F6
_chemical_formula_sum   'C16 O20 F24'
_cell_volume   824.27631145
_cell_formula_units_Z   4
loop_
 _symmetry_equiv_pos_site_id
 _symmetry_equiv_pos_as_xyz
  1  'x, y, z'
loop_
 _atom_site_type_symbol
 _atom_site_label
 _atom_site_symmetry_multiplicity
 _atom_site_fract_x
 _atom_site_fract_y
 _atom_site_fract_z
 _atom_site_occupancy
  C  C0  1  0.24885235  0.18833578  0.74421018  1
  C  C1  1  0.96848551  0.24435834  0.14934141  1
  C  C2  1  0.67228172  0.24929186  0.45391145  1
  C  C3  1  0.47993306  0.78561620  0.15651913  1
  C  C4  1  0.32771828  0.74929186  0.04608855  1
  C  C5  1  0.03151449  0.74435834  0.35065859  1
  C  C6  1  0.32771828  0.75070814  0.54608855  1
  C  C7  1  0.75114765  0.68833578  0.75578982  1
  C  C8  1  0.75114765  0.81166422  0.25578982  1
  C  C9  1  0.52006694  0.21438380  0.84348087  1
  C  C10  1  0.96848551  0.25564166  0.64934141  1
  C  C11  1  0.52006694  0.28561620  0.34348087  1
  C  C12  1  0.24885235  0.31166422  0.24421018  1
  C  C13  1  0.03151449  0.75564166  0.85065859  1
  C  C14  1  0.47993306  0.71438380  0.65651913  1
  C  C15  1  0.67228172  0.25070814  0.95391145  1
  O  O16  1  0.93784956  0.70518483  0.28712083  1
  O  O17  1  0.93784956  0.79481517  0.78712083  1
  O  O18  1  0.28261440  0.85139112  0.17141600  1
  O  O19  1  0.70827193  0.74294305  0.19505056  1
  O  O20  1  0.34576953  0.43722233  0.22370489  1
  O  O21  1  0.71738560  0.35139112  0.32858400  1
  O  O22  1  0.71738560  0.14860888  0.82858400  1
  O  O23  1  0.28261440  0.64860888  0.67141600  1
  O  O24  1  0.29172807  0.24294305  0.30494944  1
  O  O25  1  0.34576953  0.06277767  0.72370489  1
  O  O26  1  0.52982948  0.73107399  0.09669706  1
  O  O27  1  0.47017052  0.23107399  0.40330294  1
  O  O28  1  0.47017052  0.26892601  0.90330294  1
  O  O29  1  0.65423047  0.93722233  0.27629511  1
  O  O30  1  0.29172807  0.25705695  0.80494944  1
  O  O31  1  0.65423047  0.56277767  0.77629511  1
  O  O32  1  0.70827193  0.75705695  0.69505056  1
  O  O33  1  0.06215044  0.29481517  0.71287917  1
  O  O34  1  0.52982948  0.76892601  0.59669706  1
  O  O35  1  0.06215044  0.20518483  0.21287917  1
  F  F36  1  0.15293703  0.89750908  0.35587248  1
  F  F37  1  0.83651729  0.74175673  0.38944189  1
  F  F38  1  0.16348271  0.25824327  0.61055811  1
  F  F39  1  0.11065012  0.65766860  0.05569757  1
  F  F40  1  0.79027576  0.37861273  0.63038732  1
  F  F41  1  0.57187596  0.31046671  0.00632976  1
  F  F42  1  0.79027576  0.12138727  0.13038732  1
  F  F43  1  0.25705094  0.91450931  0.03610615  1
  F  F44  1  0.88934988  0.34233140  0.94430243  1
  F  F45  1  0.83651729  0.75824327  0.88944189  1
  F  F46  1  0.57187596  0.18953329  0.50632976  1
  F  F47  1  0.16348271  0.24175673  0.11055811  1
  F  F48  1  0.20972424  0.62138727  0.36961268  1
  F  F49  1  0.84706297  0.39750908  0.14412752  1
  F  F50  1  0.42812404  0.68953329  0.99367024  1
  F  F51  1  0.84706297  0.10249092  0.64412752  1
  F  F52  1  0.74294906  0.41450931  0.46389385  1
  F  F53  1  0.42812404  0.81046671  0.49367024  1
  F  F54  1  0.15293703  0.60249092  0.85587248  1
  F  F55  1  0.20972424  0.87861273  0.86961268  1
  F  F56  1  0.74294906  0.08549069  0.96389385  1
  F  F57  1  0.25705094  0.58549069  0.53610615  1
  F  F58  1  0.88934988  0.15766860  0.44430243  1
  F  F59  1  0.11065012  0.84233140  0.55569757  1
