# generated using pymatgen
data_Fe7S8
_symmetry_space_group_name_H-M   'P 1'
_cell_length_a   6.58204977
_cell_length_b   6.58205006
_cell_length_c   15.56692463
_cell_angle_alpha   90.00000000
_cell_angle_beta   90.00000000
_cell_angle_gamma   119.99999848
_symmetry_Int_Tables_number   1
_chemical_formula_structural   Fe7S8
_chemical_formula_sum   'Fe21 S24'
_cell_volume   584.05776750
_cell_formula_units_Z   3
loop_
 _symmetry_equiv_pos_site_id
 _symmetry_equiv_pos_as_xyz
  1  'x, y, z'
loop_
 _atom_site_type_symbol
 _atom_site_label
 _atom_site_symmetry_multiplicity
 _atom_site_fract_x
 _atom_site_fract_y
 _atom_site_fract_z
 _atom_site_occupancy
  Fe  Fe0  1  0.41027169  0.42507831  0.14651090  1
  Fe  Fe1  1  0.08349766  0.00000000  0.33333300  1
  Fe  Fe2  1  0.01480662  0.58972831  0.81317790  1
  Fe  Fe3  1  0.48332349  0.94815406  0.01482033  1
  Fe  Fe4  1  0.00000000  0.43913646  0.16666700  1
  Fe  Fe5  1  0.43913646  0.00000000  0.83333300  1
  Fe  Fe6  1  0.58972831  0.01480662  0.18682210  1
  Fe  Fe7  1  1.00000000  0.01883531  0.16666700  1
  Fe  Fe8  1  0.57492169  0.98519338  0.47984490  1
  Fe  Fe9  1  0.42507831  0.41027169  0.85348910  1
  Fe  Fe10  1  0.91650234  0.91650234  0.00000000  1
  Fe  Fe11  1  0.05184594  0.53516943  0.34815333  1
  Fe  Fe12  1  0.46483057  0.51667651  0.68148633  1
  Fe  Fe13  1  0.98519338  0.57492169  0.52015510  1
  Fe  Fe14  1  0.98116469  0.98116469  0.50000000  1
  Fe  Fe15  1  1.00000000  0.08349766  0.66666700  1
  Fe  Fe16  1  0.51667651  0.46483057  0.31851367  1
  Fe  Fe17  1  0.56086354  0.56086354  0.50000000  1
  Fe  Fe18  1  0.94815406  0.48332349  0.98517967  1
  Fe  Fe19  1  0.53516943  0.05184594  0.65184667  1
  Fe  Fe20  1  0.01883531  0.00000000  0.83333300  1
  S  S21  1  0.21618236  0.85175297  0.42817222  1
  S  S22  1  0.34599247  0.21151105  0.58589793  1
  S  S23  1  0.35154002  0.64959486  0.24624978  1
  S  S24  1  0.14824703  0.36442939  0.76150522  1
  S  S25  1  0.29805483  0.64845998  0.91291678  1
  S  S26  1  0.70194517  0.35040514  0.42041722  1
  S  S27  1  0.35040514  0.70194517  0.57958278  1
  S  S28  1  0.65400753  0.86551858  0.74743507  1
  S  S29  1  0.63557061  0.78381764  0.09483822  1
  S  S30  1  0.13448142  0.78848895  0.08076807  1
  S  S31  1  0.64845998  0.29805483  0.08708322  1
  S  S32  1  0.85175297  0.21618236  0.57182778  1
  S  S33  1  0.70735185  0.82618813  0.39730807  1
  S  S34  1  0.86551858  0.65400753  0.25256493  1
  S  S35  1  0.78848895  0.13448142  0.91923193  1
  S  S36  1  0.82618813  0.70735185  0.60269193  1
  S  S37  1  0.36442939  0.14824703  0.23849478  1
  S  S38  1  0.11883628  0.29264815  0.06397407  1
  S  S39  1  0.78381764  0.63557061  0.90516178  1
  S  S40  1  0.29264815  0.11883628  0.93602593  1
  S  S41  1  0.17381187  0.88116372  0.73064107  1
  S  S42  1  0.21151105  0.34599247  0.41410207  1
  S  S43  1  0.64959486  0.35154002  0.75375022  1
  S  S44  1  0.88116372  0.17381187  0.26935893  1
