# generated using pymatgen
data_H6PbCNCl3
_symmetry_space_group_name_H-M   'P 1'
_cell_length_a   8.21848149
_cell_length_b   8.21792657
_cell_length_c   12.34989286
_cell_angle_alpha   91.31147775
_cell_angle_beta   90.88825096
_cell_angle_gamma   89.96553048
_symmetry_Int_Tables_number   1
_chemical_formula_structural   H6PbCNCl3
_chemical_formula_sum   'H24 Pb4 C4 N4 Cl12'
_cell_volume   833.77917284
_cell_formula_units_Z   4
loop_
 _symmetry_equiv_pos_site_id
 _symmetry_equiv_pos_as_xyz
  1  'x, y, z'
loop_
 _atom_site_type_symbol
 _atom_site_label
 _atom_site_symmetry_multiplicity
 _atom_site_fract_x
 _atom_site_fract_y
 _atom_site_fract_z
 _atom_site_occupancy
  H  H0  1  0.41256170  0.91423746  0.70544483  1
  H  H1  1  0.62574028  0.96183816  0.70827818  1
  H  H2  1  0.39396092  0.03828001  0.88733219  1
  H  H3  1  0.58815007  0.08959902  0.88767080  1
  H  H4  1  0.54004021  0.89474310  0.88884978  1
  H  H5  1  0.91722636  0.41106486  0.70223254  1
  H  H6  1  0.12780175  0.46884198  0.70814533  1
  H  H7  1  0.88714965  0.52355208  0.88423848  1
  H  H8  1  0.07984926  0.58659869  0.89089665  1
  H  H9  1  0.03701164  0.38902042  0.88507552  1
  H  H10  1  0.87753423  0.48936805  0.20295564  1
  H  H11  1  0.07251760  0.39148655  0.20719630  1
  H  H12  1  0.92646946  0.59368769  0.38702343  1
  H  H13  1  0.11189885  0.51026718  0.38982077  1
  H  H14  1  0.94846268  0.39346756  0.38419352  1
  H  H15  1  0.41811877  0.91101277  0.20297011  1
  H  H16  1  0.62722566  0.97410939  0.20826217  1
  H  H17  1  0.38802702  0.01998796  0.38612697  1
  H  H18  1  0.57968838  0.08702646  0.39175002  1
  H  H19  1  0.54054183  0.88877405  0.38506440  1
  H  H20  1  0.05990237  0.60952796  0.20807123  1
  H  H21  1  0.97260262  0.62235268  0.70723554  1
  H  H22  1  0.47819728  0.12248330  0.70658484  1
  H  H23  1  0.46809245  0.12360300  0.20924375  1
  Pb  Pb24  1  0.99616123  0.99790070  0.02417142  1
  Pb  Pb25  1  0.49803828  0.49917127  0.52440047  1
  Pb  Pb26  1  0.00446517  0.99858094  0.52438473  1
  Pb  Pb27  1  0.49680336  0.49763390  0.02405372  1
  C  C28  1  0.50400039  0.00239111  0.23516383  1
  C  C29  1  0.00498503  0.50080045  0.73412569  1
  C  C30  1  0.00214191  0.49749337  0.23436287  1
  C  C31  1  0.50505634  0.00006720  0.73510267  1
  N  N32  1  0.50245267  0.99937104  0.35588832  1
  N  N33  1  0.00164498  0.49989852  0.85504639  1
  N  N34  1  0.99723506  0.49927541  0.35522102  1
  N  N35  1  0.50548562  0.00463580  0.85618258  1
  Cl  Cl36  1  0.00164458  0.00116182  0.23874312  1
  Cl  Cl37  1  0.50163522  0.49876852  0.73879332  1
  Cl  Cl38  1  0.99933451  0.99976224  0.73869290  1
  Cl  Cl39  1  0.50106326  0.50102654  0.23860381  1
  Cl  Cl40  1  0.22911456  0.73265238  0.99912005  1
  Cl  Cl41  1  0.73703520  0.23514305  0.49496928  1
  Cl  Cl42  1  0.25677025  0.22560715  0.99639910  1
  Cl  Cl43  1  0.76747043  0.73521754  0.49436785  1
  Cl  Cl44  1  0.76086743  0.26422460  0.99474661  1
  Cl  Cl45  1  0.26857664  0.76657937  0.49944198  1
  Cl  Cl46  1  0.72395320  0.75837294  0.99665523  1
  Cl  Cl47  1  0.23462662  0.26811275  0.49886204  1
