# generated using pymatgen
data_Mg2Ga
_symmetry_space_group_name_H-M   'P 1'
_cell_length_a   9.92895591
_cell_length_b   5.06373062
_cell_length_c   4.94590068
_cell_angle_alpha   90.00000000
_cell_angle_beta   90.00000000
_cell_angle_gamma   90.00000000
_symmetry_Int_Tables_number   1
_chemical_formula_structural   Mg2Ga
_chemical_formula_sum   'Mg8 Ga4'
_cell_volume   248.66780863
_cell_formula_units_Z   4
loop_
 _symmetry_equiv_pos_site_id
 _symmetry_equiv_pos_as_xyz
  1  'x, y, z'
loop_
 _atom_site_type_symbol
 _atom_site_label
 _atom_site_symmetry_multiplicity
 _atom_site_fract_x
 _atom_site_fract_y
 _atom_site_fract_z
 _atom_site_occupancy
  Mg  Mg0  1  0.15824610  0.29957238  0.75000000  1
  Mg  Mg1  1  0.34175390  0.79957238  0.75000000  1
  Mg  Mg2  1  0.15824610  0.70042762  0.25000000  1
  Mg  Mg3  1  0.34175390  0.20042762  0.25000000  1
  Mg  Mg4  1  0.65824610  0.79957238  0.75000000  1
  Mg  Mg5  1  0.84175390  0.29957238  0.75000000  1
  Mg  Mg6  1  0.65824610  0.20042762  0.25000000  1
  Mg  Mg7  1  0.84175390  0.70042762  0.25000000  1
  Ga  Ga8  1  -0.00000000  0.80625320  0.75000000  1
  Ga  Ga9  1  -0.00000000  0.19374680  0.25000000  1
  Ga  Ga10  1  0.50000000  0.30625320  0.75000000  1
  Ga  Ga11  1  0.50000000  0.69374680  0.25000000  1
