# generated using pymatgen
data_Mg2Ga
_symmetry_space_group_name_H-M   'P 1'
_cell_length_a   3.02306819
_cell_length_b   15.89801531
_cell_length_c   5.13076969
_cell_angle_alpha   90.00000000
_cell_angle_beta   90.00000000
_cell_angle_gamma   90.00000000
_symmetry_Int_Tables_number   1
_chemical_formula_structural   Mg2Ga
_chemical_formula_sum   'Mg8 Ga4'
_cell_volume   246.58881571
_cell_formula_units_Z   4
loop_
 _symmetry_equiv_pos_site_id
 _symmetry_equiv_pos_as_xyz
  1  'x, y, z'
loop_
 _atom_site_type_symbol
 _atom_site_label
 _atom_site_symmetry_multiplicity
 _atom_site_fract_x
 _atom_site_fract_y
 _atom_site_fract_z
 _atom_site_occupancy
  Mg  Mg0  1  0.50000000  0.39734239  0.25000000  1
  Mg  Mg1  1  0.00000000  0.21754352  0.25000000  1
  Mg  Mg2  1  0.50000000  0.28245648  0.75000000  1
  Mg  Mg3  1  0.00000000  0.10265761  0.75000000  1
  Mg  Mg4  1  -0.00000000  0.89734239  0.25000000  1
  Mg  Mg5  1  0.50000000  0.71754352  0.25000000  1
  Mg  Mg6  1  0.00000000  0.78245648  0.75000000  1
  Mg  Mg7  1  0.50000000  0.60265761  0.75000000  1
  Ga  Ga8  1  0.50000000  0.05712696  0.25000000  1
  Ga  Ga9  1  0.00000000  0.44287304  0.75000000  1
  Ga  Ga10  1  0.00000000  0.55712696  0.25000000  1
  Ga  Ga11  1  0.50000000  0.94287304  0.75000000  1
