# generated using pymatgen
data_MgGa2
_symmetry_space_group_name_H-M   'P 1'
_cell_length_a   3.11419514
_cell_length_b   14.69485580
_cell_length_c   5.02164706
_cell_angle_alpha   90.00000000
_cell_angle_beta   90.00000000
_cell_angle_gamma   90.00000000
_symmetry_Int_Tables_number   1
_chemical_formula_structural   MgGa2
_chemical_formula_sum   'Mg4 Ga8'
_cell_volume   229.80386937
_cell_formula_units_Z   4
loop_
 _symmetry_equiv_pos_site_id
 _symmetry_equiv_pos_as_xyz
  1  'x, y, z'
loop_
 _atom_site_type_symbol
 _atom_site_label
 _atom_site_symmetry_multiplicity
 _atom_site_fract_x
 _atom_site_fract_y
 _atom_site_fract_z
 _atom_site_occupancy
  Mg  Mg0  1  0.50000000  0.05990014  0.25000000  1
  Mg  Mg1  1  0.00000000  0.44009986  0.75000000  1
  Mg  Mg2  1  -0.00000000  0.55990014  0.25000000  1
  Mg  Mg3  1  0.50000000  0.94009986  0.75000000  1
  Ga  Ga4  1  0.50000000  0.38648592  0.25000000  1
  Ga  Ga5  1  -0.00000000  0.22688654  0.25000000  1
  Ga  Ga6  1  0.50000000  0.27311346  0.75000000  1
  Ga  Ga7  1  0.00000000  0.11351408  0.75000000  1
  Ga  Ga8  1  -0.00000000  0.88648592  0.25000000  1
  Ga  Ga9  1  0.50000000  0.72688654  0.25000000  1
  Ga  Ga10  1  0.00000000  0.77311346  0.75000000  1
  Ga  Ga11  1  0.50000000  0.61351408  0.75000000  1
