# generated using pymatgen
data_Li(CoS2)2
_symmetry_space_group_name_H-M   'P 1'
_cell_length_a   6.76544992
_cell_length_b   6.76544971
_cell_length_c   6.81472572
_cell_angle_alpha   119.76110256
_cell_angle_beta   119.76109815
_cell_angle_gamma   89.99999810
_symmetry_Int_Tables_number   1
_chemical_formula_structural   Li(CoS2)2
_chemical_formula_sum   'Li2 Co4 S8'
_cell_volume   222.14332873
_cell_formula_units_Z   2
loop_
 _symmetry_equiv_pos_site_id
 _symmetry_equiv_pos_as_xyz
  1  'x, y, z'
loop_
 _atom_site_type_symbol
 _atom_site_label
 _atom_site_symmetry_multiplicity
 _atom_site_fract_x
 _atom_site_fract_y
 _atom_site_fract_z
 _atom_site_occupancy
  Li  Li0  1  0.37500100  0.62500100  0.75000000  1
  Li  Li1  1  0.62499900  0.37500000  0.25000000  1
  Co  Co2  1  0.00000000  0.50000100  0.00000100  1
  Co  Co3  1  0.00000100  -0.00000000  0.50000000  1
  Co  Co4  1  0.50000100  -0.00000000  0.50000000  1
  Co  Co5  1  0.00000000  -0.00000000  -0.00000000  1
  S  S6  1  0.76809188  0.79770513  0.53618377  1
  S  S7  1  0.76152237  0.23190912  0.96381823  1
  S  S8  1  0.20229587  0.23190912  0.96381723  1
  S  S9  1  0.23190812  0.20229487  0.46381723  1
  S  S10  1  0.23190712  0.76152137  0.46381623  1
  S  S11  1  0.23847763  0.76809188  0.03618377  1
  S  S12  1  0.76809188  0.23847763  0.53618277  1
  S  S13  1  0.79770413  0.76809188  0.03618277  1
