# generated using pymatgen
data_Ti11O14
_symmetry_space_group_name_H-M   'P 1'
_cell_length_a   5.11348508
_cell_length_b   10.69318838
_cell_length_c   5.09084587
_cell_angle_alpha   103.77098162
_cell_angle_beta   109.01737786
_cell_angle_gamma   85.55126663
_symmetry_Int_Tables_number   1
_chemical_formula_structural   Ti11O14
_chemical_formula_sum   'Ti11 O14'
_cell_volume   255.60662043
_cell_formula_units_Z   1
loop_
 _symmetry_equiv_pos_site_id
 _symmetry_equiv_pos_as_xyz
  1  'x, y, z'
loop_
 _atom_site_type_symbol
 _atom_site_label
 _atom_site_symmetry_multiplicity
 _atom_site_fract_x
 _atom_site_fract_y
 _atom_site_fract_z
 _atom_site_occupancy
  Ti  Ti0  1  0.00000000  0.71863367  0.85931734  1
  Ti  Ti1  1  0.00000000  0.14563236  0.57281568  1
  Ti  Ti2  1  1.00000000  0.42579664  0.71289832  1
  Ti  Ti3  1  0.50000000  0.01295267  0.50647684  1
  Ti  Ti4  1  0.50000000  0.86803929  0.93401965  1
  Ti  Ti5  1  0.50000000  0.55847633  0.77923816  1
  Ti  Ti6  1  -0.00000000  0.28571400  0.14285700  1
  Ti  Ti7  1  1.00000000  0.85279533  0.42639766  1
  Ti  Ti8  1  0.50000000  0.43274854  0.21637377  1
  Ti  Ti9  1  0.50000000  0.13868046  0.06934023  1
  Ti  Ti10  1  0.50000000  0.70338871  0.35169435  1
  O  O11  1  0.25913404  0.28571400  0.89377521  1
  O  O12  1  0.23561127  0.00225710  0.74961323  1
  O  O13  1  0.75160587  0.42601052  0.96569601  1
  O  O14  1  0.75160587  0.14541748  0.82539949  1
  O  O15  1  0.24839413  0.14541748  0.32001799  1
  O  O16  1  0.24839413  0.42601052  0.46031451  1
  O  O17  1  0.26041170  0.71268220  0.61528771  1
  O  O18  1  0.74086596  0.28571400  0.39193979  1
  O  O19  1  0.26041170  0.85874680  0.18831951  1
  O  O20  1  0.76438873  0.00225710  0.25264388  1
  O  O21  1  0.76438873  0.56917090  0.53610077  1
  O  O22  1  0.23561127  0.56917090  0.03307012  1
  O  O23  1  0.73958830  0.85874680  0.67042629  1
  O  O24  1  0.73958830  0.71268220  0.09739449  1
