# generated using pymatgen
data_V2O3F
_symmetry_space_group_name_H-M   'P 1'
_cell_length_a   6.12234114
_cell_length_b   6.41889883
_cell_length_c   7.33005907
_cell_angle_alpha   90.00000000
_cell_angle_beta   114.68434424
_cell_angle_gamma   90.00000000
_symmetry_Int_Tables_number   1
_chemical_formula_structural   V2O3F
_chemical_formula_sum   'V8 O12 F4'
_cell_volume   261.73929771
_cell_formula_units_Z   4
loop_
 _symmetry_equiv_pos_site_id
 _symmetry_equiv_pos_as_xyz
  1  'x, y, z'
loop_
 _atom_site_type_symbol
 _atom_site_label
 _atom_site_symmetry_multiplicity
 _atom_site_fract_x
 _atom_site_fract_y
 _atom_site_fract_z
 _atom_site_occupancy
  V  V0  1  0.00704873  0.00000000  0.00000000  1
  V  V1  1  0.49295127  0.00000000  0.00000000  1
  V  V2  1  0.01556138  -0.00000000  0.53112377  1
  V  V3  1  0.48443862  -0.00000000  0.46887623  1
  V  V4  1  0.25000000  0.50000000  0.00000000  1
  V  V5  1  0.75000000  0.50000000  0.00000000  1
  V  V6  1  0.75000000  0.50000000  0.50000000  1
  V  V7  1  0.25000000  0.50000000  0.50000000  1
  O  O8  1  0.34729651  0.00000000  0.19459302  1
  O  O9  1  0.50389981  0.29645797  0.00000000  1
  O  O10  1  0.99610019  0.29645797  -0.00000000  1
  O  O11  1  0.25000000  0.19069489  0.50000000  1
  O  O12  1  0.99610019  0.70354203  0.00000000  1
  O  O13  1  0.50389981  0.70354203  -0.00000000  1
  O  O14  1  0.75000000  0.19069489  0.50000000  1
  O  O15  1  0.89806009  0.50000000  0.29612018  1
  O  O16  1  0.15270349  -0.00000000  0.80540698  1
  O  O17  1  0.60193991  0.50000000  0.70387982  1
  O  O18  1  0.75000000  0.80930511  0.50000000  1
  O  O19  1  0.25000000  0.80930511  0.50000000  1
  F  F20  1  0.85085631  -0.00000000  0.20171263  1
  F  F21  1  0.64914369  0.00000000  0.79828737  1
  F  F22  1  0.39875380  0.50000000  0.29750760  1
  F  F23  1  0.10124620  0.50000000  0.70249240  1
