# generated using pymatgen
data_Y10Ta4O25
_symmetry_space_group_name_H-M   'P 1'
_cell_length_a   3.75793923
_cell_length_b   6.51939748
_cell_length_c   45.33280615
_cell_angle_alpha   109.53748296
_cell_angle_beta   90.00000000
_cell_angle_gamma   90.00000000
_symmetry_Int_Tables_number   1
_chemical_formula_structural   Y10Ta4O25
_chemical_formula_sum   'Y20 Ta8 O50'
_cell_volume   1046.68416115
_cell_formula_units_Z   2
loop_
 _symmetry_equiv_pos_site_id
 _symmetry_equiv_pos_as_xyz
  1  'x, y, z'
loop_
 _atom_site_type_symbol
 _atom_site_label
 _atom_site_symmetry_multiplicity
 _atom_site_fract_x
 _atom_site_fract_y
 _atom_site_fract_z
 _atom_site_occupancy
  Y  Y0  1  -0.00000000  0.51664729  0.42847648  1
  Y  Y1  1  0.00000000  0.00141917  0.49770230  1
  Y  Y2  1  -0.00000000  0.51806310  0.57147103  1
  Y  Y3  1  -0.00000000  0.01207745  0.78984658  1
  Y  Y4  1  0.50000000  0.49191716  0.50136220  1
  Y  Y5  1  0.50000000  0.49197474  0.21562728  1
  Y  Y6  1  0.50000000  0.49205824  0.35848919  1
  Y  Y7  1  0.50000000  0.49072492  0.07258642  1
  Y  Y8  1  0.50000000  0.50358756  0.78600310  1
  Y  Y9  1  0.50000000  0.48710275  0.92782454  1
  Y  Y10  1  0.50000000  0.49053625  0.64413274  1
  Y  Y11  1  -0.00000000  0.99885885  0.06806850  1
  Y  Y12  1  0.00000000  0.50966861  0.99858142  1
  Y  Y13  1  0.00000000  0.00129612  0.35475070  1
  Y  Y14  1  0.00000000  0.00133211  0.21184641  1
  Y  Y15  1  -0.00000000  0.51658344  0.28562045  1
  Y  Y16  1  -0.00000000  0.51605722  0.14268530  1
  Y  Y17  1  0.00000000  0.00376343  0.64169593  1
  Y  Y18  1  0.00000000  0.99311202  0.92233768  1
  Y  Y19  1  -0.00000000  0.52853971  0.71470337  1
  Ta  Ta20  1  0.00000000  0.46957645  0.85747763  1
  Ta  Ta21  1  0.50000000  0.98956834  0.99887050  1
  Ta  Ta22  1  0.50000000  0.99483127  0.14342823  1
  Ta  Ta23  1  0.50000000  0.99489088  0.28647277  1
  Ta  Ta24  1  0.50000000  0.99493823  0.42935014  1
  Ta  Ta25  1  0.50000000  0.00464898  0.71710755  1
  Ta  Ta26  1  0.50000000  0.99516954  0.57237087  1
  Ta  Ta27  1  0.50000000  0.96777042  0.85641489  1
  O  O28  1  -0.00000000  0.35970679  0.09080286  1
  O  O29  1  0.00000000  0.36180232  0.23390767  1
  O  O30  1  0.00000000  0.36174604  0.37677474  1
  O  O31  1  0.00000000  0.36193972  0.51971579  1
  O  O32  1  -0.00000000  0.36525654  0.66282583  1
  O  O33  1  0.00000000  0.40148425  0.81085599  1
  O  O34  1  0.00000000  0.35823949  0.94634522  1
  O  O35  1  0.00000000  0.86968074  0.86766606  1
  O  O36  1  0.50000000  0.30779086  0.15091359  1
  O  O37  1  0.50000000  0.30147418  0.00619343  1
  O  O38  1  0.50000000  0.30767051  0.43662123  1
  O  O39  1  0.50000000  0.30763078  0.29374699  1
  O  O40  1  0.50000000  0.09144622  0.04760423  1
  O  O41  1  0.50000000  0.09555734  0.19168299  1
  O  O42  1  0.50000000  0.09586601  0.33463565  1
  O  O43  1  0.50000000  0.65816390  0.27222211  1
  O  O44  1  0.50000000  0.65754069  0.12914491  1
  O  O45  1  0.50000000  0.09581028  0.47752076  1
  O  O46  1  0.50000000  0.09423738  0.62068560  1
  O  O47  1  0.50000000  0.31761629  0.72462683  1
  O  O48  1  0.50000000  0.30854410  0.57992707  1
  O  O49  1  0.50000000  0.65818491  0.41507310  1
  O  O50  1  0.50000000  0.10727159  0.76659537  1
  O  O51  1  0.50000000  0.36135462  0.86929087  1
  O  O52  1  0.50000000  0.66491305  0.70132991  1
  O  O53  1  0.50000000  0.65800922  0.55794266  1
  O  O54  1  0.50000000  0.10645743  0.90358231  1
  O  O55  1  0.50000000  0.64396863  0.84802183  1
  O  O56  1  0.50000000  0.65516028  0.98580888  1
  O  O57  1  0.50000000  0.94187889  0.09840994  1
  O  O58  1  0.50000000  0.94168111  0.24148111  1
  O  O59  1  0.50000000  0.94176468  0.38435544  1
  O  O60  1  0.50000000  0.94261700  0.52737675  1
  O  O61  1  0.50000000  0.95396247  0.67202662  1
  O  O62  1  0.50000000  0.88585153  0.81059457  1
  O  O63  1  0.50000000  0.92934827  0.95309972  1
  O  O64  1  0.00000000  0.62918445  0.05182104  1
  O  O65  1  0.00000000  0.94027051  0.00687345  1
  O  O66  1  -0.00000000  0.63272554  0.33841327  1
  O  O67  1  -0.00000000  0.63268895  0.19550615  1
  O  O68  1  0.00000000  0.94010003  0.29419887  1
  O  O69  1  0.00000000  0.93992320  0.15125235  1
  O  O70  1  -0.00000000  0.63546939  0.62441546  1
  O  O71  1  -0.00000000  0.63279935  0.48129561  1
  O  O72  1  -0.00000000  0.94043046  0.57982334  1
  O  O73  1  0.00000000  0.94009493  0.43705421  1
  O  O74  1  -0.00000000  0.14398685  0.84475342  1
  O  O75  1  -0.00000000  0.61609897  0.90515704  1
  O  O76  1  0.00000000  0.63722596  0.76696003  1
  O  O77  1  0.00000000  0.94865902  0.72376291  1
