# generated using pymatgen
data_Rb3FeO3
_symmetry_space_group_name_H-M   'P 1'
_cell_length_a   6.84946871
_cell_length_b   14.88762166
_cell_length_c   6.89247583
_cell_angle_alpha   90.00000000
_cell_angle_beta   121.92431346
_cell_angle_gamma   90.00000000
_symmetry_Int_Tables_number   1
_chemical_formula_structural   Rb3FeO3
_chemical_formula_sum   'Rb12 Fe4 O12'
_cell_volume   596.53496237
_cell_formula_units_Z   4
loop_
 _symmetry_equiv_pos_site_id
 _symmetry_equiv_pos_as_xyz
  1  'x, y, z'
loop_
 _atom_site_type_symbol
 _atom_site_label
 _atom_site_symmetry_multiplicity
 _atom_site_fract_x
 _atom_site_fract_y
 _atom_site_fract_z
 _atom_site_occupancy
  Rb  Rb0  1  0.15217406  0.22788963  0.70661130  1
  Rb  Rb1  1  0.24407528  0.48486003  0.77470694  1
  Rb  Rb2  1  0.25592472  0.98486003  0.72529306  1
  Rb  Rb3  1  0.34782594  0.72788963  0.79338870  1
  Rb  Rb4  1  0.28368918  0.59083162  0.31227940  1
  Rb  Rb5  1  0.21631082  0.09083162  0.18772060  1
  Rb  Rb6  1  0.78368918  0.90916838  0.81227940  1
  Rb  Rb7  1  0.71631082  0.40916838  0.68772060  1
  Rb  Rb8  1  0.65217406  0.27211037  0.20661130  1
  Rb  Rb9  1  0.74407528  0.01513997  0.27470694  1
  Rb  Rb10  1  0.75592472  0.51513997  0.22529306  1
  Rb  Rb11  1  0.84782594  0.77211037  0.29338870  1
  Fe  Fe12  1  0.18989562  0.32432921  0.26208320  1
  Fe  Fe13  1  0.31010438  0.82432921  0.23791680  1
  Fe  Fe14  1  0.68989562  0.17567079  0.76208320  1
  Fe  Fe15  1  0.81010438  0.67567079  0.73791680  1
  O  O16  1  0.05088756  0.37482963  0.41109523  1
  O  O17  1  0.15893693  0.90992914  0.31850986  1
  O  O18  1  0.05635810  0.74255066  0.01052399  1
  O  O19  1  0.55088756  0.12517037  0.91109523  1
  O  O20  1  0.44364190  0.24255066  0.48947601  1
  O  O21  1  0.65893693  0.59007086  0.81850986  1
  O  O22  1  0.34106307  0.40992914  0.18149014  1
  O  O23  1  0.55635810  0.75744934  0.51052399  1
  O  O24  1  0.44911244  0.87482963  0.08890477  1
  O  O25  1  0.94364190  0.25744934  0.98947601  1
  O  O26  1  0.84106307  0.09007086  0.68149014  1
  O  O27  1  0.94911244  0.62517037  0.58890477  1
