# generated using pymatgen
data_Mg9Si5
_symmetry_space_group_name_H-M   'P 1'
_cell_length_a   7.18125353
_cell_length_b   7.18025462
_cell_length_c   12.96174858
_cell_angle_alpha   106.05212740
_cell_angle_beta   89.99993894
_cell_angle_gamma   120.00485278
_symmetry_Int_Tables_number   1
_chemical_formula_structural   Mg9Si5
_chemical_formula_sum   'Mg18 Si10'
_cell_volume   548.48181805
_cell_formula_units_Z   2
loop_
 _symmetry_equiv_pos_site_id
 _symmetry_equiv_pos_as_xyz
  1  'x, y, z'
loop_
 _atom_site_type_symbol
 _atom_site_label
 _atom_site_symmetry_multiplicity
 _atom_site_fract_x
 _atom_site_fract_y
 _atom_site_fract_z
 _atom_site_occupancy
  Mg  Mg0  1  0.80205887  0.11631473  0.68397888  1
  Mg  Mg1  1  0.16067764  0.10516393  0.51788434  1
  Mg  Mg2  1  0.56773722  0.40548970  0.68397426  1
  Mg  Mg3  1  0.41270272  0.60912328  0.51782530  1
  Mg  Mg4  1  0.27853410  0.88199509  0.68403686  1
  Mg  Mg5  1  0.90873556  0.35713514  0.51784378  1
  Mg  Mg6  1  0.10487058  0.87606767  0.17966083  1
  Mg  Mg7  1  0.91681553  0.35718356  0.01787220  1
  Mg  Mg8  1  0.30363176  0.44413311  0.17966677  1
  Mg  Mg9  1  0.66074399  0.61324780  0.01784485  1
  Mg  Mg10  1  0.73545607  0.07476000  0.17965618  1
  Mg  Mg11  1  0.40471749  0.10108464  0.01786312  1
  Mg  Mg12  1  0.04296088  0.59804644  0.35170165  1
  Mg  Mg13  1  0.01776767  0.63935313  0.85604055  1
  Mg  Mg14  1  0.75372557  0.83231104  0.35166536  1
  Mg  Mg15  1  0.21646904  0.27010207  0.85605765  1
  Mg  Mg16  1  0.51940288  0.30875227  0.35174562  1
  Mg  Mg17  1  0.58604299  0.83823730  0.85603522  1
  Si  Si18  1  0.99130550  0.01832648  0.00965450  1
  Si  Si19  1  0.10306637  0.24178902  0.34448340  1
  Si  Si20  1  0.82848979  0.69260133  0.52104952  1
  Si  Si21  1  0.89632710  0.82836869  0.72466963  1
  Si  Si22  1  0.71654737  0.46872429  0.18531509  1
  Si  Si23  1  0.21837817  0.47248473  0.69119785  1
  Si  Si24  1  0.33011677  0.69598413  0.02605325  1
  Si  Si25  1  0.60491050  0.24559016  0.85037754  1
  Si  Si26  1  0.49298023  0.02169348  0.51462232  1
  Si  Si27  1  0.42508563  0.88581578  0.31095449  1
