# generated using pymatgen
data_VP2H13CN3O11
_symmetry_space_group_name_H-M   'P 1'
_cell_length_a   9.40459896
_cell_length_b   9.40459899
_cell_length_c   13.68931010
_cell_angle_alpha   86.00371883
_cell_angle_beta   86.00371880
_cell_angle_gamma   80.75489416
_symmetry_Int_Tables_number   1
_chemical_formula_structural   VP2H13CN3O11
_chemical_formula_sum   'V4 P8 H52 C4 N12 O44'
_cell_volume   1190.03217702
_cell_formula_units_Z   4
loop_
 _symmetry_equiv_pos_site_id
 _symmetry_equiv_pos_as_xyz
  1  'x, y, z'
loop_
 _atom_site_type_symbol
 _atom_site_label
 _atom_site_symmetry_multiplicity
 _atom_site_fract_x
 _atom_site_fract_y
 _atom_site_fract_z
 _atom_site_occupancy
  V  V0  1  0.26345687  0.44740116  0.99533039  1
  V  V1  1  0.44740116  0.26345687  0.49533039  1
  V  V2  1  0.55259884  0.73654313  0.50466961  1
  V  V3  1  0.73654313  0.55259884  0.00466961  1
  P  P4  1  0.00656829  0.65798573  0.87466180  1
  P  P5  1  0.33822404  0.53364492  0.62609966  1
  P  P6  1  0.34201427  0.99343171  0.62533820  1
  P  P7  1  0.53364492  0.33822404  0.12609966  1
  P  P8  1  0.46635508  0.66177596  0.87390034  1
  P  P9  1  0.65798573  0.00656829  0.37466180  1
  P  P10  1  0.66177596  0.46635508  0.37390034  1
  P  P11  1  0.99343171  0.34201427  0.12533820  1
  H  H12  1  0.02571614  0.29175978  0.77051238  1
  H  H13  1  0.06418976  0.31568919  0.50962740  1
  H  H14  1  0.98828325  0.95891744  0.11519208  1
  H  H15  1  0.04143927  0.83621209  0.04258603  1
  H  H16  1  0.07628625  0.64885988  0.71490556  1
  H  H17  1  0.14612307  0.26861263  0.66726398  1
  H  H18  1  0.04108256  0.01171675  0.38480792  1
  H  H19  1  0.11843410  0.62867543  0.50614959  1
  H  H20  1  0.20367786  0.17733114  0.39965338  1
  H  H21  1  0.17733114  0.20367786  0.89965338  1
  H  H22  1  0.21228715  0.32418101  0.33943729  1
  H  H23  1  0.26861263  0.14612307  0.16726398  1
  H  H24  1  0.31568919  0.06418976  0.00962740  1
  H  H25  1  0.29175978  0.02571614  0.27051238  1
  H  H26  1  0.16378791  0.95856073  0.45741397  1
  H  H27  1  0.21296084  0.59771914  0.24978672  1
  H  H28  1  0.18929564  0.78546489  0.88158684  1
  H  H29  1  0.21453511  0.81070436  0.61841316  1
  H  H30  1  0.32418101  0.21228715  0.83943729  1
  H  H31  1  0.27901362  0.58142387  0.36752100  1
  H  H32  1  0.36260434  0.46865103  0.78438068  1
  H  H33  1  0.37132457  0.88156590  0.99385041  1
  H  H34  1  0.46865103  0.36260434  0.28438068  1
  H  H35  1  0.40228086  0.78703916  0.25021328  1
  H  H36  1  0.41857613  0.72098638  0.13247900  1
  H  H37  1  0.35114012  0.92371375  0.78509444  1
  H  H38  1  0.64885988  0.07628625  0.21490556  1
  H  H39  1  0.58142387  0.27901362  0.86752100  1
  H  H40  1  0.59771914  0.21296084  0.74978672  1
  H  H41  1  0.53134897  0.63739566  0.71561932  1
  H  H42  1  0.62867543  0.11843410  0.00614959  1
  H  H43  1  0.63739566  0.53134897  0.21561932  1
  H  H44  1  0.72098638  0.41857613  0.63247900  1
  H  H45  1  0.67581899  0.78771285  0.16056271  1
  H  H46  1  0.78546489  0.18929564  0.38158684  1
  H  H47  1  0.81070436  0.21453511  0.11841316  1
  H  H48  1  0.78703916  0.40228086  0.75021328  1
  H  H49  1  0.83621209  0.04143927  0.54258603  1
  H  H50  1  0.70824022  0.97428386  0.72948762  1
  H  H51  1  0.68431081  0.93581024  0.99037260  1
  H  H52  1  0.73138737  0.85387693  0.83273602  1
  H  H53  1  0.78771285  0.67581899  0.66056271  1
  H  H54  1  0.82266886  0.79632214  0.10034662  1
  H  H55  1  0.79632214  0.82266886  0.60034662  1
  H  H56  1  0.88156590  0.37132457  0.49385041  1
  H  H57  1  0.95891744  0.98828325  0.61519208  1
  H  H58  1  0.85387693  0.73138737  0.33273602  1
  H  H59  1  0.92371375  0.35114012  0.28509444  1
  H  H60  1  0.95856073  0.16378791  0.95741397  1
  H  H61  1  0.01171675  0.04108256  0.88480792  1
  H  H62  1  0.93581024  0.68431081  0.49037260  1
  H  H63  1  0.97428386  0.70824022  0.22948762  1
  C  C64  1  0.06235322  0.65389556  0.36216984  1
  C  C65  1  0.34610444  0.93764678  0.13783016  1
  C  C66  1  0.65389556  0.06235322  0.86216984  1
  C  C67  1  0.93764678  0.34610444  0.63783016  1
  N  N68  1  0.04610419  0.30706759  0.69676992  1
  N  N69  1  0.03843423  0.66245642  0.45931336  1
  N  N70  1  0.30706759  0.04610419  0.19676992  1
  N  N71  1  0.19467629  0.60519361  0.32357533  1
  N  N72  1  0.33754358  0.96156577  0.04068664  1
  N  N73  1  0.39480639  0.80532371  0.17642467  1
  N  N74  1  0.60519361  0.19467629  0.82357533  1
  N  N75  1  0.66245642  0.03843423  0.95931336  1
  N  N76  1  0.80532371  0.39480639  0.67642467  1
  N  N77  1  0.69293241  0.95389581  0.80323008  1
  N  N78  1  0.96156577  0.33754358  0.54068664  1
  N  N79  1  0.95389581  0.69293241  0.30323008  1
  O  O80  1  0.01067807  0.14342767  0.89390940  1
  O  O81  1  0.01535894  0.33693209  0.23902936  1
  O  O82  1  0.14342767  0.01067807  0.39390940  1
  O  O83  1  0.14518872  0.31341495  0.07633947  1
  O  O84  1  0.10048079  0.51770356  0.90643180  1
  O  O85  1  0.07852885  0.79417682  0.89726513  1
  O  O86  1  0.23230984  0.27418510  0.40322049  1
  O  O87  1  0.24892343  0.57751744  0.07067594  1
  O  O88  1  0.20522235  0.65230712  0.63869360  1
  O  O89  1  0.31341495  0.14518872  0.57633947  1
  O  O90  1  0.27418510  0.23230984  0.90322049  1
  O  O91  1  0.33693209  0.01535894  0.73902936  1
  O  O92  1  0.20582318  0.92147115  0.60273487  1
  O  O93  1  0.32029381  0.44481277  0.53965021  1
  O  O94  1  0.35075811  0.42515996  0.71975454  1
  O  O95  1  0.42515996  0.35075811  0.21975454  1
  O  O96  1  0.44481277  0.32029381  0.03965021  1
  O  O97  1  0.34769288  0.79477765  0.86130640  1
  O  O98  1  0.39578911  0.52187010  0.88407560  1
  O  O99  1  0.51770356  0.10048079  0.40643180  1
  O  O100  1  0.42248256  0.75107657  0.42932406  1
  O  O101  1  0.52187010  0.39578911  0.38407560  1
  O  O102  1  0.47812990  0.60421089  0.61592440  1
  O  O103  1  0.57751744  0.24892343  0.57067594  1
  O  O104  1  0.48229644  0.89951921  0.59356820  1
  O  O105  1  0.60421089  0.47812990  0.11592440  1
  O  O106  1  0.65230712  0.20522235  0.13869360  1
  O  O107  1  0.55518723  0.67970619  0.96034979  1
  O  O108  1  0.57484004  0.64924189  0.78024546  1
  O  O109  1  0.64924189  0.57484004  0.28024546  1
  O  O110  1  0.67970619  0.55518723  0.46034979  1
  O  O111  1  0.79417682  0.07852885  0.39726513  1
  O  O112  1  0.66306791  0.98464106  0.26097064  1
  O  O113  1  0.72581490  0.76769016  0.09677951  1
  O  O114  1  0.68658505  0.85481128  0.42366053  1
  O  O115  1  0.79477765  0.34769288  0.36130640  1
  O  O116  1  0.75107657  0.42248256  0.92932406  1
  O  O117  1  0.76769016  0.72581490  0.59677951  1
  O  O118  1  0.92147115  0.20582318  0.10273487  1
  O  O119  1  0.89951921  0.48229644  0.09356820  1
  O  O120  1  0.85481128  0.68658505  0.92366053  1
  O  O121  1  0.85657233  0.98932193  0.60609060  1
  O  O122  1  0.98464106  0.66306791  0.76097064  1
  O  O123  1  0.98932193  0.85657233  0.10609060  1
