# generated using pymatgen
data_YBO3
_symmetry_space_group_name_H-M   'P 1'
_cell_length_a   4.52037854
_cell_length_b   7.90144430
_cell_length_c   8.47553950
_cell_angle_alpha   90.00000000
_cell_angle_beta   90.00000000
_cell_angle_gamma   124.89646164
_symmetry_Int_Tables_number   1
_chemical_formula_structural   YBO3
_chemical_formula_sum   'Y4 B4 O12'
_cell_volume   248.29137370
_cell_formula_units_Z   4
loop_
 _symmetry_equiv_pos_site_id
 _symmetry_equiv_pos_as_xyz
  1  'x, y, z'
loop_
 _atom_site_type_symbol
 _atom_site_label
 _atom_site_symmetry_multiplicity
 _atom_site_fract_x
 _atom_site_fract_y
 _atom_site_fract_z
 _atom_site_occupancy
  Y  Y0  1  0.00000000  0.50000000  -0.00000000  1
  Y  Y1  1  0.00000000  0.50000000  0.50000000  1
  Y  Y2  1  0.00000000  0.00000000  -0.00000000  1
  Y  Y3  1  0.00000000  0.00000000  0.50000000  1
  B  B4  1  0.33013099  0.86681472  0.25000000  1
  B  B5  1  0.40349846  0.36681472  0.25000000  1
  B  B6  1  0.59650154  0.63318528  0.75000000  1
  B  B7  1  0.66986901  0.13318528  0.75000000  1
  O  O8  1  0.41978652  0.82233524  0.10603879  1
  O  O9  1  0.41978652  0.82233524  0.39396121  1
  O  O10  1  0.22975169  0.54300561  0.75000000  1
  O  O11  1  0.85625954  0.04300561  0.75000000  1
  O  O12  1  0.22488396  0.32233524  0.10603879  1
  O  O13  1  0.77511604  0.67766476  0.89396121  1
  O  O14  1  0.77511604  0.67766476  0.60603879  1
  O  O15  1  0.22488396  0.32233524  0.39396121  1
  O  O16  1  0.14374046  0.95699439  0.25000000  1
  O  O17  1  0.77024831  0.45699439  0.25000000  1
  O  O18  1  0.58021348  0.17766476  0.89396121  1
  O  O19  1  0.58021348  0.17766476  0.60603879  1
