# generated using pymatgen
data_VMoO5
_symmetry_space_group_name_H-M   'P 1'
_cell_length_a   18.97880732
_cell_length_b   6.15856569
_cell_length_c   6.16320520
_cell_angle_alpha   100.42218996
_cell_angle_beta   107.93672863
_cell_angle_gamma   50.79590475
_symmetry_Int_Tables_number   1
_chemical_formula_structural   VMoO5
_chemical_formula_sum   'V5 Mo5 O25'
_cell_volume   530.99030462
_cell_formula_units_Z   5
loop_
 _symmetry_equiv_pos_site_id
 _symmetry_equiv_pos_as_xyz
  1  'x, y, z'
loop_
 _atom_site_type_symbol
 _atom_site_label
 _atom_site_symmetry_multiplicity
 _atom_site_fract_x
 _atom_site_fract_y
 _atom_site_fract_z
 _atom_site_occupancy
  V  V0  1  0.02022595  0.19607925  0.59912418  1
  V  V1  1  0.21769301  0.19211636  0.59853658  1
  V  V2  1  0.40663885  0.95182334  0.98770970  1
  V  V3  1  0.60595977  0.95386980  0.99060210  1
  V  V4  1  0.80559508  0.94833717  0.99027715  1
  Mo  Mo5  1  0.00507727  0.96555273  0.00116134  1
  Mo  Mo6  1  0.20624743  0.96608753  0.99690999  1
  Mo  Mo7  1  0.41602402  0.18457708  0.59399763  1
  Mo  Mo8  1  0.61779618  0.18687483  0.59499889  1
  Mo  Mo9  1  0.81894894  0.18731263  0.59174662  1
  O  O10  1  0.01323364  0.08051624  0.31446331  1
  O  O11  1  0.07341258  0.08570975  0.93341151  1
  O  O12  1  0.14270062  0.10168070  0.66152770  1
  O  O13  1  0.08169701  0.60840877  0.01706549  1
  O  O14  1  0.21309553  0.08187555  0.31104744  1
  O  O15  1  0.14802619  0.53085758  0.58572690  1
  O  O16  1  0.27567412  0.07587799  0.92807091  1
  O  O17  1  0.34271149  0.09372908  0.65513676  1
  O  O18  1  0.27965480  0.60881690  0.00904211  1
  O  O19  1  0.41333760  0.07549391  0.30144662  1
  O  O20  1  0.34167505  0.54252056  0.57625191  1
  O  O21  1  0.47809108  0.05954746  0.92511243  1
  O  O22  1  0.54409645  0.09224450  0.65614533  1
  O  O23  1  0.47527222  0.61114509  0.99850652  1
  O  O24  1  0.61303412  0.07534614  0.30262579  1
  O  O25  1  0.54394227  0.54489073  0.57849329  1
  O  O26  1  0.67798513  0.06057529  0.92630513  1
  O  O27  1  0.74582366  0.08890287  0.65731824  1
  O  O28  1  0.67745645  0.61353157  0.00368987  1
  O  O29  1  0.81242644  0.07582304  0.30147911  1
  O  O30  1  0.74275047  0.54477232  0.57218378  1
  O  O31  1  0.87629883  0.06683632  0.93164534  1
  O  O32  1  0.94440430  0.09621537  0.66147903  1
  O  O33  1  0.87704693  0.60713460  0.00369861  1
  O  O34  1  0.94794653  0.53491695  0.58306271  1
