# generated using pymatgen
data_V4Ge13O36
_symmetry_space_group_name_H-M   'P 1'
_cell_length_a   2.89685608
_cell_length_b   4.51743565
_cell_length_c   40.73221250
_cell_angle_alpha   90.35494325
_cell_angle_beta   90.00000000
_cell_angle_gamma   90.00000000
_symmetry_Int_Tables_number   1
_chemical_formula_structural   V4Ge13O36
_chemical_formula_sum   'V4 Ge13 O36'
_cell_volume   533.02620605
_cell_formula_units_Z   1
loop_
 _symmetry_equiv_pos_site_id
 _symmetry_equiv_pos_as_xyz
  1  'x, y, z'
loop_
 _atom_site_type_symbol
 _atom_site_label
 _atom_site_symmetry_multiplicity
 _atom_site_fract_x
 _atom_site_fract_y
 _atom_site_fract_z
 _atom_site_occupancy
  V  V0  1  -0.00000000  0.01435174  0.00120516  1
  V  V1  1  0.00000000  0.98564826  0.22101684  1
  V  V2  1  0.50000000  0.47318054  0.06354827  1
  V  V3  1  0.50000000  0.52681946  0.15867473  1
  Ge  Ge4  1  -0.00000000  0.99763103  0.33391067  1
  Ge  Ge5  1  -0.00000000  0.00007869  0.44455535  1
  Ge  Ge6  1  -0.00000000  0.00008520  0.55557426  1
  Ge  Ge7  1  0.00000000  0.99991480  0.66664874  1
  Ge  Ge8  1  0.00000000  -0.00007869  0.77766665  1
  Ge  Ge9  1  0.00000000  0.00236897  0.88831133  1
  Ge  Ge10  1  0.50000000  0.49253144  0.27904987  1
  Ge  Ge11  1  0.50000000  0.49992597  0.38916581  1
  Ge  Ge12  1  0.50000000  0.50000000  0.61111100  1
  Ge  Ge13  1  0.50000000  0.50008575  0.50004030  1
  Ge  Ge14  1  0.50000000  0.49991425  0.72218170  1
  Ge  Ge15  1  0.50000000  0.50007403  0.83305619  1
  Ge  Ge16  1  0.50000000  0.50746856  0.94317213  1
  O  O17  1  -0.00000000  0.29420337  0.03212269  1
  O  O18  1  0.00000000  0.68290801  0.07611498  1
  O  O19  1  -0.00000000  0.31709199  0.14610702  1
  O  O20  1  0.00000000  0.70579663  0.19009931  1
  O  O21  1  -0.00000000  0.30470780  0.25731621  1
  O  O22  1  -0.00000000  0.30857699  0.36774050  1
  O  O23  1  0.00000000  0.69217420  0.41047018  1
  O  O24  1  0.00000000  0.30802481  0.47870450  1
  O  O25  1  -0.00000000  0.69208824  0.52137760  1
  O  O26  1  -0.00000000  0.30789068  0.58977693  1
  O  O27  1  0.00000000  0.69210932  0.63244507  1
  O  O28  1  0.00000000  0.30791176  0.70084440  1
  O  O29  1  0.00000000  0.69197519  0.74351750  1
  O  O30  1  0.00000000  0.30782580  0.81175182  1
  O  O31  1  0.00000000  0.69142301  0.85448250  1
  O  O32  1  0.00000000  0.30910041  0.92207441  1
  O  O33  1  0.50000000  0.18315451  0.20352428  1
  O  O34  1  0.50000000  0.19584192  0.08783104  1
  O  O35  1  0.50000000  0.19022405  0.31268127  1
  O  O36  1  0.50000000  0.81684549  0.01869772  1
  O  O37  1  0.50000000  0.19205711  0.42323005  1
  O  O38  1  0.50000000  0.80415808  0.13439096  1
  O  O39  1  0.50000000  0.19197689  0.53424748  1
  O  O40  1  0.50000000  0.79897232  0.24542863  1
  O  O41  1  0.50000000  0.19177461  0.75635603  1
  O  O42  1  0.50000000  0.80848152  0.35528985  1
  O  O43  1  0.50000000  0.80822539  0.46586697  1
  O  O44  1  0.50000000  0.19199320  0.64533409  1
  O  O45  1  0.50000000  0.19151848  0.86693315  1
  O  O46  1  0.50000000  0.80800680  0.57688791  1
  O  O47  1  0.50000000  0.20102768  0.97679337  1
  O  O48  1  0.50000000  0.80802311  0.68797452  1
  O  O49  1  0.50000000  0.80977595  0.90954073  1
  O  O50  1  0.50000000  0.80794289  0.79899195  1
  O  O51  1  -0.00000000  0.69089959  0.30014759  1
  O  O52  1  0.00000000  0.69529220  0.96490679  1
