# generated using pymatgen
data_Mg(BH4)2
_symmetry_space_group_name_H-M   'P 1'
_cell_length_a   4.27695668
_cell_length_b   4.27710731
_cell_length_c   5.36588300
_cell_angle_alpha   89.99993007
_cell_angle_beta   90.00306976
_cell_angle_gamma   120.00142818
_symmetry_Int_Tables_number   1
_chemical_formula_structural   Mg(BH4)2
_chemical_formula_sum   'Mg1 B2 H8'
_cell_volume   85.00619530
_cell_formula_units_Z   1
loop_
 _symmetry_equiv_pos_site_id
 _symmetry_equiv_pos_as_xyz
  1  'x, y, z'
loop_
 _atom_site_type_symbol
 _atom_site_label
 _atom_site_symmetry_multiplicity
 _atom_site_fract_x
 _atom_site_fract_y
 _atom_site_fract_z
 _atom_site_occupancy
  Mg  Mg0  1  -0.00000000  -0.00000000  -0.00000000  1
  B  B1  1  0.33340902  0.66670484  0.20436668  1
  B  B2  1  0.66659098  0.33329516  0.79563332  1
  H  H3  1  0.63874581  0.81937309  0.29123497  1
  H  H4  1  0.18060128  0.81940266  0.29125828  1
  H  H5  1  0.18060077  0.36119845  0.29125887  1
  H  H6  1  0.36125419  0.18062691  0.70876503  1
  H  H7  1  0.81939872  0.18059734  0.70874172  1
  H  H8  1  0.81939923  0.63880155  0.70874113  1
  H  H9  1  0.33333701  0.66666841  0.97703535  1
  H  H10  1  0.66666299  0.33333159  0.02296465  1
