# generated using pymatgen
data_ZrCrSi
_symmetry_space_group_name_H-M   'P 1'
_cell_length_a   3.51987006
_cell_length_b   6.74065797
_cell_length_c   7.88828968
_cell_angle_alpha   90.00000000
_cell_angle_beta   90.00000000
_cell_angle_gamma   90.00000000
_symmetry_Int_Tables_number   1
_chemical_formula_structural   ZrCrSi
_chemical_formula_sum   'Zr4 Cr4 Si4'
_cell_volume   187.15945550
_cell_formula_units_Z   4
loop_
 _symmetry_equiv_pos_site_id
 _symmetry_equiv_pos_as_xyz
  1  'x, y, z'
loop_
 _atom_site_type_symbol
 _atom_site_label
 _atom_site_symmetry_multiplicity
 _atom_site_fract_x
 _atom_site_fract_y
 _atom_site_fract_z
 _atom_site_occupancy
  Zr  Zr0  1  0.75000000  0.45945107  0.17067482  1
  Zr  Zr1  1  0.75000000  0.95945107  0.32932518  1
  Zr  Zr2  1  0.25000000  0.54054893  0.82932518  1
  Zr  Zr3  1  0.25000000  0.04054893  0.67067482  1
  Cr  Cr4  1  0.75000000  0.37762536  0.55824519  1
  Cr  Cr5  1  0.75000000  0.87762536  0.94175481  1
  Cr  Cr6  1  0.25000000  0.62237464  0.44175481  1
  Cr  Cr7  1  0.25000000  0.12237464  0.05824519  1
  Si  Si8  1  0.75000000  0.23891674  0.86743631  1
  Si  Si9  1  0.75000000  0.73891674  0.63256369  1
  Si  Si10  1  0.25000000  0.76108326  0.13256369  1
  Si  Si11  1  0.25000000  0.26108326  0.36743631  1
