# generated using pymatgen
data_Tl(Mo3S4)2
_symmetry_space_group_name_H-M   'P 1'
_cell_length_a   6.66215185
_cell_length_b   6.66215185
_cell_length_c   6.66215165
_cell_angle_alpha   88.98488096
_cell_angle_beta   88.98488096
_cell_angle_gamma   88.98487576
_symmetry_Int_Tables_number   1
_chemical_formula_structural   Tl(Mo3S4)2
_chemical_formula_sum   'Tl1 Mo6 S8'
_cell_volume   295.55711858
_cell_formula_units_Z   1
loop_
 _symmetry_equiv_pos_site_id
 _symmetry_equiv_pos_as_xyz
  1  'x, y, z'
loop_
 _atom_site_type_symbol
 _atom_site_label
 _atom_site_symmetry_multiplicity
 _atom_site_fract_x
 _atom_site_fract_y
 _atom_site_fract_z
 _atom_site_occupancy
  Tl  Tl0  1  -0.00000000  0.00000000  -0.00000000  1
  Mo  Mo1  1  0.58718156  0.77068390  0.43673322  1
  Mo  Mo2  1  0.77068390  0.43673322  0.58718156  1
  Mo  Mo3  1  0.43673322  0.58718156  0.77068390  1
  Mo  Mo4  1  0.41281844  0.22931610  0.56326678  1
  Mo  Mo5  1  0.22931610  0.56326678  0.41281844  1
  Mo  Mo6  1  0.56326678  0.41281844  0.22931610  1
  S  S7  1  0.75289943  0.75289943  0.75289943  1
  S  S8  1  0.24710057  0.24710057  0.24710057  1
  S  S9  1  0.60689297  0.26733549  0.87581087  1
  S  S10  1  0.26733549  0.87581087  0.60689297  1
  S  S11  1  0.87581087  0.60689297  0.26733549  1
  S  S12  1  0.39310703  0.73266451  0.12418913  1
  S  S13  1  0.73266451  0.12418913  0.39310703  1
  S  S14  1  0.12418913  0.39310703  0.73266451  1
