# generated using pymatgen
data_SrF2
_symmetry_space_group_name_H-M   'P 1'
_cell_length_a   3.83079236
_cell_length_b   6.37204217
_cell_length_c   7.52137704
_cell_angle_alpha   90.00000000
_cell_angle_beta   90.00000000
_cell_angle_gamma   90.00000000
_symmetry_Int_Tables_number   1
_chemical_formula_structural   SrF2
_chemical_formula_sum   'Sr4 F8'
_cell_volume   183.59659138
_cell_formula_units_Z   4
loop_
 _symmetry_equiv_pos_site_id
 _symmetry_equiv_pos_as_xyz
  1  'x, y, z'
loop_
 _atom_site_type_symbol
 _atom_site_label
 _atom_site_symmetry_multiplicity
 _atom_site_fract_x
 _atom_site_fract_y
 _atom_site_fract_z
 _atom_site_occupancy
  Sr  Sr0  1  0.75000000  0.25145420  0.61391703  1
  Sr  Sr1  1  0.75000000  0.75145420  0.88608297  1
  Sr  Sr2  1  0.25000000  0.74854580  0.38608297  1
  Sr  Sr3  1  0.25000000  0.24854580  0.11391703  1
  F  F4  1  0.75000000  0.14260719  0.92861894  1
  F  F5  1  0.75000000  0.64260719  0.57138106  1
  F  F6  1  0.25000000  0.85739281  0.07138106  1
  F  F7  1  0.25000000  0.35739281  0.42861894  1
  F  F8  1  0.75000000  0.52645463  0.16691160  1
  F  F9  1  0.75000000  0.02645463  0.33308840  1
  F  F10  1  0.25000000  0.47354537  0.83308840  1
  F  F11  1  0.25000000  0.97354537  0.66691160  1
