# generated using pymatgen
data_PrPd5
_symmetry_space_group_name_H-M   'P 1'
_cell_length_a   5.10365654
_cell_length_b   5.10462424
_cell_length_c   9.43055263
_cell_angle_alpha   90.03034852
_cell_angle_beta   90.00000000
_cell_angle_gamma   119.99372379
_symmetry_Int_Tables_number   1
_chemical_formula_structural   PrPd5
_chemical_formula_sum   'Pr2 Pd10'
_cell_volume   212.78468933
_cell_formula_units_Z   2
loop_
 _symmetry_equiv_pos_site_id
 _symmetry_equiv_pos_as_xyz
  1  'x, y, z'
loop_
 _atom_site_type_symbol
 _atom_site_label
 _atom_site_symmetry_multiplicity
 _atom_site_fract_x
 _atom_site_fract_y
 _atom_site_fract_z
 _atom_site_occupancy
  Pr  Pr0  1  0.66670308  0.33333629  0.24972648  1
  Pr  Pr1  1  0.33336680  0.66666371  0.75027352  1
  Pd  Pd2  1  0.67782411  1.00000000  0.50000000  1
  Pd  Pd3  1  0.32185520  0.32160831  0.50001178  1
  Pd  Pd4  1  0.00024689  0.67839169  0.49998822  1
  Pd  Pd5  1  0.32130893  0.00000000  0.00000000  1
  Pd  Pd6  1  0.67839622  0.67815636  0.00000101  1
  Pd  Pd7  1  0.00023986  0.32184364  -0.00000101  1
  Pd  Pd8  1  0.66649741  0.33325719  0.75007445  1
  Pd  Pd9  1  0.33324023  0.66674281  0.24992555  1
  Pd  Pd10  1  0.00029449  0.00006771  0.75019292  1
  Pd  Pd11  1  0.00022678  0.99993229  0.24980708  1
