# generated using pymatgen
data_Mn2(PO3)5
_symmetry_space_group_name_H-M   'P 1'
_cell_length_a   12.96593284
_cell_length_b   8.55071189
_cell_length_c   5.40436637
_cell_angle_alpha   90.00000000
_cell_angle_beta   94.67325547
_cell_angle_gamma   90.00000000
_symmetry_Int_Tables_number   1
_chemical_formula_structural   Mn2(PO3)5
_chemical_formula_sum   'Mn4 P10 O30'
_cell_volume   597.17912506
_cell_formula_units_Z   2
loop_
 _symmetry_equiv_pos_site_id
 _symmetry_equiv_pos_as_xyz
  1  'x, y, z'
loop_
 _atom_site_type_symbol
 _atom_site_label
 _atom_site_symmetry_multiplicity
 _atom_site_fract_x
 _atom_site_fract_y
 _atom_site_fract_z
 _atom_site_occupancy
  Mn  Mn0  1  0.95480972  0.28181953  0.85975829  1
  Mn  Mn1  1  0.45480972  0.71818047  0.35975829  1
  Mn  Mn2  1  0.54544108  0.28192247  0.64017273  1
  Mn  Mn3  1  0.04544108  0.71807753  0.14017273  1
  P  P4  1  0.25041433  0.94169308  0.25056476  1
  P  P5  1  0.75041433  0.05830692  0.75056476  1
  P  P6  1  0.59198511  0.82553944  0.89717957  1
  P  P7  1  0.64015742  0.50904272  0.10536796  1
  P  P8  1  0.90847695  0.82561069  0.60160853  1
  P  P9  1  0.09198511  0.17446056  0.39717957  1
  P  P10  1  0.14015742  0.49095728  0.60536796  1
  P  P11  1  0.40847695  0.17438931  0.10160853  1
  P  P12  1  0.85975675  0.50841525  0.39631824  1
  P  P13  1  0.35975675  0.49158475  0.89631824  1
  O  O14  1  0.34872740  0.34115510  0.06491091  1
  O  O15  1  0.86841781  0.36812752  0.56366145  1
  O  O16  1  0.82796960  0.14520677  0.92222284  1
  O  O17  1  0.84872740  0.65884490  0.56491091  1
  O  O18  1  0.81014780  0.94076684  0.57776876  1
  O  O19  1  0.67306453  0.14591564  0.57899199  1
  O  O20  1  0.19005073  0.05886904  0.42311193  1
  O  O21  1  0.31014780  0.05923316  0.07776876  1
  O  O22  1  0.32796960  0.85479323  0.42222284  1
  O  O23  1  0.06068910  0.47103982  0.79460136  1
  O  O24  1  0.24979506  0.50180003  0.75158931  1
  O  O25  1  0.45968910  0.17586050  0.36032146  1
  O  O26  1  0.17306453  0.85408436  0.07899199  1
  O  O27  1  0.46891316  0.14503152  0.88355735  1
  O  O28  1  0.65186879  0.65903293  0.93587936  1
  O  O29  1  0.63097662  0.36806343  0.93898938  1
  O  O30  1  0.43907388  0.47285795  0.70616898  1
  O  O31  1  0.04174966  0.17615925  0.13779967  1
  O  O32  1  0.36841781  0.63187248  0.06366145  1
  O  O33  1  0.53043539  0.85458585  0.11384717  1
  O  O34  1  0.96891316  0.85496848  0.38355735  1
  O  O35  1  0.15186879  0.34096707  0.43587936  1
  O  O36  1  0.03043539  0.14541415  0.61384717  1
  O  O37  1  0.93907388  0.52714205  0.20616898  1
  O  O38  1  0.69005073  0.94113096  0.92311193  1
  O  O39  1  0.54174966  0.82384075  0.63779967  1
  O  O40  1  0.74979506  0.49819997  0.25158931  1
  O  O41  1  0.95968910  0.82413950  0.86032146  1
  O  O42  1  0.56068910  0.52896018  0.29460036  1
  O  O43  1  0.13097662  0.63193657  0.43898938  1
