# generated using pymatgen
data_NaCoBO3
_symmetry_space_group_name_H-M   'P 1'
_cell_length_a   5.04632083
_cell_length_b   8.88987892
_cell_length_c   5.68288152
_cell_angle_alpha   90.00000000
_cell_angle_beta   98.65719245
_cell_angle_gamma   90.00000000
_symmetry_Int_Tables_number   1
_chemical_formula_structural   NaCoBO3
_chemical_formula_sum   'Na4 Co4 B4 O12'
_cell_volume   252.03614119
_cell_formula_units_Z   4
loop_
 _symmetry_equiv_pos_site_id
 _symmetry_equiv_pos_as_xyz
  1  'x, y, z'
loop_
 _atom_site_type_symbol
 _atom_site_label
 _atom_site_symmetry_multiplicity
 _atom_site_fract_x
 _atom_site_fract_y
 _atom_site_fract_z
 _atom_site_occupancy
  Na  Na0  1  -0.00000000  0.66394049  0.75000000  1
  Na  Na1  1  -0.00000000  0.33605951  0.25000000  1
  Na  Na2  1  0.50000000  0.16394049  0.75000000  1
  Na  Na3  1  0.50000000  0.83605951  0.25000000  1
  Co  Co4  1  -0.00000000  0.00000000  0.50000000  1
  Co  Co5  1  -0.00000000  0.00000000  -0.00000000  1
  Co  Co6  1  0.50000000  0.50000000  0.50000000  1
  Co  Co7  1  0.50000000  0.50000000  -0.00000000  1
  B  B8  1  -0.00000000  0.33247465  0.75000000  1
  B  B9  1  -0.00000000  0.66752535  0.25000000  1
  B  B10  1  0.50000000  0.83247465  0.75000000  1
  B  B11  1  0.50000000  0.16752535  0.25000000  1
  O  O12  1  -0.00000000  0.17641078  0.75000000  1
  O  O13  1  -0.00000000  0.82358922  0.25000000  1
  O  O14  1  0.22316140  0.41072510  0.69975306  1
  O  O15  1  0.27683860  0.91072510  0.80024694  1
  O  O16  1  0.22316140  0.58927490  0.19975406  1
  O  O17  1  0.27683860  0.08927490  0.30024694  1
  O  O18  1  0.50000000  0.67641078  0.75000000  1
  O  O19  1  0.50000000  0.32358922  0.25000000  1
  O  O20  1  0.72316140  0.91072510  0.69975306  1
  O  O21  1  0.77683860  0.41072510  0.80024694  1
  O  O22  1  0.72316140  0.08927490  0.19975406  1
  O  O23  1  0.77683860  0.58927490  0.30024694  1
