# generated using pymatgen
data_Cr5Si3C
_symmetry_space_group_name_H-M   'P 1'
_cell_length_a   4.81841840
_cell_length_b   6.93068952
_cell_length_c   6.93085849
_cell_angle_alpha   119.99919870
_cell_angle_beta   90.00000000
_cell_angle_gamma   90.00000000
_symmetry_Int_Tables_number   1
_chemical_formula_structural   Cr5Si3C
_chemical_formula_sum   'Cr10 Si6 C2'
_cell_volume   200.44818247
_cell_formula_units_Z   2
loop_
 _symmetry_equiv_pos_site_id
 _symmetry_equiv_pos_as_xyz
  1  'x, y, z'
loop_
 _atom_site_type_symbol
 _atom_site_label
 _atom_site_symmetry_multiplicity
 _atom_site_fract_x
 _atom_site_fract_y
 _atom_site_fract_z
 _atom_site_occupancy
  Cr  Cr0  1  0.49999952  0.33338949  0.66678768  1
  Cr  Cr1  1  0.49999952  0.66660181  0.33321232  1
  Cr  Cr2  1  -0.00000048  0.66661051  0.33321232  1
  Cr  Cr3  1  -0.00000048  0.33339819  0.66678768  1
  Cr  Cr4  1  0.75000529  0.22971689  0.00000000  1
  Cr  Cr5  1  0.74999883  0.77033961  0.77039671  1
  Cr  Cr6  1  0.74999883  0.99994290  0.22960329  1
  Cr  Cr7  1  0.25000529  0.77028311  1.00000000  1
  Cr  Cr8  1  0.24999883  0.22966039  0.22960329  1
  Cr  Cr9  1  0.24999883  0.00005710  0.77039671  1
  Si  Si10  1  0.74999303  0.59431481  0.00000000  1
  Si  Si11  1  0.75000233  0.40571727  0.40571987  1
  Si  Si12  1  0.75000233  -0.00000260  0.59428013  1
  Si  Si13  1  0.24999303  0.40568519  1.00000000  1
  Si  Si14  1  0.25000233  0.59428273  0.59428013  1
  Si  Si15  1  0.25000233  0.00000260  0.40571987  1
  C  C16  1  0.50000032  0.00000041  -0.00000000  1
  C  C17  1  0.00000032  -0.00000041  0.00000000  1
