# generated using pymatgen
data_Sb4PdC4(O2F11)2
_symmetry_space_group_name_H-M   'P 1'
_cell_length_a   10.10775991
_cell_length_b   12.87373552
_cell_length_c   18.38980796
_cell_angle_alpha   103.39422930
_cell_angle_beta   90.00000000
_cell_angle_gamma   90.00000000
_symmetry_Int_Tables_number   1
_chemical_formula_structural   Sb4PdC4(O2F11)2
_chemical_formula_sum   'Sb16 Pd4 C16 O16 F88'
_cell_volume   2327.87633477
_cell_formula_units_Z   4
loop_
 _symmetry_equiv_pos_site_id
 _symmetry_equiv_pos_as_xyz
  1  'x, y, z'
loop_
 _atom_site_type_symbol
 _atom_site_label
 _atom_site_symmetry_multiplicity
 _atom_site_fract_x
 _atom_site_fract_y
 _atom_site_fract_z
 _atom_site_occupancy
  Sb  Sb0  1  0.74474375  0.55274892  0.83122931  1
  Sb  Sb1  1  0.26045801  0.98988329  0.67589966  1
  Sb  Sb2  1  0.76045801  0.01011671  0.82410034  1
  Sb  Sb3  1  0.75873326  0.43436961  0.51511429  1
  Sb  Sb4  1  0.24481873  0.87912972  0.86578986  1
  Sb  Sb5  1  0.25873326  0.56563039  0.98488571  1
  Sb  Sb6  1  0.25518127  0.87912972  0.36578986  1
  Sb  Sb7  1  0.73954199  0.01011671  0.32410034  1
  Sb  Sb8  1  0.24126674  0.56563039  0.48488571  1
  Sb  Sb9  1  0.25525625  0.44725108  0.16877069  1
  Sb  Sb10  1  0.75525625  0.55274892  0.33122931  1
  Sb  Sb11  1  0.23954199  0.98988329  0.17589966  1
  Sb  Sb12  1  0.75518127  0.12087028  0.13421014  1
  Sb  Sb13  1  0.74481873  0.12087028  0.63421014  1
  Sb  Sb14  1  0.24474375  0.44725108  0.66877069  1
  Sb  Sb15  1  0.74126674  0.43436961  0.01511429  1
  Pd  Pd16  1  0.24164213  0.22810494  0.41147239  1
  Pd  Pd17  1  0.75835787  0.77189506  0.58852761  1
  Pd  Pd18  1  0.25835787  0.22810494  0.91147239  1
  Pd  Pd19  1  0.74164213  0.77189506  0.08852761  1
  C  C20  1  0.12173518  0.27509428  0.84699616  1
  C  C21  1  0.87826482  0.72490572  0.15300384  1
  C  C22  1  0.88641863  0.80384532  0.02340789  1
  C  C23  1  0.88786652  0.82097716  0.52168669  1
  C  C24  1  0.61358137  0.80384532  0.52340789  1
  C  C25  1  0.37826482  0.27509428  0.34699616  1
  C  C26  1  0.90803231  0.73631518  0.64960881  1
  C  C27  1  0.09196769  0.26368482  0.35039119  1
  C  C28  1  0.61213348  0.82097716  0.02168669  1
  C  C29  1  0.38641863  0.19615468  0.47659211  1
  C  C30  1  0.38786652  0.17902284  0.97831331  1
  C  C31  1  0.62173518  0.72490572  0.65300384  1
  C  C32  1  0.11358137  0.19615468  0.97659211  1
  C  C33  1  0.40803231  0.26368482  0.85039119  1
  C  C34  1  0.11213348  0.17902284  0.47831331  1
  C  C35  1  0.59196769  0.73631518  0.14960881  1
  O  O36  1  0.96638718  0.81955690  0.98426559  1
  O  O37  1  0.46638718  0.18044310  0.51573441  1
  O  O38  1  0.45963951  0.30275478  0.31364586  1
  O  O39  1  0.49601786  0.28544078  0.81889081  1
  O  O40  1  0.95963951  0.69724522  0.18635414  1
  O  O41  1  0.04036049  0.30275478  0.81364586  1
  O  O42  1  0.54036049  0.69724522  0.68635414  1
  O  O43  1  0.95675965  0.84956029  0.48188876  1
  O  O44  1  1.00398214  0.28544078  0.31889081  1
  O  O45  1  -0.00398214  0.71455922  0.68110919  1
  O  O46  1  0.50398214  0.71455922  0.18110919  1
  O  O47  1  0.45675965  0.15043971  0.01811124  1
  O  O48  1  0.04324035  0.15043971  0.51811124  1
  O  O49  1  0.54324035  0.84956029  0.98188876  1
  O  O50  1  0.03361282  0.18044310  0.01573441  1
  O  O51  1  0.53361282  0.81955690  0.48426559  1
  F  F52  1  0.55938795  0.55897460  0.81809516  1
  F  F53  1  0.26780144  0.31848026  0.09057568  1
  F  F54  1  0.87947803  0.00522646  0.10741396  1
  F  F55  1  0.88798893  0.53879359  0.55959274  1
  F  F56  1  0.63061743  0.34234663  0.45803686  1
  F  F57  1  0.60989159  0.11504108  0.36333216  1
  F  F58  1  0.07612592  0.45650694  0.14054829  1
  F  F59  1  0.24980594  0.85706279  0.46405650  1
  F  F60  1  0.73798660  0.09349306  0.74126343  1
  F  F61  1  0.39657383  0.78411393  0.33242838  1
  F  F62  1  0.75019406  0.14293721  0.53594350  1
  F  F63  1  0.28096011  0.60407977  0.39460822  1
  F  F64  1  0.92387408  0.54349306  0.85945171  1
  F  F65  1  0.63228470  0.91331526  0.77001936  1
  F  F66  1  0.89502300  0.33118649  0.48551336  1
  F  F67  1  0.63637596  0.55176382  0.53183397  1
  F  F68  1  0.42387408  0.45650694  0.64054829  1
  F  F69  1  0.12410426  0.89794593  0.62720912  1
  F  F70  1  0.39070850  0.07326961  0.73868995  1
  F  F71  1  0.73219856  0.68151974  0.90942432  1
  F  F72  1  0.86938257  0.34234663  0.95803686  1
  F  F73  1  0.86362404  0.55176382  0.03183397  1
  F  F74  1  0.80471024  0.47636588  0.41665692  1
  F  F75  1  0.23798660  0.90650694  0.75873657  1
  F  F76  1  0.71818563  0.62818738  0.25567486  1
  F  F77  1  0.89657383  0.21588607  0.16757162  1
  F  F78  1  0.13228470  0.08668474  0.72998064  1
  F  F79  1  0.60497700  0.33118649  0.98551336  1
  F  F80  1  0.69528976  0.47636588  0.91665692  1
  F  F81  1  0.60342617  0.21588607  0.66757162  1
  F  F82  1  0.37777737  0.77833044  0.82743114  1
  F  F83  1  0.39010841  0.88495892  0.63666784  1
  F  F84  1  0.37713156  0.98931025  0.88622143  1
  F  F85  1  0.10929150  0.07326961  0.23868995  1
  F  F86  1  0.12222263  0.77833044  0.32743114  1
  F  F87  1  0.37589574  0.89794593  0.12720912  1
  F  F88  1  0.12286844  0.98931025  0.38622143  1
  F  F89  1  0.87713156  0.01068975  0.61377857  1
  F  F90  1  0.13637596  0.44823618  0.96816603  1
  F  F91  1  0.94061205  0.55897460  0.31809516  1
  F  F92  1  0.13061743  0.65765337  0.04196314  1
  F  F93  1  0.25219783  0.58645359  0.73030299  1
  F  F94  1  0.10497700  0.66881351  0.51448664  1
  F  F95  1  0.87589574  0.10205407  0.37279088  1
  F  F96  1  0.62222263  0.22166956  0.17256886  1
  F  F97  1  0.28181437  0.37181262  0.74432514  1
  F  F98  1  0.89070850  0.92673039  0.76131005  1
  F  F99  1  0.77697283  0.93599504  0.90171412  1
  F  F100  1  0.36938257  0.65765337  0.54196314  1
  F  F101  1  0.22302717  0.06400496  0.09828588  1
  F  F102  1  0.74780217  0.41354641  0.26969701  1
  F  F103  1  0.74980594  0.14293721  0.03594350  1
  F  F104  1  0.38798893  0.46120641  0.94040726  1
  F  F105  1  0.27697283  0.06400496  0.59828588  1
  F  F106  1  0.36362404  0.44823618  0.46816603  1
  F  F107  1  0.44061205  0.44102540  0.18190484  1
  F  F108  1  0.61201107  0.53879359  0.05959274  1
  F  F109  1  0.78181437  0.62818738  0.75567486  1
  F  F110  1  0.76780144  0.68151974  0.40942432  1
  F  F111  1  0.10342617  0.78411393  0.83242838  1
  F  F112  1  0.11201107  0.46120641  0.44040726  1
  F  F113  1  0.24780217  0.58645359  0.23030299  1
  F  F114  1  0.10989159  0.88495892  0.13666784  1
  F  F115  1  0.37947803  0.99477354  0.39258604  1
  F  F116  1  0.19528976  0.52363412  0.58334308  1
  F  F117  1  0.12052197  0.99477354  0.89258604  1
  F  F118  1  0.71903989  0.39592023  0.60539178  1
  F  F119  1  0.86771530  0.91331526  0.27001936  1
  F  F120  1  0.39502300  0.66881351  0.01448664  1
  F  F121  1  0.30471024  0.52363412  0.08334308  1
  F  F122  1  0.21903989  0.60407977  0.89460822  1
  F  F123  1  0.76201340  0.09349306  0.24126343  1
  F  F124  1  0.60929150  0.92673039  0.26131005  1
  F  F125  1  0.36771530  0.08668474  0.22998064  1
  F  F126  1  0.26201340  0.90650694  0.25873657  1
  F  F127  1  0.78096011  0.39592023  0.10539178  1
  F  F128  1  0.23219856  0.31848026  0.59057568  1
  F  F129  1  0.25019406  0.85706279  0.96405650  1
  F  F130  1  0.62052197  0.00522646  0.60741396  1
  F  F131  1  0.62410426  0.10205407  0.87279088  1
  F  F132  1  0.75219783  0.41354641  0.76969701  1
  F  F133  1  0.21818563  0.37181262  0.24432514  1
  F  F134  1  0.89010841  0.11504108  0.86333216  1
  F  F135  1  0.62286844  0.01068975  0.11377857  1
  F  F136  1  0.05938795  0.44102540  0.68190484  1
  F  F137  1  0.87777737  0.22166956  0.67256886  1
  F  F138  1  0.72302717  0.93599504  0.40171412  1
  F  F139  1  0.57612592  0.54349306  0.35945171  1
