# generated using pymatgen
data_In4Bi3Pb
_symmetry_space_group_name_H-M   'P 1'
_cell_length_a   8.46126354
_cell_length_b   8.46126354
_cell_length_c   9.10955782
_cell_angle_alpha   117.67248544
_cell_angle_beta   117.67248544
_cell_angle_gamma   90.00000000
_symmetry_Int_Tables_number   1
_chemical_formula_structural   In4Bi3Pb
_chemical_formula_sum   'In8 Bi6 Pb2'
_cell_volume   491.79507337
_cell_formula_units_Z   2
loop_
 _symmetry_equiv_pos_site_id
 _symmetry_equiv_pos_as_xyz
  1  'x, y, z'
loop_
 _atom_site_type_symbol
 _atom_site_label
 _atom_site_symmetry_multiplicity
 _atom_site_fract_x
 _atom_site_fract_y
 _atom_site_fract_z
 _atom_site_occupancy
  In  In0  1  0.01442348  0.81662242  0.33104590  1
  In  In1  1  0.31662242  0.51442348  0.33104590  1
  In  In2  1  0.81662242  0.31662242  0.33104590  1
  In  In3  1  0.51442348  0.01442348  0.33104590  1
  In  In4  1  0.98557652  0.18337758  0.66895410  1
  In  In5  1  0.68337758  0.48557652  0.66895410  1
  In  In6  1  0.18337758  0.68337758  0.66895410  1
  In  In7  1  0.48557652  0.98557652  0.66895410  1
  Bi  Bi8  1  0.75000000  0.75000000  0.50000000  1
  Bi  Bi9  1  0.25000000  0.25000000  0.50000000  1
  Bi  Bi10  1  0.63783693  0.86216307  -0.00000000  1
  Bi  Bi11  1  0.36216307  0.13783693  -0.00000000  1
  Bi  Bi12  1  0.86216307  0.36216307  -0.00000000  1
  Bi  Bi13  1  0.13783693  0.63783693  -0.00000000  1
  Pb  Pb14  1  0.50000000  0.50000000  -0.00000000  1
  Pb  Pb15  1  0.00000000  0.00000000  -0.00000000  1
