# generated using pymatgen
data_CeTi2O6
_symmetry_space_group_name_H-M   'P 1'
_cell_length_a   5.18473005
_cell_length_b   6.88803815
_cell_length_c   6.88803815
_cell_angle_alpha   78.02775719
_cell_angle_beta   70.95137239
_cell_angle_gamma   70.95137239
_symmetry_Int_Tables_number   1
_chemical_formula_structural   CeTi2O6
_chemical_formula_sum   'Ce2 Ti4 O12'
_cell_volume   218.38107158
_cell_formula_units_Z   2
loop_
 _symmetry_equiv_pos_site_id
 _symmetry_equiv_pos_as_xyz
  1  'x, y, z'
loop_
 _atom_site_type_symbol
 _atom_site_label
 _atom_site_symmetry_multiplicity
 _atom_site_fract_x
 _atom_site_fract_y
 _atom_site_fract_z
 _atom_site_occupancy
  Ce  Ce0  1  0.75000000  0.80817955  0.19182045  1
  Ce  Ce1  1  0.25000000  0.19182045  0.80817955  1
  Ti  Ti2  1  0.44570207  0.35158301  0.19016572  1
  Ti  Ti3  1  0.05429793  0.80983428  0.64841699  1
  Ti  Ti4  1  0.55429793  0.64841699  0.80983428  1
  Ti  Ti5  1  0.94570207  0.19016572  0.35158301  1
  O  O6  1  0.95608134  0.88576909  0.39364401  1
  O  O7  1  0.54391866  0.60635599  0.11423091  1
  O  O8  1  0.04391866  0.11423091  0.60635599  1
  O  O9  1  0.45608134  0.39364401  0.88576909  1
  O  O10  1  0.54030721  0.27849650  0.45109337  1
  O  O11  1  0.95969279  0.54890663  0.72150350  1
  O  O12  1  0.45969279  0.72150350  0.54890663  1
  O  O13  1  0.04030721  0.45109337  0.27849650  1
  O  O14  1  0.36637061  0.08791979  0.18795824  1
  O  O15  1  0.13362939  0.81204176  0.91208021  1
  O  O16  1  0.63362939  0.91208021  0.81204176  1
  O  O17  1  0.86637061  0.18795824  0.08791979  1
