# generated using pymatgen
data_Bi4Te2Br2O9
_symmetry_space_group_name_H-M   'P 1'
_cell_length_a   5.57226820
_cell_length_b   5.56870806
_cell_length_c   9.81697657
_cell_angle_alpha   90.00000000
_cell_angle_beta   90.00000000
_cell_angle_gamma   90.00000000
_symmetry_Int_Tables_number   1
_chemical_formula_structural   Bi4Te2Br2O9
_chemical_formula_sum   'Bi4 Te2 Br2 O9'
_cell_volume   304.62407006
_cell_formula_units_Z   1
loop_
 _symmetry_equiv_pos_site_id
 _symmetry_equiv_pos_as_xyz
  1  'x, y, z'
loop_
 _atom_site_type_symbol
 _atom_site_label
 _atom_site_symmetry_multiplicity
 _atom_site_fract_x
 _atom_site_fract_y
 _atom_site_fract_z
 _atom_site_occupancy
  Bi  Bi0  1  0.00000000  0.00000000  0.54661146  1
  Bi  Bi1  1  0.50000000  0.50000000  0.54408601  1
  Bi  Bi2  1  0.00000000  0.50000000  0.79778789  1
  Bi  Bi3  1  0.50000000  0.00000000  0.80978505  1
  Te  Te4  1  0.50000000  0.00000000  0.25211118  1
  Te  Te5  1  0.00000000  0.50000000  0.30078706  1
  Br  Br6  1  0.50000000  0.50000000  0.98435798  1
  Br  Br7  1  0.00000000  0.00000000  0.98209287  1
  O  O8  1  0.74346773  0.24420703  0.68222848  1
  O  O9  1  0.25653227  0.75579297  0.68222848  1
  O  O10  1  0.74346773  0.75579297  0.68222848  1
  O  O11  1  0.25653227  0.24420703  0.68222848  1
  O  O12  1  0.73056739  0.23067760  0.34253753  1
  O  O13  1  0.26943261  0.76932240  0.34253753  1
  O  O14  1  0.73056739  0.76932240  0.34253753  1
  O  O15  1  0.26943261  0.23067760  0.34253753  1
  O  O16  1  0.00000000  0.50000000  0.49181645  1
