# generated using pymatgen
data_Tb5Si3C
_symmetry_space_group_name_H-M   'P 1'
_cell_length_a   6.47786758
_cell_length_b   8.49161505
_cell_length_c   8.49168021
_cell_angle_alpha   119.99974416
_cell_angle_beta   90.00000000
_cell_angle_gamma   90.00000000
_symmetry_Int_Tables_number   1
_chemical_formula_structural   Tb5Si3C
_chemical_formula_sum   'Tb10 Si6 C2'
_cell_volume   404.52721653
_cell_formula_units_Z   2
loop_
 _symmetry_equiv_pos_site_id
 _symmetry_equiv_pos_as_xyz
  1  'x, y, z'
loop_
 _atom_site_type_symbol
 _atom_site_label
 _atom_site_symmetry_multiplicity
 _atom_site_fract_x
 _atom_site_fract_y
 _atom_site_fract_z
 _atom_site_occupancy
  Tb  Tb0  1  0.50000010  0.33331140  0.66663223  1
  Tb  Tb1  1  0.50000010  0.66667918  0.33336777  1
  Tb  Tb2  1  0.00000010  0.66668860  0.33336777  1
  Tb  Tb3  1  0.00000010  0.33332082  0.66663223  1
  Tb  Tb4  1  0.75000222  0.22351837  1.00000000  1
  Tb  Tb5  1  0.74999897  0.77645272  0.77644100  1
  Tb  Tb6  1  0.74999897  0.00001173  0.22355900  1
  Tb  Tb7  1  0.25000222  0.77648163  0.00000000  1
  Tb  Tb8  1  0.24999897  0.22354728  0.22355900  1
  Tb  Tb9  1  0.24999897  0.99998827  0.77644100  1
  Si  Si10  1  0.75001362  0.58986086  1.00000000  1
  Si  Si11  1  0.74999301  0.41015280  0.41013549  1
  Si  Si12  1  0.74999301  0.00001731  0.58986451  1
  Si  Si13  1  0.25001362  0.41013914  0.00000000  1
  Si  Si14  1  0.24999301  0.58984720  0.58986451  1
  Si  Si15  1  0.24999301  0.99998269  0.41013549  1
  C  C16  1  0.49999999  0.99999095  0.00000000  1
  C  C17  1  0.99999999  0.00000905  0.00000000  1
