# generated using pymatgen
data_Rb2AsAuI6
_symmetry_space_group_name_H-M   'P 1'
_cell_length_a   8.29493125
_cell_length_b   8.29493169
_cell_length_c   8.29493167
_cell_angle_alpha   59.99999865
_cell_angle_beta   59.99999799
_cell_angle_gamma   59.99999811
_symmetry_Int_Tables_number   1
_chemical_formula_structural   Rb2AsAuI6
_chemical_formula_sum   'Rb2 As1 Au1 I6'
_cell_volume   403.57420739
_cell_formula_units_Z   1
loop_
 _symmetry_equiv_pos_site_id
 _symmetry_equiv_pos_as_xyz
  1  'x, y, z'
loop_
 _atom_site_type_symbol
 _atom_site_label
 _atom_site_symmetry_multiplicity
 _atom_site_fract_x
 _atom_site_fract_y
 _atom_site_fract_z
 _atom_site_occupancy
  Rb  Rb0  1  0.25000000  0.25000000  0.25000000  1
  Rb  Rb1  1  0.75000000  0.75000000  0.75000000  1
  As  As2  1  0.00000000  -0.00000000  -0.00000000  1
  Au  Au3  1  0.50000000  0.50000000  0.50000000  1
  I  I4  1  0.24779499  0.75220501  0.24779499  1
  I  I5  1  0.75220501  0.75220501  0.24779499  1
  I  I6  1  0.75220501  0.24779499  0.75220501  1
  I  I7  1  0.75220501  0.24779499  0.24779499  1
  I  I8  1  0.24779499  0.75220501  0.75220501  1
  I  I9  1  0.24779499  0.24779499  0.75220501  1
