# generated using pymatgen
data_H2CO2
_symmetry_space_group_name_H-M   'P 1'
_cell_length_a   3.74693545
_cell_length_b   5.45115142
_cell_length_c   10.52962796
_cell_angle_alpha   90.00000000
_cell_angle_beta   90.00000000
_cell_angle_gamma   90.00000000
_symmetry_Int_Tables_number   1
_chemical_formula_structural   H2CO2
_chemical_formula_sum   'H8 C4 O8'
_cell_volume   215.06883565
_cell_formula_units_Z   4
loop_
 _symmetry_equiv_pos_site_id
 _symmetry_equiv_pos_as_xyz
  1  'x, y, z'
loop_
 _atom_site_type_symbol
 _atom_site_label
 _atom_site_symmetry_multiplicity
 _atom_site_fract_x
 _atom_site_fract_y
 _atom_site_fract_z
 _atom_site_occupancy
  H  H0  1  0.07223367  0.31452490  0.60475058  1
  H  H1  1  0.53824082  0.36161820  0.35008600  1
  H  H2  1  0.96175918  0.36161820  0.85008600  1
  H  H3  1  0.03824082  0.86161820  0.14991400  1
  H  H4  1  0.57223367  0.81452490  0.89524942  1
  H  H5  1  0.92776633  0.81452490  0.39524942  1
  H  H6  1  0.42776633  0.31452490  0.10475058  1
  H  H7  1  0.46175918  0.86161820  0.64991400  1
  C  C8  1  0.31415382  0.16384635  0.16164474  1
  C  C9  1  0.18584618  0.16384635  0.66164474  1
  C  C10  1  0.81415382  0.66384635  0.33835526  1
  C  C11  1  0.68584618  0.66384635  0.83835526  1
  O  O12  1  0.65277112  0.65295904  0.72110055  1
  O  O13  1  0.64538198  0.49970150  0.40663150  1
  O  O14  1  0.34722888  0.15295904  0.27889945  1
  O  O15  1  0.14538198  -0.00029850  0.09336850  1
  O  O16  1  0.15277112  0.15295904  0.77889945  1
  O  O17  1  0.35461802  -0.00029850  0.59336850  1
  O  O18  1  0.85461802  0.49970150  0.90663150  1
  O  O19  1  0.84722888  0.65295904  0.22110055  1
