# generated using pymatgen
data_AsS6N5F6
_symmetry_space_group_name_H-M   'P 1'
_cell_length_a   12.68852132
_cell_length_b   12.68852166
_cell_length_c   17.26017212
_cell_angle_alpha   84.59565792
_cell_angle_beta   84.59565776
_cell_angle_gamma   89.28129333
_symmetry_Int_Tables_number   1
_chemical_formula_structural   AsS6N5F6
_chemical_formula_sum   'As8 S48 N40 F48'
_cell_volume   2754.19412002
_cell_formula_units_Z   8
loop_
 _symmetry_equiv_pos_site_id
 _symmetry_equiv_pos_as_xyz
  1  'x, y, z'
loop_
 _atom_site_type_symbol
 _atom_site_label
 _atom_site_symmetry_multiplicity
 _atom_site_fract_x
 _atom_site_fract_y
 _atom_site_fract_z
 _atom_site_occupancy
  As  As0  1  0.24377123  0.91935522  0.05874202  1
  As  As1  1  0.42167191  0.23623375  0.56473438  1
  As  As2  1  0.75622877  0.08064478  0.94125798  1
  As  As3  1  0.76376625  0.57832809  0.93526562  1
  As  As4  1  0.23623375  0.42167191  0.06473438  1
  As  As5  1  0.08064478  0.75622877  0.44125798  1
  As  As6  1  0.91935522  0.24377123  0.55874202  1
  As  As7  1  0.57832809  0.76376625  0.43526562  1
  S  S8  1  0.68973028  0.53182043  0.27892531  1
  S  S9  1  0.21299925  0.53717827  0.28495811  1
  S  S10  1  0.34042362  0.05674443  0.38773210  1
  S  S11  1  0.05674443  0.34042362  0.88773210  1
  S  S12  1  0.84250498  0.80638629  0.09534199  1
  S  S13  1  0.30911320  0.84722224  0.60327072  1
  S  S14  1  0.84722224  0.30911320  0.10327072  1
  S  S15  1  0.05724985  0.84215415  0.89213705  1
  S  S16  1  0.80638629  0.84250498  0.59534199  1
  S  S17  1  0.94275015  0.15784585  0.10786295  1
  S  S18  1  0.46817957  0.31026972  0.22107469  1
  S  S19  1  0.65974666  0.53043287  0.59962398  1
  S  S20  1  0.65957638  0.94325557  0.61226790  1
  S  S21  1  0.53043287  0.65974666  0.09962398  1
  S  S22  1  0.53182043  0.68973028  0.77892531  1
  S  S23  1  0.52719247  0.16375277  0.11742756  1
  S  S24  1  0.16375277  0.52719247  0.61742756  1
  S  S25  1  0.47280753  0.83624723  0.88257244  1
  S  S26  1  0.71945597  0.02473014  0.27351130  1
  S  S27  1  0.78700075  0.46282173  0.71504189  1
  S  S28  1  0.83624723  0.47280753  0.38257244  1
  S  S29  1  0.37338956  0.19113721  0.90499228  1
  S  S30  1  0.46956713  0.34025334  0.90037602  1
  S  S31  1  0.02970760  0.19760135  0.78103403  1
  S  S32  1  0.94325557  0.65957638  0.11226790  1
  S  S33  1  0.15749502  0.19361371  0.90465801  1
  S  S34  1  0.36911785  0.68989110  0.90016309  1
  S  S35  1  0.19361371  0.15749502  0.40465801  1
  S  S36  1  0.53717827  0.21299925  0.78495811  1
  S  S37  1  0.97526986  0.28054403  0.22648870  1
  S  S38  1  0.80886279  0.62661044  0.59500772  1
  S  S39  1  0.80239865  0.97029240  0.71896597  1
  S  S40  1  0.31010890  0.63088215  0.59983691  1
  S  S41  1  0.62661044  0.80886279  0.09500772  1
  S  S42  1  0.31026972  0.46817957  0.72107469  1
  S  S43  1  0.19760135  0.02970760  0.28103403  1
  S  S44  1  0.46282173  0.78700075  0.21504189  1
  S  S45  1  0.97029240  0.80239865  0.21896597  1
  S  S46  1  0.28054403  0.97526986  0.72648870  1
  S  S47  1  0.02473014  0.71945597  0.77351130  1
  S  S48  1  0.63088215  0.31010890  0.09983691  1
  S  S49  1  0.19113721  0.37338956  0.40499228  1
  S  S50  1  0.15784585  0.94275015  0.60786295  1
  S  S51  1  0.68989110  0.36911785  0.40016309  1
  S  S52  1  0.34025334  0.46956713  0.40037602  1
  S  S53  1  0.84215415  0.05724985  0.39213705  1
  S  S54  1  0.15277776  0.69088680  0.89672928  1
  S  S55  1  0.69088680  0.15277776  0.39672928  1
  N  N56  1  0.76581538  0.72874980  0.64146987  1
  N  N57  1  0.26791683  0.73170519  0.85270433  1
  N  N58  1  0.31091328  0.00992286  0.30942141  1
  N  N59  1  0.90240903  0.86786506  0.15713283  1
  N  N60  1  0.73208317  0.26829481  0.14729567  1
  N  N61  1  0.35752399  0.90912033  0.67031225  1
  N  N62  1  0.32151145  0.54163370  0.32128232  1
  N  N63  1  0.86086036  0.54514906  0.65952539  1
  N  N64  1  0.26829481  0.73208317  0.64729567  1
  N  N65  1  0.99088961  0.17264092  0.18888104  1
  N  N66  1  0.09087967  0.64247601  0.82968775  1
  N  N67  1  0.27125020  0.23418462  0.85853013  1
  N  N68  1  0.55287993  0.37340253  0.16012739  1
  N  N69  1  0.99007714  0.68908672  0.19057859  1
  N  N70  1  0.90912033  0.35752399  0.17031225  1
  N  N71  1  0.09759097  0.13213494  0.84286717  1
  N  N72  1  0.13213494  0.09759097  0.34286717  1
  N  N73  1  0.45800831  0.19622820  0.19414927  1
  N  N74  1  0.64247601  0.09087967  0.32968775  1
  N  N75  1  0.54163370  0.32151145  0.82128232  1
  N  N76  1  0.00992286  0.31091328  0.80942141  1
  N  N77  1  0.62659747  0.44712007  0.33987261  1
  N  N78  1  0.17264092  0.99088961  0.68888104  1
  N  N79  1  0.13913964  0.45485094  0.34047461  1
  N  N80  1  0.54199169  0.80377180  0.80585073  1
  N  N81  1  0.37340253  0.55287993  0.66012739  1
  N  N82  1  0.00911039  0.82735908  0.81111896  1
  N  N83  1  0.44712007  0.62659747  0.83987261  1
  N  N84  1  0.45836630  0.67848855  0.17871768  1
  N  N85  1  0.19622820  0.45800831  0.69414927  1
  N  N86  1  0.45485094  0.13913964  0.84047461  1
  N  N87  1  0.82735908  0.00911039  0.31111896  1
  N  N88  1  0.54514906  0.86086036  0.15952539  1
  N  N89  1  0.67848855  0.45836630  0.67871768  1
  N  N90  1  0.23418462  0.27125020  0.35853013  1
  N  N91  1  0.80377180  0.54199169  0.30585073  1
  N  N92  1  0.72874980  0.76581538  0.14146987  1
  N  N93  1  0.86786506  0.90240903  0.65713283  1
  N  N94  1  0.68908672  0.99007714  0.69057859  1
  N  N95  1  0.73170519  0.26791683  0.35270433  1
  F  F96  1  0.98476688  0.66814707  0.41715145  1
  F  F97  1  0.25571626  0.97376575  0.95925350  1
  F  F98  1  0.86801716  0.66018197  0.95811601  1
  F  F99  1  0.99718527  0.86576842  0.42009438  1
  F  F100  1  0.74428374  0.02623425  0.04074650  1
  F  F101  1  0.15581057  0.82132478  0.03371259  1
  F  F102  1  0.64732277  0.16659325  0.96420515  1
  F  F103  1  0.63414810  0.78023381  0.33670262  1
  F  F104  1  0.14379893  0.52242181  0.08641810  1
  F  F105  1  0.82132478  0.15581057  0.53371259  1
  F  F106  1  0.33185293  0.01523312  0.08284855  1
  F  F107  1  0.67106757  0.68101698  0.95782009  1
  F  F108  1  0.25275600  0.47389151  0.96481823  1
  F  F109  1  0.52242181  0.14379893  0.58641810  1
  F  F110  1  0.35267723  0.83340675  0.03579485  1
  F  F111  1  0.66814707  0.98476688  0.91715145  1
  F  F112  1  0.47757819  0.85620107  0.41358190  1
  F  F113  1  0.49906987  0.65857709  0.41375154  1
  F  F114  1  0.13872586  0.76764144  0.34327360  1
  F  F115  1  0.33981803  0.13198284  0.54188399  1
  F  F116  1  0.78023381  0.63414810  0.83670262  1
  F  F117  1  0.86127414  0.23235856  0.65672640  1
  F  F118  1  0.85620107  0.47757819  0.91358190  1
  F  F119  1  0.16659325  0.64732277  0.46420515  1
  F  F120  1  0.66018197  0.86801716  0.45811601  1
  F  F121  1  0.76764144  0.13872586  0.84327360  1
  F  F122  1  0.86576842  0.99718527  0.92009438  1
  F  F123  1  0.31898302  0.32893243  0.54217991  1
  F  F124  1  0.47389151  0.25275600  0.46481823  1
  F  F125  1  0.00281473  0.13423158  0.57990562  1
  F  F126  1  0.68101698  0.67106757  0.45782009  1
  F  F127  1  0.97376575  0.25571626  0.45925350  1
  F  F128  1  0.52610849  0.74724400  0.53518177  1
  F  F129  1  0.01523312  0.33185293  0.58284855  1
  F  F130  1  0.17867522  0.84418943  0.46628741  1
  F  F131  1  0.13198284  0.33981803  0.04188399  1
  F  F132  1  0.34142291  0.50093013  0.08624846  1
  F  F133  1  0.74724400  0.52610849  0.03518177  1
  F  F134  1  0.65857709  0.49906987  0.91375154  1
  F  F135  1  0.21976619  0.36585190  0.16329738  1
  F  F136  1  0.13423158  0.00281473  0.07990562  1
  F  F137  1  0.36585190  0.21976619  0.66329738  1
  F  F138  1  0.50093013  0.34142291  0.58624846  1
  F  F139  1  0.83340675  0.35267723  0.53579485  1
  F  F140  1  0.84418943  0.17867522  0.96628741  1
  F  F141  1  0.32893243  0.31898302  0.04217991  1
  F  F142  1  0.02623425  0.74428374  0.54074650  1
  F  F143  1  0.23235856  0.86127414  0.15672640  1
