# generated using pymatgen
data_Cs2CeCuI6
_symmetry_space_group_name_H-M   'P 1'
_cell_length_a   8.53192116
_cell_length_b   8.53131942
_cell_length_c   8.53425012
_cell_angle_alpha   60.04205063
_cell_angle_beta   60.04110607
_cell_angle_gamma   60.03811425
_symmetry_Int_Tables_number   1
_chemical_formula_structural   Cs2CeCuI6
_chemical_formula_sum   'Cs2 Ce1 Cu1 I6'
_cell_volume   439.65412663
_cell_formula_units_Z   1
loop_
 _symmetry_equiv_pos_site_id
 _symmetry_equiv_pos_as_xyz
  1  'x, y, z'
loop_
 _atom_site_type_symbol
 _atom_site_label
 _atom_site_symmetry_multiplicity
 _atom_site_fract_x
 _atom_site_fract_y
 _atom_site_fract_z
 _atom_site_occupancy
  Cs  Cs0  1  0.24999883  0.25001010  0.24999875  1
  Cs  Cs1  1  0.75000185  0.74999065  0.75000093  1
  Ce  Ce2  1  0.49999971  0.50000013  0.50000048  1
  Cu  Cu3  1  0.00000026  0.00000064  -0.00000015  1
  I  I4  1  0.24015105  0.75982807  0.24015913  1
  I  I5  1  0.75986785  0.75988726  0.24014471  1
  I  I6  1  0.75984944  0.24017251  0.75984084  1
  I  I7  1  0.75977359  0.24020639  0.24020443  1
  I  I8  1  0.24022640  0.75979471  0.75979591  1
  I  I9  1  0.24013102  0.24010953  0.75985498  1
