# generated using pymatgen
data_Ca3(FeN2)2
_symmetry_space_group_name_H-M   'P 1'
_cell_length_a   4.85749585
_cell_length_b   6.36500792
_cell_length_c   6.39906916
_cell_angle_alpha   55.27496536
_cell_angle_beta   67.81675138
_cell_angle_gamma   67.70635251
_symmetry_Int_Tables_number   1
_chemical_formula_structural   Ca3(FeN2)2
_chemical_formula_sum   'Ca3 Fe2 N4'
_cell_volume   147.02332900
_cell_formula_units_Z   1
loop_
 _symmetry_equiv_pos_site_id
 _symmetry_equiv_pos_as_xyz
  1  'x, y, z'
loop_
 _atom_site_type_symbol
 _atom_site_label
 _atom_site_symmetry_multiplicity
 _atom_site_fract_x
 _atom_site_fract_y
 _atom_site_fract_z
 _atom_site_occupancy
  Ca  Ca0  1  0.69573741  0.27450671  0.33430037  1
  Ca  Ca1  1  0.31711842  0.66844148  0.70085655  1
  Ca  Ca2  1  0.00719911  0.68710388  0.30026540  1
  Fe  Fe3  1  0.39135074  0.10498580  0.11504722  1
  Fe  Fe4  1  0.62067497  0.87647301  0.88252442  1
  N  N5  1  0.22497187  0.31885430  0.23240658  1
  N  N6  1  0.78569204  0.77146886  0.65806428  1
  N  N7  1  0.50418240  0.21199541  0.78102888  1
  N  N8  1  0.50876605  0.75267655  0.23329130  1
