# generated using pymatgen
data_HgC2O2F3
_symmetry_space_group_name_H-M   'P 1'
_cell_length_a   8.53069651
_cell_length_b   8.94058706
_cell_length_c   8.94058708
_cell_angle_alpha   65.44478949
_cell_angle_beta   62.43338718
_cell_angle_gamma   62.43338273
_symmetry_Int_Tables_number   1
_chemical_formula_structural   HgC2O2F3
_chemical_formula_sum   'Hg4 C8 O8 F12'
_cell_volume   517.95762171
_cell_formula_units_Z   4
loop_
 _symmetry_equiv_pos_site_id
 _symmetry_equiv_pos_as_xyz
  1  'x, y, z'
loop_
 _atom_site_type_symbol
 _atom_site_label
 _atom_site_symmetry_multiplicity
 _atom_site_fract_x
 _atom_site_fract_y
 _atom_site_fract_z
 _atom_site_occupancy
  Hg  Hg0  1  0.10817968  0.94296601  0.25304452  1
  Hg  Hg1  1  0.89182032  0.05703399  0.74695548  1
  Hg  Hg2  1  0.60817968  0.25304452  0.94296601  1
  Hg  Hg3  1  0.39182032  0.74695548  0.05703399  1
  C  C4  1  0.21391665  0.36206967  0.14319615  1
  C  C5  1  0.51161745  0.23771139  0.47225520  1
  C  C6  1  0.28608335  0.85680385  0.63793033  1
  C  C7  1  0.48838255  0.76228861  0.52774480  1
  C  C8  1  0.98838255  0.52774480  0.76228861  1
  C  C9  1  0.78608335  0.63793033  0.85680385  1
  C  C10  1  0.71391665  0.14319615  0.36206967  1
  C  C11  1  0.01161745  0.47225520  0.23771139  1
  O  O12  1  0.83817796  0.07534564  0.43649434  1
  O  O13  1  0.23938234  0.21382769  0.14317737  1
  O  O14  1  0.76061766  0.78617231  0.85682263  1
  O  O15  1  0.26061766  0.85682263  0.78617231  1
  O  O16  1  0.73938234  0.14317737  0.21382769  1
  O  O17  1  0.33817796  0.43649434  0.07534564  1
  O  O18  1  0.16182204  0.92465436  0.56350566  1
  O  O19  1  0.66182204  0.56350566  0.92465436  1
  F  F20  1  0.52804289  0.58594933  0.59172327  1
  F  F21  1  0.11775158  0.53864543  0.80252872  1
  F  F22  1  0.88224842  0.46135457  0.19747128  1
  F  F23  1  0.98687816  0.64380561  0.19735205  1
  F  F24  1  0.97195711  0.40827673  0.41405067  1
  F  F25  1  0.01312184  0.35619439  0.80264795  1
  F  F26  1  0.38224842  0.19747128  0.46135457  1
  F  F27  1  0.02804289  0.59172327  0.58594933  1
  F  F28  1  0.47195711  0.41405067  0.40827673  1
  F  F29  1  0.51312184  0.80264795  0.35619439  1
  F  F30  1  0.61775158  0.80252872  0.53864543  1
  F  F31  1  0.48687816  0.19735205  0.64380561  1
