# generated using pymatgen
data_P2H24AuC8I
_symmetry_space_group_name_H-M   'P 1'
_cell_length_a   8.28180853
_cell_length_b   12.06657898
_cell_length_c   12.06657898
_cell_angle_alpha   120.24445740
_cell_angle_beta   90.00000000
_cell_angle_gamma   90.00000000
_symmetry_Int_Tables_number   1
_chemical_formula_structural   P2H24AuC8I
_chemical_formula_sum   'P4 H48 Au2 C16 I2'
_cell_volume   1041.71532610
_cell_formula_units_Z   2
loop_
 _symmetry_equiv_pos_site_id
 _symmetry_equiv_pos_as_xyz
  1  'x, y, z'
loop_
 _atom_site_type_symbol
 _atom_site_label
 _atom_site_symmetry_multiplicity
 _atom_site_fract_x
 _atom_site_fract_y
 _atom_site_fract_z
 _atom_site_occupancy
  P  P0  1  0.25000000  0.19698098  0.49047516  1
  P  P1  1  0.75000000  0.49047516  0.19698098  1
  P  P2  1  0.75000000  0.80301902  0.50952484  1
  P  P3  1  0.25000000  0.50952484  0.80301902  1
  H  H4  1  0.25000000  0.28105767  0.31384215  1
  H  H5  1  0.75000000  0.31384215  0.28105767  1
  H  H6  1  0.75000000  0.71894233  0.68615785  1
  H  H7  1  0.25000000  0.68615785  0.71894233  1
  H  H8  1  0.35731867  0.42891044  0.36917044  1
  H  H9  1  0.64268133  0.36917044  0.42891044  1
  H  H10  1  0.14268133  0.42891044  0.36917044  1
  H  H11  1  0.85731867  0.36917044  0.42891044  1
  H  H12  1  0.64268133  0.57108956  0.63082956  1
  H  H13  1  0.35731867  0.63082956  0.57108956  1
  H  H14  1  0.85731867  0.57108956  0.63082956  1
  H  H15  1  0.14268133  0.63082956  0.57108956  1
  H  H16  1  0.09280207  0.01653227  0.33995697  1
  H  H17  1  0.90719793  0.33995697  0.01653227  1
  H  H18  1  0.40719793  0.01653227  0.33995697  1
  H  H19  1  0.59280207  0.33995697  0.01653227  1
  H  H20  1  0.90719793  0.98346773  0.66004303  1
  H  H21  1  0.09280207  0.66004303  0.98346773  1
  H  H22  1  0.59280207  0.98346773  0.66004303  1
  H  H23  1  0.40719793  0.66004303  0.98346773  1
  H  H24  1  0.06118765  0.15053571  0.31623023  1
  H  H25  1  0.93881235  0.31623023  0.15053571  1
  H  H26  1  0.43881235  0.15053571  0.31623023  1
  H  H27  1  0.56118765  0.31623023  0.15053571  1
  H  H28  1  0.93881235  0.84946429  0.68376977  1
  H  H29  1  0.06118765  0.68376977  0.84946429  1
  H  H30  1  0.56118765  0.84946429  0.68376977  1
  H  H31  1  0.43881235  0.68376977  0.84946429  1
  H  H32  1  0.96649399  0.14862821  0.44881566  1
  H  H33  1  0.03350601  0.44881566  0.14862821  1
  H  H34  1  0.53350601  0.14862821  0.44881566  1
  H  H35  1  0.46649399  0.44881566  0.14862821  1
  H  H36  1  0.03350601  0.85137179  0.55118434  1
  H  H37  1  0.96649399  0.55118434  0.85137179  1
  H  H38  1  0.46649399  0.85137179  0.55118434  1
  H  H39  1  0.53350601  0.55118434  0.85137179  1
  H  H40  1  0.14085771  0.15745512  0.65332745  1
  H  H41  1  0.85914229  0.65332745  0.15745512  1
  H  H42  1  0.35914229  0.15745512  0.65332745  1
  H  H43  1  0.64085771  0.65332745  0.15745512  1
  H  H44  1  0.85914229  0.84254488  0.34667255  1
  H  H45  1  0.14085771  0.34667255  0.84254488  1
  H  H46  1  0.64085771  0.84254488  0.34667255  1
  H  H47  1  0.35914229  0.34667255  0.84254488  1
  H  H48  1  0.25000000  0.02192914  0.53070319  1
  H  H49  1  0.75000000  0.53070319  0.02192914  1
  H  H50  1  0.75000000  0.97807086  0.46929681  1
  H  H51  1  0.25000000  0.46929681  0.97807086  1
  Au  Au52  1  0.25000000  0.42440837  0.57559163  1
  Au  Au53  1  0.75000000  0.57559163  0.42440837  1
  C  C54  1  0.25000000  0.38420786  0.38318711  1
  C  C55  1  0.75000000  0.38318711  0.38420786  1
  C  C56  1  0.75000000  0.61579214  0.61681289  1
  C  C57  1  0.25000000  0.61681289  0.61579214  1
  C  C58  1  0.07507102  0.12127283  0.38811924  1
  C  C59  1  0.92492898  0.38811924  0.12127283  1
  C  C60  1  0.42492898  0.12127283  0.38811924  1
  C  C61  1  0.57507102  0.38811924  0.12127283  1
  C  C62  1  0.92492898  0.87872717  0.61188076  1
  C  C63  1  0.07507102  0.61188076  0.87872717  1
  C  C64  1  0.57507102  0.87872717  0.61188076  1
  C  C65  1  0.42492898  0.61188076  0.87872717  1
  C  C66  1  0.25000000  0.12723917  0.59337708  1
  C  C67  1  0.75000000  0.59337708  0.12723917  1
  C  C68  1  0.75000000  0.87276083  0.40662292  1
  C  C69  1  0.25000000  0.40662292  0.87276083  1
  I  I70  1  0.25000000  0.72754812  0.27245188  1
  I  I71  1  0.75000000  0.27245188  0.72754812  1
