# generated using pymatgen
data_NbFeNi(O2F)2
_symmetry_space_group_name_H-M   'P 1'
_cell_length_a   3.10029652
_cell_length_b   4.76887274
_cell_length_c   14.24566993
_cell_angle_alpha   89.33877585
_cell_angle_beta   90.00000000
_cell_angle_gamma   90.00000000
_symmetry_Int_Tables_number   1
_chemical_formula_structural   NbFeNi(O2F)2
_chemical_formula_sum   'Nb2 Fe2 Ni2 O8 F4'
_cell_volume   210.60705861
_cell_formula_units_Z   2
loop_
 _symmetry_equiv_pos_site_id
 _symmetry_equiv_pos_as_xyz
  1  'x, y, z'
loop_
 _atom_site_type_symbol
 _atom_site_label
 _atom_site_symmetry_multiplicity
 _atom_site_fract_x
 _atom_site_fract_y
 _atom_site_fract_z
 _atom_site_occupancy
  Nb  Nb0  1  0.50000000  0.51155852  0.16208630  1
  Nb  Nb1  1  0.50000000  0.50817209  0.49450749  1
  Fe  Fe2  1  0.00000000  0.00780917  0.32562155  1
  Fe  Fe3  1  0.00000000  0.00922158  0.65727250  1
  Ni  Ni4  1  0.00000000  0.99675574  0.00540081  1
  Ni  Ni5  1  0.50000000  0.49758421  0.83609679  1
  O  O6  1  0.00000000  0.30933941  0.10514393  1
  O  O7  1  0.00000000  0.69313371  0.23484865  1
  O  O8  1  0.00000000  0.30309818  0.43862113  1
  O  O9  1  0.00000000  0.68471103  0.56876808  1
  O  O10  1  0.50000000  0.20001516  0.27060319  1
  O  O11  1  0.50000000  0.79770536  0.06869460  1
  O  O12  1  0.50000000  0.18949460  0.60075762  1
  O  O13  1  0.50000000  0.79988343  0.40282914  1
  F  F14  1  0.00000000  0.29304047  0.76690661  1
  F  F15  1  0.00000000  0.69822085  0.89586089  1
  F  F16  1  0.50000000  0.19751741  0.93416122  1
  F  F17  1  0.50000000  0.80273908  0.73181951  1
