# generated using pymatgen
data_Na4MgAl2(Si3O8)3
_symmetry_space_group_name_H-M   'P 1'
_cell_length_a   5.30582576
_cell_length_b   25.80646047
_cell_length_c   20.97406390
_cell_angle_alpha   17.83121785
_cell_angle_beta   73.70766977
_cell_angle_gamma   76.82029711
_symmetry_Int_Tables_number   1
_chemical_formula_structural   Na4MgAl2(Si3O8)3
_chemical_formula_sum   'Na8 Mg2 Al4 Si18 O48'
_cell_volume   836.60556303
_cell_formula_units_Z   2
loop_
 _symmetry_equiv_pos_site_id
 _symmetry_equiv_pos_as_xyz
  1  'x, y, z'
loop_
 _atom_site_type_symbol
 _atom_site_label
 _atom_site_symmetry_multiplicity
 _atom_site_fract_x
 _atom_site_fract_y
 _atom_site_fract_z
 _atom_site_occupancy
  Na  Na0  1  0.25041503  0.20151954  0.29908999  1
  Na  Na1  1  0.25045468  0.44989340  0.30069147  1
  Na  Na2  1  0.24954532  0.70106315  0.29835198  1
  Na  Na3  1  0.24958497  0.95273858  0.29665189  1
  Na  Na4  1  0.74980385  0.04882991  0.70023697  1
  Na  Na5  1  0.75019615  0.29696367  0.70396944  1
  Na  Na6  1  0.75012591  0.54880753  0.70208128  1
  Na  Na7  1  0.74987409  0.80058514  0.69852605  1
  Mg  Mg8  1  0.75033040  0.15576731  0.09374468  1
  Mg  Mg9  1  0.74966960  0.40479129  0.09569672  1
  Al  Al10  1  0.24889438  0.09397683  0.90630834  1
  Al  Al11  1  0.74875001  0.65421692  0.09610188  1
  Al  Al12  1  0.75124999  0.90485451  0.09482670  1
  Al  Al13  1  0.25110562  0.84454719  0.90516764  1
  Si  Si14  1  0.26702413  0.01066282  0.38484883  1
  Si  Si15  1  0.26715548  0.26408974  0.38062766  1
  Si  Si16  1  0.22852330  0.05183954  0.80272162  1
  Si  Si17  1  0.27147670  0.51096186  0.38447698  1
  Si  Si18  1  0.77785724  0.19800282  0.19588768  1
  Si  Si19  1  0.23284452  0.30352454  0.80175805  1
  Si  Si20  1  0.27104441  0.75761364  0.38856982  1
  Si  Si21  1  0.77858280  0.45012948  0.19491132  1
  Si  Si22  1  0.24887124  0.34409536  0.90602034  1
  Si  Si23  1  0.23297587  0.55168612  0.80280223  1
  Si  Si24  1  0.72728806  0.23804642  0.61687855  1
  Si  Si25  1  0.77271194  0.69789637  0.19717866  1
  Si  Si26  1  0.25112876  0.59432677  0.90555753  1
  Si  Si27  1  0.22895559  0.79998055  0.80383599  1
  Si  Si28  1  0.72141720  0.49021108  0.61474811  1
  Si  Si29  1  0.77169935  0.94554075  0.19832353  1
  Si  Si30  1  0.72214276  0.73578381  0.62032569  1
  Si  Si31  1  0.72830065  0.98326932  0.62286639  1
  O  O32  1  0.34362339  0.12751011  0.17780370  1
  O  O33  1  0.00838590  0.17108500  0.65293406  1
  O  O34  1  0.21134757  0.05880514  0.62108939  1
  O  O35  1  0.70873156  0.08467380  0.08994060  1
  O  O36  1  0.34056971  0.38069869  0.17411504  1
  O  O37  1  0.49837729  0.06769937  0.35475270  1
  O  O38  1  0.87408214  0.01755580  0.03551182  1
  O  O39  1  0.00308492  0.41915724  0.65920365  1
  O  O40  1  0.20835572  0.30613485  0.62519815  1
  O  O41  1  0.70629686  0.33393321  0.09184471  1
  O  O42  1  0.37000449  0.61823239  0.18659967  1
  O  O43  1  0.49691508  0.32587903  0.34576007  1
  O  O44  1  0.90353920  0.28174373  0.02069188  1
  O  O45  1  0.00162271  0.66260351  0.66494442  1
  O  O46  1  0.15943029  0.24032616  0.95486011  1
  O  O47  1  0.50872302  0.18192287  0.64130366  1
  O  O48  1  0.28865243  0.16859420  0.90151127  1
  O  O49  1  0.19932361  0.54907869  0.63675352  1
  O  O50  1  0.79126844  0.18390259  0.39148301  1
  O  O51  1  0.70710188  0.58082139  0.10068862  1
  O  O52  1  0.37127629  0.86485176  0.19049519  1
  O  O53  1  0.49161410  0.56912312  0.35685782  1
  O  O54  1  0.90196869  0.53510895  0.01825179  1
  O  O55  1  0.98720192  0.07378419  0.35519783  1
  O  O56  1  0.00701168  0.91467920  0.65866097  1
  O  O57  1  0.15637661  0.48813773  0.95654846  1
  O  O58  1  0.51201996  0.43689661  0.63343946  1
  O  O59  1  0.62582988  0.12911673  0.81685310  1
  O  O60  1  0.29802822  0.42047936  0.89493768  1
  O  O61  1  0.20197178  0.80131344  0.63326952  1
  O  O62  1  0.79077093  0.44281150  0.37670254  1
  O  O63  1  0.70922907  0.83183957  0.09864639  1
  O  O64  1  0.49298832  0.81135954  0.36530029  1
  O  O65  1  0.87417012  0.77105637  0.03297380  1
  O  O66  1  0.98798004  0.32756874  0.35209519  1
  O  O67  1  0.12872371  0.72554566  0.96910739  1
  O  O68  1  0.51279808  0.68174821  0.63926978  1
  O  O69  1  0.59803131  0.39183043  0.80480883  1
  O  O70  1  0.30067639  0.67074311  0.89342468  1
  O  O71  1  0.79289812  0.69384141  0.37464858  1
  O  O72  1  0.99127698  0.57837595  0.34839751  1
  O  O73  1  0.12999551  0.97789650  0.96727145  1
  O  O74  1  0.50963560  0.92635294  0.64765526  1
  O  O75  1  0.59646080  0.63661495  0.81094944  1
  O  O76  1  0.29164428  0.91880084  0.89986616  1
  O  O77  1  0.79370314  0.93548904  0.38873304  1
  O  O78  1  0.99036440  0.82436933  0.35162247  1
  O  O79  1  0.62591786  0.87369104  0.82324134  1
