# generated using pymatgen
data_AgBiS2
_symmetry_space_group_name_H-M   'P 1'
_cell_length_a   7.94948056
_cell_length_b   10.59603652
_cell_length_c   7.00583765
_cell_angle_alpha   29.07362702
_cell_angle_beta   55.43457993
_cell_angle_gamma   41.38956911
_symmetry_Int_Tables_number   1
_chemical_formula_structural   AgBiS2
_chemical_formula_sum   'Ag2 Bi2 S4'
_cell_volume   182.28884573
_cell_formula_units_Z   2
loop_
 _symmetry_equiv_pos_site_id
 _symmetry_equiv_pos_as_xyz
  1  'x, y, z'
loop_
 _atom_site_type_symbol
 _atom_site_label
 _atom_site_symmetry_multiplicity
 _atom_site_fract_x
 _atom_site_fract_y
 _atom_site_fract_z
 _atom_site_occupancy
  Ag  Ag0  1  0.25000000  0.50000000  -0.00000000  1
  Ag  Ag1  1  0.50000000  -0.00000000  -0.00000000  1
  Bi  Bi2  1  -0.00000000  -0.00000000  -0.00000000  1
  Bi  Bi3  1  0.75000000  0.50000000  -0.00000000  1
  S  S4  1  0.99661249  0.50000000  0.50677502  1
  S  S5  1  0.50338751  0.50000000  0.49322498  1
  S  S6  1  0.24661249  0.00000000  0.50677502  1
  S  S7  1  0.75338751  1.00000000  0.49322498  1
