# generated using pymatgen
data_Li3Mn2O5
_symmetry_space_group_name_H-M   'P 1'
_cell_length_a   2.88259467
_cell_length_b   9.86821037
_cell_length_c   6.76096970
_cell_angle_alpha   103.43952885
_cell_angle_beta   77.69127917
_cell_angle_gamma   89.99999908
_symmetry_Int_Tables_number   1
_chemical_formula_structural   Li3Mn2O5
_chemical_formula_sum   'Li6 Mn4 O10'
_cell_volume   182.50784177
_cell_formula_units_Z   2
loop_
 _symmetry_equiv_pos_site_id
 _symmetry_equiv_pos_as_xyz
  1  'x, y, z'
loop_
 _atom_site_type_symbol
 _atom_site_label
 _atom_site_symmetry_multiplicity
 _atom_site_fract_x
 _atom_site_fract_y
 _atom_site_fract_z
 _atom_site_occupancy
  Li  Li0  1  0.29612002  0.10186493  0.40775996  1
  Li  Li1  1  0.90387998  0.29813507  0.19224004  1
  Li  Li2  1  0.69455752  0.90805571  0.61088496  1
  Li  Li3  1  0.10000000  0.70000000  0.80000000  1
  Li  Li4  1  0.50544248  0.49194429  0.98911504  1
  Li  Li5  1  0.60000000  0.20000000  0.80000000  1
  Mn  Mn6  1  0.00838232  0.00663147  0.98323536  1
  Mn  Mn7  1  0.19161768  0.39336853  0.61676464  1
  Mn  Mn8  1  0.79869475  0.59686847  0.40261051  1
  Mn  Mn9  1  0.40130525  0.80313153  0.19738949  1
  O  O10  1  0.45391873  0.13440198  0.09216254  1
  O  O11  1  0.06296639  0.35566723  0.87406721  1
  O  O12  1  0.86161898  0.94311600  0.27676204  1
  O  O13  1  0.25234230  0.73221886  0.49531539  1
  O  O14  1  0.65209310  0.53185754  0.69581380  1
  O  O15  1  0.13703361  0.04433277  0.72593279  1
  O  O16  1  0.74608127  0.26559802  0.50783746  1
  O  O17  1  0.54790690  0.86814246  0.90418620  1
  O  O18  1  0.94765770  0.66778114  0.10468461  1
  O  O19  1  0.33838102  0.45688400  0.32323796  1
