# generated using pymatgen
data_Na3Fe5(SiO3)10
_symmetry_space_group_name_H-M   'P 1'
_cell_length_a   6.60563533
_cell_length_b   7.47743423
_cell_length_c   22.56701095
_cell_angle_alpha   85.65933054
_cell_angle_beta   86.22952522
_cell_angle_gamma   85.55266760
_symmetry_Int_Tables_number   1
_chemical_formula_structural   Na3Fe5(SiO3)10
_chemical_formula_sum   'Na6 Fe10 Si20 O60'
_cell_volume   1106.10046951
_cell_formula_units_Z   2
loop_
 _symmetry_equiv_pos_site_id
 _symmetry_equiv_pos_as_xyz
  1  'x, y, z'
loop_
 _atom_site_type_symbol
 _atom_site_label
 _atom_site_symmetry_multiplicity
 _atom_site_fract_x
 _atom_site_fract_y
 _atom_site_fract_z
 _atom_site_occupancy
  Na  Na0  1  0.81412344  0.92346079  0.89086356  1
  Na  Na1  1  0.01418231  0.32310217  0.69095212  1
  Na  Na2  1  0.21469894  0.72303337  0.49096278  1
  Na  Na3  1  0.41356700  0.12337668  0.29157779  1
  Na  Na4  1  0.18573524  0.07565955  0.10858911  1
  Na  Na5  1  0.61504174  0.52274925  0.09080109  1
  Fe  Fe6  1  0.13428629  0.16536802  0.96829854  1
  Fe  Fe7  1  0.07239731  0.24287622  0.83007020  1
  Fe  Fe8  1  0.33378634  0.56283253  0.77084514  1
  Fe  Fe9  1  0.27282394  0.64226954  0.63069450  1
  Fe  Fe10  1  0.53414627  0.96272856  0.57091501  1
  Fe  Fe11  1  0.47317758  0.04255472  0.43083445  1
  Fe  Fe12  1  0.73455435  0.36277939  0.37102917  1
  Fe  Fe13  1  0.67280463  0.44033766  0.23135899  1
  Fe  Fe14  1  0.92998709  0.75804895  0.17285406  1
  Fe  Fe15  1  0.87066885  0.84169372  0.02994578  1
  Si  Si16  1  0.06613452  0.92275422  0.72813840  1
  Si  Si17  1  0.33317956  0.87417844  0.87226117  1
  Si  Si18  1  0.62677770  0.22063802  0.99210971  1
  Si  Si19  1  0.86541496  0.52396369  0.92789264  1
  Si  Si20  1  0.82590139  0.62083600  0.79236266  1
  Si  Si21  1  0.02658281  0.02050298  0.59247606  1
  Si  Si22  1  0.57264703  0.18145545  0.80646779  1
  Si  Si23  1  0.26603431  0.32276984  0.52836249  1
  Si  Si24  1  0.53351762  0.27422823  0.67234821  1
  Si  Si25  1  0.22691941  0.42093848  0.39262767  1
  Si  Si26  1  0.77275703  0.58146684  0.60656733  1
  Si  Si27  1  0.46688263  0.72322423  0.32857770  1
  Si  Si28  1  0.73352307  0.67471318  0.47247945  1
  Si  Si29  1  0.42824280  0.81728511  0.19291266  1
  Si  Si30  1  0.97325826  0.98163285  0.40653028  1
  Si  Si31  1  0.17165611  0.38235937  0.20784589  1
  Si  Si32  1  0.13107655  0.47663372  0.07208155  1
  Si  Si33  1  0.37333105  0.78078566  0.00651675  1
  Si  Si34  1  0.66964007  0.12350360  0.12805884  1
  Si  Si35  1  0.93224993  0.07363739  0.27261305  1
  O  O36  1  0.04485721  0.36849180  0.90997203  1
  O  O37  1  0.42520762  0.78268118  0.93440469  1
  O  O38  1  0.26182495  0.71826334  0.83418538  1
  O  O39  1  0.02561881  0.47862045  0.77882175  1
  O  O40  1  0.51782988  0.97931250  0.83527696  1
  O  O41  1  0.24532684  0.76597630  0.71049840  1
  O  O42  1  0.14681445  0.02676215  0.88888702  1
  O  O43  1  0.42524299  0.17286781  0.96120436  1
  O  O44  1  0.68539111  0.42522318  0.96901945  1
  O  O45  1  0.22604386  0.87796135  0.57904325  1
  O  O46  1  0.36922188  0.32001022  0.81792187  1
  O  O47  1  0.13006109  0.09015038  0.76317577  1
  O  O48  1  0.93113356  0.69051932  0.96306233  1
  O  O49  1  0.78196828  0.62300615  0.86508150  1
  O  O50  1  0.34698361  0.42651933  0.68908302  1
  O  O51  1  0.62457864  0.57175063  0.76187975  1
  O  O52  1  0.02875832  0.98413983  0.33439551  1
  O  O53  1  0.82699946  0.07901343  0.97914229  1
  O  O54  1  0.08349158  0.22468403  0.56822644  1
  O  O55  1  0.88322223  0.82481518  0.76805520  1
  O  O56  1  0.56944212  0.71983036  0.61811415  1
  O  O57  1  0.32990779  0.49028333  0.56344474  1
  O  O58  1  0.77817581  0.21624805  0.83858971  1
  O  O59  1  0.18462335  0.42265759  0.46542927  1
  O  O60  1  0.62663096  0.18264012  0.73433404  1
  O  O61  1  0.54725316  0.82709646  0.48938394  1
  O  O62  1  0.82481866  0.97177537  0.56213257  1
  O  O63  1  0.02537715  0.37171229  0.36229930  1
  O  O64  1  0.46230502  0.11803666  0.63437794  1
  O  O65  1  0.28352692  0.62501366  0.36825627  1
  O  O66  1  0.71805571  0.37940993  0.63529625  1
  O  O67  1  0.52953950  0.89089236  0.36378646  1
  O  O68  1  0.17861538  0.01549253  0.43898158  1
  O  O69  1  0.97843842  0.61609655  0.63856432  1
  O  O70  1  0.44544566  0.16637196  0.51072159  1
  O  O71  1  0.38695823  0.82282935  0.26535697  1
  O  O72  1  0.82644001  0.58248689  0.53437652  1
  O  O73  1  0.22254786  0.78257448  0.16159171  1
  O  O74  1  0.66165528  0.51861998  0.43450901  1
  O  O75  1  0.42639762  0.27802994  0.37936740  1
  O  O76  1  0.11633555  0.17636318  0.23350873  1
  O  O77  1  0.91809206  0.77935665  0.43524460  1
  O  O78  1  0.17276004  0.92211984  0.01982141  1
  O  O79  1  0.98455094  0.02228342  0.66522629  1
  O  O80  1  0.37821880  0.41536038  0.23893850  1
  O  O81  1  0.64591354  0.56654128  0.31113150  1
  O  O82  1  0.22022297  0.38003571  0.13488015  1
  O  O83  1  0.85767166  0.91821530  0.23499338  1
  O  O84  1  0.06991635  0.30967614  0.03673655  1
  O  O85  1  0.62650869  0.67599104  0.17910133  1
  O  O86  1  0.76965657  0.11974538  0.41825195  1
  O  O87  1  0.31734310  0.57897916  0.03527866  1
  O  O88  1  0.57700359  0.81707513  0.03925570  1
  O  O89  1  0.85380788  0.97121900  0.11089556  1
  O  O90  1  0.74796994  0.22714843  0.28977231  1
  O  O91  1  0.48302644  0.02199171  0.16574234  1
  O  O92  1  0.96993527  0.51973004  0.21965368  1
  O  O93  1  0.73163860  0.29037930  0.16310232  1
  O  O94  1  0.57867283  0.21841103  0.06528626  1
  O  O95  1  0.94593211  0.62784609  0.08901250  1
