# generated using pymatgen
data_Li5Mn2CoO8
_symmetry_space_group_name_H-M   'P 1'
_cell_length_a   5.03884862
_cell_length_b   5.10805849
_cell_length_c   5.73166074
_cell_angle_alpha   90.02839739
_cell_angle_beta   106.53398351
_cell_angle_gamma   98.30283398
_symmetry_Int_Tables_number   1
_chemical_formula_structural   Li5Mn2CoO8
_chemical_formula_sum   'Li5 Mn2 Co1 O8'
_cell_volume   139.80875845
_cell_formula_units_Z   1
loop_
 _symmetry_equiv_pos_site_id
 _symmetry_equiv_pos_as_xyz
  1  'x, y, z'
loop_
 _atom_site_type_symbol
 _atom_site_label
 _atom_site_symmetry_multiplicity
 _atom_site_fract_x
 _atom_site_fract_y
 _atom_site_fract_z
 _atom_site_occupancy
  Li  Li0  1  0.49925276  0.25555305  0.87618938  1
  Li  Li1  1  0.50357566  0.74166597  0.12746700  1
  Li  Li2  1  0.50074724  0.74444695  0.62381062  1
  Li  Li3  1  0.49642434  0.25833403  0.37253300  1
  Li  Li4  1  -0.00000000  0.50000000  0.25000000  1
  Mn  Mn5  1  0.00013384  0.99996305  0.00068092  1
  Mn  Mn6  1  0.99986616  0.00003695  0.49931908  1
  Co  Co7  1  -0.00000000  0.50000000  0.75000000  1
  O  O8  1  0.23307328  0.89309570  0.80845930  1
  O  O9  1  0.21852365  0.35647466  0.04174930  1
  O  O10  1  0.21655980  0.35519984  0.56752758  1
  O  O11  1  0.22960011  0.89696839  0.30721888  1
  O  O12  1  0.78344020  0.64480016  0.93247242  1
  O  O13  1  0.77039989  0.10303161  0.19278112  1
  O  O14  1  0.76692672  0.10690430  0.69154070  1
  O  O15  1  0.78147635  0.64352534  0.45825070  1
