# generated using pymatgen
data_PS2N(Cl3O2)2
_symmetry_space_group_name_H-M   'P 1'
_cell_length_a   10.71301562
_cell_length_b   10.91503654
_cell_length_c   11.11004709
_cell_angle_alpha   90.00000000
_cell_angle_beta   90.00000000
_cell_angle_gamma   90.00000000
_symmetry_Int_Tables_number   1
_chemical_formula_structural   PS2N(Cl3O2)2
_chemical_formula_sum   'P4 S8 N4 Cl24 O16'
_cell_volume   1299.13065804
_cell_formula_units_Z   4
loop_
 _symmetry_equiv_pos_site_id
 _symmetry_equiv_pos_as_xyz
  1  'x, y, z'
loop_
 _atom_site_type_symbol
 _atom_site_label
 _atom_site_symmetry_multiplicity
 _atom_site_fract_x
 _atom_site_fract_y
 _atom_site_fract_z
 _atom_site_occupancy
  P  P0  1  0.64010644  0.94570833  0.75000000  1
  P  P1  1  0.14010644  0.55429167  0.25000000  1
  P  P2  1  0.85989356  0.44570833  0.75000000  1
  P  P3  1  0.35989356  0.05429167  0.25000000  1
  S  S4  1  0.70209064  0.60178258  0.37708636  1
  S  S5  1  0.70209064  0.60178258  0.12291364  1
  S  S6  1  0.29790936  0.39821742  0.62291364  1
  S  S7  1  0.20209064  0.89821742  0.87708636  1
  S  S8  1  0.20209064  0.89821742  0.62291364  1
  S  S9  1  0.79790936  0.10178258  0.12291364  1
  S  S10  1  0.29790936  0.39821742  0.87708636  1
  S  S11  1  0.79790936  0.10178258  0.37708636  1
  N  N12  1  0.27119975  0.90595505  0.75000000  1
  N  N13  1  0.72880025  0.09404495  0.25000000  1
  N  N14  1  0.22880025  0.40595505  0.75000000  1
  N  N15  1  0.77119975  0.59404495  0.25000000  1
  Cl  Cl16  1  0.82024874  0.97840303  0.75000000  1
  Cl  Cl17  1  0.40159477  0.15045662  0.39295001  1
  Cl  Cl18  1  0.32024874  0.52159697  0.25000000  1
  Cl  Cl19  1  0.54841851  0.10047711  0.75000000  1
  Cl  Cl20  1  0.04841851  0.39952289  0.25000000  1
  Cl  Cl21  1  0.86903144  0.92450225  0.40578648  1
  Cl  Cl22  1  0.90159477  0.34954338  0.60704999  1
  Cl  Cl23  1  0.13096856  0.07549775  0.59421352  1
  Cl  Cl24  1  0.59840523  0.84954338  0.60704999  1
  Cl  Cl25  1  0.36903144  0.57549775  0.59421352  1
  Cl  Cl26  1  0.45158149  0.89952289  0.25000000  1
  Cl  Cl27  1  0.09840523  0.65045662  0.39295001  1
  Cl  Cl28  1  0.95158149  0.60047711  0.75000000  1
  Cl  Cl29  1  0.63096856  0.42450225  0.09421352  1
  Cl  Cl30  1  0.63096856  0.42450225  0.40578648  1
  Cl  Cl31  1  0.67975126  0.47840303  0.75000000  1
  Cl  Cl32  1  0.36903144  0.57549775  0.90578648  1
  Cl  Cl33  1  0.86903144  0.92450225  0.09421352  1
  Cl  Cl34  1  0.09840523  0.65045662  0.10704999  1
  Cl  Cl35  1  0.59840523  0.84954338  0.89295001  1
  Cl  Cl36  1  0.13096856  0.07549775  0.90578648  1
  Cl  Cl37  1  0.90159477  0.34954338  0.89295001  1
  Cl  Cl38  1  0.40159477  0.15045662  0.10704999  1
  Cl  Cl39  1  0.17975126  0.02159697  0.25000000  1
  O  O40  1  0.09382387  0.81931278  0.88323555  1
  O  O41  1  0.70244473  0.11427777  0.03209004  1
  O  O42  1  0.40617613  0.31931278  0.61676445  1
  O  O43  1  0.59382387  0.68068722  0.38323555  1
  O  O44  1  0.29755527  0.88572223  0.96790996  1
  O  O45  1  0.20244473  0.38572223  0.96790996  1
  O  O46  1  0.20244473  0.38572223  0.53209004  1
  O  O47  1  0.70244473  0.11427777  0.46790996  1
  O  O48  1  0.90617613  0.18068722  0.38323555  1
  O  O49  1  0.90617613  0.18068722  0.11676445  1
  O  O50  1  0.79755527  0.61427777  0.03209004  1
  O  O51  1  0.79755527  0.61427777  0.46790996  1
  O  O52  1  0.29755527  0.88572223  0.53209004  1
  O  O53  1  0.40617613  0.31931278  0.88323555  1
  O  O54  1  0.59382387  0.68068722  0.11676445  1
  O  O55  1  0.09382387  0.81931278  0.61676445  1
