# generated using pymatgen
data_Li5Co3O8
_symmetry_space_group_name_H-M   'P 1'
_cell_length_a   4.97898297
_cell_length_b   5.82124465
_cell_length_c   5.85344790
_cell_angle_alpha   60.18182921
_cell_angle_beta   73.23113285
_cell_angle_gamma   90.00000561
_symmetry_Int_Tables_number   1
_chemical_formula_structural   Li5Co3O8
_chemical_formula_sum   'Li5 Co3 O8'
_cell_volume   138.81773284
_cell_formula_units_Z   1
loop_
 _symmetry_equiv_pos_site_id
 _symmetry_equiv_pos_as_xyz
  1  'x, y, z'
loop_
 _atom_site_type_symbol
 _atom_site_label
 _atom_site_symmetry_multiplicity
 _atom_site_fract_x
 _atom_site_fract_y
 _atom_site_fract_z
 _atom_site_occupancy
  Li  Li0  1  0.00000000  0.50000000  0.50000000  1
  Li  Li1  1  0.00000000  0.00000000  0.50000000  1
  Li  Li2  1  0.50238931  0.25134398  0.49731204  1
  Li  Li3  1  0.49761069  0.74865602  0.50268796  1
  Li  Li4  1  0.00000000  0.50000000  -0.00000000  1
  Co  Co5  1  0.00000000  0.00000000  -0.00000000  1
  Co  Co6  1  0.50000000  0.74271286  0.00000000  1
  Co  Co7  1  0.50000000  0.25728714  1.00000000  1
  O  O8  1  0.75633988  0.66244108  0.21886597  1
  O  O9  1  0.75633988  0.11869295  0.21886597  1
  O  O10  1  0.27596200  0.38256812  0.23486375  1
  O  O11  1  0.24331497  0.88790276  0.22419448  1
  O  O12  1  0.24366012  0.33755892  0.78113403  1
  O  O13  1  0.24366012  0.88130705  0.78113403  1
  O  O14  1  0.75668503  0.11209724  0.77580552  1
  O  O15  1  0.72403800  0.61743188  0.76513625  1
