# generated using pymatgen
data_Li4Mn3CoO8
_symmetry_space_group_name_H-M   'P 1'
_cell_length_a   5.34433937
_cell_length_b   5.80095344
_cell_length_c   6.04308123
_cell_angle_alpha   61.31677556
_cell_angle_beta   69.81405784
_cell_angle_gamma   89.99999497
_symmetry_Int_Tables_number   1
_chemical_formula_structural   Li4Mn3CoO8
_chemical_formula_sum   'Li4 Mn3 Co1 O8'
_cell_volume   151.11082378
_cell_formula_units_Z   1
loop_
 _symmetry_equiv_pos_site_id
 _symmetry_equiv_pos_as_xyz
  1  'x, y, z'
loop_
 _atom_site_type_symbol
 _atom_site_label
 _atom_site_symmetry_multiplicity
 _atom_site_fract_x
 _atom_site_fract_y
 _atom_site_fract_z
 _atom_site_occupancy
  Li  Li0  1  0.00000000  0.50000000  0.50000000  1
  Li  Li1  1  0.00000000  0.00000000  0.50000000  1
  Li  Li2  1  0.48574253  0.25168679  0.49662641  1
  Li  Li3  1  0.51425747  0.74831321  0.50337359  1
  Mn  Mn4  1  0.00000000  0.50000000  -0.00000000  1
  Mn  Mn5  1  0.50000000  0.74942516  0.00000000  1
  Mn  Mn6  1  0.50000000  0.25057484  1.00000000  1
  Co  Co7  1  0.00000000  0.00000000  -0.00000000  1
  O  O8  1  0.76902049  0.62357290  0.23874401  1
  O  O9  1  0.76902049  0.13768309  0.23874401  1
  O  O10  1  0.27612285  0.38447222  0.23105555  1
  O  O11  1  0.25197146  0.89609423  0.20781155  1
  O  O12  1  0.23097951  0.37642710  0.76125599  1
  O  O13  1  0.23097951  0.86231691  0.76125599  1
  O  O14  1  0.74802854  0.10390577  0.79218845  1
  O  O15  1  0.72387715  0.61552778  0.76894445  1
