# generated using pymatgen
data_Li5Mn2CoO8
_symmetry_space_group_name_H-M   'P 1'
_cell_length_a   5.12042465
_cell_length_b   5.72222874
_cell_length_c   5.85685935
_cell_angle_alpha   60.75752494
_cell_angle_beta   71.55218389
_cell_angle_gamma   90.00000526
_symmetry_Int_Tables_number   1
_chemical_formula_structural   Li5Mn2CoO8
_chemical_formula_sum   'Li5 Mn2 Co1 O8'
_cell_volume   139.54397644
_cell_formula_units_Z   1
loop_
 _symmetry_equiv_pos_site_id
 _symmetry_equiv_pos_as_xyz
  1  'x, y, z'
loop_
 _atom_site_type_symbol
 _atom_site_label
 _atom_site_symmetry_multiplicity
 _atom_site_fract_x
 _atom_site_fract_y
 _atom_site_fract_z
 _atom_site_occupancy
  Li  Li0  1  0.49757604  0.25291583  0.99416835  1
  Li  Li1  1  0.50000000  0.25700460  0.50000000  1
  Li  Li2  1  0.50000000  0.74299540  0.50000000  1
  Li  Li3  1  0.50242396  0.74708417  0.00583165  1
  Li  Li4  1  0.00000000  0.50000000  0.50000000  1
  Mn  Mn5  1  0.00000000  0.00000000  -0.00000000  1
  Mn  Mn6  1  0.00000000  0.50000000  -0.00000000  1
  Co  Co7  1  0.00000000  0.00000000  0.50000000  1
  O  O8  1  0.23079275  0.36399672  0.77200656  1
  O  O9  1  0.21259737  0.36160755  0.24693275  1
  O  O10  1  0.21259737  0.89145970  0.24693275  1
  O  O11  1  0.23988503  0.85752943  0.78494113  1
  O  O12  1  0.76011497  0.14247057  0.21505887  1
  O  O13  1  0.78740263  0.10854030  0.75306725  1
  O  O14  1  0.78740263  0.63839245  0.75306725  1
  O  O15  1  0.76920725  0.63600328  0.22799344  1
