# generated using pymatgen
data_Li5Mn2CoO8
_symmetry_space_group_name_H-M   'P 1'
_cell_length_a   5.12302842
_cell_length_b   5.86884563
_cell_length_c   5.87081136
_cell_angle_alpha   58.40978164
_cell_angle_beta   71.60789316
_cell_angle_gamma   71.54581185
_symmetry_Int_Tables_number   1
_chemical_formula_structural   Li5Mn2CoO8
_chemical_formula_sum   'Li5 Mn2 Co1 O8'
_cell_volume   140.15606583
_cell_formula_units_Z   1
loop_
 _symmetry_equiv_pos_site_id
 _symmetry_equiv_pos_as_xyz
  1  'x, y, z'
loop_
 _atom_site_type_symbol
 _atom_site_label
 _atom_site_symmetry_multiplicity
 _atom_site_fract_x
 _atom_site_fract_y
 _atom_site_fract_z
 _atom_site_occupancy
  Li  Li0  1  0.50000000  0.25000000  0.25000000  1
  Li  Li1  1  0.00406927  0.49947390  0.99806997  1
  Li  Li2  1  0.99593073  0.00052610  0.50193003  1
  Li  Li3  1  0.50000000  0.75000000  0.75000000  1
  Li  Li4  1  0.50000000  0.25000000  0.75000000  1
  Mn  Mn5  1  0.99989577  0.00073764  0.99921407  1
  Mn  Mn6  1  0.00010423  0.49926236  0.50078593  1
  Co  Co7  1  0.50000000  0.75000000  0.25000000  1
  O  O8  1  0.78265578  0.36695327  0.86550727  1
  O  O9  1  0.24673232  0.61883682  0.59325697  1
  O  O10  1  0.24654285  0.09319618  0.11914172  1
  O  O11  1  0.77469503  0.86922345  0.36796388  1
  O  O12  1  0.21734422  0.13304673  0.63449273  1
  O  O13  1  0.75345715  0.40680382  0.38085828  1
  O  O14  1  0.75326768  0.88116318  0.90674303  1
  O  O15  1  0.22530497  0.63077655  0.13203612  1
