# generated using pymatgen
data_Li3Mn2O5
_symmetry_space_group_name_H-M   'P 1'
_cell_length_a   2.96814376
_cell_length_b   12.68264092
_cell_length_c   5.08095397
_cell_angle_alpha   101.00238453
_cell_angle_beta   76.17332239
_cell_angle_gamma   91.62221894
_symmetry_Int_Tables_number   1
_chemical_formula_structural   Li3Mn2O5
_chemical_formula_sum   'Li6 Mn4 O10'
_cell_volume   182.28081669
_cell_formula_units_Z   2
loop_
 _symmetry_equiv_pos_site_id
 _symmetry_equiv_pos_as_xyz
  1  'x, y, z'
loop_
 _atom_site_type_symbol
 _atom_site_label
 _atom_site_symmetry_multiplicity
 _atom_site_fract_x
 _atom_site_fract_y
 _atom_site_fract_z
 _atom_site_occupancy
  Li  Li0  1  0.68724169  0.09932631  0.61224276  1
  Li  Li1  1  0.10000000  0.30000000  0.80000000  1
  Li  Li2  1  0.51275831  0.50067369  0.98775724  1
  Li  Li3  1  0.87204596  0.71327582  0.21315861  1
  Li  Li4  1  0.32795404  0.88672418  0.38684139  1
  Li  Li5  1  0.60000000  0.80000000  0.80000000  1
  Mn  Mn6  1  0.00891302  0.99177082  0.99776851  1
  Mn  Mn7  1  0.19108698  0.60822918  0.60223149  1
  Mn  Mn8  1  0.41248801  0.19886061  0.19369552  1
  Mn  Mn9  1  0.78751199  0.40113939  0.40630448  1
  O  O10  1  0.39626278  0.04962875  0.26364818  1
  O  O11  1  0.72799536  0.25309373  0.48685239  1
  O  O12  1  0.11685300  0.45600901  0.68836109  1
  O  O13  1  0.58918225  0.64390701  0.85672846  1
  O  O14  1  0.94437196  0.86245920  0.10541202  1
  O  O15  1  0.08314700  0.14399099  0.91163891  1
  O  O16  1  0.47200464  0.34690627  0.11314761  1
  O  O17  1  0.80373722  0.55037125  0.33635182  1
  O  O18  1  0.25562804  0.73754080  0.49458798  1
  O  O19  1  0.61081775  0.95609299  0.74327154  1
