# generated using pymatgen
data_Mn6O7F5
_symmetry_space_group_name_H-M   'P 1'
_cell_length_a   4.76459786
_cell_length_b   4.74611750
_cell_length_c   9.13498613
_cell_angle_alpha   90.00000000
_cell_angle_beta   90.00000000
_cell_angle_gamma   95.55573476
_symmetry_Int_Tables_number   1
_chemical_formula_structural   Mn6O7F5
_chemical_formula_sum   'Mn6 O7 F5'
_cell_volume   205.60218282
_cell_formula_units_Z   1
loop_
 _symmetry_equiv_pos_site_id
 _symmetry_equiv_pos_as_xyz
  1  'x, y, z'
loop_
 _atom_site_type_symbol
 _atom_site_label
 _atom_site_symmetry_multiplicity
 _atom_site_fract_x
 _atom_site_fract_y
 _atom_site_fract_z
 _atom_site_occupancy
  Mn  Mn0  1  0.01036500  0.98140016  0.99145402  1
  Mn  Mn1  1  0.01036500  0.98140016  0.34187898  1
  Mn  Mn2  1  0.03152402  0.01434360  0.66666700  1
  Mn  Mn3  1  0.47688588  0.50937702  0.84152583  1
  Mn  Mn4  1  0.50497005  0.48817794  0.16666700  1
  Mn  Mn5  1  0.47688588  0.50937702  0.49180717  1
  O  O6  1  0.18244778  0.82515092  0.51002499  1
  O  O7  1  0.18244778  0.82515092  0.82330801  1
  O  O8  1  0.30055804  0.30006078  0.00058766  1
  O  O9  1  0.30055804  0.30006078  0.33274534  1
  O  O10  1  0.30337950  0.32101846  0.66666700  1
  O  O11  1  0.69070357  0.68981877  0.99857897  1
  O  O12  1  0.69070357  0.68981877  0.33475503  1
  F  F13  1  0.19850619  0.79366782  0.16666700  1
  F  F14  1  0.69488530  0.70992496  0.66666700  1
  F  F15  1  0.82857734  0.16305830  0.16666700  1
  F  F16  1  0.80811902  0.19909780  0.51638161  1
  F  F17  1  0.80811902  0.19909780  0.81695139  1
