# generated using pymatgen
data_LiV(PO3)3
_symmetry_space_group_name_H-M   'P 1'
_cell_length_a   6.68633888
_cell_length_b   7.47875138
_cell_length_c   6.81476234
_cell_angle_alpha   100.45834899
_cell_angle_beta   90.99692784
_cell_angle_gamma   86.95370534
_symmetry_Int_Tables_number   1
_chemical_formula_structural   LiV(PO3)3
_chemical_formula_sum   'Li2 V2 P6 O18'
_cell_volume   334.63013770
_cell_formula_units_Z   2
loop_
 _symmetry_equiv_pos_site_id
 _symmetry_equiv_pos_as_xyz
  1  'x, y, z'
loop_
 _atom_site_type_symbol
 _atom_site_label
 _atom_site_symmetry_multiplicity
 _atom_site_fract_x
 _atom_site_fract_y
 _atom_site_fract_z
 _atom_site_occupancy
  Li  Li0  1  0.14936057  0.20244699  0.43337549  1
  Li  Li1  1  0.85063943  0.79755301  0.56662451  1
  V  V2  1  0.15928869  0.14249060  0.92181968  1
  V  V3  1  0.84071131  0.85750940  0.07818032  1
  P  P4  1  0.15243991  0.55400036  0.78775650  1
  P  P5  1  0.32745264  0.78003922  0.12825421  1
  P  P6  1  0.36035084  0.80447107  0.57520663  1
  P  P7  1  0.63964916  0.19552893  0.42479337  1
  P  P8  1  0.67254736  0.21995978  0.87174579  1
  P  P9  1  0.84756009  0.44599964  0.21224350  1
  O  O10  1  0.03826810  0.32715570  0.20922581  1
  O  O11  1  0.13906476  0.35089423  0.72596919  1
  O  O12  1  0.16053097  0.92304357  0.10479362  1
  O  O13  1  0.19281552  0.94361908  0.64777148  1
  O  O14  1  0.25503977  0.58715198  0.00576404  1
  O  O15  1  0.31983792  0.61540215  0.65156174  1
  O  O16  1  0.31772623  0.72744136  0.34241991  1
  O  O17  1  0.42692558  0.15427118  0.38675434  1
  O  O18  1  0.46823670  0.18934374  0.93524594  1
  O  O19  1  0.53176330  0.81065626  0.06475406  1
  O  O20  1  0.57307442  0.84572882  0.61324566  1
  O  O21  1  0.68227377  0.27255864  0.65758009  1
  O  O22  1  0.68016208  0.38459785  0.34843826  1
  O  O23  1  0.74496023  0.41284802  0.99423596  1
  O  O24  1  0.80718448  0.05638092  0.35222852  1
  O  O25  1  0.83946903  0.07695643  0.89520638  1
  O  O26  1  0.86093524  0.64910577  0.27403081  1
  O  O27  1  0.96173190  0.67284430  0.79077419  1
