# generated using pymatgen
data_Li4V3P8O29
_symmetry_space_group_name_H-M   'P 1'
_cell_length_a   9.81216900
_cell_length_b   9.75016867
_cell_length_c   14.24001662
_cell_angle_alpha   90.17894057
_cell_angle_beta   90.88395157
_cell_angle_gamma   59.98497143
_symmetry_Int_Tables_number   1
_chemical_formula_structural   Li4V3P8O29
_chemical_formula_sum   'Li8 V6 P16 O58'
_cell_volume   1179.49115033
_cell_formula_units_Z   2
loop_
 _symmetry_equiv_pos_site_id
 _symmetry_equiv_pos_as_xyz
  1  'x, y, z'
loop_
 _atom_site_type_symbol
 _atom_site_label
 _atom_site_symmetry_multiplicity
 _atom_site_fract_x
 _atom_site_fract_y
 _atom_site_fract_z
 _atom_site_occupancy
  Li  Li0  1  0.91748938  0.30586387  0.55769924  1
  Li  Li1  1  0.67311303  0.65478352  0.89561633  1
  Li  Li2  1  0.31792548  0.91451295  0.06575710  1
  Li  Li3  1  0.68198503  0.22891358  0.43481814  1
  Li  Li4  1  0.31748211  0.77138159  0.56047876  1
  Li  Li5  1  0.67105940  0.09681024  0.94069081  1
  Li  Li6  1  0.08394125  0.69309200  0.43821308  1
  Li  Li7  1  0.00047663  0.99713027  0.00592384  1
  V  V8  1  0.56771593  0.43576806  0.24469423  1
  V  V9  1  0.42899958  0.56763433  0.75308107  1
  V  V10  1  0.57022230  0.00012219  0.74375595  1
  V  V11  1  0.43275027  0.00302297  0.25500900  1
  V  V12  1  0.99499542  0.56545063  0.23968989  1
  V  V13  1  0.00727290  0.43001608  0.75688319  1
  P  P14  1  0.91597196  0.78166392  0.83857339  1
  P  P15  1  0.77724101  0.91030091  0.33548110  1
  P  P16  1  0.91283096  0.31976965  0.34296789  1
  P  P17  1  0.66062368  0.67199905  0.12958693  1
  P  P18  1  0.66782892  0.66201666  0.63190531  1
  P  P19  1  0.78153978  0.30688960  0.83867619  1
  P  P20  1  0.67991248  0.23517819  0.65623440  1
  P  P21  1  0.32306904  0.91040826  0.84686057  1
  P  P22  1  0.68060349  0.08658706  0.15519375  1
  P  P23  1  0.32153388  0.76686629  0.34232485  1
  P  P24  1  0.21792991  0.69737969  0.16076552  1
  P  P25  1  0.33162270  0.33947678  0.36731270  1
  P  P26  1  0.34001499  0.32756141  0.86986893  1
  P  P27  1  0.08423732  0.68276172  0.65616462  1
  P  P28  1  0.22465921  0.08522353  0.66538458  1
  P  P29  1  0.08113692  0.21709698  0.16127525  1
  O  O30  1  0.00974313  0.74235614  0.56299833  1
  O  O31  1  0.92019686  0.73979000  0.33588643  1
  O  O32  1  0.75479971  0.02000636  0.06333928  1
  O  O33  1  0.73940483  0.91948147  0.83522564  1
  O  O34  1  0.90917428  0.62331768  0.83207138  1
  O  O35  1  0.80954594  0.67773271  0.17142243  1
  O  O36  1  0.90327092  0.47930285  0.31582727  1
  O  O37  1  0.00160921  0.19284301  0.07915263  1
  O  O38  1  0.92187926  0.33977662  0.83673065  1
  O  O39  1  0.66186674  0.81627671  0.67745803  1
  O  O40  1  0.62229088  0.90259965  0.32143255  1
  O  O41  1  0.81719789  0.51805910  0.67953602  1
  O  O42  1  0.65913315  0.68015265  0.02446963  1
  O  O43  1  0.67668390  0.66147474  0.52811458  1
  O  O44  1  0.67303078  0.52017826  0.17020069  1
  O  O45  1  0.48488345  0.89777456  0.82884492  1
  O  O46  1  0.50898433  0.81977806  0.16853507  1
  O  O47  1  0.74736628  0.33708121  0.33625602  1
  O  O48  1  0.79984567  0.21612357  0.73951505  1
  O  O49  1  0.74949490  0.24416336  0.56538347  1
  O  O50  1  0.79599992  0.19768041  0.91580873  1
  O  O51  1  0.63041245  0.47116582  0.83335741  1
  O  O52  1  0.51621878  0.66678783  0.66798972  1
  O  O53  1  0.64997781  0.25706900  0.16959146  1
  O  O54  1  0.48009105  0.61749894  0.32220254  1
  O  O55  1  0.34506759  0.91251827  0.33375810  1
  O  O56  1  0.79899926  0.98458204  0.23927403  1
  O  O57  1  0.77239643  0.00563290  0.41790754  1
  O  O58  1  0.22681353  0.99221474  0.58284530  1
  O  O59  1  0.65916654  0.08719841  0.66501074  1
  O  O60  1  0.52150656  0.38341384  0.67812840  1
  O  O61  1  0.35015122  0.73998553  0.83311777  1
  O  O62  1  0.48232141  0.33635370  0.33196937  1
  O  O63  1  0.37672058  0.54450523  0.16495732  1
  O  O64  1  0.19156902  0.81165809  0.08344498  1
  O  O65  1  0.25087622  0.75762842  0.43313662  1
  O  O66  1  0.19897278  0.78946197  0.25991622  1
  O  O67  1  0.24937602  0.66693404  0.66450824  1
  O  O68  1  0.48808328  0.17933486  0.82491754  1
  O  O69  1  0.52539030  0.08665011  0.17380376  1
  O  O70  1  0.33040183  0.47734406  0.82769116  1
  O  O71  1  0.34811337  0.31036983  0.97335736  1
  O  O72  1  0.32240668  0.33952812  0.47133094  1
  O  O73  1  0.18175654  0.48129990  0.31973778  1
  O  O74  1  0.37888434  0.09345083  0.67947421  1
  O  O75  1  0.33991411  0.18327665  0.32253261  1
  O  O76  1  0.08196069  0.65809371  0.16511487  1
  O  O77  1  0.98274281  0.80079596  0.73929949  1
  O  O78  1  0.99955839  0.80142639  0.91976010  1
  O  O79  1  0.09442310  0.52304305  0.68464191  1
  O  O80  1  0.18854095  0.32642107  0.82596442  1
  O  O81  1  0.07545686  0.38126283  0.16752427  1
  O  O82  1  0.25796595  0.08377588  0.16644521  1
  O  O83  1  0.24904074  0.97880621  0.93796470  1
  O  O84  1  0.20514303  0.01213446  0.76227978  1
  O  O85  1  0.08025288  0.25667191  0.66473315  1
  O  O86  1  0.99097985  0.25707955  0.43531320  1
  O  O87  1  0.01215403  0.19969377  0.25974138  1
