# generated using pymatgen
data_Li9V8F48
_symmetry_space_group_name_H-M   'P 1'
_cell_length_a   9.91585560
_cell_length_b   11.27657539
_cell_length_c   10.07204545
_cell_angle_alpha   63.87419612
_cell_angle_beta   90.45374707
_cell_angle_gamma   64.02898037
_symmetry_Int_Tables_number   1
_chemical_formula_structural   Li9V8F48
_chemical_formula_sum   'Li9 V8 F48'
_cell_volume   880.48151683
_cell_formula_units_Z   1
loop_
 _symmetry_equiv_pos_site_id
 _symmetry_equiv_pos_as_xyz
  1  'x, y, z'
loop_
 _atom_site_type_symbol
 _atom_site_label
 _atom_site_symmetry_multiplicity
 _atom_site_fract_x
 _atom_site_fract_y
 _atom_site_fract_z
 _atom_site_occupancy
  Li  Li0  1  0.29700918  0.88395441  0.31554879  1
  Li  Li1  1  0.67690268  0.60907299  0.70401556  1
  Li  Li2  1  0.80522837  0.36553356  0.32104421  1
  Li  Li3  1  0.61985085  0.74931833  0.88985858  1
  Li  Li4  1  0.87722083  0.24025417  0.64205112  1
  Li  Li5  1  0.63689703  0.75998074  0.35955575  1
  Li  Li6  1  0.88736451  0.22370779  0.13220225  1
  Li  Li7  1  0.85221132  0.81895985  0.59599390  1
  Li  Li8  1  0.87047326  0.75650006  0.12065437  1
  V  V9  1  0.00600609  0.99590594  0.50333842  1
  V  V10  1  0.00776807  0.99457401  0.00296154  1
  V  V11  1  0.00836919  0.49492984  0.50357435  1
  V  V12  1  0.00755943  0.49551189  0.99828358  1
  V  V13  1  0.49136849  0.01123112  0.49364794  1
  V  V14  1  0.49116870  0.01426194  0.99043022  1
  V  V15  1  0.49196991  0.50106462  0.50165956  1
  V  V16  1  0.49600693  0.49631371  0.00416469  1
  F  F17  1  0.01262032  0.15263733  0.01231867  1
  F  F18  1  0.13851423  0.01238078  0.36485969  1
  F  F19  1  0.16146318  0.34429637  0.99108578  1
  F  F20  1  0.99804650  0.65397500  0.33316124  1
  F  F21  1  0.36467897  0.99756122  0.61452607  1
  F  F22  1  0.01928285  0.63930039  0.83267693  1
  F  F23  1  0.16777155  0.36172128  0.47820920  1
  F  F24  1  0.12295107  0.49970736  0.12926334  1
  F  F25  1  0.12085389  0.50876117  0.62656751  1
  F  F26  1  0.32804289  0.15821993  0.83790560  1
  F  F27  1  0.99430863  0.84671011  0.47448554  1
  F  F28  1  0.34903384  0.15152643  0.32280587  1
  F  F29  1  0.16540339  0.87081569  0.66453736  1
  F  F30  1  0.52338618  0.13497709  0.53281136  1
  F  F31  1  0.17150694  0.86451764  0.16942660  1
  F  F32  1  0.52395648  0.13850220  0.02956966  1
  F  F33  1  0.39395982  0.49097448  0.86393839  1
  F  F34  1  0.38359618  0.50949876  0.35496184  1
  F  F35  1  0.62975194  0.99914611  0.87734881  1
  F  F36  1  0.13146320  0.99522411  0.87600254  1
  F  F37  1  0.33040599  0.64469346  0.51714725  1
  F  F38  1  0.47039288  0.36087118  0.16009273  1
  F  F39  1  0.33347855  0.65341819  0.99593363  1
  F  F40  1  0.47904596  0.34984498  0.64921397  1
  F  F41  1  0.51733990  0.66217027  0.35481057  1
  F  F42  1  0.67942469  0.34969354  0.00330051  1
  F  F43  1  0.54385177  0.63715330  0.84370885  1
  F  F44  1  0.67574722  0.36898572  0.47888705  1
  F  F45  1  0.87134368  0.00597748  0.12058720  1
  F  F46  1  0.38215015  0.98505112  0.13719891  1
  F  F47  1  0.62602268  0.49273466  0.64134089  1
  F  F48  1  0.62216825  0.50538620  0.13544859  1
  F  F49  1  0.47904260  0.86418362  0.96957722  1
  F  F50  1  0.84406721  0.13653766  0.83309206  1
  F  F51  1  0.48444188  0.85608213  0.46166990  1
  F  F52  1  0.84183601  0.15883535  0.32234463  1
  F  F53  1  0.65523712  0.83076394  0.67661363  1
  F  F54  1  0.97920112  0.17505531  0.51428154  1
  F  F55  1  0.67109706  0.84481816  0.16210365  1
  F  F56  1  0.86683731  0.50089219  0.37484546  1
  F  F57  1  0.86274379  0.50914708  0.86759278  1
  F  F58  1  0.82485008  0.64238043  0.52773402  1
  F  F59  1  0.95796805  0.36573587  0.15351653  1
  F  F60  1  0.65315455  0.97461673  0.40492284  1
  F  F61  1  0.98233752  0.35107795  0.65954022  1
  F  F62  1  0.83442395  0.65632541  0.01200048  1
  F  F63  1  0.85801210  0.98228341  0.61703362  1
  F  F64  1  0.98993003  0.84025428  0.00316345  1
