# generated using pymatgen
data_Li5Mn4(P2O7)4
_symmetry_space_group_name_H-M   'P 1'
_cell_length_a   9.85000541
_cell_length_b   9.79493540
_cell_length_c   11.23165682
_cell_angle_alpha   89.84815088
_cell_angle_beta   102.66333741
_cell_angle_gamma   89.33655412
_symmetry_Int_Tables_number   1
_chemical_formula_structural   Li5Mn4(P2O7)4
_chemical_formula_sum   'Li10 Mn8 P16 O56'
_cell_volume   1057.18696147
_cell_formula_units_Z   2
loop_
 _symmetry_equiv_pos_site_id
 _symmetry_equiv_pos_as_xyz
  1  'x, y, z'
loop_
 _atom_site_type_symbol
 _atom_site_label
 _atom_site_symmetry_multiplicity
 _atom_site_fract_x
 _atom_site_fract_y
 _atom_site_fract_z
 _atom_site_occupancy
  Li  Li0  1  0.15800826  0.43548395  0.53111709  1
  Li  Li1  1  0.08490004  0.10824115  0.01888177  1
  Li  Li2  1  0.40951913  0.61016512  0.97456084  1
  Li  Li3  1  0.40481952  0.96114341  0.50490059  1
  Li  Li4  1  0.58612264  0.39463361  0.03279019  1
  Li  Li5  1  0.85661173  0.59431123  0.95471182  1
  Li  Li6  1  0.64006959  0.08763595  0.04672904  1
  Li  Li7  1  0.90975387  0.89622413  0.96778941  1
  Li  Li8  1  0.82272707  0.59310099  0.44815004  1
  Li  Li9  1  0.88261665  0.28110765  0.54810224  1
  Mn  Mn10  1  0.19915583  0.92266020  0.67025274  1
  Mn  Mn11  1  0.25215842  0.20997500  0.82089744  1
  Mn  Mn12  1  0.24371855  0.70851753  0.17986595  1
  Mn  Mn13  1  0.30825800  0.42010121  0.33078217  1
  Mn  Mn14  1  0.70355859  0.57648616  0.67183280  1
  Mn  Mn15  1  0.74774450  0.28145039  0.82742541  1
  Mn  Mn16  1  0.73733934  0.78287680  0.17191260  1
  Mn  Mn17  1  0.80543280  0.06871673  0.33392097  1
  P  P18  1  0.02461994  0.45020802  0.75537842  1
  P  P19  1  0.12133796  0.70982498  0.88506604  1
  P  P20  1  0.06068705  0.93262458  0.24014782  1
  P  P21  1  0.12879419  0.14522854  0.43471590  1
  P  P22  1  0.38164191  0.64609389  0.57187142  1
  P  P23  1  0.43527143  0.43012923  0.75954411  1
  P  P24  1  0.51528517  0.04886885  0.75352122  1
  P  P25  1  0.37624722  0.20831613  0.11441269  1
  P  P26  1  0.61489864  0.79169345  0.88850198  1
  P  P27  1  0.46680455  0.94022202  0.24080245  1
  P  P28  1  0.56709359  0.57244547  0.24105440  1
  P  P29  1  0.62832075  0.34586173  0.41633521  1
  P  P30  1  0.87840640  0.85610692  0.57143840  1
  P  P31  1  0.93203427  0.07736710  0.75319623  1
  P  P32  1  0.88276403  0.28880084  0.12235849  1
  P  P33  1  0.98182145  0.55169268  0.24831104  1
  O  O34  1  0.01731189  0.42129737  0.62221778  1
  O  O35  1  0.03405764  0.84786963  0.56845536  1
  O  O36  1  0.08200014  0.08591225  0.73251566  1
  O  O37  1  0.10624141  0.34234502  0.84428507  1
  O  O38  1  0.10768337  0.58957511  0.78383704  1
  O  O39  1  0.18116275  0.82739224  0.82343852  1
  O  O40  1  0.22519050  0.65456960  0.00025539  1
  O  O41  1  0.01740817  0.25253330  0.09168218  1
  O  O42  1  0.12337371  0.07048429  0.30472295  1
  O  O43  1  0.05464278  0.94533803  0.10554752  1
  O  O44  1  0.13464244  0.54128538  0.22240447  1
  O  O45  1  0.18898569  0.28533211  0.42050325  1
  O  O46  1  0.15846362  0.81346780  0.29491024  1
  O  O47  1  0.22095086  0.05264019  0.53143675  1
  O  O48  1  0.29434138  0.55396376  0.47248294  1
  O  O49  1  0.32894551  0.31995044  0.70088335  1
  O  O50  1  0.32446072  0.78939836  0.58074308  1
  O  O51  1  0.36042047  0.03685028  0.77859407  1
  O  O52  1  0.37144042  0.57310646  0.69953605  1
  O  O53  1  0.43876320  0.43928381  0.89424834  1
  O  O54  1  0.47926958  0.76568655  0.92085769  1
  O  O55  1  0.26914944  0.16008450  0.99942135  1
  O  O56  1  0.31675470  0.32798852  0.17643878  1
  O  O57  1  0.39009360  0.08695272  0.21309833  1
  O  O58  1  0.42039948  0.58736873  0.26738716  1
  O  O59  1  0.37468871  0.84064006  0.14957971  1
  O  O60  1  0.51566005  0.08070576  0.62433410  1
  O  O61  1  0.47743905  0.33581547  0.42897868  1
  O  O62  1  0.53684378  0.64992552  0.56657671  1
  O  O63  1  0.47473581  0.90933656  0.37124715  1
  O  O64  1  0.59512468  0.14079643  0.85571125  1
  O  O65  1  0.58065858  0.41375842  0.72856330  1
  O  O66  1  0.58878541  0.90003316  0.77760998  1
  O  O67  1  0.68887341  0.67052551  0.84023715  1
  O  O68  1  0.72219389  0.85967006  0.99650664  1
  O  O69  1  0.51675815  0.23036906  0.08579292  1
  O  O70  1  0.57000141  0.57413042  0.10680670  1
  O  O71  1  0.62491503  0.42276769  0.28798008  1
  O  O72  1  0.60947049  0.95260283  0.20115425  1
  O  O73  1  0.69706202  0.20739173  0.40530138  1
  O  O74  1  0.67376272  0.67465153  0.30875541  1
  O  O75  1  0.72311666  0.43237305  0.51473685  1
  O  O76  1  0.79109890  0.93274672  0.46061838  1
  O  O77  1  0.84011209  0.19539554  0.69093318  1
  O  O78  1  0.82173931  0.71377504  0.58656951  1
  O  O79  1  0.87591795  0.47266602  0.78470367  1
  O  O80  1  0.92402243  0.06781838  0.88620710  1
  O  O81  1  0.86689776  0.93657007  0.69337221  1
  O  O82  1  0.97956165  0.73304398  0.91217107  1
  O  O83  1  0.77534598  0.35277540  0.01256403  1
  O  O84  1  0.80684895  0.17302812  0.17881586  1
  O  O85  1  0.91305144  0.40243563  0.22890983  1
  O  O86  1  0.89451957  0.64407498  0.14729019  1
  O  O87  1  0.91198142  0.91865475  0.26871938  1
  O  O88  1  0.97855362  0.15774436  0.45009446  1
  O  O89  1  0.98102654  0.58403466  0.37807463  1
