# generated using pymatgen
data_Li6Fe3P8O29
_symmetry_space_group_name_H-M   'P 1'
_cell_length_a   9.98537765
_cell_length_b   9.97889991
_cell_length_c   13.92947448
_cell_angle_alpha   90.00617209
_cell_angle_beta   89.74358449
_cell_angle_gamma   60.04058398
_symmetry_Int_Tables_number   1
_chemical_formula_structural   Li6Fe3P8O29
_chemical_formula_sum   'Li12 Fe6 P16 O58'
_cell_volume   1202.49712909
_cell_formula_units_Z   2
loop_
 _symmetry_equiv_pos_site_id
 _symmetry_equiv_pos_as_xyz
  1  'x, y, z'
loop_
 _atom_site_type_symbol
 _atom_site_label
 _atom_site_symmetry_multiplicity
 _atom_site_fract_x
 _atom_site_fract_y
 _atom_site_fract_z
 _atom_site_occupancy
  Li  Li0  1  0.22170210  0.08973078  0.06225306  1
  Li  Li1  1  0.32855259  0.33525033  0.37945627  1
  Li  Li2  1  0.32846435  0.33637758  0.87955632  1
  Li  Li3  1  0.22161654  0.68881293  0.56222945  1
  Li  Li4  1  0.69127077  0.08607851  0.56348990  1
  Li  Li5  1  0.30878597  0.78034112  0.93659463  1
  Li  Li6  1  0.69093392  0.22290870  0.06346516  1
  Li  Li7  1  0.30914265  0.91085458  0.43661747  1
  Li  Li8  1  0.77750586  0.31178561  0.44037464  1
  Li  Li9  1  0.91006689  0.31103777  0.93750061  1
  Li  Li10  1  0.77763426  0.91086411  0.94022749  1
  Li  Li11  1  0.91014641  0.77895753  0.43744763  1
  Fe  Fe12  1  0.00171499  0.42834597  0.74524497  1
  Fe  Fe13  1  0.00186117  0.56992622  0.24517773  1
  Fe  Fe14  1  0.43074755  0.00213279  0.25086263  1
  Fe  Fe15  1  0.56972853  0.00350396  0.74860074  1
  Fe  Fe16  1  0.43062934  0.56710823  0.75088886  1
  Fe  Fe17  1  0.56969769  0.42672799  0.24858752  1
  P  P18  1  0.08969345  0.23239559  0.34029977  1
  P  P19  1  0.23235963  0.09357544  0.84203211  1
  P  P20  1  0.08993483  0.67776337  0.84014638  1
  P  P21  1  0.33898465  0.32749874  0.12530946  1
  P  P22  1  0.33867612  0.33358251  0.62511535  1
  P  P23  1  0.23234205  0.67410942  0.34203505  1
  P  P24  1  0.32348446  0.76635043  0.16022494  1
  P  P25  1  0.67339282  0.09338468  0.34307181  1
  P  P26  1  0.32354979  0.91015440  0.66024936  1
  P  P27  1  0.67335879  0.23334083  0.84325758  1
  P  P28  1  0.76464244  0.32328754  0.66008064  1
  P  P29  1  0.66408995  0.66817568  0.86976639  1
  P  P30  1  0.66418961  0.66764736  0.36961932  1
  P  P31  1  0.91280766  0.32329467  0.15687358  1
  P  P32  1  0.76462194  0.91208427  0.16010113  1
  P  P33  1  0.91295591  0.76368585  0.65679431  1
  O  O34  1  0.01153422  0.21096969  0.24462097  1
  O  O35  1  0.00090434  0.24607357  0.06552950  1
  O  O36  1  0.08152264  0.25093115  0.84295309  1
  O  O37  1  0.21582788  0.00248660  0.75087335  1
  O  O38  1  0.24664576  0.98835358  0.56700239  1
  O  O39  1  0.24919793  0.08316607  0.34361468  1
  O  O40  1  0.11312821  0.37360848  0.32827341  1
  O  O41  1  0.19781682  0.32733324  0.66673817  1
  O  O42  1  0.11320229  0.51325966  0.82821691  1
  O  O43  1  0.00086076  0.75300262  0.56548324  1
  O  O44  1  0.01160041  0.77742887  0.74453521  1
  O  O45  1  0.08152557  0.66762424  0.34297013  1
  O  O46  1  0.33017294  0.18196542  0.15680280  1
  O  O47  1  0.37126560  0.11899384  0.82605178  1
  O  O48  1  0.19807731  0.47469341  0.16692442  1
  O  O49  1  0.32950210  0.33211669  0.01565273  1
  O  O50  1  0.32937478  0.33805447  0.51560175  1
  O  O51  1  0.33004498  0.48779588  0.65669923  1
  O  O52  1  0.50820295  0.12035285  0.32697359  1
  O  O53  1  0.49191356  0.18999337  0.65806823  1
  O  O54  1  0.24918309  0.66766477  0.84361212  1
  O  O55  1  0.21586312  0.78168191  0.25089177  1
  O  O56  1  0.24645934  0.76501564  0.06704075  1
  O  O57  1  0.24915592  0.75142636  0.43113102  1
  O  O58  1  0.37122865  0.50977010  0.32607887  1
  O  O59  1  0.49206798  0.31783962  0.15817168  1
  O  O60  1  0.33268790  0.75138266  0.66214632  1
  O  O61  1  0.50806710  0.37147549  0.82702992  1
  O  O62  1  0.66596185  0.08267574  0.84534143  1
  O  O63  1  0.24902288  0.99962082  0.93112123  1
  O  O64  1  0.75449539  0.00171696  0.06987090  1
  O  O65  1  0.77935802  0.00571625  0.25096730  1
  O  O66  1  0.33261716  0.91594010  0.16209841  1
  O  O67  1  0.47845608  0.61843963  0.17279788  1
  O  O68  1  0.66600747  0.25132880  0.34538761  1
  O  O69  1  0.51346053  0.67255808  0.83872950  1
  O  O70  1  0.61911262  0.48076929  0.67582847  1
  O  O71  1  0.75449871  0.24387561  0.56999230  1
  O  O72  1  0.75009153  0.25134939  0.93154837  1
  O  O73  1  0.77925754  0.21500199  0.75102796  1
  O  O74  1  0.75555141  0.32935105  0.15943610  1
  O  O75  1  0.51346390  0.81389814  0.33852725  1
  O  O76  1  0.47850598  0.90305858  0.67288513  1
  O  O77  1  0.66832747  0.51715223  0.33820151  1
  O  O78  1  0.67050025  0.66777138  0.48115767  1
  O  O79  1  0.67026240  0.66190366  0.98140734  1
  O  O80  1  0.81282942  0.51535247  0.84211239  1
  O  O81  1  0.61923907  0.89995865  0.17574453  1
  O  O82  1  0.66844777  0.81445251  0.83835311  1
  O  O83  1  0.90979329  0.33704889  0.66247669  1
  O  O84  1  0.99084493  0.24648250  0.42548893  1
  O  O85  1  0.89661944  0.48116518  0.17600726  1
  O  O86  1  0.81283447  0.67180562  0.34186471  1
  O  O87  1  0.89654460  0.62226626  0.67594038  1
  O  O88  1  0.75550285  0.91515474  0.65941782  1
  O  O89  1  0.75030080  0.99841029  0.43158297  1
  O  O90  1  0.90995829  0.75303364  0.16235200  1
  O  O91  1  0.99079407  0.76276184  0.92555354  1
