# generated using pymatgen
data_Li4V3P8O29
_symmetry_space_group_name_H-M   'P 1'
_cell_length_a   9.74811000
_cell_length_b   9.76837991
_cell_length_c   14.23468246
_cell_angle_alpha   90.18714613
_cell_angle_beta   89.91813150
_cell_angle_gamma   59.70916359
_symmetry_Int_Tables_number   1
_chemical_formula_structural   Li4V3P8O29
_chemical_formula_sum   'Li8 V6 P16 O58'
_cell_volume   1170.40470974
_cell_formula_units_Z   2
loop_
 _symmetry_equiv_pos_site_id
 _symmetry_equiv_pos_as_xyz
  1  'x, y, z'
loop_
 _atom_site_type_symbol
 _atom_site_label
 _atom_site_symmetry_multiplicity
 _atom_site_fract_x
 _atom_site_fract_y
 _atom_site_fract_z
 _atom_site_occupancy
  Li  Li0  1  0.76299354  0.90492942  0.56342393  1
  Li  Li1  1  0.76883024  0.32305789  0.05159507  1
  Li  Li2  1  0.67456390  0.23494025  0.44829437  1
  Li  Li3  1  0.33078527  0.76512094  0.55994082  1
  Li  Li4  1  0.23290567  0.66695462  0.93952009  1
  Li  Li5  1  0.10047854  0.23284107  0.94067830  1
  Li  Li6  1  0.96770791  0.98363370  0.98616128  1
  Li  Li7  1  0.01994593  0.03799558  0.51002780  1
  V  V8  1  0.56154653  0.43845570  0.25011549  1
  V  V9  1  0.43330603  0.56735294  0.74996849  1
  V  V10  1  0.56362437  0.00142405  0.75586160  1
  V  V11  1  0.43628107  0.00054851  0.24153036  1
  V  V12  1  0.99948841  0.56458516  0.25884632  1
  V  V13  1  0.00129527  0.43488250  0.74340137  1
  P  P14  1  0.91593929  0.77507225  0.83945219  1
  P  P15  1  0.76974059  0.91597001  0.34210167  1
  P  P16  1  0.91597150  0.30164514  0.34127036  1
  P  P17  1  0.67370219  0.65985246  0.13402515  1
  P  P18  1  0.66609031  0.66914015  0.63236397  1
  P  P19  1  0.77939765  0.31154149  0.84052747  1
  P  P20  1  0.68884942  0.22295140  0.66039476  1
  P  P21  1  0.30149352  0.91861395  0.84494549  1
  P  P22  1  0.70124683  0.08294174  0.15869527  1
  P  P23  1  0.31039912  0.78360705  0.33870090  1
  P  P24  1  0.21761737  0.68847699  0.16130357  1
  P  P25  1  0.33888750  0.32769073  0.36630328  1
  P  P26  1  0.32729690  0.33695866  0.86685365  1
  P  P27  1  0.08241096  0.69558627  0.65531536  1
  P  P28  1  0.22445559  0.08343980  0.66101830  1
  P  P29  1  0.08600593  0.23059706  0.15835105  1
  O  O30  1  0.99313781  0.79102312  0.57195525  1
  O  O31  1  0.91264463  0.74429178  0.33927760  1
  O  O32  1  0.80610877  0.00113043  0.07774517  1
  O  O33  1  0.74179974  0.91188090  0.83624863  1
  O  O34  1  0.92303142  0.61461753  0.82645437  1
  O  O35  1  0.81439990  0.66133381  0.18640139  1
  O  O36  1  0.92115805  0.45764066  0.33269145  1
  O  O37  1  0.00131138  0.23866631  0.06885243  1
  O  O38  1  0.92419941  0.33868972  0.83453758  1
  O  O39  1  0.67638381  0.81341809  0.67113477  1
  O  O40  1  0.61676171  0.91126094  0.32074218  1
  O  O41  1  0.81172418  0.51868359  0.68022339  1
  O  O42  1  0.68864095  0.63913229  0.03071467  1
  O  O43  1  0.67212212  0.66131632  0.52775369  1
  O  O44  1  0.67093553  0.51059287  0.17722152  1
  O  O45  1  0.45709481  0.92039895  0.83561227  1
  O  O46  1  0.52075108  0.81155393  0.17106584  1
  O  O47  1  0.73916267  0.34106883  0.33730550  1
  O  O48  1  0.79897166  0.20283752  0.74965464  1
  O  O49  1  0.77303167  0.21700800  0.57070862  1
  O  O50  1  0.79589304  0.22105940  0.92910266  1
  O  O51  1  0.62252061  0.46757063  0.82958680  1
  O  O52  1  0.51038866  0.67782405  0.67085079  1
  O  O53  1  0.66008481  0.26014313  0.16300966  1
  O  O54  1  0.46818286  0.62207768  0.32327826  1
  O  O55  1  0.34412933  0.92063401  0.32508771  1
  O  O56  1  0.79507150  0.00764875  0.25636980  1
  O  O57  1  0.76120084  0.00141381  0.43166166  1
  O  O58  1  0.21363257  0.99555263  0.57756778  1
  O  O59  1  0.66089066  0.08080873  0.66385250  1
  O  O60  1  0.53027490  0.38181513  0.67554063  1
  O  O61  1  0.33527978  0.74418832  0.83776064  1
  O  O62  1  0.48920660  0.32949921  0.32316678  1
  O  O63  1  0.37860801  0.53054277  0.17735062  1
  O  O64  1  0.21212247  0.76334887  0.06985744  1
  O  O65  1  0.23271825  0.79179099  0.42998329  1
  O  O66  1  0.20062831  0.79953841  0.24991308  1
  O  O67  1  0.25499477  0.66345687  0.65761108  1
  O  O68  1  0.48120128  0.19656636  0.82425098  1
  O  O69  1  0.54507806  0.07693230  0.16726413  1
  O  O70  1  0.31802860  0.49346069  0.83227732  1
  O  O71  1  0.30371721  0.33668145  0.97059127  1
  O  O72  1  0.35829717  0.31393456  0.46964868  1
  O  O73  1  0.18779787  0.48038524  0.32952402  1
  O  O74  1  0.38243685  0.08043127  0.67321564  1
  O  O75  1  0.33784438  0.18663532  0.31387316  1
  O  O76  1  0.07983217  0.65572506  0.17519788  1
  O  O77  1  0.99915809  0.79885234  0.74802999  1
  O  O78  1  0.00293377  0.78693319  0.92269746  1
  O  O79  1  0.08273780  0.53672437  0.66896277  1
  O  O80  1  0.18545082  0.32778571  0.81656330  1
  O  O81  1  0.09118286  0.38286911  0.18002971  1
  O  O82  1  0.25749450  0.08689348  0.16105912  1
  O  O83  1  0.19691134  0.00198822  0.92758625  1
  O  O84  1  0.19722882  0.00394152  0.75239747  1
  O  O85  1  0.08338828  0.25776323  0.66246260  1
  O  O86  1  0.99880441  0.19813696  0.42188869  1
  O  O87  1  0.99227411  0.20662519  0.24363567  1
