# generated using pymatgen
data_LiMn2O4
_symmetry_space_group_name_H-M   'P 1'
_cell_length_a   2.97713870
_cell_length_b   5.11216865
_cell_length_c   5.18311155
_cell_angle_alpha   108.19414130
_cell_angle_beta   90.65385520
_cell_angle_gamma   93.28211317
_symmetry_Int_Tables_number   1
_chemical_formula_structural   LiMn2O4
_chemical_formula_sum   'Li1 Mn2 O4'
_cell_volume   74.78252358
_cell_formula_units_Z   1
loop_
 _symmetry_equiv_pos_site_id
 _symmetry_equiv_pos_as_xyz
  1  'x, y, z'
loop_
 _atom_site_type_symbol
 _atom_site_label
 _atom_site_symmetry_multiplicity
 _atom_site_fract_x
 _atom_site_fract_y
 _atom_site_fract_z
 _atom_site_occupancy
  Li  Li0  1  0.50000000  -0.00000000  0.50000000  1
  Mn  Mn1  1  -0.00000000  -0.00000000  0.00000000  1
  Mn  Mn2  1  0.50000000  0.50000000  0.00000000  1
  O  O3  1  0.03841644  0.23776311  0.77877198  1
  O  O4  1  0.52128177  0.22104577  0.20118151  1
  O  O5  1  0.47871823  0.77895423  0.79881849  1
  O  O6  1  0.96158356  0.76223689  0.22122802  1
