# generated using pymatgen
data_MnOF
_symmetry_space_group_name_H-M   'P 1'
_cell_length_a   3.79168868
_cell_length_b   4.35139409
_cell_length_c   5.52984104
_cell_angle_alpha   69.00156804
_cell_angle_beta   109.36715978
_cell_angle_gamma   89.07627975
_symmetry_Int_Tables_number   1
_chemical_formula_structural   MnOF
_chemical_formula_sum   'Mn2 O2 F2'
_cell_volume   79.40957182
_cell_formula_units_Z   2
loop_
 _symmetry_equiv_pos_site_id
 _symmetry_equiv_pos_as_xyz
  1  'x, y, z'
loop_
 _atom_site_type_symbol
 _atom_site_label
 _atom_site_symmetry_multiplicity
 _atom_site_fract_x
 _atom_site_fract_y
 _atom_site_fract_z
 _atom_site_occupancy
  Mn  Mn0  1  0.13683212  0.61709186  0.76856578  1
  Mn  Mn1  1  0.86316788  0.38290814  0.23143422  1
  O  O2  1  0.66816102  0.63029527  0.83586256  1
  O  O3  1  0.33183898  0.36970473  0.16413744  1
  F  F4  1  0.05592111  0.18674200  0.64168891  1
  F  F5  1  0.94407889  0.81325800  0.35831109  1
