# generated using pymatgen
data_LiCo2(PO4)2
_symmetry_space_group_name_H-M   'P 1'
_cell_length_a   10.50838573
_cell_length_b   6.69133190
_cell_length_c   5.12717925
_cell_angle_alpha   90.00000000
_cell_angle_beta   89.63077937
_cell_angle_gamma   90.00000000
_symmetry_Int_Tables_number   1
_chemical_formula_structural   LiCo2(PO4)2
_chemical_formula_sum   'Li2 Co4 P4 O16'
_cell_volume   360.51061878
_cell_formula_units_Z   2
loop_
 _symmetry_equiv_pos_site_id
 _symmetry_equiv_pos_as_xyz
  1  'x, y, z'
loop_
 _atom_site_type_symbol
 _atom_site_label
 _atom_site_symmetry_multiplicity
 _atom_site_fract_x
 _atom_site_fract_y
 _atom_site_fract_z
 _atom_site_occupancy
  Li  Li0  1  0.33926499  0.01873215  0.74638882  1
  Li  Li1  1  0.83926499  0.48126785  0.74638882  1
  Co  Co2  1  0.08955591  0.78290525  0.74411419  1
  Co  Co3  1  0.40870907  0.29531187  0.24808714  1
  Co  Co4  1  0.58955591  0.71709475  0.74411419  1
  Co  Co5  1  0.90870907  0.20468813  0.24808714  1
  P  P6  1  0.17229442  0.01977782  0.24799221  1
  P  P7  1  0.32478745  0.52091815  0.74910437  1
  P  P8  1  0.67229442  0.48022218  0.24799221  1
  P  P9  1  0.82478745  0.97908185  0.74910437  1
  O  O10  1  0.08406001  0.20466309  0.19556214  1
  O  O11  1  0.11974857  0.83494969  0.11375123  1
  O  O12  1  0.18666132  0.54415802  0.66288777  1
  O  O13  1  0.18440485  0.98982912  0.54575539  1
  O  O14  1  0.33246365  0.48944482  0.04985040  1
  O  O15  1  0.30955179  0.06944108  0.13653085  1
  O  O16  1  0.38373605  0.32780650  0.61624659  1
  O  O17  1  0.40476892  0.71132272  0.68539391  1
  O  O18  1  0.58406001  0.29533691  0.19556214  1
  O  O19  1  0.61974857  0.66505031  0.11375123  1
  O  O20  1  0.68666132  0.95584198  0.66288777  1
  O  O21  1  0.68440485  0.51017088  0.54575539  1
  O  O22  1  0.83246365  0.01055518  0.04985040  1
  O  O23  1  0.80955179  0.43055892  0.13653085  1
  O  O24  1  0.88373605  0.17219350  0.61624659  1
  O  O25  1  0.90476892  0.78867728  0.68539391  1
