# generated using pymatgen
data_Li4V3P8O29
_symmetry_space_group_name_H-M   'P 1'
_cell_length_a   9.77016100
_cell_length_b   9.77491060
_cell_length_c   14.18947571
_cell_angle_alpha   90.07237932
_cell_angle_beta   90.41976374
_cell_angle_gamma   60.02012584
_symmetry_Int_Tables_number   1
_chemical_formula_structural   Li4V3P8O29
_chemical_formula_sum   'Li8 V6 P16 O58'
_cell_volume   1173.77867743
_cell_formula_units_Z   2
loop_
 _symmetry_equiv_pos_site_id
 _symmetry_equiv_pos_as_xyz
  1  'x, y, z'
loop_
 _atom_site_type_symbol
 _atom_site_label
 _atom_site_symmetry_multiplicity
 _atom_site_fract_x
 _atom_site_fract_y
 _atom_site_fract_z
 _atom_site_occupancy
  Li  Li0  1  0.76676079  0.90753887  0.55930547  1
  Li  Li1  1  0.90476815  0.33233788  0.55999976  1
  Li  Li2  1  0.76715524  0.32027092  0.05890659  1
  Li  Li3  1  0.31768380  0.90621549  0.05639257  1
  Li  Li4  1  0.33580877  0.76571323  0.56095961  1
  Li  Li5  1  0.69205435  0.08083171  0.93808270  1
  Li  Li6  1  0.09410504  0.22352367  0.93731873  1
  Li  Li7  1  0.00527705  0.99783719  0.50788579  1
  V  V8  1  0.56108867  0.43507124  0.25497493  1
  V  V9  1  0.43105499  0.56848162  0.75017558  1
  V  V10  1  0.56969325  0.99531852  0.74536484  1
  V  V11  1  0.43452292  0.00303917  0.25321069  1
  V  V12  1  0.00048207  0.56750858  0.24744166  1
  V  V13  1  0.99811572  0.43916645  0.74969825  1
  P  P14  1  0.91733390  0.77094246  0.84497599  1
  P  P15  1  0.77834598  0.91231949  0.33944644  1
  P  P16  1  0.91483479  0.31210679  0.34153889  1
  P  P17  1  0.66361920  0.66554914  0.13161379  1
  P  P18  1  0.66320816  0.66493882  0.62757034  1
  P  P19  1  0.76837808  0.31917703  0.84293341  1
  P  P20  1  0.69270683  0.22489368  0.65980965  1
  P  P21  1  0.32228412  0.90997823  0.84168776  1
  P  P22  1  0.68078595  0.09158490  0.15797473  1
  P  P23  1  0.31120562  0.77551752  0.34419385  1
  P  P24  1  0.22392832  0.68837837  0.16206302  1
  P  P25  1  0.33108752  0.33434322  0.36774546  1
  P  P26  1  0.33976590  0.32837946  0.86709150  1
  P  P27  1  0.08216191  0.69668734  0.65988611  1
  P  P28  1  0.22117959  0.08583468  0.66123947  1
  P  P29  1  0.08783900  0.22697700  0.15955172  1
  O  O30  1  0.99531598  0.80457328  0.57870579  1
  O  O31  1  0.91659473  0.74091501  0.32965984  1
  O  O32  1  0.75180856  0.01309002  0.06800866  1
  O  O33  1  0.74632753  0.91610795  0.83423997  1
  O  O34  1  0.90594737  0.61920867  0.82060036  1
  O  O35  1  0.81531738  0.65869917  0.17729966  1
  O  O36  1  0.91776690  0.46710936  0.32701556  1
  O  O37  1  0.99881085  0.23578564  0.07095822  1
  O  O38  1  0.91780412  0.33483987  0.84094918  1
  O  O39  1  0.67967946  0.80857730  0.66405278  1
  O  O40  1  0.61902526  0.91219949  0.32531473  1
  O  O41  1  0.80810014  0.50955851  0.66542585  1
  O  O42  1  0.66493185  0.65947827  0.02717087  1
  O  O43  1  0.64623303  0.66772684  0.52252387  1
  O  O44  1  0.66107394  0.51817528  0.17482039  1
  O  O45  1  0.48277989  0.89580533  0.82207770  1
  O  O46  1  0.51750439  0.81930803  0.17141175  1
  O  O47  1  0.74230172  0.34466268  0.32976556  1
  O  O48  1  0.78610667  0.20162134  0.75915629  1
  O  O49  1  0.79984500  0.21105489  0.58095742  1
  O  O50  1  0.75348054  0.24854072  0.93372119  1
  O  O51  1  0.61915454  0.48057081  0.82129142  1
  O  O52  1  0.50843857  0.67804658  0.67324331  1
  O  O53  1  0.65780135  0.26101337  0.16350352  1
  O  O54  1  0.46924635  0.61740434  0.32921029  1
  O  O55  1  0.34432813  0.91370748  0.32819881  1
  O  O56  1  0.79253832  0.00294090  0.24865414  1
  O  O57  1  0.78622176  0.98561981  0.42960948  1
  O  O58  1  0.20376021  0.99476357  0.58169370  1
  O  O59  1  0.65970638  0.08534807  0.65714519  1
  O  O60  1  0.53793214  0.38521705  0.66927922  1
  O  O61  1  0.33826555  0.74402957  0.83287686  1
  O  O62  1  0.48289912  0.32934376  0.32361807  1
  O  O63  1  0.37855993  0.52806962  0.17996093  1
  O  O64  1  0.23046512  0.77726917  0.08031235  1
  O  O65  1  0.23469363  0.78753816  0.43609341  1
  O  O66  1  0.19760358  0.78920476  0.25876167  1
  O  O67  1  0.25750954  0.66231131  0.66102360  1
  O  O68  1  0.48955162  0.18246051  0.82574686  1
  O  O69  1  0.52164675  0.09796935  0.17978432  1
  O  O70  1  0.34011656  0.47560878  0.81672991  1
  O  O71  1  0.34724002  0.33479399  0.97157618  1
  O  O72  1  0.33576152  0.32981605  0.47165453  1
  O  O73  1  0.18675946  0.48176751  0.32204995  1
  O  O74  1  0.38084617  0.08134216  0.66860033  1
  O  O75  1  0.32975448  0.18526094  0.32298010  1
  O  O76  1  0.08308177  0.65724397  0.16440109  1
  O  O77  1  0.00875651  0.79138401  0.75611385  1
  O  O78  1  0.99533868  0.76532790  0.93486897  1
  O  O79  1  0.08033215  0.54127898  0.66639377  1
  O  O80  1  0.18761206  0.32851731  0.83062643  1
  O  O81  1  0.09549674  0.37913210  0.17626695  1
  O  O82  1  0.25661192  0.08097472  0.15979147  1
  O  O83  1  0.24934499  0.99249228  0.93271278  1
  O  O84  1  0.20060371  0.01349530  0.75942276  1
  O  O85  1  0.08248919  0.25923963  0.66224046  1
  O  O86  1  0.98563606  0.22760051  0.43156123  1
  O  O87  1  0.00415740  0.20288138  0.25081212  1
