# generated using pymatgen
data_Li4V3P8O29
_symmetry_space_group_name_H-M   'P 1'
_cell_length_a   9.73964576
_cell_length_b   9.76136709
_cell_length_c   14.29554491
_cell_angle_alpha   90.71606817
_cell_angle_beta   90.78606156
_cell_angle_gamma   60.63156021
_symmetry_Int_Tables_number   1
_chemical_formula_structural   Li4V3P8O29
_chemical_formula_sum   'Li8 V6 P16 O58'
_cell_volume   1184.30507151
_cell_formula_units_Z   2
loop_
 _symmetry_equiv_pos_site_id
 _symmetry_equiv_pos_as_xyz
  1  'x, y, z'
loop_
 _atom_site_type_symbol
 _atom_site_label
 _atom_site_symmetry_multiplicity
 _atom_site_fract_x
 _atom_site_fract_y
 _atom_site_fract_z
 _atom_site_occupancy
  Li  Li0  1  0.90574698  0.33094336  0.56577286  1
  Li  Li1  1  0.32618644  0.90981694  0.05686848  1
  Li  Li2  1  0.33152372  0.76735144  0.55991506  1
  Li  Li3  1  0.66786171  0.09573725  0.93493941  1
  Li  Li4  1  0.23079352  0.66985722  0.93929517  1
  Li  Li5  1  0.09032177  0.67374422  0.44355541  1
  Li  Li6  1  0.97313853  0.05320915  0.99084460  1
  Li  Li7  1  0.94769414  0.02567352  0.50993418  1
  V  V8  1  0.56845031  0.43158141  0.24987386  1
  V  V9  1  0.44224537  0.55912376  0.75055343  1
  V  V10  1  0.56595438  0.99700560  0.74623186  1
  V  V11  1  0.43855539  0.00360104  0.25809666  1
  V  V12  1  0.99646812  0.56127223  0.24200395  1
  V  V13  1  0.00562458  0.43576848  0.75394879  1
  P  P14  1  0.91680226  0.78195148  0.83548315  1
  P  P15  1  0.78895941  0.91264672  0.33763474  1
  P  P16  1  0.91466548  0.31166924  0.34356738  1
  P  P17  1  0.65691621  0.67091816  0.13370269  1
  P  P18  1  0.66885376  0.66201398  0.63464695  1
  P  P19  1  0.78167896  0.30563500  0.84145726  1
  P  P20  1  0.69202220  0.22072553  0.65906848  1
  P  P21  1  0.31500988  0.91080610  0.84384409  1
  P  P22  1  0.68850362  0.08565173  0.15658465  1
  P  P23  1  0.31730269  0.77139212  0.34013071  1
  P  P24  1  0.22783780  0.68294348  0.15940361  1
  P  P25  1  0.32961181  0.34218218  0.36622165  1
  P  P26  1  0.33727060  0.33484158  0.86685657  1
  P  P27  1  0.08895007  0.68675139  0.65547294  1
  P  P28  1  0.21823857  0.08157845  0.66259930  1
  P  P29  1  0.08699040  0.21212766  0.16225185  1
  O  O30  1  0.02463448  0.77025188  0.56421165  1
  O  O31  1  0.91969806  0.73673834  0.33291159  1
  O  O32  1  0.76085620  0.02094065  0.06456591  1
  O  O33  1  0.74588587  0.92163153  0.83548952  1
  O  O34  1  0.91549096  0.62491610  0.82780448  1
  O  O35  1  0.81101706  0.66657800  0.17650247  1
  O  O36  1  0.91696306  0.46703542  0.32355364  1
  O  O37  1  0.00647513  0.18993276  0.08031677  1
  O  O38  1  0.91164984  0.34796914  0.83961119  1
  O  O39  1  0.67671345  0.80439525  0.67704512  1
  O  O40  1  0.62309820  0.92229815  0.32916737  1
  O  O41  1  0.81604052  0.50921808  0.67068108  1
  O  O42  1  0.64858830  0.67514773  0.03047335  1
  O  O43  1  0.64509662  0.66138948  0.53105924  1
  O  O44  1  0.66027269  0.52352635  0.17870775  1
  O  O45  1  0.46904058  0.91519060  0.83039795  1
  O  O46  1  0.51306897  0.81906712  0.17829990  1
  O  O47  1  0.74277159  0.34465888  0.32922722  1
  O  O48  1  0.79801304  0.20128084  0.74985172  1
  O  O49  1  0.78850138  0.21291873  0.57634027  1
  O  O50  1  0.78714746  0.20850377  0.92336548  1
  O  O51  1  0.61778441  0.45825686  0.82898768  1
  O  O52  1  0.51726963  0.66704942  0.68166165  1
  O  O53  1  0.65564195  0.25709122  0.17091325  1
  O  O54  1  0.47238919  0.61662181  0.32595584  1
  O  O55  1  0.34867290  0.91259810  0.33478909  1
  O  O56  1  0.80604975  0.98717183  0.24083808  1
  O  O57  1  0.81108599  0.99313162  0.41946480  1
  O  O58  1  0.20504371  0.98699776  0.58282150  1
  O  O59  1  0.65110685  0.08800606  0.66223216  1
  O  O60  1  0.53860752  0.38208483  0.67119304  1
  O  O61  1  0.34622042  0.73701816  0.83536194  1
  O  O62  1  0.47687745  0.33932149  0.32126748  1
  O  O63  1  0.38283685  0.52797812  0.17371210  1
  O  O64  1  0.22575627  0.76835936  0.07266753  1
  O  O65  1  0.23218709  0.77311081  0.42688822  1
  O  O66  1  0.20665978  0.79294367  0.24977833  1
  O  O67  1  0.26326795  0.65479706  0.66555206  1
  O  O68  1  0.48864734  0.18784689  0.83188869  1
  O  O69  1  0.53301468  0.08301054  0.17647820  1
  O  O70  1  0.32986577  0.48655454  0.82082011  1
  O  O71  1  0.33093988  0.35727014  0.97059167  1
  O  O72  1  0.32506877  0.35013770  0.46943326  1
  O  O73  1  0.18143927  0.48609863  0.32128492  1
  O  O74  1  0.37723265  0.07885790  0.67174581  1
  O  O75  1  0.33355852  0.18847139  0.32357086  1
  O  O76  1  0.08640329  0.65165897  0.16477184  1
  O  O77  1  0.99280739  0.80337796  0.73950808  1
  O  O78  1  0.01006663  0.79498269  0.91613274  1
  O  O79  1  0.08370403  0.53367461  0.66687909  1
  O  O80  1  0.19152292  0.33005323  0.82188269  1
  O  O81  1  0.07772721  0.37733285  0.17072725  1
  O  O82  1  0.26307389  0.08103747  0.16717284  1
  O  O83  1  0.23304203  0.97577430  0.93532132  1
  O  O84  1  0.19869052  0.00538186  0.75978365  1
  O  O85  1  0.08048350  0.25130737  0.66303069  1
  O  O86  1  0.97986583  0.23903443  0.43550778  1
  O  O87  1  0.01245307  0.19501509  0.25904639  1
