# generated using pymatgen
data_BaBi4(BrO3)2
_symmetry_space_group_name_H-M   'P 1'
_cell_length_a   4.02776628
_cell_length_b   4.02776666
_cell_length_c   17.10973903
_cell_angle_alpha   96.75960824
_cell_angle_beta   96.75960895
_cell_angle_gamma   90.00000044
_symmetry_Int_Tables_number   1
_chemical_formula_structural   BaBi4(BrO3)2
_chemical_formula_sum   'Ba1 Bi4 Br2 O6'
_cell_volume   273.69710835
_cell_formula_units_Z   1
loop_
 _symmetry_equiv_pos_site_id
 _symmetry_equiv_pos_as_xyz
  1  'x, y, z'
loop_
 _atom_site_type_symbol
 _atom_site_label
 _atom_site_symmetry_multiplicity
 _atom_site_fract_x
 _atom_site_fract_y
 _atom_site_fract_z
 _atom_site_occupancy
  Ba  Ba0  1  0.50000000  0.50000000  0.00000000  1
  Bi  Bi1  1  0.08369261  0.08369261  0.16738522  1
  Bi  Bi2  1  0.91630739  0.91630739  0.83261478  1
  Bi  Bi3  1  0.78625049  0.78625049  0.57250099  1
  Bi  Bi4  1  0.21374951  0.21374951  0.42749901  1
  Br  Br5  1  0.33314090  0.33314090  0.66628181  1
  Br  Br6  1  0.66685910  0.66685910  0.33371819  1
  O  O7  1  0.94432375  0.44432375  0.88864750  1
  O  O8  1  0.05567625  0.55567625  0.11135250  1
  O  O9  1  0.55567625  0.05567625  0.11135250  1
  O  O10  1  0.44432375  0.94432375  0.88864750  1
  O  O11  1  0.25000000  0.75000000  0.50000000  1
  O  O12  1  0.75000000  0.25000000  0.50000000  1
