# generated using pymatgen
data_Li3MnV(PO4)3
_symmetry_space_group_name_H-M   'P 1'
_cell_length_a   9.29054830
_cell_length_b   8.40032934
_cell_length_c   8.42630334
_cell_angle_alpha   60.22205474
_cell_angle_beta   63.04377331
_cell_angle_gamma   90.21532983
_symmetry_Int_Tables_number   1
_chemical_formula_structural   Li3MnV(PO4)3
_chemical_formula_sum   'Li6 Mn2 V2 P6 O24'
_cell_volume   485.99506278
_cell_formula_units_Z   2
loop_
 _symmetry_equiv_pos_site_id
 _symmetry_equiv_pos_as_xyz
  1  'x, y, z'
loop_
 _atom_site_type_symbol
 _atom_site_label
 _atom_site_symmetry_multiplicity
 _atom_site_fract_x
 _atom_site_fract_y
 _atom_site_fract_z
 _atom_site_occupancy
  Li  Li0  1  0.14188337  0.74295177  0.18905580  1
  Li  Li1  1  0.12776372  0.06663539  0.60566137  1
  Li  Li2  1  0.59003653  0.79696585  0.67342803  1
  Li  Li3  1  0.85035305  0.66103970  0.07662924  1
  Li  Li4  1  0.91376272  0.95649860  0.34098801  1
  Li  Li5  1  0.86829796  0.25416624  0.81214099  1
  Mn  Mn6  1  0.55637569  0.85459495  0.29127393  1
  Mn  Mn7  1  0.43107193  0.15554485  0.70761016  1
  V  V8  1  0.03691621  0.34891546  0.30012966  1
  V  V9  1  0.96747634  0.64694721  0.69085538  1
  P  P10  1  0.24856949  0.05032948  0.21105809  1
  P  P11  1  0.24250355  0.45717993  0.49298213  1
  P  P12  1  0.23864937  0.74032498  0.80862700  1
  P  P13  1  0.75366940  0.25773921  0.19997970  1
  P  P14  1  0.75642893  0.54413554  0.50831303  1
  P  P15  1  0.75641512  0.94898308  0.78333032  1
  O  O16  1  0.10526334  0.84050263  0.37463868  1
  O  O17  1  0.25106254  0.12782921  0.00513334  1
  O  O18  1  0.16556221  0.16371331  0.31751697  1
  O  O19  1  0.16844906  0.48446525  0.34643173  1
  O  O20  1  0.09993009  0.48089149  0.67296139  1
  O  O21  1  0.10235043  0.78336215  0.73944585  1
  O  O22  1  0.41078461  0.03243801  0.20711265  1
  O  O23  1  0.24514360  0.25027192  0.60726287  1
  O  O24  1  0.40541076  0.61084272  0.36482358  1
  O  O25  1  0.17492570  0.52499279  -0.00065454  1
  O  O26  1  0.24308192  0.86765592  0.88832721  1
  O  O27  1  0.40974491  0.77859439  0.62419757  1
  O  O28  1  0.58700842  0.21587604  0.38748481  1
  O  O29  1  0.75957818  0.13130107  0.11600805  1
  O  O30  1  0.82479524  0.47611163  0.00775164  1
  O  O31  1  0.59416989  0.39360834  0.62671864  1
  O  O32  1  0.74153773  0.75123537  0.41883869  1
  O  O33  1  0.59135333  0.95942875  0.78837120  1
  O  O34  1  0.88931010  0.21707243  0.27570533  1
  O  O35  1  0.90004058  0.54429705  0.30871245  1
  O  O36  1  0.82670204  0.50325620  0.65969193  1
  O  O37  1  0.82651049  0.82655504  0.68363552  1
  O  O38  1  0.74507762  0.85687407  0.99923900  1
  O  O39  1  0.89478681  0.15208797  0.63193559  1
