# generated using pymatgen
data_Li4V3P8O29
_symmetry_space_group_name_H-M   'P 1'
_cell_length_a   9.78970847
_cell_length_b   9.82595801
_cell_length_c   14.23298999
_cell_angle_alpha   90.23955659
_cell_angle_beta   90.25074748
_cell_angle_gamma   60.21689859
_symmetry_Int_Tables_number   1
_chemical_formula_structural   Li4V3P8O29
_chemical_formula_sum   'Li8 V6 P16 O58'
_cell_volume   1188.25917250
_cell_formula_units_Z   2
loop_
 _symmetry_equiv_pos_site_id
 _symmetry_equiv_pos_as_xyz
  1  'x, y, z'
loop_
 _atom_site_type_symbol
 _atom_site_label
 _atom_site_symmetry_multiplicity
 _atom_site_fract_x
 _atom_site_fract_y
 _atom_site_fract_z
 _atom_site_occupancy
  Li  Li0  1  0.77436193  0.91671169  0.55489478  1
  Li  Li1  1  0.91363548  0.31219701  0.55615995  1
  Li  Li2  1  0.76950793  0.32396131  0.06264695  1
  Li  Li3  1  0.31335433  0.91307275  0.06376245  1
  Li  Li4  1  0.31409694  0.78017308  0.55169094  1
  Li  Li5  1  0.69060015  0.08368191  0.94410327  1
  Li  Li6  1  0.22319554  0.68672842  0.94776738  1
  Li  Li7  1  0.09352295  0.67775257  0.43432546  1
  V  V8  1  0.56702774  0.42755753  0.25669269  1
  V  V9  1  0.43460063  0.56635104  0.74866089  1
  V  V10  1  0.56741123  0.99818440  0.74770516  1
  V  V11  1  0.43063774  0.00203430  0.25186522  1
  V  V12  1  0.99402123  0.56953399  0.24323583  1
  V  V13  1  0.00356056  0.43061425  0.75459007  1
  P  P14  1  0.91482335  0.76992361  0.83882063  1
  P  P15  1  0.77099738  0.90950675  0.33951623  1
  P  P16  1  0.91496375  0.31997235  0.34222160  1
  P  P17  1  0.66114616  0.66295991  0.12929978  1
  P  P18  1  0.67052430  0.66220497  0.63102089  1
  P  P19  1  0.76810820  0.31955156  0.84112997  1
  P  P20  1  0.68352410  0.23018632  0.65957410  1
  P  P21  1  0.32221165  0.90975366  0.84379783  1
  P  P22  1  0.68057134  0.08808076  0.16019547  1
  P  P23  1  0.32072408  0.76924510  0.33938451  1
  P  P24  1  0.23339180  0.67709759  0.16083902  1
  P  P25  1  0.32469281  0.33918975  0.37055497  1
  P  P26  1  0.33647864  0.33587297  0.86960026  1
  P  P27  1  0.08710713  0.67882560  0.65706121  1
  P  P28  1  0.22869866  0.08583256  0.66352809  1
  P  P29  1  0.08472666  0.22967944  0.16062869  1
  O  O30  1  0.00382540  0.75169560  0.56693069  1
  O  O31  1  0.92138666  0.74254326  0.33158504  1
  O  O32  1  0.75527605  0.01417327  0.06950997  1
  O  O33  1  0.74700012  0.91471465  0.83762566  1
  O  O34  1  0.90540182  0.61734767  0.82127591  1
  O  O35  1  0.81293655  0.66320948  0.17473855  1
  O  O36  1  0.90645487  0.47901457  0.32094449  1
  O  O37  1  0.98738185  0.24162325  0.07793950  1
  O  O38  1  0.91308193  0.34234938  0.83324718  1
  O  O39  1  0.67434877  0.81110878  0.66819717  1
  O  O40  1  0.62403407  0.89571843  0.32107435  1
  O  O41  1  0.81835421  0.51266326  0.67280988  1
  O  O42  1  0.67352948  0.65311730  0.02509780  1
  O  O43  1  0.66387346  0.65683219  0.52681273  1
  O  O44  1  0.66636947  0.51215015  0.17101139  1
  O  O45  1  0.48137666  0.89750259  0.82232093  1
  O  O46  1  0.51196597  0.81319633  0.16603341  1
  O  O47  1  0.74570642  0.34351150  0.33107482  1
  O  O48  1  0.78470580  0.20643929  0.75559617  1
  O  O49  1  0.76667951  0.24417573  0.57730530  1
  O  O50  1  0.75587379  0.24938320  0.93128065  1
  O  O51  1  0.61738631  0.48001929  0.82116022  1
  O  O52  1  0.51684666  0.66597098  0.67355324  1
  O  O53  1  0.65852023  0.25712582  0.16647448  1
  O  O54  1  0.48037843  0.61754104  0.32253723  1
  O  O55  1  0.34303110  0.91272212  0.33573195  1
  O  O56  1  0.78977661  0.00084800  0.25006175  1
  O  O57  1  0.77397078  0.98339794  0.43002265  1
  O  O58  1  0.23204294  0.99463760  0.57977238  1
  O  O59  1  0.66294913  0.08405118  0.65899491  1
  O  O60  1  0.52207077  0.38158588  0.67914832  1
  O  O61  1  0.33807529  0.74230159  0.83195883  1
  O  O62  1  0.47714994  0.34027252  0.32578606  1
  O  O63  1  0.38457711  0.52008419  0.17828667  1
  O  O64  1  0.24160457  0.75575232  0.07282818  1
  O  O65  1  0.24397805  0.75680956  0.42750085  1
  O  O66  1  0.21065123  0.78825113  0.25013787  1
  O  O67  1  0.25442591  0.66031625  0.66020478  1
  O  O68  1  0.48508914  0.18789525  0.83238057  1
  O  O69  1  0.52138236  0.09456742  0.17722018  1
  O  O70  1  0.33200811  0.48748091  0.82499295  1
  O  O71  1  0.32573203  0.35285309  0.97327261  1
  O  O72  1  0.33008219  0.35148521  0.47430763  1
  O  O73  1  0.17905146  0.49123493  0.32878077  1
  O  O74  1  0.38157491  0.09591786  0.67791704  1
  O  O75  1  0.32817983  0.19277201  0.32798538  1
  O  O76  1  0.08823758  0.65457681  0.16414051  1
  O  O77  1  0.99374042  0.79181018  0.74375902  1
  O  O78  1  0.00941385  0.75942069  0.92233501  1
  O  O79  1  0.09528437  0.52049399  0.67790739  1
  O  O80  1  0.18543516  0.33739624  0.82440425  1
  O  O81  1  0.09483497  0.38219532  0.17727744  1
  O  O82  1  0.25145266  0.08513376  0.15980002  1
  O  O83  1  0.25081201  0.97779281  0.93576236  1
  O  O84  1  0.20647508  0.00869825  0.75836221  1
  O  O85  1  0.08368897  0.25523702  0.66516334  1
  O  O86  1  0.98765502  0.25232379  0.43368246  1
  O  O87  1  0.00956853  0.20631209  0.25649459  1
