# generated using pymatgen
data_Li4V3Cr3(FeO8)2
_symmetry_space_group_name_H-M   'P 1'
_cell_length_a   5.87859787
_cell_length_b   5.92980571
_cell_length_c   9.59104943
_cell_angle_alpha   89.62344407
_cell_angle_beta   89.80619601
_cell_angle_gamma   119.90476181
_symmetry_Int_Tables_number   1
_chemical_formula_structural   Li4V3Cr3(FeO8)2
_chemical_formula_sum   'Li4 V3 Cr3 Fe2 O16'
_cell_volume   289.80426254
_cell_formula_units_Z   1
loop_
 _symmetry_equiv_pos_site_id
 _symmetry_equiv_pos_as_xyz
  1  'x, y, z'
loop_
 _atom_site_type_symbol
 _atom_site_label
 _atom_site_symmetry_multiplicity
 _atom_site_fract_x
 _atom_site_fract_y
 _atom_site_fract_z
 _atom_site_occupancy
  Li  Li0  1  0.33878811  0.66665164  0.89078450  1
  Li  Li1  1  0.00022259  0.00195803  0.99718259  1
  Li  Li2  1  0.99798061  0.99773473  0.49572261  1
  Li  Li3  1  0.67648296  0.33791237  0.39254740  1
  V  V4  1  0.83563620  0.65838981  0.71557851  1
  V  V5  1  0.65589057  0.82935952  0.21519036  1
  V  V6  1  0.82315873  0.16248082  0.71369705  1
  Cr  Cr7  1  0.17022003  0.83181376  0.21392425  1
  Cr  Cr8  1  0.17005340  0.33875909  0.21382694  1
  Cr  Cr9  1  0.33827316  0.16999156  0.71360563  1
  Fe  Fe10  1  0.32167015  0.66154357  0.49140955  1
  Fe  Fe11  1  0.65451224  0.33452390  0.99213939  1
  O  O12  1  0.16123554  0.83567573  0.59964100  1
  O  O13  1  0.04462891  0.52186857  0.34013660  1
  O  O14  1  0.35463663  0.67815853  0.10383958  1
  O  O15  1  0.98776250  0.99356233  0.30873287  1
  O  O16  1  0.99376967  0.99419699  0.81089125  1
  O  O17  1  0.14521419  0.32048862  0.60294774  1
  O  O18  1  0.49809653  0.96397025  0.33536706  1
  O  O19  1  0.49751723  0.53379640  0.33525253  1
  O  O20  1  0.32359014  0.16212595  0.09743709  1
  O  O21  1  0.67102123  0.82727378  0.60586534  1
  O  O22  1  0.51926788  0.47945814  0.83845849  1
  O  O23  1  0.53504522  0.04057017  0.83588317  1
  O  O24  1  0.67203062  0.33895895  0.60285223  1
  O  O25  1  0.82496866  0.67525996  0.10508125  1
  O  O26  1  0.96471739  0.49254178  0.83516382  1
  O  O27  1  0.82360990  0.15127302  0.10468320  1
