# generated using pymatgen
data_Li3V3P8O29
_symmetry_space_group_name_H-M   'P 1'
_cell_length_a   9.75121147
_cell_length_b   9.75210471
_cell_length_c   14.51363309
_cell_angle_alpha   90.25247314
_cell_angle_beta   90.51054219
_cell_angle_gamma   60.11486240
_symmetry_Int_Tables_number   1
_chemical_formula_structural   Li3V3P8O29
_chemical_formula_sum   'Li6 V6 P16 O58'
_cell_volume   1196.59714584
_cell_formula_units_Z   2
loop_
 _symmetry_equiv_pos_site_id
 _symmetry_equiv_pos_as_xyz
  1  'x, y, z'
loop_
 _atom_site_type_symbol
 _atom_site_label
 _atom_site_symmetry_multiplicity
 _atom_site_fract_x
 _atom_site_fract_y
 _atom_site_fract_z
 _atom_site_occupancy
  Li  Li0  1  0.91638506  0.31124623  0.55167460  1
  Li  Li1  1  0.30888683  0.92061631  0.06779201  1
  Li  Li2  1  0.31995540  0.76742217  0.54934407  1
  Li  Li3  1  0.71055054  0.07862501  0.94605001  1
  Li  Li4  1  0.21806560  0.70280800  0.95619767  1
  Li  Li5  1  0.98066729  0.96079621  0.48563728  1
  V  V6  1  0.56773627  0.43059400  0.25215916  1
  V  V7  1  0.43869582  0.56318959  0.74742470  1
  V  V8  1  0.56795932  0.99510509  0.74441263  1
  V  V9  1  0.43345565  0.00694326  0.25659681  1
  V  V10  1  -0.00078350  0.56383836  0.24751815  1
  V  V11  1  0.00086264  0.43792941  0.74988703  1
  P  P12  1  0.91776811  0.77575733  0.83619339  1
  P  P13  1  0.78348820  0.91376781  0.33419357  1
  P  P14  1  0.91591126  0.31042079  0.34170337  1
  P  P15  1  0.65889796  0.67097846  0.13486690  1
  P  P16  1  0.66518959  0.66536934  0.63237873  1
  P  P17  1  0.77591056  0.31452775  0.83986806  1
  P  P18  1  0.69549382  0.22202500  0.66020865  1
  P  P19  1  0.32486536  0.90744506  0.84592803  1
  P  P20  1  0.68018802  0.09068796  0.15800537  1
  P  P21  1  0.31102761  0.77583518  0.34153033  1
  P  P22  1  0.22519153  0.68415713  0.16483356  1
  P  P23  1  0.33106749  0.33921773  0.36634544  1
  P  P24  1  0.33762833  0.33184410  0.86238388  1
  P  P25  1  0.08437903  0.69376454  0.65549161  1
  P  P26  1  0.22029145  0.08223209  0.66847543  1
  P  P27  1  0.08328087  0.22179685  0.16214021  1
  O  O28  1  0.00782636  0.78715349  0.57193383  1
  O  O29  1  0.91544220  0.73846769  0.32835145  1
  O  O30  1  0.74356445  0.01774841  0.06739508  1
  O  O31  1  0.74675447  0.91909389  0.83416574  1
  O  O32  1  0.90828496  0.62159518  0.81833969  1
  O  O33  1  0.81311058  0.66024468  0.17740670  1
  O  O34  1  0.91655127  0.46746530  0.32673764  1
  O  O35  1  0.00053698  0.21526501  0.07848859  1
  O  O36  1  0.91507753  0.34789232  0.82916441  1
  O  O37  1  0.67247388  0.81181754  0.67553954  1
  O  O38  1  0.62014538  0.92011703  0.32648720  1
  O  O39  1  0.81379653  0.51303831  0.67043621  1
  O  O40  1  0.65213187  0.66869212  0.03281998  1
  O  O41  1  0.64945444  0.66958702  0.53063221  1
  O  O42  1  0.65094582  0.52919237  0.18241502  1
  O  O43  1  0.48335277  0.89901992  0.81885352  1
  O  O44  1  0.51459700  0.82431433  0.17556168  1
  O  O45  1  0.74259435  0.34457530  0.33072128  1
  O  O46  1  0.79668324  0.20286843  0.75231082  1
  O  O47  1  0.79137660  0.20922386  0.57860929  1
  O  O48  1  0.76999228  0.23563254  0.92473756  1
  O  O49  1  0.62015252  0.47468543  0.81960973  1
  O  O50  1  0.51240991  0.67497178  0.67715184  1
  O  O51  1  0.65608435  0.25986244  0.16986469  1
  O  O52  1  0.46366224  0.61547741  0.33165852  1
  O  O53  1  0.34916741  0.91193986  0.33116577  1
  O  O54  1  0.80096234  0.98965771  0.23924497  1
  O  O55  1  0.80067193  0.99731035  0.41489753  1
  O  O56  1  0.21571106  0.98382528  0.59165376  1
  O  O57  1  0.65354532  0.08806768  0.66867429  1
  O  O58  1  0.53853950  0.38324949  0.67125278  1
  O  O59  1  0.33982001  0.74102425  0.83284044  1
  O  O60  1  0.48227930  0.33144944  0.32342593  1
  O  O61  1  0.37779753  0.52518053  0.18098932  1
  O  O62  1  0.23438173  0.76537174  0.07919084  1
  O  O63  1  0.22169317  0.79602675  0.42871193  1
  O  O64  1  0.20102674  0.79588653  0.25287064  1
  O  O65  1  0.26089109  0.65504191  0.66330595  1
  O  O66  1  0.48381323  0.17923645  0.82442883  1
  O  O67  1  0.52074571  0.09906489  0.18138852  1
  O  O68  1  0.33950866  0.47830380  0.81630748  1
  O  O69  1  0.33030119  0.34633736  0.96386852  1
  O  O70  1  0.32783909  0.34149922  0.46822388  1
  O  O71  1  0.18597915  0.48340603  0.31879354  1
  O  O72  1  0.38064087  0.08352995  0.67652663  1
  O  O73  1  0.32947544  0.18777619  0.32507779  1
  O  O74  1  0.08140797  0.65855301  0.16518262  1
  O  O75  1  0.00099928  0.79743084  0.74658269  1
  O  O76  1  0.00802973  0.76773596  0.92031822  1
  O  O77  1  0.07883103  0.53787158  0.67078166  1
  O  O78  1  0.18647897  0.33779246  0.81577422  1
  O  O79  1  0.08622783  0.37925880  0.17796484  1
  O  O80  1  0.25853328  0.08230516  0.16790732  1
  O  O81  1  0.26681811  0.97197189  0.93862782  1
  O  O82  1  0.20062308  0.01794811  0.76721414  1
  O  O83  1  0.08200693  0.25592151  0.66375417  1
  O  O84  1  0.98540981  0.23092452  0.43135704  1
  O  O85  1  0.00895444  0.19749721  0.25696302  1
