# generated using pymatgen
data_Li3Zn2Fe19O32
_symmetry_space_group_name_H-M   'P 1'
_cell_length_a   6.03902810
_cell_length_b   6.03902810
_cell_length_c   20.01408508
_cell_angle_alpha   98.70225896
_cell_angle_beta   89.97144670
_cell_angle_gamma   120.01491270
_symmetry_Int_Tables_number   1
_chemical_formula_structural   Li3Zn2Fe19O32
_chemical_formula_sum   'Li3 Zn2 Fe19 O32'
_cell_volume   622.33544679
_cell_formula_units_Z   1
loop_
 _symmetry_equiv_pos_site_id
 _symmetry_equiv_pos_as_xyz
  1  'x, y, z'
loop_
 _atom_site_type_symbol
 _atom_site_label
 _atom_site_symmetry_multiplicity
 _atom_site_fract_x
 _atom_site_fract_y
 _atom_site_fract_z
 _atom_site_occupancy
  Li  Li0  1  0.43807756  0.87323407  0.31131163  1
  Li  Li1  1  0.18756980  0.37461884  0.56218965  1
  Li  Li2  1  0.93711478  0.87580150  0.81291628  1
  Zn  Zn3  1  0.22059481  0.93641608  0.15701089  1
  Zn  Zn4  1  0.34183848  0.68958195  0.03142143  1
  Fe  Fe5  1  0.99784032  0.00085088  0.99869119  1
  Fe  Fe6  1  0.22249518  0.44424554  0.15702849  1
  Fe  Fe7  1  0.71278295  0.93453331  0.15702849  1
  Fe  Fe8  1  0.69052256  0.37380200  0.06432457  1
  Fe  Fe9  1  0.09600037  0.18835398  0.28435434  1
  Fe  Fe10  1  0.74839535  0.50311090  0.25150625  1
  Fe  Fe11  1  0.97384019  0.94759606  0.40551119  1
  Fe  Fe12  1  0.45791513  0.43167100  0.40551119  1
  Fe  Fe13  1  0.20869914  0.93032986  0.65518586  1
  Fe  Fe14  1  0.84457276  0.68938434  0.53395810  1
  Fe  Fe15  1  0.97382564  0.43158249  0.40540814  1
  Fe  Fe16  1  0.72401722  0.93127854  0.65529576  1
  Fe  Fe17  1  0.49984042  0.00013879  0.49997920  1
  Fe  Fe18  1  0.25063659  0.49781438  0.74844997  1
  Fe  Fe19  1  0.72485600  0.44648672  0.65518586  1
  Fe  Fe20  1  0.46913800  0.94139325  0.90458193  1
  Fe  Fe21  1  0.46966843  0.43510260  0.90477103  1
  Fe  Fe22  1  0.59379656  0.19016356  0.78396012  1
  Fe  Fe23  1  0.96318867  0.43544393  0.90458193  1
  O  O24  1  0.04353677  0.56060123  0.09506096  1
  O  O25  1  0.52697215  0.56992052  0.09689267  1
  O  O26  1  0.40856415  0.79981026  0.20837341  1
  O  O27  1  0.02842650  0.06924280  0.09766930  1
  O  O28  1  0.38853903  0.31123019  0.21920281  1
  O  O29  1  0.13650045  0.80200851  0.46767752  1
  O  O30  1  0.90797261  0.83066378  0.21920281  1
  O  O31  1  0.26750455  0.53588737  0.34702719  1
  O  O32  1  0.53445873  0.05152419  0.09506096  1
  O  O33  1  0.01811869  0.57839229  0.59651098  1
  O  O34  1  0.15394154  0.30705246  0.46099500  1
  O  O35  1  0.26876357  0.07821015  0.34697372  1
  O  O36  1  0.91487750  0.30239702  0.21727551  1
  O  O37  1  0.78321426  0.56733916  0.35055343  1
  O  O38  1  0.66532091  0.80231517  0.46763709  1
  O  O39  1  0.66566901  0.33117607  0.46767752  1
  O  O40  1  0.41561627  0.82896577  0.71677384  1
  O  O41  1  0.01874002  0.03576673  0.59689063  1
  O  O42  1  0.56112390  0.57815061  0.59689063  1
  O  O43  1  0.81113982  0.07952264  0.34702719  1
  O  O44  1  0.90442889  0.80657382  0.71100270  1
  O  O45  1  0.28196021  0.56614246  0.84810367  1
  O  O46  1  0.41673837  0.30071512  0.71745349  1
  O  O47  1  0.16056985  0.80334480  0.96391465  1
  O  O48  1  0.53308172  0.06631231  0.59939403  1
  O  O49  1  0.16129986  0.32395999  0.96321955  1
  O  O50  1  0.88780807  0.30115858  0.71677384  1
  O  O51  1  0.63925956  0.80191869  0.96321955  1
  O  O52  1  0.76596937  0.53473818  0.84716571  1
  O  O53  1  0.31242753  0.08119634  0.84716571  1
  O  O54  1  0.76556700  0.08123234  0.84679835  1
  O  O55  1  0.65465923  0.30959288  0.96425311  1
