# generated using pymatgen
data_Li4Cr3(CO3)6
_symmetry_space_group_name_H-M   'P 1'
_cell_length_a   4.70874077
_cell_length_b   6.08066769
_cell_length_c   12.08051036
_cell_angle_alpha   100.54548785
_cell_angle_beta   89.96390110
_cell_angle_gamma   112.96193135
_symmetry_Int_Tables_number   1
_chemical_formula_structural   Li4Cr3(CO3)6
_chemical_formula_sum   'Li4 Cr3 C6 O18'
_cell_volume   312.14804431
_cell_formula_units_Z   1
loop_
 _symmetry_equiv_pos_site_id
 _symmetry_equiv_pos_as_xyz
  1  'x, y, z'
loop_
 _atom_site_type_symbol
 _atom_site_label
 _atom_site_symmetry_multiplicity
 _atom_site_fract_x
 _atom_site_fract_y
 _atom_site_fract_z
 _atom_site_occupancy
  Li  Li0  1  0.74428432  0.50175426  0.07136021  1
  Li  Li1  1  0.59227815  0.19299831  0.61250632  1
  Li  Li2  1  0.40772185  0.80700169  0.38749368  1
  Li  Li3  1  0.25571568  0.49824574  0.92863979  1
  Cr  Cr4  1  0.66313226  0.32799826  0.33180511  1
  Cr  Cr5  1  0.33686774  0.67200174  0.66819489  1
  Cr  Cr6  1  -0.00000000  0.00000000  0.00000000  1
  C  C7  1  0.87426553  0.75464000  0.52966247  1
  C  C8  1  0.55240352  0.09640241  0.86278034  1
  C  C9  1  0.78927142  0.57101041  0.80109893  1
  C  C10  1  0.21072858  0.42898959  0.19890107  1
  C  C11  1  0.44759648  0.90359759  0.13721966  1
  C  C12  1  0.12573447  0.24536000  0.47033753  1
  O  O13  1  0.82730860  0.10529094  0.87286440  1
  O  O14  1  0.83817320  0.22503589  0.46228958  1
  O  O15  1  0.90089907  0.50108807  0.70822891  1
  O  O16  1  0.93677449  0.62497685  0.89703185  1
  O  O17  1  0.70899344  0.65235338  0.43417362  1
  O  O18  1  0.38243256  0.99103899  0.76669762  1
  O  O19  1  0.76067328  0.84552426  0.61433204  1
  O  O20  1  0.44062516  0.19970864  0.94595716  1
  O  O21  1  0.48683574  0.42661473  0.20648137  1
  O  O22  1  0.51316426  0.57338527  0.79351863  1
  O  O23  1  0.55937484  0.80029136  0.05404284  1
  O  O24  1  0.23932672  0.15447574  0.38566796  1
  O  O25  1  0.61756744  0.00896101  0.23330238  1
  O  O26  1  0.29100656  0.34764662  0.56582638  1
  O  O27  1  0.06322551  0.37502315  0.10296815  1
  O  O28  1  0.09910093  0.49891193  0.29177109  1
  O  O29  1  0.16182680  0.77496411  0.53771042  1
  O  O30  1  0.17269140  0.89470906  0.12713560  1
