# generated using pymatgen
data_Li3V3P8O29
_symmetry_space_group_name_H-M   'P 1'
_cell_length_a   9.77357970
_cell_length_b   9.74206143
_cell_length_c   14.25632092
_cell_angle_alpha   89.89752986
_cell_angle_beta   89.87196958
_cell_angle_gamma   60.18573008
_symmetry_Int_Tables_number   1
_chemical_formula_structural   Li3V3P8O29
_chemical_formula_sum   'Li6 V6 P16 O58'
_cell_volume   1177.74470774
_cell_formula_units_Z   2
loop_
 _symmetry_equiv_pos_site_id
 _symmetry_equiv_pos_as_xyz
  1  'x, y, z'
loop_
 _atom_site_type_symbol
 _atom_site_label
 _atom_site_symmetry_multiplicity
 _atom_site_fract_x
 _atom_site_fract_y
 _atom_site_fract_z
 _atom_site_occupancy
  Li  Li0  1  0.90841178  0.32274311  0.55484068  1
  Li  Li1  1  0.32799218  0.76570552  0.55615202  1
  Li  Li2  1  0.67331528  0.09300502  0.94378602  1
  Li  Li3  1  0.09224134  0.23159788  0.94490384  1
  Li  Li4  1  0.02834133  0.95067484  0.00521311  1
  Li  Li5  1  0.97178364  0.98019888  0.49423058  1
  V  V6  1  0.56550979  0.43607537  0.24760140  1
  V  V7  1  0.43396347  0.56403092  0.75592516  1
  V  V8  1  0.56669848  0.99780582  0.74513594  1
  V  V9  1  0.43729771  0.99803550  0.25167623  1
  V  V10  1  0.99350071  0.56978202  0.24842923  1
  V  V11  1  0.00017379  0.43988841  0.74844169  1
  P  P12  1  0.91369593  0.78066370  0.84224552  1
  P  P13  1  0.77901507  0.91577968  0.33959024  1
  P  P14  1  0.91038039  0.31201425  0.33984441  1
  P  P15  1  0.66546880  0.66805768  0.13078559  1
  P  P16  1  0.66307620  0.66428033  0.63219241  1
  P  P17  1  0.77680695  0.30941237  0.84145296  1
  P  P18  1  0.68999892  0.22665944  0.65876301  1
  P  P19  1  0.30950591  0.91685411  0.84121320  1
  P  P20  1  0.68741296  0.08776386  0.15762462  1
  P  P21  1  0.31323983  0.77405714  0.34265036  1
  P  P22  1  0.22190459  0.69364558  0.16115405  1
  P  P23  1  0.33229623  0.33530251  0.36473547  1
  P  P24  1  0.33644344  0.32694974  0.86825202  1
  P  P25  1  0.08560483  0.69620304  0.65888290  1
  P  P26  1  0.22389806  0.08519949  0.65779534  1
  P  P27  1  0.08974165  0.22310842  0.16059627  1
  O  O28  1  0.00997927  0.78551627  0.57245447  1
  O  O29  1  0.91263155  0.73976588  0.33093279  1
  O  O30  1  0.76730739  0.01669498  0.06719404  1
  O  O31  1  0.73871756  0.92020455  0.83334634  1
  O  O32  1  0.91396318  0.62356594  0.82803836  1
  O  O33  1  0.81652736  0.66393487  0.17506020  1
  O  O34  1  0.91189868  0.46921076  0.32516179  1
  O  O35  1  0.01859515  0.21263007  0.07056239  1
  O  O36  1  0.91719839  0.34203180  0.83741457  1
  O  O37  1  0.66513008  0.81229795  0.67774189  1
  O  O38  1  0.61927068  0.91901070  0.32821537  1
  O  O39  1  0.81252649  0.51282718  0.66994646  1
  O  O40  1  0.66618374  0.66915094  0.02691551  1
  O  O41  1  0.65514030  0.66962313  0.52809088  1
  O  O42  1  0.66448598  0.52092186  0.17554730  1
  O  O43  1  0.46627438  0.91773207  0.82653684  1
  O  O44  1  0.52331117  0.81581759  0.17816353  1
  O  O45  1  0.73811765  0.34669682  0.32946088  1
  O  O46  1  0.79742091  0.20552527  0.74939141  1
  O  O47  1  0.78404881  0.21646428  0.57411898  1
  O  O48  1  0.77908609  0.21779619  0.92538689  1
  O  O49  1  0.61941606  0.46902527  0.82661372  1
  O  O50  1  0.51204111  0.66994752  0.67561547  1
  O  O51  1  0.65290077  0.26100648  0.16822181  1
  O  O52  1  0.46952021  0.61743654  0.32628985  1
  O  O53  1  0.34804733  0.91279621  0.33154605  1
  O  O54  1  0.80040422  0.99465186  0.24415151  1
  O  O55  1  0.79617072  0.99568251  0.42270054  1
  O  O56  1  0.22338371  0.99379070  0.57460281  1
  O  O57  1  0.65467666  0.08775639  0.66612698  1
  O  O58  1  0.53357636  0.38397669  0.67394378  1
  O  O59  1  0.34487321  0.74245666  0.83362530  1
  O  O60  1  0.47806391  0.33773803  0.32212278  1
  O  O61  1  0.38224117  0.53823697  0.17162381  1
  O  O62  1  0.20299890  0.79124282  0.07772783  1
  O  O63  1  0.23301109  0.78357618  0.43311593  1
  O  O64  1  0.20020524  0.79433334  0.25606367  1
  O  O65  1  0.26107986  0.65739509  0.66650380  1
  O  O66  1  0.48771664  0.18277363  0.82475678  1
  O  O67  1  0.53088647  0.08719262  0.17402789  1
  O  O68  1  0.33507076  0.47764349  0.82285741  1
  O  O69  1  0.34574360  0.32389721  0.97243544  1
  O  O70  1  0.32894234  0.34053304  0.47129942  1
  O  O71  1  0.18248475  0.48148843  0.32655646  1
  O  O72  1  0.38101625  0.08804468  0.67352681  1
  O  O73  1  0.33783008  0.18307788  0.32637428  1
  O  O74  1  0.08911259  0.65026199  0.17026402  1
  O  O75  1  0.00030620  0.80010514  0.75016171  1
  O  O76  1  0.98811487  0.80036576  0.92743621  1
  O  O77  1  0.08447332  0.53639989  0.67390227  1
  O  O78  1  0.18802530  0.32552995  0.82984741  1
  O  O79  1  0.08678680  0.38230821  0.17474327  1
  O  O80  1  0.26215492  0.08658666  0.17135810  1
  O  O81  1  0.21525329  0.00044575  0.92574121  1
  O  O82  1  0.20243088  0.00285595  0.75062130  1
  O  O83  1  0.08273289  0.25681149  0.65993022  1
  O  O84  1  0.98261185  0.23036960  0.42962607  1
  O  O85  1  -0.00005340  0.20230063  0.25014289  1
