# generated using pymatgen
data_Li4FeP6(HO2)12
_symmetry_space_group_name_H-M   'P 1'
_cell_length_a   9.55049197
_cell_length_b   9.14630168
_cell_length_c   7.19961298
_cell_angle_alpha   70.81520502
_cell_angle_beta   108.11105449
_cell_angle_gamma   117.98215709
_symmetry_Int_Tables_number   1
_chemical_formula_structural   Li4FeP6(HO2)12
_chemical_formula_sum   'Li4 Fe1 P6 H12 O24'
_cell_volume   515.19493393
_cell_formula_units_Z   1
loop_
 _symmetry_equiv_pos_site_id
 _symmetry_equiv_pos_as_xyz
  1  'x, y, z'
loop_
 _atom_site_type_symbol
 _atom_site_label
 _atom_site_symmetry_multiplicity
 _atom_site_fract_x
 _atom_site_fract_y
 _atom_site_fract_z
 _atom_site_occupancy
  Li  Li0  1  0.12551316  0.35302279  0.82977540  1
  Li  Li1  1  0.04328973  0.28771272  0.37002007  1
  Li  Li2  1  0.95671027  0.71228728  0.62997993  1
  Li  Li3  1  0.87448684  0.64697721  0.17022460  1
  Fe  Fe4  1  0.50000000  0.50000000  -0.00000000  1
  P  P5  1  0.22914621  0.91730421  0.95859095  1
  P  P6  1  0.28530412  0.60847863  0.15292043  1
  P  P7  1  0.35894698  0.25204587  0.68851827  1
  P  P8  1  0.64105302  0.74795413  0.31148173  1
  P  P9  1  0.71469588  0.39152137  0.84707957  1
  P  P10  1  0.77085379  0.08269579  0.04140905  1
  H  H11  1  0.00126344  0.94987744  0.28398846  1
  H  H12  1  0.13056613  0.89024506  0.29511727  1
  H  H13  1  0.15206776  0.58228505  0.48931169  1
  H  H14  1  0.26508221  0.64924651  0.67818955  1
  H  H15  1  0.58319537  0.82401566  0.78434460  1
  H  H16  1  0.59251673  0.71454034  0.66459730  1
  H  H17  1  0.40748327  0.28545966  0.33540270  1
  H  H18  1  0.41680463  0.17598434  0.21565540  1
  H  H19  1  0.73491779  0.35075349  0.32181045  1
  H  H20  1  0.84793224  0.41771495  0.51068831  1
  H  H21  1  0.86943387  0.10975494  0.70488273  1
  H  H22  1  0.99873656  0.05012256  0.71601154  1
  O  O23  1  0.05437649  0.84802722  0.85764645  1
  O  O24  1  0.02556856  0.84835258  0.33752870  1
  O  O25  1  0.30439801  0.78246044  0.98820535  1
  O  O26  1  0.15222166  0.58177439  0.62722961  1
  O  O27  1  0.14847103  0.54752314  0.25709515  1
  O  O28  1  0.32590135  0.32554452  0.82193628  1
  O  O29  1  0.52321942  0.71221008  0.74555837  1
  O  O30  1  0.28581134  0.49267544  0.04463335  1
  O  O31  1  0.27084338  0.26257625  0.47625487  1
  O  O32  1  0.45082143  0.66284142  0.31642155  1
  O  O33  1  0.33550547  0.05945617  0.79419119  1
  O  O34  1  0.66449453  0.94054383  0.20580881  1
  O  O35  1  0.27598201  0.97747066  0.14859399  1
  O  O36  1  0.54917857  0.33715858  0.68357845  1
  O  O37  1  0.72915662  0.73742375  0.52374513  1
  O  O38  1  0.71418866  0.50732456  0.95536665  1
  O  O39  1  0.47678058  0.28778992  0.25444163  1
  O  O40  1  0.67409865  0.67445548  0.17806372  1
  O  O41  1  0.85152897  0.45247686  0.74290485  1
  O  O42  1  0.72401799  0.02252934  0.85140601  1
  O  O43  1  0.84777834  0.41822561  0.37277039  1
  O  O44  1  0.69560199  0.21753956  0.01179465  1
  O  O45  1  0.97443144  0.15164742  0.66247130  1
  O  O46  1  0.94562351  0.15197278  0.14235355  1
