# generated using pymatgen
data_Li4Nb2Fe3Cu3O16
_symmetry_space_group_name_H-M   'P 1'
_cell_length_a   5.94720464
_cell_length_b   5.96472946
_cell_length_c   9.73557566
_cell_angle_alpha   89.86206860
_cell_angle_beta   89.71773599
_cell_angle_gamma   120.01021855
_symmetry_Int_Tables_number   1
_chemical_formula_structural   Li4Nb2Fe3Cu3O16
_chemical_formula_sum   'Li4 Nb2 Fe3 Cu3 O16'
_cell_volume   299.04671106
_cell_formula_units_Z   1
loop_
 _symmetry_equiv_pos_site_id
 _symmetry_equiv_pos_as_xyz
  1  'x, y, z'
loop_
 _atom_site_type_symbol
 _atom_site_label
 _atom_site_symmetry_multiplicity
 _atom_site_fract_x
 _atom_site_fract_y
 _atom_site_fract_z
 _atom_site_occupancy
  Li  Li0  1  0.32730310  0.66440156  0.90484043  1
  Li  Li1  1  0.01259001  0.00687581  0.99153173  1
  Li  Li2  1  0.01012898  0.00517352  0.48991933  1
  Li  Li3  1  0.65580214  0.32758337  0.40033891  1
  Nb  Nb4  1  0.33825266  0.66855879  0.49579116  1
  Nb  Nb5  1  0.66646598  0.33475009  0.99625194  1
  Fe  Fe6  1  0.65841359  0.82974980  0.21497973  1
  Fe  Fe7  1  0.83117598  0.65842146  0.71799932  1
  Fe  Fe8  1  0.83065852  0.17204773  0.71836814  1
  Cu  Cu9  1  0.16894174  0.82893068  0.21557843  1
  Cu  Cu10  1  0.16893567  0.34020371  0.21548118  1
  Cu  Cu11  1  0.34338722  0.17223816  0.71541769  1
  O  O12  1  0.15556663  0.81977193  0.58641979  1
  O  O13  1  0.03645679  0.51778394  0.34129048  1
  O  O14  1  0.32621983  0.66331512  0.11179505  1
  O  O15  1  0.00259419  0.00136529  0.30317427  1
  O  O16  1  0.00947326  0.00382556  0.80258552  1
  O  O17  1  0.15951394  0.33384592  0.58792367  1
  O  O18  1  0.48113991  0.96138248  0.34338923  1
  O  O19  1  0.48109235  0.51941173  0.34323956  1
  O  O20  1  0.33701302  0.16811027  0.09263056  1
  O  O21  1  0.66529423  0.83288439  0.59316244  1
  O  O22  1  0.52431913  0.48812802  0.84746908  1
  O  O23  1  0.52119353  0.03799637  0.84581712  1
  O  O24  1  0.66131532  0.33098658  0.61050970  1
  O  O25  1  0.83083992  0.66761563  0.09032088  1
  O  O26  1  0.96610055  0.48205640  0.84203111  1
  O  O27  1  0.82981281  0.16288670  0.08958654  1
