# generated using pymatgen
data_Li3MnV(PO4)3
_symmetry_space_group_name_H-M   'P 1'
_cell_length_a   9.32327955
_cell_length_b   8.38348454
_cell_length_c   8.41869869
_cell_angle_alpha   60.27423655
_cell_angle_beta   62.90928297
_cell_angle_gamma   90.21331894
_symmetry_Int_Tables_number   1
_chemical_formula_structural   Li3MnV(PO4)3
_chemical_formula_sum   'Li6 Mn2 V2 P6 O24'
_cell_volume   485.79810511
_cell_formula_units_Z   2
loop_
 _symmetry_equiv_pos_site_id
 _symmetry_equiv_pos_as_xyz
  1  'x, y, z'
loop_
 _atom_site_type_symbol
 _atom_site_label
 _atom_site_symmetry_multiplicity
 _atom_site_fract_x
 _atom_site_fract_y
 _atom_site_fract_z
 _atom_site_occupancy
  Li  Li0  1  0.13777161  0.74188912  0.19177438  1
  Li  Li1  1  0.09300889  0.05310827  0.64196417  1
  Li  Li2  1  0.40970919  0.20456826  0.32574047  1
  Li  Li3  1  0.85128939  0.66109898  0.07844784  1
  Li  Li4  1  0.88343694  0.93943457  0.37793761  1
  Li  Li5  1  0.86732377  0.25968601  0.80525012  1
  Mn  Mn6  1  0.56161579  0.84708652  0.29796954  1
  Mn  Mn7  1  0.43693845  0.14742063  0.71471754  1
  V  V8  1  0.03908591  0.35073185  0.29792461  1
  V  V9  1  0.96654363  0.64685032  0.69116722  1
  P  P10  1  0.24792103  0.05009257  0.21367369  1
  P  P11  1  0.24257337  0.45621130  0.49271488  1
  P  P12  1  0.24184606  0.74242484  0.80439241  1
  P  P13  1  0.76117231  0.25604233  0.19473875  1
  P  P14  1  0.75607864  0.54532179  0.50443033  1
  P  P15  1  0.75448527  0.95012969  0.78170867  1
  O  O16  1  0.10958276  0.84210152  0.37230953  1
  O  O17  1  0.25857729  0.13322756  0.00192621  1
  O  O18  1  0.17833758  0.17111354  0.31552376  1
  O  O19  1  0.17139694  0.49158053  0.34312115  1
  O  O20  1  0.09558777  0.46469151  0.68253209  1
  O  O21  1  0.09903265  0.77855944  0.74471615  1
  O  O22  1  0.40991780  0.03745347  0.21602183  1
  O  O23  1  0.25677821  0.24892561  0.58417875  1
  O  O24  1  0.40553276  0.60710996  0.37240533  1
  O  O25  1  0.17047350  0.52474179  0.00420441  1
  O  O26  1  0.24075609  0.86848383  0.88827964  1
  O  O27  1  0.40600482  0.78044727  0.61775600  1
  O  O28  1  0.58797817  0.22238211  0.37367057  1
  O  O29  1  0.75795204  0.13385917  0.10817171  1
  O  O30  1  0.83154800  0.47652474  0.00703356  1
  O  O31  1  0.59547888  0.39156563  0.62777794  1
  O  O32  1  0.74913272  0.75305031  0.39386405  1
  O  O33  1  0.59078487  0.97082230  0.79558795  1
  O  O34  1  0.88801247  0.20800719  0.27656780  1
  O  O35  1  0.90130040  0.53595333  0.31356506  1
  O  O36  1  0.82402311  0.51478454  0.65695548  1
  O  O37  1  0.83406206  0.83287305  0.68005799  1
  O  O38  1  0.75252192  0.86194904  0.99269823  1
  O  O39  1  0.89704994  0.15823753  0.62338157  1
