# generated using pymatgen
data_Li(Fe2O3)4
_symmetry_space_group_name_H-M   'P 1'
_cell_length_a   6.03790578
_cell_length_b   6.03609405
_cell_length_c   13.44586929
_cell_angle_alpha   103.18780333
_cell_angle_beta   103.18953305
_cell_angle_gamma   89.87029528
_symmetry_Int_Tables_number   1
_chemical_formula_structural   Li(Fe2O3)4
_chemical_formula_sum   'Li2 Fe16 O24'
_cell_volume   463.88875707
_cell_formula_units_Z   2
loop_
 _symmetry_equiv_pos_site_id
 _symmetry_equiv_pos_as_xyz
  1  'x, y, z'
loop_
 _atom_site_type_symbol
 _atom_site_label
 _atom_site_symmetry_multiplicity
 _atom_site_fract_x
 _atom_site_fract_y
 _atom_site_fract_z
 _atom_site_occupancy
  Li  Li0  1  0.45860867  0.20687461  0.41658716  1
  Li  Li1  1  0.45836831  0.20899285  0.91730043  1
  Fe  Fe2  1  0.99757272  0.99157885  0.99849164  1
  Fe  Fe3  1  0.78872560  0.53158545  0.08093343  1
  Fe  Fe4  1  0.29295616  0.53129104  0.07893559  1
  Fe  Fe5  1  0.58433263  0.08559713  0.16736909  1
  Fe  Fe6  1  0.13518519  0.87660584  0.25242513  1
  Fe  Fe7  1  0.13468294  0.37430868  0.25213741  1
  Fe  Fe8  1  0.67447854  0.66658712  0.33511494  1
  Fe  Fe9  1  0.95894121  0.20700690  0.41827907  1
  Fe  Fe10  1  0.24093322  0.74671981  0.49799388  1
  Fe  Fe11  1  0.78103780  0.04280666  0.57856462  1
  Fe  Fe12  1  0.78127382  0.53842832  0.57979821  1
  Fe  Fe13  1  0.33564614  0.33453485  0.66690884  1
  Fe  Fe14  1  0.62426083  0.88416794  0.75204034  1
  Fe  Fe15  1  0.12675689  0.88594881  0.75236566  1
  Fe  Fe16  1  0.91607710  0.42514602  0.83526016  1
  Fe  Fe17  1  0.45680809  0.70868911  0.91869912  1
  O  O18  1  0.55078360  0.30576194  0.08626772  1
  O  O19  1  0.55041239  0.78021557  0.07866653  1
  O  O20  1  0.03387606  0.29838468  0.08869062  1
  O  O21  1  0.03968465  0.77961471  0.09058907  1
  O  O22  1  0.89135027  0.62165906  0.24293828  1
  O  O23  1  0.36016921  0.62466280  0.25094757  1
  O  O24  1  0.35597757  0.12415303  0.24884290  1
  O  O25  1  0.89666767  0.12784820  0.25645000  1
  O  O26  1  0.19609801  0.96501124  0.41100458  1
  O  O27  1  0.19359219  0.44405066  0.40919230  1
  O  O28  1  0.72099176  0.96861946  0.41553588  1
  O  O29  1  0.72173793  0.45131347  0.42241201  1
  O  O30  1  0.55332254  0.30169157  0.58464396  1
  O  O31  1  0.02977653  0.29864436  0.57805352  1
  O  O32  1  0.03192465  0.78778284  0.59083540  1
  O  O33  1  0.54811756  0.78421633  0.58791323  1
  O  O34  1  0.87223131  0.64208592  0.74257112  1
  O  O35  1  0.87491815  0.11060594  0.75015653  1
  O  O36  1  0.37764339  0.64758262  0.75671315  1
  O  O37  1  0.37393013  0.10660762  0.74884435  1
  O  O38  1  0.21431550  0.94638916  0.91111656  1
  O  O39  1  0.69518199  0.94366080  0.90948793  1
  O  O40  1  0.70232978  0.47187047  0.92358479  1
  O  O41  1  0.21832228  0.47069658  0.91534128  1
