# generated using pymatgen
data_Li2Co(CO3)2
_symmetry_space_group_name_H-M   'P 1'
_cell_length_a   5.18968487
_cell_length_b   6.55790340
_cell_length_c   7.76498786
_cell_angle_alpha   89.99989853
_cell_angle_beta   90.00809365
_cell_angle_gamma   112.52037438
_symmetry_Int_Tables_number   1
_chemical_formula_structural   Li2Co(CO3)2
_chemical_formula_sum   'Li4 Co2 C4 O12'
_cell_volume   244.11705568
_cell_formula_units_Z   2
loop_
 _symmetry_equiv_pos_site_id
 _symmetry_equiv_pos_as_xyz
  1  'x, y, z'
loop_
 _atom_site_type_symbol
 _atom_site_label
 _atom_site_symmetry_multiplicity
 _atom_site_fract_x
 _atom_site_fract_y
 _atom_site_fract_z
 _atom_site_occupancy
  Li  Li0  1  0.64688430  0.24735175  0.07701307  1
  Li  Li1  1  0.85314795  0.25261143  0.57699944  1
  Li  Li2  1  0.14685206  0.74738604  0.42299754  1
  Li  Li3  1  0.35311363  0.75264810  0.92298530  1
  Co  Co4  1  0.99999827  0.99999919  0.99999976  1
  Co  Co5  1  0.49999992  0.49999951  0.49999946  1
  C  C6  1  0.29514699  0.13446214  0.73208003  1
  C  C7  1  0.20472574  0.36543037  0.23184798  1
  C  C8  1  0.79527352  0.63456967  0.76815068  1
  C  C9  1  0.70485211  0.86553619  0.26791954  1
  O  O10  1  0.40114211  0.08891096  0.87298654  1
  O  O11  1  0.05892361  0.31153780  0.09272401  1
  O  O12  1  0.44125371  0.18848006  0.59258346  1
  O  O13  1  0.09886834  0.41114431  0.37305398  1
  O  O14  1  0.03866379  0.11777122  0.73847999  1
  O  O15  1  0.46142193  0.38220096  0.23851728  1
  O  O16  1  0.53857458  0.61779612  0.76148171  1
  O  O17  1  0.96133220  0.88222539  0.26151779  1
  O  O18  1  0.90113102  0.58885709  0.62694462  1
  O  O19  1  0.55874667  0.81151838  0.40741805  1
  O  O20  1  0.94107397  0.68846306  0.90727419  1
  O  O21  1  0.59885358  0.91108826  0.12701457  1
