# generated using pymatgen
data_Li3V3P8O29
_symmetry_space_group_name_H-M   'P 1'
_cell_length_a   9.75304945
_cell_length_b   9.75959264
_cell_length_c   14.32080055
_cell_angle_alpha   90.27957637
_cell_angle_beta   90.36274728
_cell_angle_gamma   59.89713935
_symmetry_Int_Tables_number   1
_chemical_formula_structural   Li3V3P8O29
_chemical_formula_sum   'Li6 V6 P16 O58'
_cell_volume   1179.25960343
_cell_formula_units_Z   2
loop_
 _symmetry_equiv_pos_site_id
 _symmetry_equiv_pos_as_xyz
  1  'x, y, z'
loop_
 _atom_site_type_symbol
 _atom_site_label
 _atom_site_symmetry_multiplicity
 _atom_site_fract_x
 _atom_site_fract_y
 _atom_site_fract_z
 _atom_site_occupancy
  Li  Li0  1  0.76519950  0.91056980  0.55465578  1
  Li  Li1  1  0.77094749  0.30866129  0.06112438  1
  Li  Li2  1  0.32003692  0.90423360  0.05998190  1
  Li  Li3  1  0.32178513  0.77081871  0.55703857  1
  Li  Li4  1  0.08768288  0.22580181  0.94051838  1
  Li  Li5  1  0.98082868  0.06025054  0.50376243  1
  V  V6  1  0.56297849  0.43249763  0.25380325  1
  V  V7  1  0.43631905  0.56300112  0.74947480  1
  V  V8  1  0.56970439  0.99746561  0.75362058  1
  V  V9  1  0.43581425  0.00305342  0.25107122  1
  V  V10  1  0.00095753  0.56642598  0.24931666  1
  V  V11  1  0.99313950  0.44166402  0.74264442  1
  P  P12  1  0.91761455  0.76934844  0.84594364  1
  P  P13  1  0.77613783  0.91259514  0.34086868  1
  P  P14  1  0.91865974  0.30561652  0.33738442  1
  P  P15  1  0.66571348  0.66284319  0.13184759  1
  P  P16  1  0.66172610  0.67118807  0.63016363  1
  P  P17  1  0.77299023  0.31875808  0.84213088  1
  P  P18  1  0.69553713  0.21957512  0.66155006  1
  P  P19  1  0.31903682  0.90974103  0.84201015  1
  P  P20  1  0.68931590  0.08508909  0.15943051  1
  P  P21  1  0.31292542  0.77571715  0.34248746  1
  P  P22  1  0.22326178  0.68772831  0.16365343  1
  P  P23  1  0.33202061  0.33390323  0.36692032  1
  P  P24  1  0.33016432  0.33406500  0.86524296  1
  P  P25  1  0.08334111  0.69514915  0.66253793  1
  P  P26  1  0.22335843  0.08516488  0.66298229  1
  P  P27  1  0.08925456  0.22867825  0.15636283  1
  O  O28  1  0.99035060  0.79321774  0.58180161  1
  O  O29  1  0.91569235  0.74079244  0.33035584  1
  O  O30  1  0.77237213  0.00025203  0.07448013  1
  O  O31  1  0.74571128  0.91409723  0.82962162  1
  O  O32  1  0.90527190  0.61938381  0.81852143  1
  O  O33  1  0.81594252  0.65522592  0.17984479  1
  O  O34  1  0.92395155  0.46064349  0.32723045  1
  O  O35  1  0.00445800  0.23807302  0.06643402  1
  O  O36  1  0.92071050  0.33880343  0.83313005  1
  O  O37  1  0.67300393  0.81410530  0.67297887  1
  O  O38  1  0.61830657  0.91007192  0.32446887  1
  O  O39  1  0.80921663  0.51743888  0.67356296  1
  O  O40  1  0.67000184  0.65745774  0.02816615  1
  O  O41  1  0.66112371  0.67531928  0.52658169  1
  O  O42  1  0.66127483  0.51539492  0.17263532  1
  O  O43  1  0.48107649  0.89909809  0.82282073  1
  O  O44  1  0.51789580  0.81741753  0.17045297  1
  O  O45  1  0.74251943  0.34616574  0.32917946  1
  O  O46  1  0.78854383  0.20088954  0.75921267  1
  O  O47  1  0.79619696  0.20223286  0.58069329  1
  O  O48  1  0.76402753  0.25612017  0.93409038  1
  O  O49  1  0.62081663  0.48099517  0.81827804  1
  O  O50  1  0.50914483  0.67552549  0.67001250  1
  O  O51  1  0.65886043  0.25867104  0.16426062  1
  O  O52  1  0.47171230  0.61778527  0.32679476  1
  O  O53  1  0.34347782  0.91541112  0.32619640  1
  O  O54  1  0.79089643  0.00849619  0.25534250  1
  O  O55  1  0.78064627  0.98390966  0.43210208  1
  O  O56  1  0.20413079  0.99737312  0.58332033  1
  O  O57  1  0.65636937  0.08282470  0.66414053  1
  O  O58  1  0.53815129  0.38188524  0.67191719  1
  O  O59  1  0.34093251  0.74222797  0.83074634  1
  O  O60  1  0.48404084  0.32897749  0.32343477  1
  O  O61  1  0.37798909  0.52650780  0.18041960  1
  O  O62  1  0.22979812  0.77574912  0.08178365  1
  O  O63  1  0.23895788  0.78567771  0.43450498  1
  O  O64  1  0.19712290  0.78976618  0.25901859  1
  O  O65  1  0.25818950  0.65897907  0.66115834  1
  O  O66  1  0.47671933  0.18242073  0.81966435  1
  O  O67  1  0.52719663  0.09307711  0.17904708  1
  O  O68  1  0.34049477  0.47595415  0.81807697  1
  O  O69  1  0.33699282  0.33077858  0.96834825  1
  O  O70  1  0.33651816  0.32918265  0.47011710  1
  O  O71  1  0.18746351  0.48230095  0.32229175  1
  O  O72  1  0.38468532  0.07715334  0.67239226  1
  O  O73  1  0.33029163  0.18570920  0.32132889  1
  O  O74  1  0.08177409  0.65746615  0.16638323  1
  O  O75  1  0.01342748  0.78785736  0.75888572  1
  O  O76  1  0.99278942  0.76362551  0.93559009  1
  O  O77  1  0.08544719  0.53398512  0.67231512  1
  O  O78  1  0.17962251  0.33756396  0.82479623  1
  O  O79  1  0.09928726  0.37883789  0.17566621  1
  O  O80  1  0.25792368  0.08066063  0.15844128  1
  O  O81  1  0.24882132  0.99101192  0.93263767  1
  O  O82  1  0.20024900  0.01251311  0.75993158  1
  O  O83  1  0.08721668  0.26031080  0.66691644  1
  O  O84  1  0.99936757  0.20553847  0.41944782  1
  O  O85  1  0.99557643  0.20702278  0.24118222  1
