# generated using pymatgen
data_La3ScO6
_symmetry_space_group_name_H-M   'P 1'
_cell_length_a   7.61824126
_cell_length_b   7.61824126
_cell_length_c   5.85250893
_cell_angle_alpha   90.00000000
_cell_angle_beta   90.00000000
_cell_angle_gamma   77.03491704
_symmetry_Int_Tables_number   1
_chemical_formula_structural   La3ScO6
_chemical_formula_sum   'La6 Sc2 O12'
_cell_volume   331.00646768
_cell_formula_units_Z   2
loop_
 _symmetry_equiv_pos_site_id
 _symmetry_equiv_pos_as_xyz
  1  'x, y, z'
loop_
 _atom_site_type_symbol
 _atom_site_label
 _atom_site_symmetry_multiplicity
 _atom_site_fract_x
 _atom_site_fract_y
 _atom_site_fract_z
 _atom_site_occupancy
  La  La0  1  0.30072486  0.91200464  0.46865529  1
  La  La1  1  0.08799536  0.69927514  0.96865529  1
  La  La2  1  0.39629865  0.39629865  0.42953178  1
  La  La3  1  0.60370135  0.60370135  0.92953178  1
  La  La4  1  0.91200464  0.30072486  0.46865529  1
  La  La5  1  0.69927514  0.08799536  0.96865529  1
  Sc  Sc6  1  0.19370432  0.19370432  0.99838981  1
  Sc  Sc7  1  0.80629568  0.80629568  0.49838981  1
  O  O8  1  0.35358798  0.67480669  0.20126032  1
  O  O9  1  0.32519331  0.64641202  0.70126032  1
  O  O10  1  0.11062375  0.41919440  0.17684238  1
  O  O11  1  0.58080560  0.88937625  0.67684238  1
  O  O12  1  0.04236468  0.04236468  0.13848611  1
  O  O13  1  0.21537615  0.21537615  0.65402334  1
  O  O14  1  0.78462385  0.78462385  0.15402334  1
  O  O15  1  0.95763532  0.95763532  0.63848611  1
  O  O16  1  0.88937625  0.58080560  0.67684238  1
  O  O17  1  0.41919440  0.11062375  0.17684238  1
  O  O18  1  0.67480669  0.35358798  0.20126032  1
  O  O19  1  0.64641202  0.32519331  0.70126032  1
