# generated using pymatgen
data_Li3Fe2(CoO4)2
_symmetry_space_group_name_H-M   'P 1'
_cell_length_a   5.90586455
_cell_length_b   5.88814098
_cell_length_c   5.87240380
_cell_angle_alpha   60.32748650
_cell_angle_beta   60.08279269
_cell_angle_gamma   89.83963028
_symmetry_Int_Tables_number   1
_chemical_formula_structural   Li3Fe2(CoO4)2
_chemical_formula_sum   'Li3 Fe2 Co2 O8'
_cell_volume   145.48576825
_cell_formula_units_Z   1
loop_
 _symmetry_equiv_pos_site_id
 _symmetry_equiv_pos_as_xyz
  1  'x, y, z'
loop_
 _atom_site_type_symbol
 _atom_site_label
 _atom_site_symmetry_multiplicity
 _atom_site_fract_x
 _atom_site_fract_y
 _atom_site_fract_z
 _atom_site_occupancy
  Li  Li0  1  -0.00000000  0.50000000  -0.00000000  1
  Li  Li1  1  0.50000000  0.00000000  0.50000000  1
  Li  Li2  1  0.50000000  0.50000000  0.50000000  1
  Fe  Fe3  1  -0.00000000  0.50000000  0.50000000  1
  Fe  Fe4  1  0.50000000  0.00000000  -0.00000000  1
  Co  Co5  1  -0.00000000  0.00000000  -0.00000000  1
  Co  Co6  1  -0.00000000  0.00000000  0.50000000  1
  O  O7  1  0.22321373  0.21523542  0.01954987  1
  O  O8  1  0.22871497  0.77017312  0.00931915  1
  O  O9  1  0.21552619  0.22372057  0.54427831  1
  O  O10  1  0.24624198  0.75527135  0.48532262  1
  O  O11  1  0.75375802  0.24472865  0.51467738  1
  O  O12  1  0.78447381  0.77627943  0.45572169  1
  O  O13  1  0.77128503  0.22982688  0.99068085  1
  O  O14  1  0.77678627  0.78476458  0.98045013  1
