# generated using pymatgen
data_Li2CeO3
_symmetry_space_group_name_H-M   'P 1'
_cell_length_a   5.56470167
_cell_length_b   5.56470167
_cell_length_c   5.94952484
_cell_angle_alpha   77.97473132
_cell_angle_beta   102.02526868
_cell_angle_gamma   62.00672342
_symmetry_Int_Tables_number   1
_chemical_formula_structural   Li2CeO3
_chemical_formula_sum   'Li4 Ce2 O6'
_cell_volume   148.77637888
_cell_formula_units_Z   2
loop_
 _symmetry_equiv_pos_site_id
 _symmetry_equiv_pos_as_xyz
  1  'x, y, z'
loop_
 _atom_site_type_symbol
 _atom_site_label
 _atom_site_symmetry_multiplicity
 _atom_site_fract_x
 _atom_site_fract_y
 _atom_site_fract_z
 _atom_site_occupancy
  Li  Li0  1  0.26677624  0.26677624  0.75000000  1
  Li  Li1  1  0.57114502  0.57114502  0.75000000  1
  Li  Li2  1  0.73322376  0.73322376  0.25000000  1
  Li  Li3  1  0.42885498  0.42885498  0.25000000  1
  Ce  Ce4  1  0.90997822  0.90997822  0.75000000  1
  Ce  Ce5  1  0.09002178  0.09002178  0.25000000  1
  O  O6  1  0.16039539  0.68686459  0.52347818  1
  O  O7  1  0.31313541  0.83960461  0.02347818  1
  O  O8  1  -0.00000000  0.50000000  0.00000000  1
  O  O9  1  0.68686459  0.16039539  0.97652182  1
  O  O10  1  0.50000000  -0.00000000  0.50000000  1
  O  O11  1  0.83960461  0.31313541  0.47652182  1
