# generated using pymatgen
data_Li2MgCo3O8
_symmetry_space_group_name_H-M   'P 1'
_cell_length_a   5.78885602
_cell_length_b   5.96344091
_cell_length_c   5.83203685
_cell_angle_alpha   119.89455864
_cell_angle_beta   60.24461642
_cell_angle_gamma   90.00000645
_symmetry_Int_Tables_number   1
_chemical_formula_structural   Li2MgCo3O8
_chemical_formula_sum   'Li2 Mg1 Co3 O8'
_cell_volume   143.11202278
_cell_formula_units_Z   1
loop_
 _symmetry_equiv_pos_site_id
 _symmetry_equiv_pos_as_xyz
  1  'x, y, z'
loop_
 _atom_site_type_symbol
 _atom_site_label
 _atom_site_symmetry_multiplicity
 _atom_site_fract_x
 _atom_site_fract_y
 _atom_site_fract_z
 _atom_site_occupancy
  Li  Li0  1  -0.00000000  0.50000000  0.00000000  1
  Li  Li1  1  0.50000000  0.50000000  0.00000000  1
  Mg  Mg2  1  -0.00000000  0.00000000  0.00000000  1
  Co  Co3  1  -0.00000000  0.00000000  0.50000000  1
  Co  Co4  1  0.50000000  0.00000000  0.00000000  1
  Co  Co5  1  0.50000000  0.00000000  0.50000000  1
  O  O6  1  0.28925192  0.20342346  0.95206675  1
  O  O7  1  0.24966815  0.21463339  0.50066270  1
  O  O8  1  0.75219238  0.20013190  0.49561423  1
  O  O9  1  0.75868133  0.20342346  0.95206675  1
  O  O10  1  0.24131867  0.79657654  0.04793325  1
  O  O11  1  0.24780762  0.79986810  0.50438577  1
  O  O12  1  0.75033185  0.78536661  0.49933730  1
  O  O13  1  0.71074808  0.79657654  0.04793325  1
