# generated using pymatgen
data_Li2V3CuO8
_symmetry_space_group_name_H-M   'P 1'
_cell_length_a   8.64158969
_cell_length_b   8.60673325
_cell_length_c   8.00646481
_cell_angle_alpha   90.02339866
_cell_angle_beta   89.97535472
_cell_angle_gamma   90.13354881
_symmetry_Int_Tables_number   1
_chemical_formula_structural   Li2V3CuO8
_chemical_formula_sum   'Li8 V12 Cu4 O32'
_cell_volume   595.48596224
_cell_formula_units_Z   4
loop_
 _symmetry_equiv_pos_site_id
 _symmetry_equiv_pos_as_xyz
  1  'x, y, z'
loop_
 _atom_site_type_symbol
 _atom_site_label
 _atom_site_symmetry_multiplicity
 _atom_site_fract_x
 _atom_site_fract_y
 _atom_site_fract_z
 _atom_site_occupancy
  Li  Li0  1  0.00117996  0.99917272  0.00359263  1
  Li  Li1  1  0.25137368  0.24782124  0.24666545  1
  Li  Li2  1  0.24817321  0.75232041  0.74681919  1
  Li  Li3  1  0.49887332  0.00056490  0.50382804  1
  Li  Li4  1  0.50136551  0.50113853  0.99688554  1
  Li  Li5  1  0.75128640  0.25265673  0.75298290  1
  Li  Li6  1  0.74855572  0.74758526  0.25321944  1
  Li  Li7  1  0.99888986  0.49860338  0.49671788  1
  V  V8  1  0.12367535  0.12574384  0.62531909  1
  V  V9  1  0.12077765  0.37709357  0.88064099  1
  V  V10  1  0.12733757  0.63000674  0.12947643  1
  V  V11  1  0.37243501  0.37019580  0.62937511  1
  V  V12  1  0.37942510  0.62281245  0.38062242  1
  V  V13  1  0.37589607  0.87424347  0.12491103  1
  V  V14  1  0.62409640  0.37486173  0.37444178  1
  V  V15  1  0.62039915  0.12303383  0.12038611  1
  V  V16  1  0.62769599  0.86989349  0.86996619  1
  V  V17  1  0.87245423  0.12976323  0.37030037  1
  V  V18  1  0.87976183  0.87655851  0.62003927  1
  V  V19  1  0.87643691  0.62549262  0.87473211  1
  Cu  Cu20  1  0.12886412  0.87925141  0.37463422  1
  Cu  Cu21  1  0.37130132  0.12110862  0.87442863  1
  Cu  Cu22  1  0.62859337  0.62027637  0.62574367  1
  Cu  Cu23  1  0.87100094  0.37945962  0.12523373  1
  O  O24  1  0.10129100  0.12913924  0.38906672  1
  O  O25  1  0.10925374  0.89611406  0.62284112  1
  O  O26  1  0.11406888  0.61222029  0.88619402  1
  O  O27  1  0.11949524  0.14742174  0.86014303  1
  O  O28  1  0.12820418  0.39208744  0.10721134  1
  O  O29  1  0.13859071  0.36356668  0.63545229  1
  O  O30  1  0.14242098  0.62403580  0.35700997  1
  O  O31  1  0.14681056  0.86020614  0.12588790  1
  O  O32  1  0.35302729  0.14029870  0.62604043  1
  O  O33  1  0.35737855  0.37624109  0.85724169  1
  O  O34  1  0.36149958  0.63636527  0.13523910  1
  O  O35  1  0.37035783  0.60819377  0.60681319  1
  O  O36  1  0.38054021  0.85268227  0.35972265  1
  O  O37  1  0.38607021  0.38780831  0.38595091  1
  O  O38  1  0.39084353  0.10384290  0.12285092  1
  O  O39  1  0.39872995  0.87062597  0.88895219  1
  O  O40  1  0.60195983  0.37156890  0.61118565  1
  O  O41  1  0.60831700  0.60409160  0.37718600  1
  O  O42  1  0.61384518  0.88752451  0.11434205  1
  O  O43  1  0.61919657  0.35271573  0.13994170  1
  O  O44  1  0.62796771  0.10695375  0.89320421  1
  O  O45  1  0.63800218  0.13587217  0.36418058  1
  O  O46  1  0.64313832  0.87402689  0.64237484  1
  O  O47  1  0.64712464  0.63991682  0.87364388  1
  O  O48  1  0.85291095  0.35994371  0.37357115  1
  O  O49  1  0.85778756  0.12470740  0.14284543  1
  O  O50  1  0.86179643  0.86415868  0.86450455  1
  O  O51  1  0.87214889  0.89264129  0.39304304  1
  O  O52  1  0.88161279  0.64795127  0.64000830  1
  O  O53  1  0.88621379  0.11235394  0.61449472  1
  O  O54  1  0.89162396  0.39609932  0.87704239  1
  O  O55  1  0.89792210  0.62910588  0.11099184  1
