# generated using pymatgen
data_Li(Fe2O3)4
_symmetry_space_group_name_H-M   'P 1'
_cell_length_a   6.03725343
_cell_length_b   6.04185878
_cell_length_c   13.49255319
_cell_angle_alpha   103.32785912
_cell_angle_beta   102.98642595
_cell_angle_gamma   89.93020079
_symmetry_Int_Tables_number   1
_chemical_formula_structural   Li(Fe2O3)4
_chemical_formula_sum   'Li2 Fe16 O24'
_cell_volume   465.98889691
_cell_formula_units_Z   2
loop_
 _symmetry_equiv_pos_site_id
 _symmetry_equiv_pos_as_xyz
  1  'x, y, z'
loop_
 _atom_site_type_symbol
 _atom_site_label
 _atom_site_symmetry_multiplicity
 _atom_site_fract_x
 _atom_site_fract_y
 _atom_site_fract_z
 _atom_site_occupancy
  Li  Li0  1  0.45788175  0.20955932  0.41657787  1
  Li  Li1  1  0.45926954  0.20798694  0.91666693  1
  Fe  Fe2  1  0.99696147  0.99153833  0.99944631  1
  Fe  Fe3  1  0.78744591  0.53151774  0.07942532  1
  Fe  Fe4  1  0.29257089  0.53160192  0.07893823  1
  Fe  Fe5  1  0.58380055  0.08421745  0.16529759  1
  Fe  Fe6  1  0.13450476  0.87612246  0.25132837  1
  Fe  Fe7  1  0.13445827  0.37395616  0.25117205  1
  Fe  Fe8  1  0.67512487  0.66771554  0.33670222  1
  Fe  Fe9  1  0.95813196  0.20866109  0.41664817  1
  Fe  Fe10  1  0.24093293  0.74952258  0.49667039  1
  Fe  Fe11  1  0.78166809  0.04239976  0.58212298  1
  Fe  Fe12  1  0.78238571  0.54070698  0.58225749  1
  Fe  Fe13  1  0.33237731  0.33212281  0.66780042  1
  Fe  Fe14  1  0.62404251  0.88447965  0.75395160  1
  Fe  Fe15  1  0.12923511  0.88547664  0.75423747  1
  Fe  Fe16  1  0.91997264  0.42482011  0.83413734  1
  Fe  Fe17  1  0.45874216  0.70822577  0.91651850  1
  O  O18  1  0.55202795  0.30665439  0.08664746  1
  O  O19  1  0.54898200  0.77840677  0.07849425  1
  O  O20  1  0.03498280  0.29970516  0.09070306  1
  O  O21  1  0.03821009  0.78055740  0.09250601  1
  O  O22  1  0.89210821  0.62277210  0.24491248  1
  O  O23  1  0.36228103  0.62541543  0.25258740  1
  O  O24  1  0.35665275  0.12365115  0.24870504  1
  O  O25  1  0.89602599  0.12769843  0.25687883  1
  O  O26  1  0.19421046  0.96544248  0.41050121  1
  O  O27  1  0.19406976  0.44557572  0.41017731  1
  O  O28  1  0.72239653  0.97162975  0.42311349  1
  O  O29  1  0.72258836  0.45208646  0.42305418  1
  O  O30  1  0.55983118  0.29314787  0.58466780  1
  O  O31  1  0.02041988  0.28903185  0.57645831  1
  O  O32  1  0.02448346  0.79413881  0.58871385  1
  O  O33  1  0.55408555  0.79085511  0.58031776  1
  O  O34  1  0.87820620  0.63635998  0.74108784  1
  O  O35  1  0.88191787  0.11699503  0.74268626  1
  O  O36  1  0.36743831  0.63783508  0.75468572  1
  O  O37  1  0.36521471  0.10940849  0.74646503  1
  O  O38  1  0.21386839  0.94747052  0.91110699  1
  O  O39  1  0.69803576  0.94398607  0.91587312  1
  O  O40  1  0.70331927  0.46869043  0.92236271  1
  O  O41  1  0.21913809  0.47185227  0.91739664  1
