# generated using pymatgen
data_Bi17(WO11)3
_symmetry_space_group_name_H-M   'P 1'
_cell_length_a   10.81085075
_cell_length_b   10.41824411
_cell_length_c   10.41342426
_cell_angle_alpha   108.48222475
_cell_angle_beta   106.65543611
_cell_angle_gamma   115.41253976
_symmetry_Int_Tables_number   1
_chemical_formula_structural   Bi17(WO11)3
_chemical_formula_sum   'Bi17 W3 O33'
_cell_volume   873.93690602
_cell_formula_units_Z   1
loop_
 _symmetry_equiv_pos_site_id
 _symmetry_equiv_pos_as_xyz
  1  'x, y, z'
loop_
 _atom_site_type_symbol
 _atom_site_label
 _atom_site_symmetry_multiplicity
 _atom_site_fract_x
 _atom_site_fract_y
 _atom_site_fract_z
 _atom_site_occupancy
  Bi  Bi0  1  0.82168275  0.42945007  0.22130767  1
  Bi  Bi1  1  0.68739279  0.10084464  0.79168574  1
  Bi  Bi2  1  0.96843092  0.87219528  0.29482579  1
  Bi  Bi3  1  0.44000760  0.34509763  0.29356363  1
  Bi  Bi4  1  0.88477867  0.67522944  0.57077616  1
  Bi  Bi5  1  0.15485526  0.47062741  0.10395903  1
  Bi  Bi6  1  0.38054539  0.20716474  0.60081110  1
  Bi  Bi7  1  0.62680692  0.92734784  0.10841642  1
  Bi  Bi8  1  0.09499242  0.30420989  0.37871938  1
  Bi  Bi9  1  0.34821899  0.05031979  0.89543224  1
  Bi  Bi10  1  0.87578608  0.59615209  0.90005176  1
  Bi  Bi11  1  0.57805759  0.76698266  0.38363495  1
  Bi  Bi12  1  0.53581348  0.63960772  0.69428047  1
  Bi  Bi13  1  0.06093047  0.13602712  0.69172825  1
  Bi  Bi14  1  0.29216907  0.89402972  0.19858053  1
  Bi  Bi15  1  0.27384182  0.76571867  0.51864810  1
  Bi  Bi16  1  0.20924961  0.61820182  0.79672386  1
  W  W17  1  0.77461495  0.25821328  0.50933348  1
  W  W18  1  0.96866779  0.98333208  0.95242883  1
  W  W19  1  0.46966007  0.47436958  0.97684046  1
  O  O20  1  0.86687949  0.28876244  0.37524417  1
  O  O21  1  0.88896922  0.61961219  0.14801502  1
  O  O22  1  0.55792656  0.42136672  0.11358525  1
  O  O23  1  0.89400934  0.05611341  0.81973843  1
  O  O24  1  0.63173665  0.30491485  0.41772968  1
  O  O25  1  0.59153828  0.71833243  0.14664010  1
  O  O26  1  0.37092741  0.50829434  0.25090509  1
  O  O27  1  0.12497064  0.18773736  0.13569954  1
  O  O28  1  0.69878957  0.22464291  0.66055735  1
  O  O29  1  0.91405843  0.50657551  0.67445691  1
  O  O30  1  0.44562224  0.03810294  0.72570575  1
  O  O31  1  0.63721144  0.59867238  0.45663976  1
  O  O32  1  0.37400365  0.36496995  0.47445438  1
  O  O33  1  0.15120649  0.17872498  0.52657250  1
  O  O34  1  0.11138606  0.64003747  0.00455776  1
  O  O35  1  0.38280118  0.88806169  0.03113125  1
  O  O36  1  0.91810502  0.86905394  0.48591491  1
  O  O37  1  0.54767914  0.49520246  0.82952892  1
  O  O38  1  0.62865672  0.02550528  0.36386091  1
  O  O39  1  0.06025124  0.46641583  0.26875371  1
  O  O40  1  0.82169993  0.73772788  0.78153845  1
  O  O41  1  0.33427336  0.73741364  0.27867985  1
  O  O42  1  0.33259787  0.22251754  0.80401958  1
  O  O43  1  0.25546335  0.54951984  0.57785120  1
  O  O44  1  0.95113885  0.25727590  0.62024011  1
  O  O45  1  0.53475699  0.83735084  0.60583250  1
  O  O46  1  0.04053561  0.87114279  0.06352825  1
  O  O47  1  0.27377011  0.45069646  0.91919922  1
  O  O48  1  0.47069977  0.73779859  0.86814171  1
  O  O49  1  0.80896652  0.94579128  0.00704204  1
  O  O50  1  0.20006427  0.92511318  0.41222360  1
  O  O51  1  0.19508713  0.79037279  0.70650128  1
  O  O52  1  0.11271782  0.99605571  0.86376095  1
