# generated using pymatgen
data_Nd2Al2Fe15
_symmetry_space_group_name_H-M   'P 1'
_cell_length_a   6.47086637
_cell_length_b   6.47086637
_cell_length_c   6.47086589
_cell_angle_alpha   82.67557249
_cell_angle_beta   82.67557249
_cell_angle_gamma   82.67557130
_symmetry_Int_Tables_number   1
_chemical_formula_structural   Nd2Al2Fe15
_chemical_formula_sum   'Nd2 Al2 Fe15'
_cell_volume   264.83565773
_cell_formula_units_Z   1
loop_
 _symmetry_equiv_pos_site_id
 _symmetry_equiv_pos_as_xyz
  1  'x, y, z'
loop_
 _atom_site_type_symbol
 _atom_site_label
 _atom_site_symmetry_multiplicity
 _atom_site_fract_x
 _atom_site_fract_y
 _atom_site_fract_z
 _atom_site_occupancy
  Nd  Nd0  1  0.65167564  0.65167564  0.65167564  1
  Nd  Nd1  1  0.34832436  0.34832436  0.34832436  1
  Al  Al2  1  0.89759320  0.89759320  0.89759320  1
  Al  Al3  1  0.10240680  0.10240680  0.10240680  1
  Fe  Fe4  1  -0.00000000  0.00000000  0.50000000  1
  Fe  Fe5  1  -0.00000000  0.50000000  -0.00000000  1
  Fe  Fe6  1  0.50000000  0.00000000  -0.00000000  1
  Fe  Fe7  1  0.28942174  0.71057826  -0.00000000  1
  Fe  Fe8  1  0.71057826  1.00000000  0.28942174  1
  Fe  Fe9  1  0.00000000  0.28942174  0.71057826  1
  Fe  Fe10  1  0.28942174  0.00000000  0.71057826  1
  Fe  Fe11  1  1.00000000  0.71057826  0.28942174  1
  Fe  Fe12  1  0.71057826  0.28942174  0.00000000  1
  Fe  Fe13  1  0.34068187  0.34068187  0.84700825  1
  Fe  Fe14  1  0.34068187  0.84700825  0.34068187  1
  Fe  Fe15  1  0.84700825  0.34068187  0.34068187  1
  Fe  Fe16  1  0.65931813  0.65931813  0.15299175  1
  Fe  Fe17  1  0.65931813  0.15299175  0.65931813  1
  Fe  Fe18  1  0.15299175  0.65931813  0.65931813  1
