# generated using pymatgen
data_Fe4OF7
_symmetry_space_group_name_H-M   'P 1'
_cell_length_a   5.80536667
_cell_length_b   10.14560082
_cell_length_c   5.81046432
_cell_angle_alpha   80.38519675
_cell_angle_beta   68.05182046
_cell_angle_gamma   100.96094944
_symmetry_Int_Tables_number   1
_chemical_formula_structural   Fe4OF7
_chemical_formula_sum   'Fe8 O2 F14'
_cell_volume   300.79429909
_cell_formula_units_Z   2
loop_
 _symmetry_equiv_pos_site_id
 _symmetry_equiv_pos_as_xyz
  1  'x, y, z'
loop_
 _atom_site_type_symbol
 _atom_site_label
 _atom_site_symmetry_multiplicity
 _atom_site_fract_x
 _atom_site_fract_y
 _atom_site_fract_z
 _atom_site_occupancy
  Fe  Fe0  1  0.61454634  0.24485394  0.87172092  1
  Fe  Fe1  1  0.87453687  0.75300458  0.62698353  1
  Fe  Fe2  1  0.25212234  0.49314376  0.73317601  1
  Fe  Fe3  1  0.73886778  0.49538448  0.25468357  1
  Fe  Fe4  1  0.50454333  0.99740739  0.48672613  1
  Fe  Fe5  1  0.38734606  0.75389873  0.12438229  1
  Fe  Fe6  1  0.14249726  0.26081976  0.38311251  1
  Fe  Fe7  1  0.96668586  0.99144901  0.01838555  1
  O  O8  1  0.34569309  0.40694790  0.47154349  1
  O  O9  1  0.61908154  0.90268121  0.18977351  1
  F  F10  1  0.86609164  0.39898800  0.93444676  1
  F  F11  1  0.92069628  0.14505849  0.78380436  1
  F  F12  1  0.57570293  0.85338852  0.72016925  1
  F  F13  1  0.32842138  0.35718299  0.97262257  1
  F  F14  1  0.82009871  0.34778185  0.47609475  1
  F  F15  1  0.92819601  0.10392805  0.28386329  1
  F  F16  1  0.63446063  0.60284234  0.56740816  1
  F  F17  1  0.37038008  0.09340800  0.81324659  1
  F  F18  1  0.08881455  0.90389342  0.71606145  1
  F  F19  1  0.68378409  0.64759420  0.02104845  1
  F  F20  1  0.16868383  0.64760494  0.53404131  1
  F  F21  1  0.43395942  0.15268926  0.27254932  1
  F  F22  1  0.07459096  0.85251042  0.22260702  1
  F  F23  1  0.16237098  0.59662675  0.02898321  1
