# generated using pymatgen
data_Ga3NO3
_symmetry_space_group_name_H-M   'P 1'
_cell_length_a   8.16319937
_cell_length_b   8.25782890
_cell_length_c   6.39708485
_cell_angle_alpha   89.91626785
_cell_angle_beta   89.99679322
_cell_angle_gamma   59.06018546
_symmetry_Int_Tables_number   1
_chemical_formula_structural   Ga3NO3
_chemical_formula_sum   'Ga12 N4 O12'
_cell_volume   369.86834917
_cell_formula_units_Z   4
loop_
 _symmetry_equiv_pos_site_id
 _symmetry_equiv_pos_as_xyz
  1  'x, y, z'
loop_
 _atom_site_type_symbol
 _atom_site_label
 _atom_site_symmetry_multiplicity
 _atom_site_fract_x
 _atom_site_fract_y
 _atom_site_fract_z
 _atom_site_occupancy
  Ga  Ga0  1  0.40446664  0.84350961  0.07652807  1
  Ga  Ga1  1  0.40354748  0.84263109  0.59223648  1
  Ga  Ga2  1  0.26404876  0.57907512  0.33281220  1
  Ga  Ga3  1  0.24350782  0.59409306  0.83353288  1
  Ga  Ga4  1  0.16455345  0.24441462  0.83295709  1
  Ga  Ga5  1  0.15845534  0.24289911  0.33215676  1
  Ga  Ga6  1  0.84552064  0.74751476  0.58952987  1
  Ga  Ga7  1  0.84585292  0.74693164  0.07940860  1
  Ga  Ga8  1  0.74678226  0.40474205  0.58294235  1
  Ga  Ga9  1  0.74492505  0.40607997  0.08471565  1
  Ga  Ga10  1  0.60854807  0.16030211  0.83248961  1
  Ga  Ga11  1  0.60733371  0.16167030  0.33235055  1
  N  N12  1  0.32084987  0.98273761  0.83392501  1
  N  N13  1  0.98306055  0.68637290  0.83452007  1
  N  N14  1  0.69295943  0.33071594  0.83388416  1
  N  N15  1  0.67002270  0.34698463  0.33418725  1
  O  O16  1  0.31717923  0.97646812  0.33414778  1
  O  O17  1  0.30884371  0.67032349  0.58019446  1
  O  O18  1  0.31011334  0.67030729  0.08571936  1
  O  O19  1  0.01928391  0.32296233  0.08565685  1
  O  O20  1  0.02060543  0.32205372  0.57920335  1
  O  O21  1  0.33319620  0.32455843  0.33028716  1
  O  O22  1  0.33950716  0.33071984  0.83272965  1
  O  O23  1  0.66664815  0.66853671  0.57643165  1
  O  O24  1  0.66657007  0.66932926  0.10621379  1
  O  O25  1  0.98645495  0.69297373  0.33454405  1
  O  O26  1  0.66286126  0.01578293  0.57912592  1
  O  O27  1  0.66410392  0.01550963  0.08661036  1
