# generated using pymatgen
data_Ba4Lu6O13
_symmetry_space_group_name_H-M   'P 1'
_cell_length_a   5.98638430
_cell_length_b   12.55348005
_cell_length_c   12.17977918
_cell_angle_alpha   60.97994816
_cell_angle_beta   90.00000000
_cell_angle_gamma   76.20579200
_symmetry_Int_Tables_number   1
_chemical_formula_structural   Ba4Lu6O13
_chemical_formula_sum   'Ba8 Lu12 O26'
_cell_volume   770.06417220
_cell_formula_units_Z   2
loop_
 _symmetry_equiv_pos_site_id
 _symmetry_equiv_pos_as_xyz
  1  'x, y, z'
loop_
 _atom_site_type_symbol
 _atom_site_label
 _atom_site_symmetry_multiplicity
 _atom_site_fract_x
 _atom_site_fract_y
 _atom_site_fract_z
 _atom_site_occupancy
  Ba  Ba0  1  0.16131774  0.68044729  0.02843266  1
  Ba  Ba1  1  0.33782409  0.32831277  0.21449368  1
  Ba  Ba2  1  0.83782409  0.32831277  0.45719355  1
  Ba  Ba3  1  0.66131774  0.68044729  0.29112005  1
  Ba  Ba4  1  0.34176502  0.31955271  0.70887995  1
  Ba  Ba5  1  0.16613686  0.67168723  0.54280645  1
  Ba  Ba6  1  0.66613686  0.67168723  0.78550632  1
  Ba  Ba7  1  0.84176502  0.31955271  0.97156734  1
  Lu  Lu8  1  0.53384864  0.07214747  0.09040592  1
  Lu  Lu9  1  0.74673962  0.50523749  0.12288755  1
  Lu  Lu10  1  0.96802222  0.09624934  0.34523542  1
  Lu  Lu11  1  0.46802222  0.09624934  0.55851624  1
  Lu  Lu12  1  0.24673962  0.50523749  0.37187496  1
  Lu  Lu13  1  0.10599511  0.92785253  0.16255338  1
  Lu  Lu14  1  0.03384864  0.07214747  0.83744662  1
  Lu  Lu15  1  0.75197710  0.49476251  0.62812504  1
  Lu  Lu16  1  0.56427157  0.90375066  0.44148376  1
  Lu  Lu17  1  0.06427157  0.90375066  0.65476458  1
  Lu  Lu18  1  0.25197710  0.49476251  0.87711245  1
  Lu  Lu19  1  0.60599511  0.92785253  0.90959408  1
  O  O20  1  0.30206314  0.00000000  1.00000000  1
  O  O21  1  0.80206314  0.00000000  1.00000000  1
  O  O22  1  0.37825479  0.26593298  0.99312126  1
  O  O23  1  0.84814104  0.05974328  0.19492112  1
  O  O24  1  0.00735794  0.48779195  0.00727437  1
  O  O25  1  0.83096909  0.29115750  0.23215888  1
  O  O26  1  0.32262354  0.09657087  0.38388357  1
  O  O27  1  0.99577796  0.51137460  0.24319764  1
  O  O28  1  0.49577796  0.51137460  0.24542776  1
  O  O29  1  0.82262354  0.09657087  0.51954556  1
  O  O30  1  0.14418776  0.73406702  0.25905424  1
  O  O31  1  0.33096909  0.29115750  0.47668262  1
  O  O32  1  0.40788432  0.94025672  0.25466440  1
  O  O33  1  0.50735794  0.48779195  0.50493468  1
  O  O34  1  0.99514889  0.51220805  0.49506532  1
  O  O35  1  0.34814104  0.05974328  0.74533560  1
  O  O36  1  0.62212658  0.70884250  0.52331738  1
  O  O37  1  0.87825479  0.26593298  0.74094576  1
  O  O38  1  0.91919442  0.90342913  0.48045444  1
  O  O39  1  0.00715256  0.48862540  0.75457224  1
  O  O40  1  0.50715256  0.48862540  0.75680236  1
  O  O41  1  0.41919442  0.90342913  0.61611643  1
  O  O42  1  0.12212658  0.70884250  0.76784112  1
  O  O43  1  0.49514889  0.51220805  0.99272563  1
  O  O44  1  0.90788432  0.94025672  0.80507888  1
  O  O45  1  0.64418776  0.73406702  0.00687874  1
