# generated using pymatgen
data_MnH2(CO2)2
_symmetry_space_group_name_H-M   'P 1'
_cell_length_a   5.93980445
_cell_length_b   7.64368707
_cell_length_c   9.64721272
_cell_angle_alpha   90.00000000
_cell_angle_beta   90.00000000
_cell_angle_gamma   90.00000000
_symmetry_Int_Tables_number   1
_chemical_formula_structural   MnH2(CO2)2
_chemical_formula_sum   'Mn4 H8 C8 O16'
_cell_volume   438.00281436
_cell_formula_units_Z   4
loop_
 _symmetry_equiv_pos_site_id
 _symmetry_equiv_pos_as_xyz
  1  'x, y, z'
loop_
 _atom_site_type_symbol
 _atom_site_label
 _atom_site_symmetry_multiplicity
 _atom_site_fract_x
 _atom_site_fract_y
 _atom_site_fract_z
 _atom_site_occupancy
  Mn  Mn0  1  0.25000000  0.00000000  0.89365631  1
  Mn  Mn1  1  0.25000000  0.50000000  0.39365631  1
  Mn  Mn2  1  0.75000000  0.50000000  0.60634369  1
  Mn  Mn3  1  0.75000000  0.00000000  0.10634369  1
  H  H4  1  0.19082531  0.16511138  0.58777939  1
  H  H5  1  0.80917469  0.83488862  0.41222061  1
  H  H6  1  0.69082531  0.33488862  0.91222061  1
  H  H7  1  0.80917469  0.66511138  0.91222061  1
  H  H8  1  0.30917469  0.83488862  0.58777939  1
  H  H9  1  0.30917469  0.66511138  0.08777939  1
  H  H10  1  0.19082531  0.33488862  0.08777939  1
  H  H11  1  0.69082531  0.16511138  0.41222061  1
  C  C12  1  0.65316623  0.77874155  0.36855134  1
  C  C13  1  0.34683377  0.27874155  0.13144866  1
  C  C14  1  0.84683377  0.27874155  0.86855134  1
  C  C15  1  0.65316623  0.72125845  0.86855134  1
  C  C16  1  0.15316623  0.77874155  0.63144866  1
  C  C17  1  0.84683377  0.22125845  0.36855134  1
  C  C18  1  0.34683377  0.22125845  0.63144866  1
  C  C19  1  0.15316623  0.72125845  0.13144866  1
  O  O20  1  0.92691371  0.34167494  0.75876498  1
  O  O21  1  0.42691371  0.15832506  0.74123502  1
  O  O22  1  0.06543209  0.84800652  0.06274894  1
  O  O23  1  0.56543209  0.84800652  0.93725106  1
  O  O24  1  0.06543209  0.65199348  0.56274894  1
  O  O25  1  0.42691371  0.34167494  0.24123502  1
  O  O26  1  0.43456791  0.34800652  0.56274894  1
  O  O27  1  0.57308629  0.84167494  0.25876498  1
  O  O28  1  0.07308629  0.65832506  0.24123502  1
  O  O29  1  0.93456791  0.15199348  0.93725106  1
  O  O30  1  0.07308629  0.84167494  0.74123502  1
  O  O31  1  0.56543209  0.65199348  0.43725106  1
  O  O32  1  0.92691371  0.15832506  0.25876498  1
  O  O33  1  0.57308629  0.65832506  0.75876498  1
  O  O34  1  0.93456791  0.34800652  0.43725106  1
  O  O35  1  0.43456791  0.15199348  0.06274894  1
