# generated using pymatgen
data_La15(NiO4)8
_symmetry_space_group_name_H-M   'P 1'
_cell_length_a   6.91440519
_cell_length_b   11.71825421
_cell_length_c   10.93044598
_cell_angle_alpha   62.19777048
_cell_angle_beta   90.00086164
_cell_angle_gamma   102.75021536
_symmetry_Int_Tables_number   1
_chemical_formula_structural   La15(NiO4)8
_chemical_formula_sum   'La15 Ni8 O32'
_cell_volume   758.62710024
_cell_formula_units_Z   1
loop_
 _symmetry_equiv_pos_site_id
 _symmetry_equiv_pos_as_xyz
  1  'x, y, z'
loop_
 _atom_site_type_symbol
 _atom_site_label
 _atom_site_symmetry_multiplicity
 _atom_site_fract_x
 _atom_site_fract_y
 _atom_site_fract_z
 _atom_site_occupancy
  La  La0  1  0.05835302  0.31054824  0.84472317  1
  La  La1  1  0.29177215  0.56966535  0.96632680  1
  La  La2  1  0.78735737  0.07118507  0.71842997  1
  La  La3  1  0.21104716  0.93771788  0.78647767  1
  La  La4  1  0.70235580  0.42339918  0.54721399  1
  La  La5  1  0.54152776  0.81831332  0.59084800  1
  La  La6  1  0.96129704  0.67807647  0.66094902  1
  La  La7  1  0.29175179  0.56968861  0.46400816  1
  La  La8  1  0.46230919  0.17987199  0.41006201  1
  La  La9  1  0.04061097  0.31809815  0.34095851  1
  La  La10  1  0.21104233  0.93772379  0.27582382  1
  La  La11  1  0.78734423  0.07118191  0.21039317  1
  La  La12  1  0.54525944  0.82766214  0.08615842  1
  La  La13  1  0.70239257  0.42341318  0.02939750  1
  La  La14  1  0.95769931  0.67863234  0.16068350  1
  Ni  Ni15  1  0.75492818  0.74808119  0.87590789  1
  Ni  Ni16  1  0.50818807  0.49442087  0.75278651  1
  Ni  Ni17  1  0.00059938  0.99986152  0.50006831  1
  Ni  Ni18  1  0.26060561  0.24658680  0.62823586  1
  Ni  Ni19  1  0.50318030  0.49863818  0.25067163  1
  Ni  Ni20  1  0.00824212  0.99890357  0.00054085  1
  Ni  Ni21  1  0.75492421  0.74807851  0.37600561  1
  Ni  Ni22  1  0.26060888  0.24658904  0.12517781  1
  O  O23  1  0.75938135  0.07327656  0.96336341  1
  O  O24  1  0.10998962  0.12314866  0.80621689  1
  O  O25  1  0.01281742  0.66097901  0.91880150  1
  O  O26  1  0.36426245  0.38541381  0.93871725  1
  O  O27  1  0.24616474  0.59869231  0.70064658  1
  O  O28  1  0.79462316  0.43615855  0.78191527  1
  O  O29  1  0.48562964  0.84211205  0.83213578  1
  O  O30  1  0.36424074  0.38542248  0.67584795  1
  O  O31  1  0.12318521  0.12630649  0.56251543  1
  O  O32  1  0.51401766  0.16298480  0.64660364  1
  O  O33  1  0.87581469  0.87188419  0.93848547  1
  O  O34  1  0.62346761  0.62724938  0.81170798  1
  O  O35  1  0.97740561  0.33666208  0.58019736  1
  O  O36  1  0.12314440  0.12631915  0.31118412  1
  O  O37  1  0.74156537  0.08689072  0.45656762  1
  O  O38  1  0.01281569  0.66099224  0.42024050  1
  O  O39  1  0.62346635  0.62725758  0.56104672  1
  O  O40  1  0.26783879  0.91452003  0.54272881  1
  O  O41  1  0.87507417  0.87569229  0.68901823  1
  O  O42  1  0.37080551  0.37532258  0.43790405  1
  O  O43  1  0.62318812  0.62563246  0.31325643  1
  O  O44  1  0.51399115  0.16296590  0.19045827  1
  O  O45  1  0.48562189  0.84209641  0.32574846  1
  O  O46  1  0.76220708  0.41038788  0.29479553  1
  O  O47  1  0.87505834  0.87569570  0.43526470  1
  O  O48  1  0.23151983  0.58261511  0.20870482  1
  O  O49  1  0.37078963  0.37532872  0.18676915  1
  O  O50  1  0.10998701  0.12313442  0.07063922  1
  O  O51  1  0.87581241  0.87187580  0.18962547  1
  O  O52  1  0.23971360  0.88848738  0.05575102  1
  O  O53  1  0.62318023  0.62563784  0.06111342  1
  O  O54  1  0.97739164  0.33665915  0.08310877  1
