# generated using pymatgen
data_CdCl2
_symmetry_space_group_name_H-M   'P 1'
_cell_length_a   12.80249563
_cell_length_b   5.71755064
_cell_length_c   7.02671404
_cell_angle_alpha   144.14696328
_cell_angle_beta   155.53734864
_cell_angle_gamma   27.08018342
_symmetry_Int_Tables_number   1
_chemical_formula_structural   CdCl2
_chemical_formula_sum   'Cd1 Cl2'
_cell_volume   96.96157432
_cell_formula_units_Z   1
loop_
 _symmetry_equiv_pos_site_id
 _symmetry_equiv_pos_as_xyz
  1  'x, y, z'
loop_
 _atom_site_type_symbol
 _atom_site_label
 _atom_site_symmetry_multiplicity
 _atom_site_fract_x
 _atom_site_fract_y
 _atom_site_fract_z
 _atom_site_occupancy
  Cd  Cd0  1  0.83862365  0.99796145  0.66900442  1
  Cl  Cl1  1  0.83558895  0.24830982  0.16673293  1
  Cl  Cl2  1  0.33864839  0.74734273  0.16301566  1
