# generated using pymatgen
data_BaMn4O8
_symmetry_space_group_name_H-M   'P 1'
_cell_length_a   3.15840983
_cell_length_b   7.06662412
_cell_length_c   7.15277089
_cell_angle_alpha   86.08640779
_cell_angle_beta   77.24501689
_cell_angle_gamma   77.08685517
_symmetry_Int_Tables_number   1
_chemical_formula_structural   BaMn4O8
_chemical_formula_sum   'Ba1 Mn4 O8'
_cell_volume   151.73743772
_cell_formula_units_Z   1
loop_
 _symmetry_equiv_pos_site_id
 _symmetry_equiv_pos_as_xyz
  1  'x, y, z'
loop_
 _atom_site_type_symbol
 _atom_site_label
 _atom_site_symmetry_multiplicity
 _atom_site_fract_x
 _atom_site_fract_y
 _atom_site_fract_z
 _atom_site_occupancy
  Ba  Ba0  1  0.50000000  -0.00000000  -0.00000000  1
  Mn  Mn1  1  0.35050657  0.81536819  0.48361867  1
  Mn  Mn2  1  0.64949343  0.18463181  0.51638133  1
  Mn  Mn3  1  0.16244561  0.49056988  0.18453889  1
  Mn  Mn4  1  0.83755439  0.50943012  0.81546111  1
  O  O5  1  0.19810988  0.65541160  0.94836865  1
  O  O6  1  0.15901438  0.29865009  0.38332116  1
  O  O7  1  0.15309709  0.03798072  0.65582509  1
  O  O8  1  0.84098562  0.70134991  0.61667884  1
  O  O9  1  0.45766207  0.36288817  0.72178770  1
  O  O10  1  0.80189012  0.34458840  0.05163135  1
  O  O11  1  0.84690291  0.96201928  0.34417491  1
  O  O12  1  0.54233793  0.63711183  0.27821230  1
