# generated using pymatgen
data_BaO6
_symmetry_space_group_name_H-M   'P 1'
_cell_length_a   5.68570972
_cell_length_b   5.68570972
_cell_length_c   8.04637238
_cell_angle_alpha   87.80185843
_cell_angle_beta   92.19814157
_cell_angle_gamma   112.18954290
_symmetry_Int_Tables_number   1
_chemical_formula_structural   BaO6
_chemical_formula_sum   'Ba2 O12'
_cell_volume   240.59570252
_cell_formula_units_Z   2
loop_
 _symmetry_equiv_pos_site_id
 _symmetry_equiv_pos_as_xyz
  1  'x, y, z'
loop_
 _atom_site_type_symbol
 _atom_site_label
 _atom_site_symmetry_multiplicity
 _atom_site_fract_x
 _atom_site_fract_y
 _atom_site_fract_z
 _atom_site_occupancy
  Ba  Ba0  1  0.77296824  0.77296824  0.75000000  1
  Ba  Ba1  1  0.22703176  0.22703176  0.25000000  1
  O  O2  1  0.21007495  0.88012659  0.53461116  1
  O  O3  1  0.88012659  0.21007495  0.96538884  1
  O  O4  1  0.78992505  0.11987341  0.46538884  1
  O  O5  1  0.11987341  0.78992505  0.03461116  1
  O  O6  1  0.33836029  0.94949669  0.67247240  1
  O  O7  1  0.94949669  0.33836029  0.82752760  1
  O  O8  1  0.66163971  0.05050331  0.32752760  1
  O  O9  1  0.05050331  0.66163971  0.17247240  1
  O  O10  1  0.39449202  0.48184250  0.54249308  1
  O  O11  1  0.48184250  0.39449202  0.95750692  1
  O  O12  1  0.60550798  0.51815750  0.45750692  1
  O  O13  1  0.51815750  0.60550798  0.04249308  1
