# generated using pymatgen
data_CdIn
_symmetry_space_group_name_H-M   'P 1'
_cell_length_a   3.31773690
_cell_length_b   3.31726369
_cell_length_c   5.46055716
_cell_angle_alpha   90.09149132
_cell_angle_beta   89.90849347
_cell_angle_gamma   120.00677884
_symmetry_Int_Tables_number   1
_chemical_formula_structural   CdIn
_chemical_formula_sum   'Cd1 In1'
_cell_volume   52.04261599
_cell_formula_units_Z   1
loop_
 _symmetry_equiv_pos_site_id
 _symmetry_equiv_pos_as_xyz
  1  'x, y, z'
loop_
 _atom_site_type_symbol
 _atom_site_label
 _atom_site_symmetry_multiplicity
 _atom_site_fract_x
 _atom_site_fract_y
 _atom_site_fract_z
 _atom_site_occupancy
  Cd  Cd0  1  0.66662381  0.33337552  0.75002382  1
  In  In1  1  0.33337719  0.66662648  0.24997518  1
