# generated using pymatgen
data_H5IO6
_symmetry_space_group_name_H-M   'P 1'
_cell_length_a   5.57684976
_cell_length_b   18.43848729
_cell_length_c   4.85512079
_cell_angle_alpha   88.62632310
_cell_angle_beta   105.11820224
_cell_angle_gamma   90.61449037
_symmetry_Int_Tables_number   1
_chemical_formula_structural   H5IO6
_chemical_formula_sum   'H20 I4 O24'
_cell_volume   481.82296448
_cell_formula_units_Z   4
loop_
 _symmetry_equiv_pos_site_id
 _symmetry_equiv_pos_as_xyz
  1  'x, y, z'
loop_
 _atom_site_type_symbol
 _atom_site_label
 _atom_site_symmetry_multiplicity
 _atom_site_fract_x
 _atom_site_fract_y
 _atom_site_fract_z
 _atom_site_occupancy
  H  H0  1  0.12026883  0.49851275  0.80991072  1
  H  H1  1  0.75539531  0.95810073  0.11530670  1
  H  H2  1  0.71267139  0.44494846  0.38853557  1
  H  H3  1  0.37090689  -0.00033650  0.69613638  1
  H  H4  1  0.84836346  0.52682391  0.15856107  1
  H  H5  1  0.25706585  0.89076016  0.54279471  1
  H  H6  1  0.23959247  0.38683858  0.94474889  1
  H  H7  1  0.64268461  0.03423770  0.33832051  1
  H  H8  1  0.32473618  0.55338559  0.46924433  1
  H  H9  1  0.20322507  0.06010900  0.02624438  1
  H  H10  1  0.03799913  0.68927621  0.40298791  1
  H  H11  1  0.87556839  0.82906585  0.04912831  1
  H  H12  1  0.86271450  0.30581994  0.54329545  1
  H  H13  1  0.41939536  0.19986379  0.07161255  1
  H  H14  1  0.38704918  0.67987705  0.73313097  1
  H  H15  1  0.91080496  0.13409928  0.48982914  1
  H  H16  1  0.89244006  0.72734224  0.80299486  1
  H  H17  1  0.56265509  0.79902924  0.18899705  1
  H  H18  1  0.06662260  0.28655180  0.20377742  1
  H  H19  1  0.62508764  0.22685448  0.72712352  1
  I  I20  1  0.15010273  0.62120282  0.02863913  1
  I  I21  1  0.72566037  0.88685839  0.56957105  1
  I  I22  1  0.76366484  0.38025782  0.93353929  1
  I  I23  1  0.34602477  0.12634702  0.47760499  1
  O  O24  1  0.14580192  0.55166612  0.74107495  1
  O  O25  1  0.65443578  0.96505477  0.26045363  1
  O  O26  1  0.79036210  0.45692982  0.20941888  1
  O  O27  1  0.34854378  0.05185619  0.76108942  1
  O  O28  1  0.87368624  0.58530135  0.13405012  1
  O  O29  1  0.41203699  0.91904949  0.64380496  1
  O  O30  1  0.08248243  0.41871678  0.88026304  1
  O  O31  1  0.63923092  0.09241584  0.39347094  1
  O  O32  1  0.39114331  0.56495371  0.30084317  1
  O  O33  1  0.88503027  0.94968203  0.83889309  1
  O  O34  1  0.61289523  0.43733329  0.62573753  1
  O  O35  1  0.13408535  0.06685659  0.19638745  1
  O  O36  1  0.16839630  0.69808770  0.29800381  1
  O  O37  1  0.76813132  0.80767316  0.86957687  1
  O  O38  1  0.80634288  0.29311433  0.72084021  1
  O  O39  1  0.33835988  0.20925974  0.23009022  1
  O  O40  1  0.42941247  0.66904703  0.94072259  1
  O  O41  1  0.97739748  0.85317834  0.42865225  1
  O  O42  1  0.48669115  0.34179646  0.01000347  1
  O  O43  1  0.06208784  0.16591550  0.56320205  1
  O  O44  1  0.93444386  0.67962766  0.72687378  1
  O  O45  1  0.48825369  0.82141754  0.32993702  1
  O  O46  1  0.97422702  0.32531761  0.26758658  1
  O  O47  1  0.54044411  0.18115067  0.78794810  1
