# generated using pymatgen
data_SbCNCl5
_symmetry_space_group_name_H-M   'P 1'
_cell_length_a   6.41589954
_cell_length_b   11.42728652
_cell_length_c   13.07430035
_cell_angle_alpha   91.23202997
_cell_angle_beta   90.00000000
_cell_angle_gamma   90.00000000
_symmetry_Int_Tables_number   1
_chemical_formula_structural   SbCNCl5
_chemical_formula_sum   'Sb4 C4 N4 Cl20'
_cell_volume   958.33801897
_cell_formula_units_Z   4
loop_
 _symmetry_equiv_pos_site_id
 _symmetry_equiv_pos_as_xyz
  1  'x, y, z'
loop_
 _atom_site_type_symbol
 _atom_site_label
 _atom_site_symmetry_multiplicity
 _atom_site_fract_x
 _atom_site_fract_y
 _atom_site_fract_z
 _atom_site_occupancy
  Sb  Sb0  1  0.97630825  0.26648704  0.36634232  1
  Sb  Sb1  1  0.02369175  0.73351296  0.63365768  1
  Sb  Sb2  1  0.47630825  0.73351296  0.13365768  1
  Sb  Sb3  1  0.52369175  0.26648704  0.86634232  1
  C  C4  1  0.07654533  0.96354562  0.01757890  1
  C  C5  1  0.92345467  0.03645438  0.98242110  1
  C  C6  1  0.57654533  0.03645438  0.48242110  1
  C  C7  1  0.42345467  0.96354562  0.51757890  1
  N  N8  1  0.29362876  0.90159269  0.54749207  1
  N  N9  1  0.20637124  0.90159269  0.04749207  1
  N  N10  1  0.79362876  0.09840731  0.95250793  1
  N  N11  1  0.70637124  0.09840731  0.45250793  1
  Cl  Cl12  1  0.15476144  0.24332625  0.52368268  1
  Cl  Cl13  1  0.26159352  0.60987026  0.54647484  1
  Cl  Cl14  1  0.34523856  0.24332625  0.02368268  1
  Cl  Cl15  1  0.14512740  0.09344749  0.30469029  1
  Cl  Cl16  1  0.64512740  0.90655251  0.19530971  1
  Cl  Cl17  1  0.81137367  0.59479222  0.70756893  1
  Cl  Cl18  1  0.31137367  0.40520778  0.79243107  1
  Cl  Cl19  1  0.84523856  0.75667375  0.47631732  1
  Cl  Cl20  1  0.76159352  0.39012974  0.95352516  1
  Cl  Cl21  1  0.73065462  0.24082263  0.23312233  1
  Cl  Cl22  1  0.65476144  0.75667375  0.97631732  1
  Cl  Cl23  1  0.68862633  0.59479222  0.20756893  1
  Cl  Cl24  1  0.26934538  0.75917737  0.76687767  1
  Cl  Cl25  1  0.73840648  0.39012974  0.45352516  1
  Cl  Cl26  1  0.18862633  0.40520778  0.29243107  1
  Cl  Cl27  1  0.23065462  0.75917737  0.26687767  1
  Cl  Cl28  1  0.85487260  0.90655251  0.69530971  1
  Cl  Cl29  1  0.76934538  0.24082263  0.73312233  1
  Cl  Cl30  1  0.35487260  0.09344749  0.80469029  1
  Cl  Cl31  1  0.23840648  0.60987026  0.04647484  1
