# generated using pymatgen
data_HoMg5
_symmetry_space_group_name_H-M   'P 1'
_cell_length_a   3.68645683
_cell_length_b   6.23100916
_cell_length_c   7.02470800
_cell_angle_alpha   73.19875741
_cell_angle_beta   90.00000000
_cell_angle_gamma   107.20643338
_symmetry_Int_Tables_number   1
_chemical_formula_structural   HoMg5
_chemical_formula_sum   'Ho1 Mg5'
_cell_volume   146.91220266
_cell_formula_units_Z   1
loop_
 _symmetry_equiv_pos_site_id
 _symmetry_equiv_pos_as_xyz
  1  'x, y, z'
loop_
 _atom_site_type_symbol
 _atom_site_label
 _atom_site_symmetry_multiplicity
 _atom_site_fract_x
 _atom_site_fract_y
 _atom_site_fract_z
 _atom_site_occupancy
  Ho  Ho0  1  0.36228574  0.72457148  0.77549419  1
  Mg  Mg1  1  0.03472632  0.06945263  0.95251601  1
  Mg  Mg2  1  0.69096625  0.38193351  0.11917772  1
  Mg  Mg3  1  0.35960959  0.71921918  0.27989117  1
  Mg  Mg4  1  0.03455412  0.06910825  0.43003930  1
  Mg  Mg5  1  0.68452498  0.36904996  0.60954661  1
