# generated using pymatgen
data_Eu3Mg
_symmetry_space_group_name_H-M   'P 1'
_cell_length_a   7.53080319
_cell_length_b   7.53080375
_cell_length_c   6.06967770
_cell_angle_alpha   90.00000000
_cell_angle_beta   90.00000000
_cell_angle_gamma   119.99999757
_symmetry_Int_Tables_number   1
_chemical_formula_structural   Eu3Mg
_chemical_formula_sum   'Eu6 Mg2'
_cell_volume   298.11161766
_cell_formula_units_Z   2
loop_
 _symmetry_equiv_pos_site_id
 _symmetry_equiv_pos_as_xyz
  1  'x, y, z'
loop_
 _atom_site_type_symbol
 _atom_site_label
 _atom_site_symmetry_multiplicity
 _atom_site_fract_x
 _atom_site_fract_y
 _atom_site_fract_z
 _atom_site_occupancy
  Eu  Eu0  1  0.17062723  0.34125347  0.25000000  1
  Eu  Eu1  1  0.17062723  0.82937377  0.25000000  1
  Eu  Eu2  1  0.65874653  0.82937377  0.25000000  1
  Eu  Eu3  1  0.34125347  0.17062623  0.75000100  1
  Eu  Eu4  1  0.82937277  0.17062623  0.75000100  1
  Eu  Eu5  1  0.82937277  0.65874653  0.75000100  1
  Mg  Mg6  1  0.66666600  0.33333300  0.25000000  1
  Mg  Mg7  1  0.33333300  0.66666600  0.75000100  1
