# generated using pymatgen
data_NbF5
_symmetry_space_group_name_H-M   'P 1'
_cell_length_a   8.74614817
_cell_length_b   8.74830563
_cell_length_c   4.89043066
_cell_angle_alpha   88.98739247
_cell_angle_beta   91.01874292
_cell_angle_gamma   67.88934669
_symmetry_Int_Tables_number   1
_chemical_formula_structural   NbF5
_chemical_formula_sum   'Nb4 F20'
_cell_volume   346.49342182
_cell_formula_units_Z   4
loop_
 _symmetry_equiv_pos_site_id
 _symmetry_equiv_pos_as_xyz
  1  'x, y, z'
loop_
 _atom_site_type_symbol
 _atom_site_label
 _atom_site_symmetry_multiplicity
 _atom_site_fract_x
 _atom_site_fract_y
 _atom_site_fract_z
 _atom_site_occupancy
  Nb  Nb0  1  0.25637245  0.74349558  0.62759719  1
  Nb  Nb1  1  0.74365668  0.25647574  0.37243725  1
  Nb  Nb2  1  0.19631916  0.19628066  0.99972349  1
  Nb  Nb3  1  0.80365124  0.80375152  0.00022746  1
  F  F4  1  0.10704555  0.89307196  0.37763219  1
  F  F5  1  0.89303578  0.10685254  0.62228711  1
  F  F6  1  0.34901999  0.65079037  0.29225200  1
  F  F7  1  0.65105314  0.34910646  0.70784999  1
  F  F8  1  0.47068877  0.72359758  0.73022878  1
  F  F9  1  0.72368118  0.47083184  0.27016455  1
  F  F10  1  0.52933338  0.27637351  0.26983021  1
  F  F11  1  0.27633385  0.52915596  0.72994911  1
  F  F12  1  0.21656160  0.96361711  0.85011121  1
  F  F13  1  0.96347758  0.21660539  0.14972621  1
  F  F14  1  0.78345775  0.03638588  0.14983435  1
  F  F15  1  0.03650567  0.78339649  0.85022050  1
  F  F16  1  0.29611260  0.06925618  0.32097670  1
  F  F17  1  0.06889280  0.29629934  0.67887757  1
  F  F18  1  0.70383442  0.93080036  0.67900819  1
  F  F19  1  0.93104289  0.70376005  0.32111903  1
  F  F20  1  0.39570624  0.16819072  0.83747204  1
  F  F21  1  0.16814928  0.39563816  0.16208146  1
  F  F22  1  0.60425545  0.83187613  0.16247617  1
  F  F23  1  0.83180353  0.60438647  0.83791721  1
