# generated using pymatgen
data_PrNd
_symmetry_space_group_name_H-M   'P 1'
_cell_length_a   3.70880126
_cell_length_b   3.70877305
_cell_length_c   6.10164502
_cell_angle_alpha   89.99789027
_cell_angle_beta   90.00202015
_cell_angle_gamma   119.98740811
_symmetry_Int_Tables_number   1
_chemical_formula_structural   PrNd
_chemical_formula_sum   'Pr1 Nd1'
_cell_volume   72.69365092
_cell_formula_units_Z   1
loop_
 _symmetry_equiv_pos_site_id
 _symmetry_equiv_pos_as_xyz
  1  'x, y, z'
loop_
 _atom_site_type_symbol
 _atom_site_label
 _atom_site_symmetry_multiplicity
 _atom_site_fract_x
 _atom_site_fract_y
 _atom_site_fract_z
 _atom_site_occupancy
  Pr  Pr0  1  0.33327483  0.66672722  0.25003080  1
  Nd  Nd1  1  0.66672617  0.33327378  0.74996920  1
