# generated using pymatgen
data_CsYb3Se4
_symmetry_space_group_name_H-M   'P 1'
_cell_length_a   4.23605500
_cell_length_b   4.23605511
_cell_length_c   30.77243549
_cell_angle_alpha   90.00000000
_cell_angle_beta   90.00000000
_cell_angle_gamma   119.99999913
_symmetry_Int_Tables_number   1
_chemical_formula_structural   CsYb3Se4
_chemical_formula_sum   'Cs2 Yb6 Se8'
_cell_volume   478.20674484
_cell_formula_units_Z   2
loop_
 _symmetry_equiv_pos_site_id
 _symmetry_equiv_pos_as_xyz
  1  'x, y, z'
loop_
 _atom_site_type_symbol
 _atom_site_label
 _atom_site_symmetry_multiplicity
 _atom_site_fract_x
 _atom_site_fract_y
 _atom_site_fract_z
 _atom_site_occupancy
  Yb  Yb0  1  0.66666700  0.33333300  0.61066834  1
  Yb  Yb1  1  0.66666700  0.33333300  0.88933166  1
  Yb  Yb2  1  0.33333300  0.66666700  0.38933166  1
  Yb  Yb3  1  0.33333300  0.66666700  0.11066834  1
  Yb  Yb4  1  0.00000000  0.00000000  0.50000000  1
  Yb  Yb5  1  0.00000000  0.00000000  0.00000000  1
  Cs  Cs6  1  0.66666700  0.33333300  0.25000000  1
  Cs  Cs7  1  0.33333300  0.66666700  0.75000000  1
  Se  Se8  1  0.00000000  0.00000000  0.16278855  1
  Se  Se9  1  0.66666700  0.33333300  0.44606637  1
  Se  Se10  1  0.00000000  0.00000000  0.66278855  1
  Se  Se11  1  0.33333300  0.66666700  0.94606637  1
  Se  Se12  1  0.33333300  0.66666700  0.55393363  1
  Se  Se13  1  0.00000000  0.00000000  0.33721145  1
  Se  Se14  1  0.66666700  0.33333300  0.05393363  1
  Se  Se15  1  0.00000000  0.00000000  0.83721145  1
