# generated using pymatgen
data_MgHg5
_symmetry_space_group_name_H-M   'P 1'
_cell_length_a   4.85672928
_cell_length_b   6.07879449
_cell_length_c   6.07880818
_cell_angle_alpha   59.92505436
_cell_angle_beta   90.23126020
_cell_angle_gamma   90.23077365
_symmetry_Int_Tables_number   1
_chemical_formula_structural   MgHg5
_chemical_formula_sum   'Mg1 Hg5'
_cell_volume   155.30207162
_cell_formula_units_Z   1
loop_
 _symmetry_equiv_pos_site_id
 _symmetry_equiv_pos_as_xyz
  1  'x, y, z'
loop_
 _atom_site_type_symbol
 _atom_site_label
 _atom_site_symmetry_multiplicity
 _atom_site_fract_x
 _atom_site_fract_y
 _atom_site_fract_z
 _atom_site_occupancy
  Mg  Mg0  1  0.50000055  0.66667890  0.33330982  1
  Hg  Hg1  1  0.00000011  0.97692040  0.02307459  1
  Hg  Hg2  1  0.00006498  0.35632668  0.33334390  1
  Hg  Hg3  1  -0.00006702  0.66665127  0.64368310  1
  Hg  Hg4  1  0.50002996  0.00001945  0.66661214  1
  Hg  Hg5  1  0.49997142  0.33340329  0.99997646  1
