# generated using pymatgen
data_Mg16UAl12
_symmetry_space_group_name_H-M   'P 1'
_cell_length_a   9.10938067
_cell_length_b   9.10937881
_cell_length_c   9.10938067
_cell_angle_alpha   109.47121967
_cell_angle_beta   109.47123043
_cell_angle_gamma   109.47121967
_symmetry_Int_Tables_number   1
_chemical_formula_structural   Mg16UAl12
_chemical_formula_sum   'Mg16 U1 Al12'
_cell_volume   581.89487407
_cell_formula_units_Z   1
loop_
 _symmetry_equiv_pos_site_id
 _symmetry_equiv_pos_as_xyz
  1  'x, y, z'
loop_
 _atom_site_type_symbol
 _atom_site_label
 _atom_site_symmetry_multiplicity
 _atom_site_fract_x
 _atom_site_fract_y
 _atom_site_fract_z
 _atom_site_occupancy
  Mg  Mg0  1  0.32160506  0.60554118  0.99999900  1
  Mg  Mg1  1  0.35973134  0.00000000  0.99999900  1
  Mg  Mg2  1  0.60554218  0.32160506  0.00000000  1
  Mg  Mg3  1  1.00000000  0.35973234  1.00000000  1
  Mg  Mg4  1  0.67839494  0.67839394  0.28393512  1
  Mg  Mg5  1  0.99999900  0.60554118  0.32160506  1
  Mg  Mg6  1  0.60554118  1.00000000  0.32160606  1
  Mg  Mg7  1  0.99999900  0.00000000  0.35973134  1
  Mg  Mg8  1  0.39445982  0.71606588  0.39445982  1
  Mg  Mg9  1  0.71606588  0.39445982  0.39445982  1
  Mg  Mg10  1  0.32160606  1.00000000  0.60554118  1
  Mg  Mg11  1  0.00000000  0.32160506  0.60554218  1
  Mg  Mg12  1  0.64026766  0.64026766  0.64026766  1
  Mg  Mg13  1  0.67839394  0.28393612  0.67839394  1
  Mg  Mg14  1  0.28393512  0.67839394  0.67839494  1
  Mg  Mg15  1  0.39445982  0.39445982  0.71606588  1
  U  U16  1  0.00000000  0.00000000  -0.00000000  1
  Al  Al17  1  0.63588849  0.81575854  0.99999900  1
  Al  Al18  1  0.81575754  0.63588849  0.99999900  1
  Al  Al19  1  0.36411251  0.36411151  0.17987005  1
  Al  Al20  1  0.82012895  0.18424146  0.18424146  1
  Al  Al21  1  0.18424146  0.82012895  0.18424146  1
  Al  Al22  1  0.36411151  0.17986905  0.36411151  1
  Al  Al23  1  0.17987005  0.36411151  0.36411251  1
  Al  Al24  1  0.99999900  0.81575854  0.63588849  1
  Al  Al25  1  0.81575754  0.00000000  0.63588849  1
  Al  Al26  1  0.99999900  0.63588849  0.81575754  1
  Al  Al27  1  0.63588849  0.00000000  0.81575754  1
  Al  Al28  1  0.18424146  0.18424146  0.82012895  1
