# generated using pymatgen
data_TlIn3
_symmetry_space_group_name_H-M   'P 1'
_cell_length_a   6.82894250
_cell_length_b   6.82894194
_cell_length_c   5.78342919
_cell_angle_alpha   90.00000000
_cell_angle_beta   90.00000000
_cell_angle_gamma   120.00000271
_symmetry_Int_Tables_number   1
_chemical_formula_structural   TlIn3
_chemical_formula_sum   'Tl2 In6'
_cell_volume   233.57315057
_cell_formula_units_Z   2
loop_
 _symmetry_equiv_pos_site_id
 _symmetry_equiv_pos_as_xyz
  1  'x, y, z'
loop_
 _atom_site_type_symbol
 _atom_site_label
 _atom_site_symmetry_multiplicity
 _atom_site_fract_x
 _atom_site_fract_y
 _atom_site_fract_z
 _atom_site_occupancy
  Tl  Tl0  1  0.33333300  0.66666700  0.75000100  1
  Tl  Tl1  1  0.66666800  0.33333300  0.25000000  1
  In  In2  1  0.16360966  0.32722032  0.25000000  1
  In  In3  1  0.67278168  0.83639134  0.25000000  1
  In  In4  1  0.16360966  0.83639134  0.25000000  1
  In  In5  1  0.83639234  0.67278168  0.75000100  1
  In  In6  1  0.32722032  0.16360966  0.75000100  1
  In  In7  1  0.83638934  0.16360966  0.75000100  1
