# generated using pymatgen
data_Cs2S5O
_symmetry_space_group_name_H-M   'P 1'
_cell_length_a   6.83289802
_cell_length_b   8.44988958
_cell_length_c   10.97300826
_cell_angle_alpha   102.44651035
_cell_angle_beta   114.22786393
_cell_angle_gamma   98.78204325
_symmetry_Int_Tables_number   1
_chemical_formula_structural   Cs2S5O
_chemical_formula_sum   'Cs4 S10 O2'
_cell_volume   543.09410367
_cell_formula_units_Z   2
loop_
 _symmetry_equiv_pos_site_id
 _symmetry_equiv_pos_as_xyz
  1  'x, y, z'
loop_
 _atom_site_type_symbol
 _atom_site_label
 _atom_site_symmetry_multiplicity
 _atom_site_fract_x
 _atom_site_fract_y
 _atom_site_fract_z
 _atom_site_occupancy
  Cs  Cs0  1  0.09806895  0.64471804  0.33096757  1
  Cs  Cs1  1  0.90193105  0.35528196  0.66903243  1
  Cs  Cs2  1  0.51246147  0.80372374  0.83178318  1
  Cs  Cs3  1  0.48753853  0.19627626  0.16821682  1
  S  S4  1  0.25718082  0.28956531  0.46677595  1
  S  S5  1  0.74281918  0.71043469  0.53322405  1
  S  S6  1  0.33369344  0.12215102  0.57052894  1
  S  S7  1  0.66630656  0.87784898  0.42947106  1
  S  S8  1  0.39035433  0.21612841  0.80164372  1
  S  S9  1  0.60964567  0.78387159  0.19835628  1
  S  S10  1  0.70258043  0.35970501  0.95143307  1
  S  S11  1  0.29741957  0.64029499  0.04856693  1
  S  S12  1  0.89195359  0.21098827  0.03903402  1
  S  S13  1  0.10804641  0.78901173  0.96096598  1
  O  O14  1  0.01811857  0.30644429  0.42368232  1
  O  O15  1  0.98188143  0.69355571  0.57631768  1
