# generated using pymatgen
data_Tm5Mg
_symmetry_space_group_name_H-M   'P 1'
_cell_length_a   6.03767943
_cell_length_b   6.03768087
_cell_length_c   6.50212861
_cell_angle_alpha   117.66393789
_cell_angle_beta   62.33605883
_cell_angle_gamma   119.99998919
_symmetry_Int_Tables_number   1
_chemical_formula_structural   Tm5Mg
_chemical_formula_sum   'Tm5 Mg1'
_cell_volume   173.27869046
_cell_formula_units_Z   1
loop_
 _symmetry_equiv_pos_site_id
 _symmetry_equiv_pos_as_xyz
  1  'x, y, z'
loop_
 _atom_site_type_symbol
 _atom_site_label
 _atom_site_symmetry_multiplicity
 _atom_site_fract_x
 _atom_site_fract_y
 _atom_site_fract_z
 _atom_site_occupancy
  Tm  Tm0  1  0.99655011  1.00000000  0.00000000  1
  Tm  Tm1  1  0.67011689  0.33678289  0.00000000  1
  Tm  Tm2  1  0.33333300  0.66321611  1.00000000  1
  Tm  Tm3  1  0.50103303  0.83229997  0.49690090  1
  Tm  Tm4  1  0.16563297  0.16769803  0.50309710  1
  Mg  Mg5  1  0.83333300  0.50000000  0.49999900  1
