# generated using pymatgen
data_B2Mo2Os
_symmetry_space_group_name_H-M   'P 1'
_cell_length_a   3.07706033
_cell_length_b   7.60561259
_cell_length_c   9.64972492
_cell_angle_alpha   90.00000000
_cell_angle_beta   90.00000000
_cell_angle_gamma   90.00000000
_symmetry_Int_Tables_number   1
_chemical_formula_structural   B2Mo2Os
_chemical_formula_sum   'B8 Mo8 Os4'
_cell_volume   225.83182511
_cell_formula_units_Z   4
loop_
 _symmetry_equiv_pos_site_id
 _symmetry_equiv_pos_as_xyz
  1  'x, y, z'
loop_
 _atom_site_type_symbol
 _atom_site_label
 _atom_site_symmetry_multiplicity
 _atom_site_fract_x
 _atom_site_fract_y
 _atom_site_fract_z
 _atom_site_occupancy
  B  B0  1  0.50000000  0.11586031  0.46078108  1
  B  B1  1  0.50000000  0.88413969  0.53921892  1
  B  B2  1  0.00000000  0.38413969  0.96078108  1
  B  B3  1  -0.00000000  0.61586031  0.03921892  1
  B  B4  1  0.50000000  0.12560017  0.26742509  1
  B  B5  1  0.50000000  0.87439983  0.73257491  1
  B  B6  1  0.00000000  0.37439983  0.76742509  1
  B  B7  1  0.00000000  0.62560017  0.23257491  1
  Mo  Mo8  1  0.50000000  0.80827854  0.13010383  1
  Mo  Mo9  1  0.50000000  0.19172146  0.86989617  1
  Mo  Mo10  1  -0.00000000  0.69172146  0.63010383  1
  Mo  Mo11  1  -0.00000000  0.30827854  0.36989617  1
  Mo  Mo12  1  0.50000000  0.57383775  0.86043496  1
  Mo  Mo13  1  0.50000000  0.42616225  0.13956504  1
  Mo  Mo14  1  -0.00000000  0.92616225  0.36043496  1
  Mo  Mo15  1  0.00000000  0.07383775  0.63956504  1
  Os  Os16  1  0.50000000  0.61866416  0.39261080  1
  Os  Os17  1  0.50000000  0.38133584  0.60738920  1
  Os  Os18  1  -0.00000000  0.88133584  0.89261080  1
  Os  Os19  1  0.00000000  0.11866416  0.10738920  1
