# generated using pymatgen
data_Pr2Al2Co15
_symmetry_space_group_name_H-M   'P 1'
_cell_length_a   6.37292307
_cell_length_b   6.37292307
_cell_length_c   6.37292339
_cell_angle_alpha   82.54571880
_cell_angle_beta   82.54571880
_cell_angle_gamma   82.54572039
_symmetry_Int_Tables_number   1
_chemical_formula_structural   Pr2Al2Co15
_chemical_formula_sum   'Pr2 Al2 Co15'
_cell_volume   252.79092426
_cell_formula_units_Z   1
loop_
 _symmetry_equiv_pos_site_id
 _symmetry_equiv_pos_as_xyz
  1  'x, y, z'
loop_
 _atom_site_type_symbol
 _atom_site_label
 _atom_site_symmetry_multiplicity
 _atom_site_fract_x
 _atom_site_fract_y
 _atom_site_fract_z
 _atom_site_occupancy
  Pr  Pr0  1  0.64792856  0.64792856  0.64792856  1
  Pr  Pr1  1  0.35207144  0.35207144  0.35207144  1
  Al  Al2  1  0.89514089  0.89514089  0.89514089  1
  Al  Al3  1  0.10485911  0.10485911  0.10485911  1
  Co  Co4  1  0.00000000  0.00000000  0.50000000  1
  Co  Co5  1  0.00000000  0.50000000  0.00000000  1
  Co  Co6  1  0.50000000  0.00000000  0.00000000  1
  Co  Co7  1  0.28335709  0.71664291  0.00000000  1
  Co  Co8  1  0.71664291  0.00000000  0.28335709  1
  Co  Co9  1  1.00000000  0.28335709  0.71664291  1
  Co  Co10  1  0.28335709  1.00000000  0.71664291  1
  Co  Co11  1  0.00000000  0.71664291  0.28335709  1
  Co  Co12  1  0.71664291  0.28335709  0.00000000  1
  Co  Co13  1  0.34631923  0.34631923  0.85310719  1
  Co  Co14  1  0.34631923  0.85310719  0.34631923  1
  Co  Co15  1  0.85310719  0.34631923  0.34631923  1
  Co  Co16  1  0.65368077  0.65368077  0.14689281  1
  Co  Co17  1  0.65368077  0.14689281  0.65368077  1
  Co  Co18  1  0.14689281  0.65368077  0.65368077  1
