# generated using pymatgen
data_Ce7Pd3
_symmetry_space_group_name_H-M   'P 1'
_cell_length_a   6.23853851
_cell_length_b   9.87192574
_cell_length_c   9.87192574
_cell_angle_alpha   119.95021736
_cell_angle_beta   90.00000000
_cell_angle_gamma   90.00000000
_symmetry_Int_Tables_number   1
_chemical_formula_structural   Ce7Pd3
_chemical_formula_sum   'Ce14 Pd6'
_cell_volume   526.78681175
_cell_formula_units_Z   2
loop_
 _symmetry_equiv_pos_site_id
 _symmetry_equiv_pos_as_xyz
  1  'x, y, z'
loop_
 _atom_site_type_symbol
 _atom_site_label
 _atom_site_symmetry_multiplicity
 _atom_site_fract_x
 _atom_site_fract_y
 _atom_site_fract_z
 _atom_site_occupancy
  Ce  Ce0  1  0.39673808  0.33378472  0.66621528  1
  Ce  Ce1  1  0.89673808  0.66621528  0.33378472  1
  Ce  Ce2  1  0.24414758  0.13134650  0.86865350  1
  Ce  Ce3  1  0.24376827  0.73672510  0.86790477  1
  Ce  Ce4  1  0.24376827  0.13209523  0.26327490  1
  Ce  Ce5  1  0.74414758  0.86865350  0.13134650  1
  Ce  Ce6  1  0.74376827  0.26327490  0.13209523  1
  Ce  Ce7  1  0.74376827  0.86790477  0.73672510  1
  Ce  Ce8  1  0.47885126  0.53800609  0.46199391  1
  Ce  Ce9  1  0.47921042  0.92339684  0.46180720  1
  Ce  Ce10  1  0.47921042  0.53819280  0.07660316  1
  Ce  Ce11  1  0.97885126  0.46199391  0.53800609  1
  Ce  Ce12  1  0.97921042  0.07660316  0.53819280  1
  Ce  Ce13  1  0.97921042  0.46180720  0.92339684  1
  Pd  Pd14  1  0.19783066  0.80958756  0.19041244  1
  Pd  Pd15  1  0.19773752  0.38090338  0.19077444  1
  Pd  Pd16  1  0.19773752  0.80922556  0.61909662  1
  Pd  Pd17  1  0.69783066  0.19041244  0.80958756  1
  Pd  Pd18  1  0.69773752  0.61909662  0.80922556  1
  Pd  Pd19  1  0.69773752  0.19077444  0.38090338  1
