# generated using pymatgen
data_NdP3(HO2)6
_symmetry_space_group_name_H-M   'P 1'
_cell_length_a   6.08912324
_cell_length_b   6.79644624
_cell_length_c   6.79649027
_cell_angle_alpha   120.00001353
_cell_angle_beta   90.00000000
_cell_angle_gamma   90.00000000
_symmetry_Int_Tables_number   1
_chemical_formula_structural   NdP3(HO2)6
_chemical_formula_sum   'Nd1 P3 H6 O12'
_cell_volume   243.58577495
_cell_formula_units_Z   1
loop_
 _symmetry_equiv_pos_site_id
 _symmetry_equiv_pos_as_xyz
  1  'x, y, z'
loop_
 _atom_site_type_symbol
 _atom_site_label
 _atom_site_symmetry_multiplicity
 _atom_site_fract_x
 _atom_site_fract_y
 _atom_site_fract_z
 _atom_site_occupancy
  Nd  Nd0  1  0.00000000  0.33332964  0.66666628  1
  P  P1  1  0.50000000  0.44964440  0.39702930  1
  P  P2  1  0.50000000  0.60297777  0.05261798  1
  P  P3  1  0.50000000  0.94739172  0.55036119  1
  H  H4  1  0.12539108  0.84357339  0.73392246  1
  H  H5  1  0.12539108  0.26607414  0.10964618  1
  H  H6  1  0.12539124  0.89035801  0.15643125  1
  H  H7  1  0.87460892  0.84357339  0.73392246  1
  H  H8  1  0.87460892  0.26607414  0.10964618  1
  H  H9  1  0.87460876  0.89035801  0.15643125  1
  O  O10  1  0.50000000  0.71977613  0.56994457  1
  O  O11  1  0.50000000  0.43006163  0.14983325  1
  O  O12  1  0.50000000  0.85017590  0.28023086  1
  O  O13  1  0.28726321  0.35044280  0.41745753  1
  O  O14  1  0.28726193  0.58255016  0.93298719  1
  O  O15  1  0.28726453  0.06701812  0.64956077  1
  O  O16  1  0.71273679  0.35044280  0.41745753  1
  O  O17  1  0.71273807  0.58255016  0.93298719  1
  O  O18  1  0.71273547  0.06701812  0.64956077  1
  O  O19  1  0.00000000  0.75252989  0.73116372  1
  O  O20  1  0.00000000  0.26884063  0.02136716  1
  O  O21  1  0.00000000  0.97863904  0.24747494  1
