# generated using pymatgen
data_Dy3MnAlS7
_symmetry_space_group_name_H-M   'P 1'
_cell_length_a   6.12305968
_cell_length_b   9.53079126
_cell_length_c   9.57563593
_cell_angle_alpha   120.21022429
_cell_angle_beta   90.00000000
_cell_angle_gamma   90.00000000
_symmetry_Int_Tables_number   1
_chemical_formula_structural   Dy3MnAlS7
_chemical_formula_sum   'Dy6 Mn2 Al2 S14'
_cell_volume   482.91624245
_cell_formula_units_Z   2
loop_
 _symmetry_equiv_pos_site_id
 _symmetry_equiv_pos_as_xyz
  1  'x, y, z'
loop_
 _atom_site_type_symbol
 _atom_site_label
 _atom_site_symmetry_multiplicity
 _atom_site_fract_x
 _atom_site_fract_y
 _atom_site_fract_z
 _atom_site_occupancy
  Dy  Dy0  1  0.27363628  0.22432116  0.37490691  1
  Dy  Dy1  1  0.27346628  0.62989334  0.85169856  1
  Dy  Dy2  1  0.27353363  0.15245611  0.77563709  1
  Dy  Dy3  1  0.77363628  0.77567884  0.62509309  1
  Dy  Dy4  1  0.77346628  0.37010666  0.14830144  1
  Dy  Dy5  1  0.77353363  0.84754389  0.22436291  1
  Mn  Mn6  1  0.43414615  0.99989051  0.99987334  1
  Mn  Mn7  1  0.93414615  0.00010949  0.00012666  1
  Al  Al8  1  0.84438683  0.33490723  0.66810992  1
  Al  Al9  1  0.34438683  0.66509277  0.33189008  1
  S  S10  1  0.67835168  0.12587778  0.22078544  1
  S  S11  1  0.67988083  0.78096167  0.90867789  1
  S  S12  1  0.67894120  0.09120902  0.86956670  1
  S  S13  1  0.17835168  0.87412222  0.77921456  1
  S  S14  1  0.17988083  0.21903833  0.09132211  1
  S  S15  1  0.17894120  0.90879098  0.13043330  1
  S  S16  1  0.99921475  0.08978880  0.51814994  1
  S  S17  1  0.00012271  0.48379564  0.57342756  1
  S  S18  1  0.99953993  0.43062749  0.91189994  1
  S  S19  1  0.49921475  0.91021120  0.48185006  1
  S  S20  1  0.50012271  0.51620436  0.42657244  1
  S  S21  1  0.49953993  0.56937251  0.08810006  1
  S  S22  1  0.48177974  0.33540815  0.66703231  1
  S  S23  1  0.98177974  0.66459185  0.33296769  1
