# generated using pymatgen
data_Dy3GaNiS7
_symmetry_space_group_name_H-M   'P 1'
_cell_length_a   6.16238410
_cell_length_b   9.54714437
_cell_length_c   9.54723555
_cell_angle_alpha   119.99813888
_cell_angle_beta   90.00000000
_cell_angle_gamma   90.00000000
_symmetry_Int_Tables_number   1
_chemical_formula_structural   Dy3GaNiS7
_chemical_formula_sum   'Dy6 Ga2 Ni2 S14'
_cell_volume   486.45051558
_cell_formula_units_Z   2
loop_
 _symmetry_equiv_pos_site_id
 _symmetry_equiv_pos_as_xyz
  1  'x, y, z'
loop_
 _atom_site_type_symbol
 _atom_site_label
 _atom_site_symmetry_multiplicity
 _atom_site_fract_x
 _atom_site_fract_y
 _atom_site_fract_z
 _atom_site_occupancy
  Dy  Dy0  1  0.82109206  0.15617664  0.78123209  1
  Dy  Dy1  1  0.82108629  0.21874937  0.37493810  1
  Dy  Dy2  1  0.82105698  0.62508220  0.84383199  1
  Dy  Dy3  1  0.32109206  0.84382336  0.21876791  1
  Dy  Dy4  1  0.32108629  0.78125063  0.62506190  1
  Dy  Dy5  1  0.32105698  0.37491780  0.15616801  1
  Ga  Ga6  1  0.89198540  0.66666595  0.33333758  1
  Ga  Ga7  1  0.39198540  0.33333405  0.66666242  1
  Ni  Ni8  1  0.49750080  -0.00000264  -0.00000076  1
  Ni  Ni9  1  0.99750080  0.00000264  0.00000076  1
  S  S10  1  0.55241315  0.43431862  0.91430827  1
  S  S11  1  0.55238752  0.08572327  0.52002595  1
  S  S12  1  0.55241521  0.47999252  0.56568178  1
  S  S13  1  0.05241315  0.56568138  0.08569173  1
  S  S14  1  0.05238752  0.91427673  0.47997405  1
  S  S15  1  0.05241521  0.52000748  0.43431822  1
  S  S16  1  0.52627592  0.66664406  0.33332063  1
  S  S17  1  0.02627592  0.33335594  0.66667937  1
  S  S18  1  0.73229477  0.86894821  0.76824730  1
  S  S19  1  0.73229844  0.23172268  0.10068366  1
  S  S20  1  0.73229346  0.89929981  0.13106269  1
  S  S21  1  0.23229477  0.13105179  0.23175270  1
  S  S22  1  0.23229844  0.76827732  0.89931634  1
  S  S23  1  0.23229346  0.10070019  0.86893731  1
