# generated using pymatgen
data_BaSO4
_symmetry_space_group_name_H-M   'P 1'
_cell_length_a   6.28510644
_cell_length_b   8.00693413
_cell_length_c   7.07575861
_cell_angle_alpha   90.00000000
_cell_angle_beta   90.00000000
_cell_angle_gamma   90.00000000
_symmetry_Int_Tables_number   1
_chemical_formula_structural   BaSO4
_chemical_formula_sum   'Ba4 S4 O16'
_cell_volume   356.08354197
_cell_formula_units_Z   4
loop_
 _symmetry_equiv_pos_site_id
 _symmetry_equiv_pos_as_xyz
  1  'x, y, z'
loop_
 _atom_site_type_symbol
 _atom_site_label
 _atom_site_symmetry_multiplicity
 _atom_site_fract_x
 _atom_site_fract_y
 _atom_site_fract_z
 _atom_site_occupancy
  Ba  Ba0  1  0.21870580  0.63473653  0.08337150  1
  Ba  Ba1  1  0.78129420  0.86526347  0.58337150  1
  Ba  Ba2  1  0.28129420  0.13473653  0.91662850  1
  Ba  Ba3  1  0.71870580  0.36526347  0.41662850  1
  S  S4  1  0.25621839  0.62299148  0.58581844  1
  S  S5  1  0.74378161  0.87700852  0.08581844  1
  S  S6  1  0.24378161  0.12299148  0.41418156  1
  S  S7  1  0.75621839  0.37700852  0.91418156  1
  O  O8  1  0.29857045  0.47941676  0.71170481  1
  O  O9  1  0.70142955  0.02058324  0.21170481  1
  O  O10  1  0.20142955  0.97941676  0.28829519  1
  O  O11  1  0.79857045  0.52058324  0.78829519  1
  O  O12  1  0.21033185  0.77483669  0.70152033  1
  O  O13  1  0.78966815  0.72516331  0.20152033  1
  O  O14  1  0.28966815  0.27483669  0.29847967  1
  O  O15  1  0.71033185  0.22516331  0.79847967  1
  O  O16  1  0.56913092  0.40630040  0.04168289  1
  O  O17  1  0.43086908  0.09369960  0.54168289  1
  O  O18  1  0.93086908  0.90630040  0.95831711  1
  O  O19  1  0.06913092  0.59369960  0.45831711  1
  O  O20  1  0.44668291  0.65249894  0.46062411  1
  O  O21  1  0.55331709  0.84750106  0.96062411  1
  O  O22  1  0.05331709  0.15249894  0.53937589  1
  O  O23  1  0.94668291  0.34750106  0.03937589  1
