# generated using pymatgen
data_Sm2Co17H3
_symmetry_space_group_name_H-M   'P 1'
_cell_length_a   6.33823685
_cell_length_b   6.33823685
_cell_length_c   6.33823697
_cell_angle_alpha   83.55733353
_cell_angle_beta   83.55733353
_cell_angle_gamma   83.55733123
_symmetry_Int_Tables_number   1
_chemical_formula_structural   Sm2Co17H3
_chemical_formula_sum   'Sm2 Co17 H3'
_cell_volume   250.13876314
_cell_formula_units_Z   1
loop_
 _symmetry_equiv_pos_site_id
 _symmetry_equiv_pos_as_xyz
  1  'x, y, z'
loop_
 _atom_site_type_symbol
 _atom_site_label
 _atom_site_symmetry_multiplicity
 _atom_site_fract_x
 _atom_site_fract_y
 _atom_site_fract_z
 _atom_site_occupancy
  Sm  Sm0  1  0.65507136  0.65507136  0.65507136  1
  Sm  Sm1  1  0.34492864  0.34492864  0.34492864  1
  Co  Co2  1  -0.00000000  -0.00000000  0.50000000  1
  Co  Co3  1  -0.00000000  0.50000000  0.00000000  1
  Co  Co4  1  0.50000000  -0.00000000  0.00000000  1
  Co  Co5  1  0.28261155  0.71738845  0.00000000  1
  Co  Co6  1  0.71738845  1.00000000  0.28261155  1
  Co  Co7  1  0.00000000  0.28261155  0.71738845  1
  Co  Co8  1  0.28261155  0.00000000  0.71738845  1
  Co  Co9  1  1.00000000  0.71738845  0.28261155  1
  Co  Co10  1  0.71738845  0.28261155  -0.00000000  1
  Co  Co11  1  0.34455262  0.34455262  0.85634529  1
  Co  Co12  1  0.34455262  0.85634529  0.34455262  1
  Co  Co13  1  0.85634529  0.34455262  0.34455262  1
  Co  Co14  1  0.65544738  0.65544738  0.14365471  1
  Co  Co15  1  0.65544738  0.14365471  0.65544738  1
  Co  Co16  1  0.14365471  0.65544738  0.65544738  1
  Co  Co17  1  0.90378169  0.90378169  0.90378169  1
  Co  Co18  1  0.09621831  0.09621831  0.09621831  1
  H  H19  1  0.50000000  0.50000000  0.00000000  1
  H  H20  1  0.50000000  -0.00000000  0.50000000  1
  H  H21  1  -0.00000000  0.50000000  0.50000000  1
