# generated using pymatgen
data_PrMnB4
_symmetry_space_group_name_H-M   'P 1'
_cell_length_a   3.54042596
_cell_length_b   6.02927153
_cell_length_c   11.67464354
_cell_angle_alpha   90.00000000
_cell_angle_beta   90.00000000
_cell_angle_gamma   90.00000000
_symmetry_Int_Tables_number   1
_chemical_formula_structural   PrMnB4
_chemical_formula_sum   'Pr4 Mn4 B16'
_cell_volume   249.20915270
_cell_formula_units_Z   4
loop_
 _symmetry_equiv_pos_site_id
 _symmetry_equiv_pos_as_xyz
  1  'x, y, z'
loop_
 _atom_site_type_symbol
 _atom_site_label
 _atom_site_symmetry_multiplicity
 _atom_site_fract_x
 _atom_site_fract_y
 _atom_site_fract_z
 _atom_site_occupancy
  Pr  Pr0  1  0.00000000  0.62354699  0.34852741  1
  Pr  Pr1  1  -0.00000000  0.37645301  0.65147259  1
  Pr  Pr2  1  -0.00000000  0.12354699  0.15147259  1
  Pr  Pr3  1  -0.00000000  0.87645301  0.84852741  1
  Mn  Mn4  1  -0.00000000  0.62132137  0.08062562  1
  Mn  Mn5  1  -0.00000000  0.37867863  0.91937438  1
  Mn  Mn6  1  0.00000000  0.12132137  0.41937438  1
  Mn  Mn7  1  0.00000000  0.87867863  0.58062562  1
  B  B8  1  0.50000000  0.77562423  0.18023932  1
  B  B9  1  0.50000000  0.22437577  0.81976068  1
  B  B10  1  0.50000000  0.27562423  0.31976068  1
  B  B11  1  0.50000000  0.72437577  0.68023932  1
  B  B12  1  0.50000000  0.85568696  0.03338139  1
  B  B13  1  0.50000000  0.14431304  0.96661861  1
  B  B14  1  0.50000000  0.35568696  0.46661861  1
  B  B15  1  0.50000000  0.64431304  0.53338139  1
  B  B16  1  0.50000000  0.88961184  0.45519922  1
  B  B17  1  0.50000000  0.11038816  0.54480078  1
  B  B18  1  0.50000000  0.38961184  0.04480078  1
  B  B19  1  0.50000000  0.61038816  0.95519922  1
  B  B20  1  0.50000000  0.97857369  0.31342491  1
  B  B21  1  0.50000000  0.02142631  0.68657509  1
  B  B22  1  0.50000000  0.47857369  0.18657509  1
  B  B23  1  0.50000000  0.52142631  0.81342491  1
