# generated using pymatgen
data_Al6Ge5
_symmetry_space_group_name_H-M   'P 1'
_cell_length_a   7.72088197
_cell_length_b   7.72088197
_cell_length_c   7.72088140
_cell_angle_alpha   96.57154023
_cell_angle_beta   96.57154023
_cell_angle_gamma   96.57153863
_symmetry_Int_Tables_number   1
_chemical_formula_structural   Al6Ge5
_chemical_formula_sum   'Al12 Ge10'
_cell_volume   450.42007764
_cell_formula_units_Z   2
loop_
 _symmetry_equiv_pos_site_id
 _symmetry_equiv_pos_as_xyz
  1  'x, y, z'
loop_
 _atom_site_type_symbol
 _atom_site_label
 _atom_site_symmetry_multiplicity
 _atom_site_fract_x
 _atom_site_fract_y
 _atom_site_fract_z
 _atom_site_occupancy
  Al  Al0  1  0.92843943  0.01612928  0.33134986  1
  Al  Al1  1  0.01612928  0.33134986  0.92843943  1
  Al  Al2  1  0.33134986  0.92843943  0.01612928  1
  Al  Al3  1  0.42843943  0.83134986  0.51612928  1
  Al  Al4  1  0.83134986  0.51612928  0.42843943  1
  Al  Al5  1  0.51612928  0.42843943  0.83134986  1
  Al  Al6  1  0.07156057  0.98387072  0.66865014  1
  Al  Al7  1  0.98387072  0.66865014  0.07156057  1
  Al  Al8  1  0.66865014  0.07156057  0.98387072  1
  Al  Al9  1  0.57156057  0.16865014  0.48387072  1
  Al  Al10  1  0.16865014  0.48387072  0.57156057  1
  Al  Al11  1  0.48387072  0.57156057  0.16865014  1
  Ge  Ge12  1  0.60246899  0.89753101  0.25000000  1
  Ge  Ge13  1  0.89753101  0.25000000  0.60246899  1
  Ge  Ge14  1  0.25000000  0.60246899  0.89753101  1
  Ge  Ge15  1  0.10246899  0.75000000  0.39753101  1
  Ge  Ge16  1  0.75000000  0.39753101  0.10246899  1
  Ge  Ge17  1  0.39753101  0.10246899  0.75000000  1
  Ge  Ge18  1  0.35703093  0.35703093  0.35703093  1
  Ge  Ge19  1  0.85703093  0.85703093  0.85703093  1
  Ge  Ge20  1  0.64296907  0.64296907  0.64296907  1
  Ge  Ge21  1  0.14296907  0.14296907  0.14296907  1
