# generated using pymatgen
data_YbAlB4
_symmetry_space_group_name_H-M   'P 1'
_cell_length_a   3.47593358
_cell_length_b   6.00323913
_cell_length_c   11.61712124
_cell_angle_alpha   90.00000000
_cell_angle_beta   90.00000000
_cell_angle_gamma   90.00000000
_symmetry_Int_Tables_number   1
_chemical_formula_structural   YbAlB4
_chemical_formula_sum   'Yb4 Al4 B16'
_cell_volume   242.41284810
_cell_formula_units_Z   4
loop_
 _symmetry_equiv_pos_site_id
 _symmetry_equiv_pos_as_xyz
  1  'x, y, z'
loop_
 _atom_site_type_symbol
 _atom_site_label
 _atom_site_symmetry_multiplicity
 _atom_site_fract_x
 _atom_site_fract_y
 _atom_site_fract_z
 _atom_site_occupancy
  Yb  Yb0  1  0.00000000  0.62830201  0.34957779  1
  Yb  Yb1  1  0.00000000  0.37169799  0.65042221  1
  Yb  Yb2  1  0.00000000  0.12830201  0.15042221  1
  Yb  Yb3  1  -0.00000000  0.87169799  0.84957779  1
  Al  Al4  1  0.00000000  0.63978945  0.09131095  1
  Al  Al5  1  0.00000000  0.36021055  0.90868905  1
  Al  Al6  1  -0.00000000  0.13978945  0.40868905  1
  Al  Al7  1  -0.00000000  0.86021055  0.59131095  1
  B  B8  1  0.50000000  0.78963724  0.18722473  1
  B  B9  1  0.50000000  0.21036276  0.81277527  1
  B  B10  1  0.50000000  0.28963724  0.31277527  1
  B  B11  1  0.50000000  0.71036276  0.68722473  1
  B  B12  1  0.50000000  0.86558177  0.03089454  1
  B  B13  1  0.50000000  0.13441823  0.96910546  1
  B  B14  1  0.50000000  0.36558177  0.46910546  1
  B  B15  1  0.50000000  0.63441823  0.53089454  1
  B  B16  1  0.50000000  0.88634148  0.45304977  1
  B  B17  1  0.50000000  0.11365852  0.54695023  1
  B  B18  1  0.50000000  0.38634148  0.04695023  1
  B  B19  1  0.50000000  0.61365852  0.95304977  1
  B  B20  1  0.50000000  0.97437461  0.30751479  1
  B  B21  1  0.50000000  0.02562539  0.69248521  1
  B  B22  1  0.50000000  0.47437461  0.19248521  1
  B  B23  1  0.50000000  0.52562539  0.80751479  1
