# generated using pymatgen
data_La3AlCoS7
_symmetry_space_group_name_H-M   'P 1'
_cell_length_a   5.98441099
_cell_length_b   10.15666998
_cell_length_c   10.15606558
_cell_angle_alpha   119.97388845
_cell_angle_beta   90.00000000
_cell_angle_gamma   90.00000000
_symmetry_Int_Tables_number   1
_chemical_formula_structural   La3AlCoS7
_chemical_formula_sum   'La6 Al2 Co2 S14'
_cell_volume   534.74051708
_cell_formula_units_Z   2
loop_
 _symmetry_equiv_pos_site_id
 _symmetry_equiv_pos_as_xyz
  1  'x, y, z'
loop_
 _atom_site_type_symbol
 _atom_site_label
 _atom_site_symmetry_multiplicity
 _atom_site_fract_x
 _atom_site_fract_y
 _atom_site_fract_z
 _atom_site_occupancy
  La  La0  1  0.25732032  0.23086747  0.37091787  1
  La  La1  1  0.25731695  0.62911378  0.86001080  1
  La  La2  1  0.25740544  0.13990770  0.76922660  1
  La  La3  1  0.75732032  0.76913253  0.62908213  1
  La  La4  1  0.75731695  0.37088622  0.13998920  1
  La  La5  1  0.75740544  0.86009230  0.23077340  1
  Al  Al6  1  0.83659044  0.33327003  0.66663947  1
  Al  Al7  1  0.33659044  0.66672997  0.33336053  1
  Co  Co8  1  0.47296811  0.99995880  0.00008878  1
  Co  Co9  1  0.97296811  0.00004120  0.99991122  1
  S  S10  1  0.71529997  0.13593948  0.21994713  1
  S  S11  1  0.71539508  0.78005038  0.91594017  1
  S  S12  1  0.71537026  0.08385988  0.86435171  1
  S  S13  1  0.21529997  0.86406052  0.78005287  1
  S  S14  1  0.21539508  0.21994962  0.08405983  1
  S  S15  1  0.21537026  0.91614012  0.13564829  1
  S  S16  1  0.98036428  0.09953630  0.51833134  1
  S  S17  1  0.98048356  0.48180692  0.58133342  1
  S  S18  1  0.98049270  0.41840373  0.90035978  1
  S  S19  1  0.48036428  0.90046370  0.48166866  1
  S  S20  1  0.48048356  0.51819308  0.41866658  1
  S  S21  1  0.48049270  0.58159627  0.09964022  1
  S  S22  1  0.46699288  0.33336656  0.66677655  1
  S  S23  1  0.96699288  0.66663344  0.33322345  1
