# generated using pymatgen
data_CuPb3(ClO2)2
_symmetry_space_group_name_H-M   'P 1'
_cell_length_a   5.56674277
_cell_length_b   7.01357936
_cell_length_c   10.39222926
_cell_angle_alpha   102.85686477
_cell_angle_beta   90.00000000
_cell_angle_gamma   90.00000000
_symmetry_Int_Tables_number   1
_chemical_formula_structural   CuPb3(ClO2)2
_chemical_formula_sum   'Cu2 Pb6 Cl4 O8'
_cell_volume   395.56929537
_cell_formula_units_Z   2
loop_
 _symmetry_equiv_pos_site_id
 _symmetry_equiv_pos_as_xyz
  1  'x, y, z'
loop_
 _atom_site_type_symbol
 _atom_site_label
 _atom_site_symmetry_multiplicity
 _atom_site_fract_x
 _atom_site_fract_y
 _atom_site_fract_z
 _atom_site_occupancy
  Cu  Cu0  1  0.50000000  -0.00000000  0.50000000  1
  Cu  Cu1  1  -0.00000000  -0.00000000  0.50000000  1
  Pb  Pb2  1  0.75000000  0.35986842  0.04392313  1
  Pb  Pb3  1  0.25000000  0.64013158  0.95607687  1
  Pb  Pb4  1  0.75000000  0.89166449  0.18818427  1
  Pb  Pb5  1  0.25000000  0.10833551  0.81181573  1
  Pb  Pb6  1  0.75000000  0.44762429  0.69203188  1
  Pb  Pb7  1  0.25000000  0.55237571  0.30796812  1
  Cl  Cl8  1  0.75000000  0.87620545  0.88919758  1
  Cl  Cl9  1  0.25000000  0.12379455  0.11080242  1
  Cl  Cl10  1  0.75000000  0.34252144  0.36119853  1
  Cl  Cl11  1  0.25000000  0.65747856  0.63880147  1
  O  O12  1  0.50133782  0.38238525  0.86719265  1
  O  O13  1  0.00133782  0.61761475  0.13280735  1
  O  O14  1  0.49866218  0.61761475  0.13280735  1
  O  O15  1  0.99866218  0.38238525  0.86719265  1
  O  O16  1  0.75000000  0.09976770  0.61418538  1
  O  O17  1  0.25000000  0.90023230  0.38581462  1
  O  O18  1  0.75000000  0.85428841  0.40899139  1
  O  O19  1  0.25000000  0.14571159  0.59100861  1
