# generated using pymatgen
data_Eu(SbS2)2
_symmetry_space_group_name_H-M   'P 1'
_cell_length_a   4.00211270
_cell_length_b   11.47656113
_cell_length_c   14.33088226
_cell_angle_alpha   90.00000000
_cell_angle_beta   90.00000000
_cell_angle_gamma   90.00000000
_symmetry_Int_Tables_number   1
_chemical_formula_structural   Eu(SbS2)2
_chemical_formula_sum   'Eu4 Sb8 S16'
_cell_volume   658.22445939
_cell_formula_units_Z   4
loop_
 _symmetry_equiv_pos_site_id
 _symmetry_equiv_pos_as_xyz
  1  'x, y, z'
loop_
 _atom_site_type_symbol
 _atom_site_label
 _atom_site_symmetry_multiplicity
 _atom_site_fract_x
 _atom_site_fract_y
 _atom_site_fract_z
 _atom_site_occupancy
  Eu  Eu0  1  0.75000000  0.23684534  0.15183421  1
  Eu  Eu1  1  0.75000000  0.73684534  0.34816579  1
  Eu  Eu2  1  0.25000000  0.76315466  0.84816579  1
  Eu  Eu3  1  0.25000000  0.26315466  0.65183421  1
  Sb  Sb4  1  0.75000000  0.43177490  0.89081968  1
  Sb  Sb5  1  0.75000000  0.93177490  0.60918032  1
  Sb  Sb6  1  0.25000000  0.56822510  0.10918032  1
  Sb  Sb7  1  0.25000000  0.06822510  0.39081968  1
  Sb  Sb8  1  0.75000000  0.39089749  0.40564496  1
  Sb  Sb9  1  0.75000000  0.89089749  0.09435504  1
  Sb  Sb10  1  0.25000000  0.60910251  0.59435504  1
  Sb  Sb11  1  0.25000000  0.10910251  0.90564496  1
  S  S12  1  0.75000000  0.17537460  0.51096433  1
  S  S13  1  0.75000000  0.67537460  0.98903567  1
  S  S14  1  0.25000000  0.82462540  0.48903567  1
  S  S15  1  0.25000000  0.32462540  0.01096433  1
  S  S16  1  0.75000000  0.23896537  0.80211425  1
  S  S17  1  0.75000000  0.73896537  0.69788575  1
  S  S18  1  0.25000000  0.76103463  0.19788575  1
  S  S19  1  0.25000000  0.26103463  0.30211425  1
  S  S20  1  0.75000000  0.44357487  0.58707925  1
  S  S21  1  0.75000000  0.94357487  0.91292075  1
  S  S22  1  0.25000000  0.55642513  0.41292075  1
  S  S23  1  0.25000000  0.05642513  0.08707925  1
  S  S24  1  0.75000000  0.49195686  0.21364715  1
  S  S25  1  0.75000000  0.99195686  0.28635285  1
  S  S26  1  0.25000000  0.50804314  0.78635285  1
  S  S27  1  0.25000000  0.00804314  0.71364715  1
