# generated using pymatgen
data_Gd3AlCdS7
_symmetry_space_group_name_H-M   'P 1'
_cell_length_a   6.25245937
_cell_length_b   9.84794694
_cell_length_c   9.84745023
_cell_angle_alpha   119.99837613
_cell_angle_beta   90.00000000
_cell_angle_gamma   90.00000000
_symmetry_Int_Tables_number   1
_chemical_formula_structural   Gd3AlCdS7
_chemical_formula_sum   'Gd6 Al2 Cd2 S14'
_cell_volume   525.11945756
_cell_formula_units_Z   2
loop_
 _symmetry_equiv_pos_site_id
 _symmetry_equiv_pos_as_xyz
  1  'x, y, z'
loop_
 _atom_site_type_symbol
 _atom_site_label
 _atom_site_symmetry_multiplicity
 _atom_site_fract_x
 _atom_site_fract_y
 _atom_site_fract_z
 _atom_site_occupancy
  Gd  Gd0  1  0.28020371  0.23366074  0.38081828  1
  Gd  Gd1  1  0.28020922  0.61916132  0.85283745  1
  Gd  Gd2  1  0.28020387  0.14715143  0.76631651  1
  Gd  Gd3  1  0.78020371  0.76633926  0.61918172  1
  Gd  Gd4  1  0.78020922  0.38083868  0.14716255  1
  Gd  Gd5  1  0.78020387  0.85284857  0.23368349  1
  Al  Al6  1  0.85730670  0.33333571  0.66666893  1
  Al  Al7  1  0.35730670  0.66666429  0.33333107  1
  Cd  Cd8  1  0.47655349  0.99999777  -0.00000016  1
  Cd  Cd9  1  0.97655349  0.00000223  0.00000016  1
  S  S10  1  0.70353624  0.15020154  0.25824027  1
  S  S11  1  0.70353808  0.74176328  0.89196121  1
  S  S12  1  0.70353746  0.10804311  0.84980017  1
  S  S13  1  0.20353624  0.84979846  0.74175973  1
  S  S14  1  0.20353808  0.25823672  0.10803879  1
  S  S15  1  0.20353746  0.89195689  0.15019983  1
  S  S16  1  0.01317626  0.09672266  0.52013229  1
  S  S17  1  0.01317556  0.47985452  0.57659540  1
  S  S18  1  0.01317605  0.42339688  0.90326408  1
  S  S19  1  0.51317626  0.90327734  0.47986771  1
  S  S20  1  0.51317556  0.52014548  0.42340460  1
  S  S21  1  0.51317605  0.57660312  0.09673592  1
  S  S22  1  0.49338336  0.33333036  0.66666452  1
  S  S23  1  0.99338336  0.66666964  0.33333548  1
