# generated using pymatgen
data_Co3Mo3C
_symmetry_space_group_name_H-M   'P 1'
_cell_length_a   7.82472165
_cell_length_b   7.82472165
_cell_length_c   7.82472165
_cell_angle_alpha   60.00000000
_cell_angle_beta   60.00000000
_cell_angle_gamma   60.00000000
_symmetry_Int_Tables_number   1
_chemical_formula_structural   Co3Mo3C
_chemical_formula_sum   'Co12 Mo12 C4'
_cell_volume   338.75966449
_cell_formula_units_Z   4
loop_
 _symmetry_equiv_pos_site_id
 _symmetry_equiv_pos_as_xyz
  1  'x, y, z'
loop_
 _atom_site_type_symbol
 _atom_site_label
 _atom_site_symmetry_multiplicity
 _atom_site_fract_x
 _atom_site_fract_y
 _atom_site_fract_z
 _atom_site_occupancy
  Co  Co0  1  0.00000000  -0.00000000  0.50000000  1
  Co  Co1  1  0.00000000  0.50000000  -0.00000000  1
  Co  Co2  1  0.50000000  -0.00000000  -0.00000000  1
  Co  Co3  1  0.00000000  -0.00000000  -0.00000000  1
  Co  Co4  1  0.20465194  0.20465194  0.88604419  1
  Co  Co5  1  0.20465194  0.88604419  0.20465194  1
  Co  Co6  1  0.88604419  0.20465194  0.20465194  1
  Co  Co7  1  0.20465194  0.20465194  0.20465194  1
  Co  Co8  1  0.79534806  0.79534806  0.11395581  1
  Co  Co9  1  0.79534806  0.11395581  0.79534806  1
  Co  Co10  1  0.11395581  0.79534806  0.79534806  1
  Co  Co11  1  0.79534806  0.79534806  0.79534806  1
  Mo  Mo12  1  0.42270512  0.82729488  0.82729488  1
  Mo  Mo13  1  0.82729488  0.42270512  0.42270512  1
  Mo  Mo14  1  0.82729488  0.42270512  0.82729488  1
  Mo  Mo15  1  0.42270512  0.82729488  0.42270512  1
  Mo  Mo16  1  0.82729488  0.82729488  0.42270512  1
  Mo  Mo17  1  0.42270512  0.42270512  0.82729488  1
  Mo  Mo18  1  0.57729488  0.17270512  0.17270512  1
  Mo  Mo19  1  0.17270512  0.57729488  0.57729488  1
  Mo  Mo20  1  0.17270512  0.57729488  0.17270512  1
  Mo  Mo21  1  0.57729488  0.17270512  0.57729488  1
  Mo  Mo22  1  0.17270512  0.17270512  0.57729488  1
  Mo  Mo23  1  0.57729488  0.57729488  0.17270512  1
  C  C24  1  0.50000000  0.50000000  -0.00000000  1
  C  C25  1  0.50000000  -0.00000000  0.50000000  1
  C  C26  1  0.00000000  0.50000000  0.50000000  1
  C  C27  1  0.50000000  0.50000000  0.50000000  1
