# generated using pymatgen
data_Sr2LiH2N
_symmetry_space_group_name_H-M   'P 1'
_cell_length_a   3.84422105
_cell_length_b   7.29510642
_cell_length_c   14.26607889
_cell_angle_alpha   90.00000000
_cell_angle_beta   90.00000000
_cell_angle_gamma   90.00000000
_symmetry_Int_Tables_number   1
_chemical_formula_structural   Sr2LiH2N
_chemical_formula_sum   'Sr8 Li4 H8 N4'
_cell_volume   400.07794010
_cell_formula_units_Z   4
loop_
 _symmetry_equiv_pos_site_id
 _symmetry_equiv_pos_as_xyz
  1  'x, y, z'
loop_
 _atom_site_type_symbol
 _atom_site_label
 _atom_site_symmetry_multiplicity
 _atom_site_fract_x
 _atom_site_fract_y
 _atom_site_fract_z
 _atom_site_occupancy
  Sr  Sr0  1  0.75000000  0.14068321  0.39803308  1
  Sr  Sr1  1  0.75000000  0.64068321  0.10196692  1
  Sr  Sr2  1  0.25000000  0.85931679  0.60196692  1
  Sr  Sr3  1  0.25000000  0.35931679  0.89803308  1
  Sr  Sr4  1  0.75000000  0.11357195  0.08780016  1
  Sr  Sr5  1  0.75000000  0.61357195  0.41219984  1
  Sr  Sr6  1  0.25000000  0.88642805  0.91219984  1
  Sr  Sr7  1  0.25000000  0.38642805  0.58780016  1
  Li  Li8  1  0.75000000  0.11723418  0.76929306  1
  Li  Li9  1  0.75000000  0.61723418  0.73070694  1
  Li  Li10  1  0.25000000  0.88276582  0.23070694  1
  Li  Li11  1  0.25000000  0.38276582  0.26929306  1
  H  H12  1  0.75000000  0.11973202  0.57846376  1
  H  H13  1  0.75000000  0.61973202  0.92153624  1
  H  H14  1  0.25000000  0.88026798  0.42153624  1
  H  H15  1  0.25000000  0.38026798  0.07846376  1
  H  H16  1  0.75000000  0.38529341  0.23135705  1
  H  H17  1  0.75000000  0.88529341  0.26864295  1
  H  H18  1  0.25000000  0.61470659  0.76864295  1
  H  H19  1  0.25000000  0.11470659  0.73135705  1
  N  N20  1  0.75000000  0.13200102  0.90652774  1
  N  N21  1  0.75000000  0.63200102  0.59347226  1
  N  N22  1  0.25000000  0.86799898  0.09347226  1
  N  N23  1  0.25000000  0.36799898  0.40652774  1
