# generated using pymatgen
data_BaAl5O9
_symmetry_space_group_name_H-M   'P 1'
_cell_length_a   5.70610695
_cell_length_b   5.70610695
_cell_length_c   13.49569674
_cell_angle_alpha   90.00000000
_cell_angle_beta   90.00000000
_cell_angle_gamma   119.97453322
_symmetry_Int_Tables_number   1
_chemical_formula_structural   BaAl5O9
_chemical_formula_sum   'Ba2 Al10 O18'
_cell_volume   380.64238724
_cell_formula_units_Z   2
loop_
 _symmetry_equiv_pos_site_id
 _symmetry_equiv_pos_as_xyz
  1  'x, y, z'
loop_
 _atom_site_type_symbol
 _atom_site_label
 _atom_site_symmetry_multiplicity
 _atom_site_fract_x
 _atom_site_fract_y
 _atom_site_fract_z
 _atom_site_occupancy
  Ba  Ba0  1  0.66679965  0.33320035  0.75000000  1
  Ba  Ba1  1  0.33320035  0.66679965  0.25000000  1
  Al  Al2  1  0.50000000  -0.00000000  0.50000000  1
  Al  Al3  1  0.50000000  0.50000000  0.50000000  1
  Al  Al4  1  0.00000000  0.50000000  0.50000000  1
  Al  Al5  1  0.50000000  -0.00000000  -0.00000000  1
  Al  Al6  1  0.50000000  0.50000000  -0.00000000  1
  Al  Al7  1  0.00000000  0.50000000  -0.00000000  1
  Al  Al8  1  -0.00029557  0.00029557  0.87949446  1
  Al  Al9  1  0.00029557  -0.00029557  0.12050554  1
  Al  Al10  1  0.00029557  -0.00029557  0.37949446  1
  Al  Al11  1  -0.00029557  0.00029557  0.62050554  1
  O  O12  1  0.00004463  0.99995537  0.75000000  1
  O  O13  1  0.99995537  0.00004463  0.25000000  1
  O  O14  1  0.82813715  0.65654899  0.91979291  1
  O  O15  1  0.82829855  0.17170145  0.91972447  1
  O  O16  1  0.34345101  0.17186285  0.91979291  1
  O  O17  1  0.17186285  0.34345101  0.08020709  1
  O  O18  1  0.17170145  0.82829855  0.08027553  1
  O  O19  1  0.65654899  0.82813715  0.08020709  1
  O  O20  1  0.17186285  0.34345101  0.41979291  1
  O  O21  1  0.17170145  0.82829855  0.41972447  1
  O  O22  1  0.65654899  0.82813715  0.41979291  1
  O  O23  1  0.82813715  0.65654899  0.58020709  1
  O  O24  1  0.82829855  0.17170145  0.58027553  1
  O  O25  1  0.34345101  0.17186285  0.58020709  1
  O  O26  1  0.66663016  0.33336984  0.06633381  1
  O  O27  1  0.33336984  0.66663016  0.93366619  1
  O  O28  1  0.33336984  0.66663016  0.56633381  1
  O  O29  1  0.66663016  0.33336984  0.43366619  1
