# generated using pymatgen
data_Mn(BH4)2
_symmetry_space_group_name_H-M   'P 1'
_cell_length_a   7.03568026
_cell_length_b   7.03568026
_cell_length_c   8.36225984
_cell_angle_alpha   115.43837746
_cell_angle_beta   115.43837746
_cell_angle_gamma   88.79325983
_symmetry_Int_Tables_number   1
_chemical_formula_structural   Mn(BH4)2
_chemical_formula_sum   'Mn4 B8 H32'
_cell_volume   330.71549020
_cell_formula_units_Z   4
loop_
 _symmetry_equiv_pos_site_id
 _symmetry_equiv_pos_as_xyz
  1  'x, y, z'
loop_
 _atom_site_type_symbol
 _atom_site_label
 _atom_site_symmetry_multiplicity
 _atom_site_fract_x
 _atom_site_fract_y
 _atom_site_fract_z
 _atom_site_occupancy
  Mn  Mn0  1  0.40512727  0.65512727  0.31025453  1
  Mn  Mn1  1  0.84487273  0.09487273  0.18974547  1
  Mn  Mn2  1  0.59487273  0.34487273  0.68974547  1
  Mn  Mn3  1  0.15512727  0.90512727  0.81025453  1
  B  B4  1  0.25982607  0.84614307  0.55032015  1
  B  B5  1  0.79049408  0.70417708  0.55032015  1
  B  B6  1  0.65385693  0.24017393  0.94967985  1
  B  B7  1  0.79582292  0.70950592  0.94967985  1
  B  B8  1  0.74017393  0.15385693  0.44967985  1
  B  B9  1  0.20950592  0.29582292  0.44967985  1
  B  B10  1  0.34614307  0.75982607  0.05032015  1
  B  B11  1  0.20417708  0.29049408  0.05032015  1
  H  H12  1  0.17506042  -0.00279450  0.61095365  1
  H  H13  1  0.93589323  0.61374815  0.61095365  1
  H  H14  1  0.50279450  0.32493958  0.88904635  1
  H  H15  1  0.88625185  0.56410677  0.88904635  1
  H  H16  1  0.82493958  0.00279450  0.38904635  1
  H  H17  1  0.06410677  0.38625185  0.38904635  1
  H  H18  1  0.49720550  0.67506042  0.11095365  1
  H  H19  1  0.11374815  0.43589323  0.11095365  1
  H  H20  1  0.84596781  0.75443930  0.12364607  1
  H  H21  1  0.77767827  0.36920677  0.12364607  1
  H  H22  1  0.74556070  0.65403219  0.37635393  1
  H  H23  1  0.13079323  0.72232173  0.37635393  1
  H  H24  1  0.15403219  0.24556070  0.87635393  1
  H  H25  1  0.22232173  0.63079323  0.87635393  1
  H  H26  1  0.25443930  0.34596781  0.62364607  1
  H  H27  1  0.86920677  0.27767827  0.62364607  1
  H  H28  1  0.59825733  0.66144709  0.84828449  1
  H  H29  1  0.75002716  0.18683740  0.84828449  1
  H  H30  1  0.83855291  0.90174267  0.65171551  1
  H  H31  1  0.31316260  0.74997284  0.65171551  1
  H  H32  1  0.40174267  0.33855291  0.15171551  1
  H  H33  1  0.24997284  0.81316260  0.15171551  1
  H  H34  1  0.16144709  0.09825733  0.34828449  1
  H  H35  1  0.68683740  0.25002716  0.34828449  1
  H  H36  1  0.42552934  0.92717454  0.56587342  1
  H  H37  1  0.64034408  0.63869888  0.56587342  1
  H  H38  1  0.57282546  0.07447066  0.93412658  1
  H  H39  1  0.86130112  0.85965592  0.93412658  1
  H  H40  1  0.57447066  0.07282546  0.43412658  1
  H  H41  1  0.35965592  0.36130112  0.43412658  1
  H  H42  1  0.42717454  0.92552934  0.06587342  1
  H  H43  1  0.13869888  0.14034408  0.06587342  1
