# generated using pymatgen
data_Ba7Ge39
_symmetry_space_group_name_H-M   'P 1'
_cell_length_a   11.38647775
_cell_length_b   13.10779681
_cell_length_c   15.91668668
_cell_angle_alpha   90.00000000
_cell_angle_beta   110.95839558
_cell_angle_gamma   90.00000000
_symmetry_Int_Tables_number   1
_chemical_formula_structural   Ba7Ge39
_chemical_formula_sum   'Ba14 Ge78'
_cell_volume   2218.42336042
_cell_formula_units_Z   2
loop_
 _symmetry_equiv_pos_site_id
 _symmetry_equiv_pos_as_xyz
  1  'x, y, z'
loop_
 _atom_site_type_symbol
 _atom_site_label
 _atom_site_symmetry_multiplicity
 _atom_site_fract_x
 _atom_site_fract_y
 _atom_site_fract_z
 _atom_site_occupancy
  Ba  Ba0  1  0.71208514  0.74723390  0.00000000  1
  Ba  Ba1  1  0.28791486  0.24723390  0.00000000  1
  Ba  Ba2  1  0.14073804  0.75895634  0.85761207  1
  Ba  Ba3  1  0.28312597  0.75895634  0.14238793  1
  Ba  Ba4  1  0.85926196  0.25895634  0.14238793  1
  Ba  Ba5  1  0.71687403  0.25895634  0.85761207  1
  Ba  Ba6  1  0.85062137  0.77040263  0.28471267  1
  Ba  Ba7  1  0.56590870  0.77040263  0.71528733  1
  Ba  Ba8  1  0.14937863  0.27040263  0.71528733  1
  Ba  Ba9  1  0.43409130  0.27040263  0.28471267  1
  Ba  Ba10  1  0.99247812  0.75453311  0.57225026  1
  Ba  Ba11  1  0.42022786  0.75453311  0.42774974  1
  Ba  Ba12  1  0.00752188  0.25453311  0.42774974  1
  Ba  Ba13  1  0.57977214  0.25453311  0.57225026  1
  Ge  Ge14  1  0.43364028  0.85482268  0.00000000  1
  Ge  Ge15  1  0.56635972  0.35482268  0.00000000  1
  Ge  Ge16  1  0.96871714  0.41852290  0.00000000  1
  Ge  Ge17  1  0.03128286  0.91852290  0.00000000  1
  Ge  Ge18  1  0.41947097  0.65401401  0.00000000  1
  Ge  Ge19  1  0.58052903  0.15401401  0.00000000  1
  Ge  Ge20  1  0.74977175  0.47611839  0.00000000  1
  Ge  Ge21  1  0.25022825  0.97611839  0.00000000  1
  Ge  Ge22  1  0.95175839  0.10046136  0.00000000  1
  Ge  Ge23  1  0.04824161  0.60046136  0.00000000  1
  Ge  Ge24  1  0.00130481  0.85760375  0.14419273  1
  Ge  Ge25  1  0.85711208  0.85760375  0.85580727  1
  Ge  Ge26  1  0.99869519  0.35760375  0.85580727  1
  Ge  Ge27  1  0.14288792  0.35760375  0.14419273  1
  Ge  Ge28  1  0.27338815  0.86261567  0.71233062  1
  Ge  Ge29  1  0.56105754  0.86261567  0.28766938  1
  Ge  Ge30  1  0.72661185  0.36261567  0.28766938  1
  Ge  Ge31  1  0.43894246  0.36261567  0.71233062  1
  Ge  Ge32  1  0.10742680  0.54397597  0.71753937  1
  Ge  Ge33  1  0.38988743  0.54397597  0.28246063  1
  Ge  Ge34  1  0.89257320  0.04397597  0.28246063  1
  Ge  Ge35  1  0.61011257  0.04397597  0.71753937  1
  Ge  Ge36  1  0.39509033  0.41738937  0.85618703  1
  Ge  Ge37  1  0.53890330  0.41738937  0.14381297  1
  Ge  Ge38  1  0.60490967  0.91738937  0.14381297  1
  Ge  Ge39  1  0.46109670  0.91738937  0.85618703  1
  Ge  Ge40  1  0.14248560  0.85776697  0.42730223  1
  Ge  Ge41  1  0.71518337  0.85776697  0.57269777  1
  Ge  Ge42  1  0.85751440  0.35776697  0.57269777  1
  Ge  Ge43  1  0.28481663  0.35776697  0.42730223  1
  Ge  Ge44  1  0.99876426  0.65732098  0.14181697  1
  Ge  Ge45  1  0.85694729  0.65732098  0.85818303  1
  Ge  Ge46  1  0.00123574  0.15732098  0.85818303  1
  Ge  Ge47  1  0.14305271  0.15732098  0.14181697  1
  Ge  Ge48  1  0.11271000  0.09833647  0.28549513  1
  Ge  Ge49  1  0.82721487  0.09833647  0.71450487  1
  Ge  Ge50  1  0.88729000  0.59833647  0.71450487  1
  Ge  Ge51  1  0.17278513  0.59833647  0.28549513  1
  Ge  Ge52  1  0.39544184  0.09994007  0.85694831  1
  Ge  Ge53  1  0.53849353  0.09994007  0.14305169  1
  Ge  Ge54  1  0.60455816  0.59994007  0.14305169  1
  Ge  Ge55  1  0.46150647  0.59994007  0.85694831  1
  Ge  Ge56  1  0.09711715  0.41594858  0.28641013  1
  Ge  Ge57  1  0.81070702  0.41594858  0.71358987  1
  Ge  Ge58  1  0.90288285  0.91594858  0.71358987  1
  Ge  Ge59  1  0.18929298  0.91594858  0.28641013  1
  Ge  Ge60  1  0.25388165  0.41785800  0.57099197  1
  Ge  Ge61  1  0.68288968  0.41785800  0.42900803  1
  Ge  Ge62  1  0.74611835  0.91785800  0.42900803  1
  Ge  Ge63  1  0.31711032  0.91785800  0.57099197  1
  Ge  Ge64  1  0.28847708  0.66179924  0.71397459  1
  Ge  Ge65  1  0.57450249  0.66179924  0.28602541  1
  Ge  Ge66  1  0.71152292  0.16179924  0.28602541  1
  Ge  Ge67  1  0.42549751  0.16179924  0.71397459  1
  Ge  Ge68  1  0.13834835  0.65760846  0.42865415  1
  Ge  Ge69  1  0.70969420  0.65760846  0.57134585  1
  Ge  Ge70  1  0.86165165  0.15760846  0.57134585  1
  Ge  Ge71  1  0.29030580  0.15760846  0.42865415  1
  Ge  Ge72  1  0.24891586  0.10010864  0.57298227  1
  Ge  Ge73  1  0.67593359  0.10010864  0.42701773  1
  Ge  Ge74  1  0.75108414  0.60010864  0.42701773  1
  Ge  Ge75  1  0.32406641  0.60010864  0.57298227  1
  Ge  Ge76  1  0.02656969  0.47517929  0.55345122  1
  Ge  Ge77  1  0.47311847  0.47517929  0.44654878  1
  Ge  Ge78  1  0.97343031  0.97517929  0.44654878  1
  Ge  Ge79  1  0.52688153  0.97517929  0.55345122  1
  Ge  Ge80  1  0.83521844  0.53478117  0.17143391  1
  Ge  Ge81  1  0.66378453  0.53478117  0.82856609  1
  Ge  Ge82  1  0.16478156  0.03478117  0.82856609  1
  Ge  Ge83  1  0.33621547  0.03478117  0.17143391  1
  Ge  Ge84  1  0.94215737  0.52845594  0.38115002  1
  Ge  Ge85  1  0.56100735  0.52845594  0.61884998  1
  Ge  Ge86  1  0.05784263  0.02845594  0.61884998  1
  Ge  Ge87  1  0.43899265  0.02845594  0.38115002  1
  Ge  Ge88  1  0.19188023  0.48253273  0.88490042  1
  Ge  Ge89  1  0.30697982  0.48253273  0.11509958  1
  Ge  Ge90  1  0.80811977  0.98253273  0.11509958  1
  Ge  Ge91  1  0.69302018  0.98253273  0.88490042  1
