# generated using pymatgen
data_Ga2RhC4Cl7O4
_symmetry_space_group_name_H-M   'P 1'
_cell_length_a   10.03503582
_cell_length_b   10.04579199
_cell_length_c   10.61041985
_cell_angle_alpha   76.40843406
_cell_angle_beta   76.82887554
_cell_angle_gamma   65.69231317
_symmetry_Int_Tables_number   1
_chemical_formula_structural   Ga2RhC4Cl7O4
_chemical_formula_sum   'Ga4 Rh2 C8 Cl14 O8'
_cell_volume   937.07259317
_cell_formula_units_Z   2
loop_
 _symmetry_equiv_pos_site_id
 _symmetry_equiv_pos_as_xyz
  1  'x, y, z'
loop_
 _atom_site_type_symbol
 _atom_site_label
 _atom_site_symmetry_multiplicity
 _atom_site_fract_x
 _atom_site_fract_y
 _atom_site_fract_z
 _atom_site_occupancy
  Ga  Ga0  1  0.80497583  0.16690939  0.17583112  1
  Ga  Ga1  1  0.56701461  0.70406350  0.57780112  1
  Ga  Ga2  1  0.19502417  0.83309061  0.82416888  1
  Ga  Ga3  1  0.43298539  0.29593650  0.42219888  1
  Rh  Rh4  1  0.00000000  0.50000000  0.50000000  1
  Rh  Rh5  1  0.50000000  0.00000000  0.00000000  1
  C  C6  1  0.00782041  0.69451930  0.48804321  1
  C  C7  1  0.97128032  0.47151789  0.69206572  1
  C  C8  1  0.36089960  0.20659205  0.98124721  1
  C  C9  1  0.64353911  0.05978955  0.86555389  1
  C  C10  1  0.02871968  0.52848211  0.30793428  1
  C  C11  1  0.99217959  0.30548070  0.51195679  1
  C  C12  1  0.35646089  0.94021045  0.13444611  1
  C  C13  1  0.63910040  0.79340795  0.01875279  1
  Cl  Cl14  1  0.65562423  0.80899749  0.67878120  1
  Cl  Cl15  1  0.34437577  0.19100251  0.32121880  1
  Cl  Cl16  1  0.38216160  0.52833376  0.34383628  1
  Cl  Cl17  1  0.63545171  0.74332283  0.36671846  1
  Cl  Cl18  1  0.88480950  0.93557302  0.15586333  1
  Cl  Cl19  1  0.36454829  0.25667717  0.63328154  1
  Cl  Cl20  1  0.31229036  0.82950899  0.60195989  1
  Cl  Cl21  1  0.68770964  0.17049101  0.39804011  1
  Cl  Cl22  1  0.02380515  0.75365184  0.82403622  1
  Cl  Cl23  1  0.11519050  0.06442698  0.84413667  1
  Cl  Cl24  1  0.35962468  0.68678525  0.94716502  1
  Cl  Cl25  1  0.64037532  0.31321475  0.05283498  1
  Cl  Cl26  1  0.97619485  0.24634816  0.17596378  1
  Cl  Cl27  1  0.61783840  0.47166624  0.65616372  1
  O  O28  1  0.98716804  0.19182688  0.52190017  1
  O  O29  1  0.28085494  0.32736902  0.96811221  1
  O  O30  1  0.72568902  0.09581927  0.78623466  1
  O  O31  1  0.27431098  0.90418073  0.21376534  1
  O  O32  1  0.01283196  0.80817312  0.47809983  1
  O  O33  1  0.71914506  0.67263098  0.03188779  1
  O  O34  1  0.95445320  0.45203133  0.80408430  1
  O  O35  1  0.04554680  0.54796867  0.19591570  1
