# generated using pymatgen
data_MnV2(PbO4)2
_symmetry_space_group_name_H-M   'P 1'
_cell_length_a   6.58679995
_cell_length_b   7.45868166
_cell_length_c   9.03068574
_cell_angle_alpha   111.91337660
_cell_angle_beta   90.00000000
_cell_angle_gamma   90.00000000
_symmetry_Int_Tables_number   1
_chemical_formula_structural   MnV2(PbO4)2
_chemical_formula_sum   'Mn2 V4 Pb4 O16'
_cell_volume   411.61182134
_cell_formula_units_Z   2
loop_
 _symmetry_equiv_pos_site_id
 _symmetry_equiv_pos_as_xyz
  1  'x, y, z'
loop_
 _atom_site_type_symbol
 _atom_site_label
 _atom_site_symmetry_multiplicity
 _atom_site_fract_x
 _atom_site_fract_y
 _atom_site_fract_z
 _atom_site_occupancy
  Mn  Mn0  1  0.50000000  0.00000000  0.00000000  1
  Mn  Mn1  1  0.00000000  0.00000000  0.00000000  1
  V  V2  1  0.25000000  0.55352995  0.83975911  1
  V  V3  1  0.75000000  0.44647005  0.16024089  1
  V  V4  1  0.25000000  0.95630778  0.66201677  1
  V  V5  1  0.75000000  0.04369222  0.33798323  1
  Pb  Pb6  1  0.25000000  0.73506800  0.25463848  1
  Pb  Pb7  1  0.75000000  0.26493200  0.74536152  1
  Pb  Pb8  1  0.25000000  0.35392949  0.46013831  1
  Pb  Pb9  1  0.75000000  0.64607051  0.53986169  1
  O  O10  1  0.47549066  0.00934904  0.77770816  1
  O  O11  1  0.52450934  0.99065096  0.22229184  1
  O  O12  1  0.97549066  0.99065096  0.22229184  1
  O  O13  1  0.02450934  0.00934904  0.77770816  1
  O  O14  1  0.25000000  0.71504950  0.53575479  1
  O  O15  1  0.75000000  0.28495050  0.46424521  1
  O  O16  1  0.25000000  0.07829458  0.53401642  1
  O  O17  1  0.75000000  0.92170542  0.46598358  1
  O  O18  1  0.46101039  0.48243242  0.71018706  1
  O  O19  1  0.53898961  0.51756758  0.28981294  1
  O  O20  1  0.96101039  0.51756758  0.28981294  1
  O  O21  1  0.03898961  0.48243242  0.71018706  1
  O  O22  1  0.25000000  0.44326000  0.97348516  1
  O  O23  1  0.75000000  0.55674000  0.02651484  1
  O  O24  1  0.25000000  0.81078292  0.95471858  1
  O  O25  1  0.75000000  0.18921708  0.04528142  1
