# generated using pymatgen
data_Nd2Ge9
_symmetry_space_group_name_H-M   'P 1'
_cell_length_a   4.04261293
_cell_length_b   9.60979259
_cell_length_c   12.48730403
_cell_angle_alpha   90.00000000
_cell_angle_beta   90.00000000
_cell_angle_gamma   90.00000000
_symmetry_Int_Tables_number   1
_chemical_formula_structural   Nd2Ge9
_chemical_formula_sum   'Nd4 Ge18'
_cell_volume   485.11517567
_cell_formula_units_Z   2
loop_
 _symmetry_equiv_pos_site_id
 _symmetry_equiv_pos_as_xyz
  1  'x, y, z'
loop_
 _atom_site_type_symbol
 _atom_site_label
 _atom_site_symmetry_multiplicity
 _atom_site_fract_x
 _atom_site_fract_y
 _atom_site_fract_z
 _atom_site_occupancy
  Nd  Nd0  1  0.75000000  0.75000000  0.87082144  1
  Nd  Nd1  1  0.25000000  0.25000000  0.12917856  1
  Nd  Nd2  1  0.75000000  0.75000000  0.38210608  1
  Nd  Nd3  1  0.25000000  0.25000000  0.61789392  1
  Ge  Ge4  1  0.75000000  0.06136734  0.26670462  1
  Ge  Ge5  1  0.75000000  0.43863266  0.26670462  1
  Ge  Ge6  1  0.25000000  0.93863266  0.73329538  1
  Ge  Ge7  1  0.25000000  0.56136734  0.73329538  1
  Ge  Ge8  1  0.75000000  0.09573098  0.78208097  1
  Ge  Ge9  1  0.75000000  0.40426902  0.78208097  1
  Ge  Ge10  1  0.25000000  0.90426902  0.21791903  1
  Ge  Ge11  1  0.25000000  0.59573098  0.21791903  1
  Ge  Ge12  1  0.75000000  0.08157929  0.47175031  1
  Ge  Ge13  1  0.75000000  0.41842071  0.47175031  1
  Ge  Ge14  1  0.25000000  0.91842071  0.52824969  1
  Ge  Ge15  1  0.25000000  0.58157929  0.52824969  1
  Ge  Ge16  1  0.75000000  0.07783964  0.98129476  1
  Ge  Ge17  1  0.75000000  0.42216036  0.98129476  1
  Ge  Ge18  1  0.25000000  0.92216036  0.01870524  1
  Ge  Ge19  1  0.25000000  0.57783964  0.01870524  1
  Ge  Ge20  1  0.75000000  0.75000000  0.62749705  1
  Ge  Ge21  1  0.25000000  0.25000000  0.37250295  1
