# generated using pymatgen
data_La2B5H9C4O15
_symmetry_space_group_name_H-M   'P 1'
_cell_length_a   6.53838727
_cell_length_b   10.89787717
_cell_length_c   11.54566439
_cell_angle_alpha   61.83926441
_cell_angle_beta   89.87431281
_cell_angle_gamma   89.73367912
_symmetry_Int_Tables_number   1
_chemical_formula_structural   La2B5H9C4O15
_chemical_formula_sum   'La4 B10 H18 C8 O30'
_cell_volume   725.29003183
_cell_formula_units_Z   2
loop_
 _symmetry_equiv_pos_site_id
 _symmetry_equiv_pos_as_xyz
  1  'x, y, z'
loop_
 _atom_site_type_symbol
 _atom_site_label
 _atom_site_symmetry_multiplicity
 _atom_site_fract_x
 _atom_site_fract_y
 _atom_site_fract_z
 _atom_site_occupancy
  La  La0  1  0.66172297  0.61345554  0.52493451  1
  La  La1  1  0.16172297  0.13839005  0.47506549  1
  La  La2  1  0.83182705  0.19041419  0.86438087  1
  La  La3  1  0.33182705  0.05479506  0.13561913  1
  B  B4  1  0.17720496  0.40910496  0.59577735  1
  B  B5  1  0.67720496  0.00488232  0.40422265  1
  B  B6  1  0.28596572  0.19906285  0.80771583  1
  B  B7  1  0.78596572  0.00677868  0.19228417  1
  B  B8  1  0.52389244  0.30529362  0.61429500  1
  B  B9  1  0.02389244  0.91958862  0.38570500  1
  B  B10  1  0.12976390  0.66967678  0.53396403  1
  B  B11  1  0.62976390  0.20364081  0.46603597  1
  B  B12  1  0.86705454  0.36993549  0.48795791  1
  B  B13  1  0.36705454  0.85789340  0.51204209  1
  H  H14  1  0.42401956  0.62430666  0.81139234  1
  H  H15  1  0.92401956  0.43569900  0.18860766  1
  H  H16  1  0.24466323  0.48478619  0.88575700  1
  H  H17  1  0.74466323  0.37054319  0.11424300  1
  H  H18  1  0.42574373  0.51318161  0.98478777  1
  H  H19  1  0.92574373  0.49796938  0.01521223  1
  H  H20  1  0.79362328  0.73505918  0.85678642  1
  H  H21  1  0.29362328  0.59184560  0.14321358  1
  H  H22  1  0.82372602  0.82585988  0.68063958  1
  H  H23  1  0.32372602  0.50649946  0.31936042  1
  H  H24  1  0.04258981  0.77107595  0.78205157  1
  H  H25  1  0.54258981  0.55312752  0.21794843  1
  H  H26  1  0.86736421  0.56763993  0.30559830  1
  H  H27  1  0.36736421  0.87323823  0.69440170  1
  H  H28  1  0.04116122  0.75100699  0.11917965  1
  H  H29  1  0.54116122  0.87018664  0.88082035  1
  H  H30  1  0.81262105  0.78518993  0.11542383  1
  H  H31  1  0.31262105  0.90061376  0.88457617  1
  C  C32  1  0.54656357  0.41734931  0.87558027  1
  C  C33  1  0.04656357  0.29292958  0.12441973  1
  C  C34  1  0.89205546  0.94780382  0.77604654  1
  C  C35  1  0.39205546  0.72385036  0.22395346  1
  C  C36  1  0.40227364  0.51756413  0.88873887  1
  C  C37  1  0.90227364  0.40630299  0.11126113  1
  C  C38  1  0.88595546  0.81020343  0.77500673  1
  C  C39  1  0.38595546  0.58521016  0.22499327  1
  O  O40  1  0.06729166  0.53630666  0.57598233  1
  O  O41  1  0.56729166  0.11228899  0.42401767  1
  O  O42  1  0.14564940  0.30508039  0.73701277  1
  O  O43  1  0.64564940  0.04209317  0.26298723  1
  O  O44  1  0.39790838  0.43141908  0.57060159  1
  O  O45  1  0.89790838  0.00202067  0.42939841  1
  O  O46  1  0.22098069  0.09635726  0.92434845  1
  O  O47  1  0.72098069  0.02070571  0.07565155  1
  O  O48  1  0.47996291  0.20465365  0.75490835  1
  O  O49  1  0.97996291  0.95956200  0.24509165  1
  O  O50  1  0.98023487  0.76802735  0.46630388  1
  O  O51  1  0.48023487  0.23433123  0.53369612  1
  O  O52  1  0.74256143  0.33947130  0.60777972  1
  O  O53  1  0.24256143  0.94725102  0.39222028  1
  O  O54  1  0.81841991  0.26540879  0.44052313  1
  O  O55  1  0.31841991  0.70593193  0.55947687  1
  O  O56  1  0.80030987  0.51161616  0.39191783  1
  O  O57  1  0.30030987  0.90353399  0.60808217  1
  O  O58  1  0.08523641  0.35482122  0.51220143  1
  O  O59  1  0.58523641  0.86702265  0.48779857  1
  O  O60  1  0.54143693  0.28854718  0.96123719  1
  O  O61  1  0.04143693  0.24978437  0.03876281  1
  O  O62  1  0.67575495  0.46002469  0.78076705  1
  O  O63  1  0.17575495  0.24079175  0.21923295  1
  O  O64  1  0.78883408  0.96196854  0.86297285  1
  O  O65  1  0.28883408  0.82494139  0.13702715  1
  O  O66  1  0.99903141  0.04816710  0.69148663  1
  O  O67  1  0.49903141  0.73965373  0.30851337  1
  O  O68  1  0.90538528  0.70629195  0.13867889  1
  O  O69  1  0.40538528  0.84497084  0.86132111  1
