# generated using pymatgen
data_Cu4SO10
_symmetry_space_group_name_H-M   'P 1'
_cell_length_a   5.85496340
_cell_length_b   9.67644867
_cell_length_c   13.47788028
_cell_angle_alpha   90.00000000
_cell_angle_beta   103.36188979
_cell_angle_gamma   90.00000000
_symmetry_Int_Tables_number   1
_chemical_formula_structural   Cu4SO10
_chemical_formula_sum   'Cu16 S4 O40'
_cell_volume   742.92211452
_cell_formula_units_Z   4
loop_
 _symmetry_equiv_pos_site_id
 _symmetry_equiv_pos_as_xyz
  1  'x, y, z'
loop_
 _atom_site_type_symbol
 _atom_site_label
 _atom_site_symmetry_multiplicity
 _atom_site_fract_x
 _atom_site_fract_y
 _atom_site_fract_z
 _atom_site_occupancy
  Cu  Cu0  1  0.69465268  0.24514313  0.14624792  1
  Cu  Cu1  1  0.30534732  0.74514313  0.35375208  1
  Cu  Cu2  1  0.30534732  0.75485687  0.85375208  1
  Cu  Cu3  1  0.69465268  0.25485687  0.64624792  1
  Cu  Cu4  1  0.51840876  0.00931868  0.28361561  1
  Cu  Cu5  1  0.48159124  0.50931868  0.21638439  1
  Cu  Cu6  1  0.48159124  0.99068132  0.71638439  1
  Cu  Cu7  1  0.51840876  0.49068132  0.78361561  1
  Cu  Cu8  1  0.01888772  0.00965781  0.28391545  1
  Cu  Cu9  1  0.98111228  0.50965781  0.21608455  1
  Cu  Cu10  1  0.98111228  0.99034219  0.71608455  1
  Cu  Cu11  1  0.01888772  0.49034219  0.78391545  1
  Cu  Cu12  1  0.19690907  0.24938248  0.15017088  1
  Cu  Cu13  1  0.80309093  0.74938248  0.34982912  1
  Cu  Cu14  1  0.80309093  0.75061752  0.84982912  1
  Cu  Cu15  1  0.19690907  0.25061752  0.65017088  1
  S  S16  1  0.83426563  0.28684931  0.41732384  1
  S  S17  1  0.16573437  0.78684931  0.08267616  1
  S  S18  1  0.16573437  0.71315069  0.58267616  1
  S  S19  1  0.83426563  0.21315069  0.91732384  1
  O  O20  1  0.43617448  0.36633137  0.11795544  1
  O  O21  1  0.56382552  0.86633137  0.38204456  1
  O  O22  1  0.56382552  0.63366863  0.88204456  1
  O  O23  1  0.43617448  0.13366863  0.61795544  1
  O  O24  1  0.45772688  0.12795484  0.17019015  1
  O  O25  1  0.54227312  0.62795484  0.32980985  1
  O  O26  1  0.54227312  0.87204516  0.82980985  1
  O  O27  1  0.45772688  0.37204516  0.67019015  1
  O  O28  1  0.29666177  0.09081372  0.33569594  1
  O  O29  1  0.70333823  0.59081372  0.16430406  1
  O  O30  1  0.70333823  0.90918628  0.66430406  1
  O  O31  1  0.29666177  0.40918628  0.83569594  1
  O  O32  1  0.74308423  0.91900655  0.23555792  1
  O  O33  1  0.25691577  0.41900655  0.26444208  1
  O  O34  1  0.25691577  0.08099345  0.76444208  1
  O  O35  1  0.74308423  0.58099345  0.73555792  1
  O  O36  1  0.95859792  0.12870125  0.17268699  1
  O  O37  1  0.04140208  0.62870125  0.32731301  1
  O  O38  1  0.04140208  0.87129875  0.82731301  1
  O  O39  1  0.95859792  0.37129875  0.67268699  1
  O  O40  1  0.92316864  0.36749947  0.11941058  1
  O  O41  1  0.07683136  0.86749947  0.38058942  1
  O  O42  1  0.07683136  0.63250053  0.88058942  1
  O  O43  1  0.92316864  0.13250053  0.61941058  1
  O  O44  1  0.78170688  0.35804806  0.31505774  1
  O  O45  1  0.21829312  0.85804806  0.18494226  1
  O  O46  1  0.21829312  0.64195194  0.68494226  1
  O  O47  1  0.78170688  0.14195194  0.81505774  1
  O  O48  1  0.65203039  0.17219683  0.97152074  1
  O  O49  1  0.34796961  0.67219683  0.52847926  1
  O  O50  1  0.34796961  0.82780317  0.02847926  1
  O  O51  1  0.65203039  0.32780317  0.47152074  1
  O  O52  1  0.82188106  0.13414778  0.39632955  1
  O  O53  1  0.17811894  0.63414778  0.10367045  1
  O  O54  1  0.17811894  0.86585222  0.60367045  1
  O  O55  1  0.82188106  0.36585222  0.89632955  1
  O  O56  1  0.07234506  0.17613355  0.97522315  1
  O  O57  1  0.92765494  0.67613355  0.52477685  1
  O  O58  1  0.92765494  0.82386645  0.02477685  1
  O  O59  1  0.07234506  0.32386645  0.47522315  1
