# generated using pymatgen
data_YC3O8
_symmetry_space_group_name_H-M   'P 1'
_cell_length_a   7.28704169
_cell_length_b   8.51269302
_cell_length_c   12.94914667
_cell_angle_alpha   90.00000000
_cell_angle_beta   90.00000000
_cell_angle_gamma   90.00000000
_symmetry_Int_Tables_number   1
_chemical_formula_structural   YC3O8
_chemical_formula_sum   'Y4 C12 O32'
_cell_volume   803.26598459
_cell_formula_units_Z   4
loop_
 _symmetry_equiv_pos_site_id
 _symmetry_equiv_pos_as_xyz
  1  'x, y, z'
loop_
 _atom_site_type_symbol
 _atom_site_label
 _atom_site_symmetry_multiplicity
 _atom_site_fract_x
 _atom_site_fract_y
 _atom_site_fract_z
 _atom_site_occupancy
  Y  Y0  1  0.26042564  0.03242383  0.70272260  1
  Y  Y1  1  0.76042564  0.46757617  0.29727740  1
  Y  Y2  1  0.73957436  0.53242383  0.79727740  1
  Y  Y3  1  0.23957436  0.96757617  0.20272260  1
  C  C4  1  0.97386740  0.86000886  0.76204730  1
  C  C5  1  0.47386740  0.63999114  0.23795270  1
  C  C6  1  0.02613260  0.36000886  0.73795270  1
  C  C7  1  0.52613260  0.13999114  0.26204730  1
  C  C8  1  0.40633089  0.78689157  0.95538678  1
  C  C9  1  0.90633089  0.71310843  0.04461322  1
  C  C10  1  0.59366911  0.28689157  0.54461322  1
  C  C11  1  0.09366911  0.21310843  0.45538678  1
  C  C12  1  0.04018712  0.76805550  0.39639907  1
  C  C13  1  0.54018712  0.73194450  0.60360093  1
  C  C14  1  0.95981288  0.26805550  0.10360093  1
  C  C15  1  0.45981288  0.23194450  0.89639907  1
  O  O16  1  0.96491948  0.95792168  0.68548898  1
  O  O17  1  0.46491948  0.54207832  0.31451102  1
  O  O18  1  0.03508052  0.45792168  0.81451102  1
  O  O19  1  0.53508052  0.04207832  0.18548898  1
  O  O20  1  0.83611506  0.77388799  0.78657547  1
  O  O21  1  0.33611506  0.72611201  0.21342453  1
  O  O22  1  0.16388494  0.27388799  0.71342453  1
  O  O23  1  0.66388494  0.22611201  0.28657547  1
  O  O24  1  0.47988442  0.70034482  0.89824779  1
  O  O25  1  0.97988442  0.79965518  0.10175221  1
  O  O26  1  0.52011558  0.20034482  0.60175221  1
  O  O27  1  0.02011558  0.29965518  0.39824779  1
  O  O28  1  0.33470608  0.87293999  0.01315335  1
  O  O29  1  0.83470608  0.62706001  0.98684665  1
  O  O30  1  0.66529392  0.37293999  0.48684665  1
  O  O31  1  0.16529392  0.12706001  0.51315335  1
  O  O32  1  0.10761021  0.76570554  0.48669228  1
  O  O33  1  0.60761021  0.73429446  0.51330772  1
  O  O34  1  0.89238979  0.26570554  0.01330772  1
  O  O35  1  0.39238979  0.23429446  0.98669228  1
  O  O36  1  0.44915242  0.85012109  0.63710618  1
  O  O37  1  0.94915242  0.64987891  0.36289382  1
  O  O38  1  0.55084758  0.35012109  0.86289382  1
  O  O39  1  0.05084758  0.14987891  0.13710618  1
  O  O40  1  0.12874584  0.85433925  0.81293296  1
  O  O41  1  0.62874584  0.64566075  0.18706704  1
  O  O42  1  0.87125416  0.35433925  0.68706704  1
  O  O43  1  0.37125416  0.14566075  0.31293296  1
  O  O44  1  0.56465302  0.60735405  0.65924904  1
  O  O45  1  0.06465302  0.89264595  0.34075096  1
  O  O46  1  0.43534698  0.10735405  0.84075096  1
  O  O47  1  0.93534698  0.39264595  0.15924904  1
