# generated using pymatgen
data_ErCO4
_symmetry_space_group_name_H-M   'P 1'
_cell_length_a   9.59918511
_cell_length_b   11.98421221
_cell_length_c   11.98342661
_cell_angle_alpha   119.99711034
_cell_angle_beta   90.00000000
_cell_angle_gamma   90.00000000
_symmetry_Int_Tables_number   1
_chemical_formula_structural   ErCO4
_chemical_formula_sum   'Er18 C18 O72'
_cell_volume   1193.90055723
_cell_formula_units_Z   18
loop_
 _symmetry_equiv_pos_site_id
 _symmetry_equiv_pos_as_xyz
  1  'x, y, z'
loop_
 _atom_site_type_symbol
 _atom_site_label
 _atom_site_symmetry_multiplicity
 _atom_site_fract_x
 _atom_site_fract_y
 _atom_site_fract_z
 _atom_site_occupancy
  Er  Er0  1  0.76129677  0.11796865  0.23088406  1
  Er  Er1  1  0.76124819  0.76917780  0.88701116  1
  Er  Er2  1  0.76131294  0.11293193  0.88215161  1
  Er  Er3  1  0.23870323  0.11796865  0.23088406  1
  Er  Er4  1  0.23875181  0.76917780  0.88701116  1
  Er  Er5  1  0.23868706  0.11293193  0.88215161  1
  Er  Er6  1  0.74253983  0.78816218  0.56317735  1
  Er  Er7  1  0.74253260  0.43675230  0.22493345  1
  Er  Er8  1  0.74250641  0.77503261  0.21183729  1
  Er  Er9  1  0.25746017  0.78816218  0.56317735  1
  Er  Er10  1  0.25746740  0.43675230  0.22493345  1
  Er  Er11  1  0.25749359  0.77503261  0.21183729  1
  Er  Er12  1  0.74276934  0.10113204  0.54294654  1
  Er  Er13  1  0.74269741  0.45701115  0.55820973  1
  Er  Er14  1  0.74272638  0.44181631  0.89881786  1
  Er  Er15  1  0.25723066  0.10113204  0.54294654  1
  Er  Er16  1  0.25730259  0.45701115  0.55820973  1
  Er  Er17  1  0.25727362  0.44181631  0.89881786  1
  C  C18  1  0.00000000  0.65291428  0.50953268  1
  C  C19  1  0.00000000  0.49047007  0.14334364  1
  C  C20  1  0.00000000  0.85661300  0.34710733  1
  C  C21  1  0.00000000  0.20325849  0.11306055  1
  C  C22  1  0.00000000  0.88701014  0.09031557  1
  C  C23  1  0.00000000  0.90976453  0.79672153  1
  C  C24  1  0.00000000  0.15846484  0.46824437  1
  C  C25  1  0.00000000  0.53182479  0.69025395  1
  C  C26  1  0.00000000  0.30974032  0.84153640  1
  C  C27  1  0.50000000  0.87058702  0.42051850  1
  C  C28  1  0.50000000  0.57947539  0.45001944  1
  C  C29  1  0.50000000  0.54995564  0.12950991  1
  C  C30  1  0.50000000  0.23627546  0.77439498  1
  C  C31  1  0.50000000  0.22558668  0.46183117  1
  C  C32  1  0.50000000  0.53811653  0.76366839  1
  C  C33  1  0.50000000  0.20061433  0.18243826  1
  C  C34  1  0.50000000  0.81756786  0.01813577  1
  C  C35  1  0.50000000  0.98182350  0.79941132  1
  O  O36  1  0.00000000  0.76424000  0.51492235  1
  O  O37  1  0.00000000  0.48501447  0.24924546  1
  O  O38  1  0.00000000  0.75068377  0.23578605  1
  O  O39  1  0.88119321  0.60237875  0.50929407  1
  O  O40  1  0.88118856  0.49074135  0.09306337  1
  O  O41  1  0.88118922  0.90690738  0.39764192  1
  O  O42  1  0.11880679  0.60237875  0.50929407  1
  O  O43  1  0.11881144  0.49074135  0.09306337  1
  O  O44  1  0.11881078  0.90690738  0.39764192  1
  O  O45  1  0.00000000  0.13909875  0.17389069  1
  O  O46  1  0.00000000  0.82617493  0.96532684  1
  O  O47  1  0.00000000  0.03475386  0.86084771  1
  O  O48  1  0.88194726  0.91622130  0.15041638  1
  O  O49  1  0.88193624  0.84967892  0.76584817  1
  O  O50  1  0.88194191  0.23414701  0.08386064  1
  O  O51  1  0.11805274  0.91622130  0.15041638  1
  O  O52  1  0.11806376  0.84967892  0.76584817  1
  O  O53  1  0.11805809  0.23414701  0.08386064  1
  O  O54  1  0.00000000  0.15567089  0.57487012  1
  O  O55  1  0.00000000  0.42518647  0.58086400  1
  O  O56  1  0.00000000  0.41913247  0.84429138  1
  O  O57  1  0.88220794  0.15714527  0.41596055  1
  O  O58  1  0.88220138  0.58409583  0.74120933  1
  O  O59  1  0.88220881  0.25878984  0.84286544  1
  O  O60  1  0.11779206  0.15714527  0.41596055  1
  O  O61  1  0.11779862  0.58409583  0.74120933  1
  O  O62  1  0.11779119  0.25878984  0.84286544  1
  O  O63  1  0.50000000  0.70347199  0.50383075  1
  O  O64  1  0.50000000  0.49614364  0.19971321  1
  O  O65  1  0.50000000  0.80028390  0.29650025  1
  O  O66  1  0.61714320  0.90586089  0.48232675  1
  O  O67  1  0.61713856  0.51764091  0.42346260  1
  O  O68  1  0.61714701  0.57650661  0.09423279  1
  O  O69  1  0.38285680  0.90586089  0.48232675  1
  O  O70  1  0.38286144  0.51764091  0.42346260  1
  O  O71  1  0.38285299  0.57650661  0.09423279  1
  O  O72  1  0.50000000  0.15757488  0.51887872  1
  O  O73  1  0.50000000  0.48096454  0.63858595  1
  O  O74  1  0.50000000  0.36135356  0.84235838  1
  O  O75  1  0.61807946  0.17601438  0.74179102  1
  O  O76  1  0.61807887  0.25823306  0.43419905  1
  O  O77  1  0.61808310  0.56579805  0.82393394  1
  O  O78  1  0.38192054  0.17601438  0.74179102  1
  O  O79  1  0.38192113  0.25823306  0.43419905  1
  O  O80  1  0.38191690  0.56579805  0.82393394  1
  O  O81  1  0.50000000  0.09231974  0.18231527  1
  O  O82  1  0.50000000  0.81773189  0.90997130  1
  O  O83  1  0.50000000  0.08997986  0.90773139  1
  O  O84  1  0.61791041  0.25278057  0.18409795  1
  O  O85  1  0.61791508  0.81588351  0.06863208  1
  O  O86  1  0.61792057  0.93133125  0.74724829  1
  O  O87  1  0.38208959  0.25278057  0.18409795  1
  O  O88  1  0.38208492  0.81588351  0.06863208  1
  O  O89  1  0.38207943  0.93133125  0.74724829  1
  O  O90  1  0.74160926  0.99998430  0.00009778  1
  O  O91  1  0.25839074  0.99998430  0.00009778  1
  O  O92  1  0.75104118  0.66654288  0.33329959  1
  O  O93  1  0.24895882  0.66654288  0.33329959  1
  O  O94  1  0.75730707  0.33329566  0.66668768  1
  O  O95  1  0.24269293  0.33329566  0.66668768  1
  O  O96  1  0.68997875  0.68088756  0.67604315  1
  O  O97  1  0.68997587  0.32384916  0.00473418  1
  O  O98  1  0.68988803  0.99520988  0.31899626  1
  O  O99  1  0.31002125  0.68088756  0.67604315  1
  O  O100  1  0.31002413  0.32384916  0.00473418  1
  O  O101  1  0.31011197  0.99520988  0.31899626  1
  O  O102  1  0.80901326  0.00369973  0.65810445  1
  O  O103  1  0.80902326  0.34198440  0.34562769  1
  O  O104  1  0.80893389  0.65448532  0.99636903  1
  O  O105  1  0.19098674  0.00369973  0.65810445  1
  O  O106  1  0.19097674  0.34198440  0.34562769  1
  O  O107  1  0.19106611  0.65448532  0.99636903  1
