# generated using pymatgen
data_Lu3InS6
_symmetry_space_group_name_H-M   'P 1'
_cell_length_a   3.79628530
_cell_length_b   13.23819211
_cell_length_c   16.42185738
_cell_angle_alpha   90.00000000
_cell_angle_beta   90.00000000
_cell_angle_gamma   90.00000000
_symmetry_Int_Tables_number   1
_chemical_formula_structural   Lu3InS6
_chemical_formula_sum   'Lu12 In4 S24'
_cell_volume   825.29611082
_cell_formula_units_Z   4
loop_
 _symmetry_equiv_pos_site_id
 _symmetry_equiv_pos_as_xyz
  1  'x, y, z'
loop_
 _atom_site_type_symbol
 _atom_site_label
 _atom_site_symmetry_multiplicity
 _atom_site_fract_x
 _atom_site_fract_y
 _atom_site_fract_z
 _atom_site_occupancy
  Lu  Lu0  1  0.25304550  0.03538124  0.77578149  1
  Lu  Lu1  1  0.25304550  0.96461876  0.22421851  1
  Lu  Lu2  1  0.74695450  0.46461876  0.27578149  1
  Lu  Lu3  1  0.74695450  0.53538124  0.72421851  1
  Lu  Lu4  1  0.26438137  0.24692521  0.61144752  1
  Lu  Lu5  1  0.26438137  0.75307479  0.38855248  1
  Lu  Lu6  1  0.73561863  0.25307479  0.11144752  1
  Lu  Lu7  1  0.73561863  0.74692521  0.88855248  1
  Lu  Lu8  1  0.74802299  0.30956307  0.85623369  1
  Lu  Lu9  1  0.74802299  0.69043693  0.14376631  1
  Lu  Lu10  1  0.25197701  0.19043693  0.35623369  1
  Lu  Lu11  1  0.25197701  0.80956307  0.64376631  1
  In  In12  1  0.75305242  -0.00000000  0.50000000  1
  In  In13  1  0.24694758  0.50000000  0.00000000  1
  In  In14  1  0.37371440  0.50000000  0.50000000  1
  In  In15  1  0.62628560  -0.00000000  0.00000000  1
  S  S16  1  0.76928715  0.39664324  0.59431278  1
  S  S17  1  0.76928715  0.60335676  0.40568722  1
  S  S18  1  0.23071285  0.10335676  0.09431278  1
  S  S19  1  0.23071285  0.89664324  0.90568722  1
  S  S20  1  0.24710636  0.30520798  0.97966696  1
  S  S21  1  0.24710636  0.69479202  0.02033304  1
  S  S22  1  0.75289364  0.19479202  0.47966696  1
  S  S23  1  0.75289364  0.80520798  0.52033304  1
  S  S24  1  0.75115563  0.10875186  0.88204137  1
  S  S25  1  0.75115563  0.89124814  0.11795863  1
  S  S26  1  0.24884437  0.39124814  0.38204137  1
  S  S27  1  0.24884437  0.60875186  0.61795863  1
  S  S28  1  0.76010639  0.17940715  0.71632218  1
  S  S29  1  0.76010639  0.82059285  0.28367782  1
  S  S30  1  0.23989361  0.32059285  0.21632218  1
  S  S31  1  0.23989361  0.67940715  0.78367782  1
  S  S32  1  0.24975841  0.38414827  0.75652719  1
  S  S33  1  0.24975841  0.61585173  0.24347281  1
  S  S34  1  0.75024159  0.11585173  0.25652719  1
  S  S35  1  0.75024159  0.88414827  0.74347281  1
  S  S36  1  0.25350836  0.02067287  0.60709135  1
  S  S37  1  0.25350836  0.97932713  0.39290865  1
  S  S38  1  0.74649164  0.47932713  0.10709135  1
  S  S39  1  0.74649164  0.52067287  0.89290865  1
