# generated using pymatgen
data_WI3
_symmetry_space_group_name_H-M   'P 1'
_cell_length_a   12.65046128
_cell_length_b   12.65046128
_cell_length_c   25.66222325
_cell_angle_alpha   90.00000000
_cell_angle_beta   90.00000000
_cell_angle_gamma   90.00000000
_symmetry_Int_Tables_number   1
_chemical_formula_structural   WI3
_chemical_formula_sum   'W24 I72'
_cell_volume   4106.83261348
_cell_formula_units_Z   24
loop_
 _symmetry_equiv_pos_site_id
 _symmetry_equiv_pos_as_xyz
  1  'x, y, z'
loop_
 _atom_site_type_symbol
 _atom_site_label
 _atom_site_symmetry_multiplicity
 _atom_site_fract_x
 _atom_site_fract_y
 _atom_site_fract_z
 _atom_site_occupancy
  W  W0  1  0.82450436  0.22813209  0.48956735  1
  W  W1  1  0.17549564  0.77186791  0.98956735  1
  W  W2  1  0.72813209  0.67549564  0.23956735  1
  W  W3  1  0.27186791  0.32450436  0.73956735  1
  W  W4  1  0.77186791  0.17549564  0.01043265  1
  W  W5  1  0.22813209  0.82450436  0.51043265  1
  W  W6  1  0.67549564  0.72813209  0.76043265  1
  W  W7  1  0.32450436  0.27186791  0.26043265  1
  W  W8  1  0.82512011  0.42422649  0.48999394  1
  W  W9  1  0.17487989  0.57577351  0.98999394  1
  W  W10  1  0.92422649  0.67487989  0.23999394  1
  W  W11  1  0.07577351  0.32512011  0.73999394  1
  W  W12  1  0.57577351  0.17487989  0.01000606  1
  W  W13  1  0.42422649  0.82512011  0.51000606  1
  W  W14  1  0.67487989  0.92422649  0.76000606  1
  W  W15  1  0.32512011  0.07577351  0.26000606  1
  W  W16  1  0.83688488  0.32689959  0.57258563  1
  W  W17  1  0.16311512  0.67310041  0.07258563  1
  W  W18  1  0.82689959  0.66311512  0.32258563  1
  W  W19  1  0.17310041  0.33688488  0.82258563  1
  W  W20  1  0.67310041  0.16311512  0.92741437  1
  W  W21  1  0.32689959  0.83688488  0.42741437  1
  W  W22  1  0.66311512  0.82689959  0.67741437  1
  W  W23  1  0.33688488  0.17310041  0.17741437  1
  I  I24  1  0.65827146  0.32702332  0.43712612  1
  I  I25  1  0.34172854  0.67297668  0.93712612  1
  I  I26  1  0.82702332  0.84172854  0.18712612  1
  I  I27  1  0.17297668  0.15827146  0.68712612  1
  I  I28  1  0.67297668  0.34172854  0.06287388  1
  I  I29  1  0.32702332  0.65827146  0.56287388  1
  I  I30  1  0.84172854  0.82702332  0.81287388  1
  I  I31  1  0.15827146  0.17297668  0.31287388  1
  I  I32  1  0.67908177  0.48033899  0.56664252  1
  I  I33  1  0.32091823  0.51966101  0.06664252  1
  I  I34  1  0.98033899  0.82091823  0.31664252  1
  I  I35  1  0.01966101  0.17908177  0.81664252  1
  I  I36  1  0.51966101  0.32091823  0.93335748  1
  I  I37  1  0.48033899  0.67908177  0.43335748  1
  I  I38  1  0.82091823  0.98033899  0.68335748  1
  I  I39  1  0.17908177  0.01966101  0.18335748  1
  I  I40  1  0.67973168  0.17304135  0.56702760  1
  I  I41  1  0.32026832  0.82695865  0.06702760  1
  I  I42  1  0.67304135  0.82026832  0.31702760  1
  I  I43  1  0.32695865  0.17973168  0.81702760  1
  I  I44  1  0.82695865  0.32026832  0.93297240  1
  I  I45  1  0.17304135  0.67973168  0.43297240  1
  I  I46  1  0.82026832  0.67304135  0.68297240  1
  I  I47  1  0.17973168  0.32695865  0.18297240  1
  I  I48  1  0.97597376  0.32560656  0.42698706  1
  I  I49  1  0.02402624  0.67439344  0.92698706  1
  I  I50  1  0.82560656  0.52402624  0.17698706  1
  I  I51  1  0.17439344  0.47597376  0.67698706  1
  I  I52  1  0.67439344  0.02402624  0.07301294  1
  I  I53  1  0.32560656  0.97597376  0.57301294  1
  I  I54  1  0.52402624  0.82560656  0.82301294  1
  I  I55  1  0.47597376  0.17439344  0.32301294  1
  I  I56  1  0.98969593  0.48196000  0.55599576  1
  I  I57  1  0.01030407  0.51804000  0.05599576  1
  I  I58  1  0.98196000  0.51030407  0.30599576  1
  I  I59  1  0.01804000  0.48969593  0.80599576  1
  I  I60  1  0.51804000  0.01030407  0.94400424  1
  I  I61  1  0.48196000  0.98969593  0.44400424  1
  I  I62  1  0.51030407  0.98196000  0.69400424  1
  I  I63  1  0.48969593  0.01804000  0.19400424  1
  I  I64  1  0.98913155  0.17089504  0.55608107  1
  I  I65  1  0.01086845  0.82910496  0.05608107  1
  I  I66  1  0.67089504  0.51086845  0.30608107  1
  I  I67  1  0.32910496  0.48913155  0.80608107  1
  I  I68  1  0.82910496  0.01086845  0.94391893  1
  I  I69  1  0.17089504  0.98913155  0.44391893  1
  I  I70  1  0.51086845  0.67089504  0.69391893  1
  I  I71  1  0.48913155  0.32910496  0.19391893  1
  I  I72  1  0.81772457  0.03754574  0.43304076  1
  I  I73  1  0.18227543  0.96245426  0.93304076  1
  I  I74  1  0.53754574  0.68227543  0.18304076  1
  I  I75  1  0.46245426  0.31772457  0.68304076  1
  I  I76  1  0.96245426  0.18227543  0.06695924  1
  I  I77  1  0.03754574  0.81772457  0.56695924  1
  I  I78  1  0.68227543  0.53754574  0.81695924  1
  I  I79  1  0.31772457  0.46245426  0.31695924  1
  I  I80  1  0.82380138  0.63196759  0.43693114  1
  I  I81  1  0.17619862  0.36803241  0.93693114  1
  I  I82  1  0.13196759  0.67619862  0.18693114  1
  I  I83  1  0.86803241  0.32380138  0.68693114  1
  I  I84  1  0.36803241  0.17619862  0.06306886  1
  I  I85  1  0.63196759  0.82380138  0.56306886  1
  I  I86  1  0.67619862  0.13196759  0.81306886  1
  I  I87  1  0.32380138  0.86803241  0.31306886  1
  I  I88  1  0.13959275  0.82212041  0.69722226  1
  I  I89  1  0.86040725  0.17787959  0.19722226  1
  I  I90  1  0.32212041  0.36040725  0.44722226  1
  I  I91  1  0.67787959  0.63959275  0.94722226  1
  I  I92  1  0.17787959  0.86040725  0.80277774  1
  I  I93  1  0.82212041  0.13959275  0.30277774  1
  I  I94  1  0.36040725  0.32212041  0.55277774  1
  I  I95  1  0.63959275  0.67787959  0.05277774  1
