# generated using pymatgen
data_CaVSi4O11
_symmetry_space_group_name_H-M   'P 1'
_cell_length_a   9.08216427
_cell_length_b   9.63470493
_cell_length_c   12.43074341
_cell_angle_alpha   90.00000000
_cell_angle_beta   90.00000000
_cell_angle_gamma   90.00000000
_symmetry_Int_Tables_number   1
_chemical_formula_structural   CaVSi4O11
_chemical_formula_sum   'Ca4 V4 Si16 O44'
_cell_volume   1087.73943407
_cell_formula_units_Z   4
loop_
 _symmetry_equiv_pos_site_id
 _symmetry_equiv_pos_as_xyz
  1  'x, y, z'
loop_
 _atom_site_type_symbol
 _atom_site_label
 _atom_site_symmetry_multiplicity
 _atom_site_fract_x
 _atom_site_fract_y
 _atom_site_fract_z
 _atom_site_occupancy
  Ca  Ca0  1  0.19883866  0.72026857  0.58514045  1
  Ca  Ca1  1  0.69883866  0.27973143  0.41485955  1
  Ca  Ca2  1  0.69883866  0.77973143  0.08514045  1
  Ca  Ca3  1  0.19883866  0.22026857  0.91485955  1
  V  V4  1  0.99826413  0.47152811  0.48746029  1
  V  V5  1  0.49826413  0.52847189  0.51253971  1
  V  V6  1  0.49826413  0.02847189  0.98746029  1
  V  V7  1  0.99826413  0.97152811  0.01253971  1
  Si  Si8  1  0.03381052  0.75541534  0.33451035  1
  Si  Si9  1  0.53381052  0.24458466  0.66548965  1
  Si  Si10  1  0.53381052  0.74458466  0.83451035  1
  Si  Si11  1  0.03381052  0.25541534  0.16548965  1
  Si  Si12  1  0.53560814  0.52153845  0.24461406  1
  Si  Si13  1  0.03560814  0.47846155  0.75538594  1
  Si  Si14  1  0.03560814  0.97846155  0.74461406  1
  Si  Si15  1  0.53560814  0.02153845  0.25538594  1
  Si  Si16  1  0.87150982  0.51311382  0.24106484  1
  Si  Si17  1  0.37150982  0.48688618  0.75893516  1
  Si  Si18  1  0.37150982  0.98688618  0.74106484  1
  Si  Si19  1  0.87150982  0.01311382  0.25893516  1
  Si  Si20  1  0.87366078  0.23443211  0.66418967  1
  Si  Si21  1  0.37366078  0.76556789  0.33581033  1
  Si  Si22  1  0.37366078  0.26556789  0.16418967  1
  Si  Si23  1  0.87366078  0.73443211  0.83581033  1
  O  O24  1  0.02946411  0.67585678  0.44925001  1
  O  O25  1  0.52946411  0.32414322  0.55074999  1
  O  O26  1  0.52946411  0.82414322  0.94925001  1
  O  O27  1  0.02946411  0.17585678  0.05074999  1
  O  O28  1  0.54183314  0.45676148  0.36364976  1
  O  O29  1  0.04183314  0.54323852  0.63635024  1
  O  O30  1  0.04183314  0.04323852  0.86364976  1
  O  O31  1  0.54183314  0.95676148  0.13635024  1
  O  O32  1  0.86289879  0.44714114  0.36013672  1
  O  O33  1  0.36289879  0.55285886  0.63986328  1
  O  O34  1  0.36289879  0.05285886  0.86013672  1
  O  O35  1  0.86289879  0.94714114  0.13986328  1
  O  O36  1  0.87909727  0.30991564  0.54758926  1
  O  O37  1  0.37909727  0.69008436  0.45241074  1
  O  O38  1  0.37909727  0.19008436  0.04758926  1
  O  O39  1  0.87909727  0.80991564  0.95241074  1
  O  O40  1  0.94811779  0.90538627  0.34308832  1
  O  O41  1  0.44811779  0.09461373  0.65691168  1
  O  O42  1  0.44811779  0.59461373  0.84308832  1
  O  O43  1  0.94811779  0.40538627  0.15691168  1
  O  O44  1  0.95139388  0.08076564  0.66065414  1
  O  O45  1  0.45139388  0.91923436  0.33934586  1
  O  O46  1  0.45139388  0.41923436  0.16065414  1
  O  O47  1  0.95139388  0.58076564  0.83934586  1
  O  O48  1  0.95342436  0.66427800  0.23850124  1
  O  O49  1  0.45342436  0.33572200  0.76149876  1
  O  O50  1  0.45342436  0.83572200  0.73850124  1
  O  O51  1  0.95342436  0.16427800  0.26149876  1
  O  O52  1  0.46312493  0.67708457  0.24221349  1
  O  O53  1  0.96312493  0.32291543  0.75778651  1
  O  O54  1  0.96312493  0.82291543  0.74221349  1
  O  O55  1  0.46312493  0.17708457  0.25778651  1
  O  O56  1  0.70323571  0.21245088  0.70134229  1
  O  O57  1  0.20323571  0.78754912  0.29865771  1
  O  O58  1  0.20323571  0.28754912  0.20134229  1
  O  O59  1  0.70323571  0.71245088  0.79865771  1
  O  O60  1  0.70365550  0.55034546  0.19296940  1
  O  O61  1  0.20365550  0.44965454  0.80703060  1
  O  O62  1  0.20365550  0.94965454  0.69296940  1
  O  O63  1  0.70365550  0.05034546  0.30703060  1
  O  O64  1  0.65616248  0.59410827  0.54751951  1
  O  O65  1  0.15616248  0.40589173  0.45248049  1
  O  O66  1  0.15616248  0.90589173  0.04751951  1
  O  O67  1  0.65616248  0.09410827  0.95248049  1
