# generated using pymatgen
data_K2SIO7
_symmetry_space_group_name_H-M   'P 1'
_cell_length_a   7.25696268
_cell_length_b   7.59955129
_cell_length_c   14.18790304
_cell_angle_alpha   94.73910387
_cell_angle_beta   90.00000000
_cell_angle_gamma   90.00000000
_symmetry_Int_Tables_number   1
_chemical_formula_structural   K2SIO7
_chemical_formula_sum   'K8 S4 I4 O28'
_cell_volume   779.78298856
_cell_formula_units_Z   4
loop_
 _symmetry_equiv_pos_site_id
 _symmetry_equiv_pos_as_xyz
  1  'x, y, z'
loop_
 _atom_site_type_symbol
 _atom_site_label
 _atom_site_symmetry_multiplicity
 _atom_site_fract_x
 _atom_site_fract_y
 _atom_site_fract_z
 _atom_site_occupancy
  K  K0  1  0.66302889  0.10900476  0.17992773  1
  K  K1  1  0.16302889  0.39099524  0.32007227  1
  K  K2  1  0.33697111  0.89099524  0.82007227  1
  K  K3  1  0.83697111  0.60900476  0.67992773  1
  K  K4  1  0.61823141  0.32963786  0.91874321  1
  K  K5  1  0.11823141  0.17036214  0.58125679  1
  K  K6  1  0.38176859  0.67036214  0.08125679  1
  K  K7  1  0.88176859  0.82963786  0.41874321  1
  S  S8  1  0.64870427  0.07616403  0.65697091  1
  S  S9  1  0.14870427  0.42383597  0.84302909  1
  S  S10  1  0.35129573  0.92383597  0.34302909  1
  S  S11  1  0.85129573  0.57616403  0.15697091  1
  I  I12  1  0.64315565  0.31737693  0.44673973  1
  I  I13  1  0.14315565  0.18262307  0.05326027  1
  I  I14  1  0.35684435  0.68262307  0.55326027  1
  I  I15  1  0.85684435  0.81737693  0.94673973  1
  O  O16  1  0.73876981  0.43264939  0.10934390  1
  O  O17  1  0.23876981  0.06735061  0.39065610  1
  O  O18  1  0.26123019  0.56735061  0.89065610  1
  O  O19  1  0.76123019  0.93264939  0.60934390  1
  O  O20  1  0.95074420  0.45155421  0.86830841  1
  O  O21  1  0.45074420  0.04844579  0.63169159  1
  O  O22  1  0.04925580  0.54844579  0.13169159  1
  O  O23  1  0.54925580  0.95155421  0.36830841  1
  O  O24  1  0.71427024  0.25074745  0.62664644  1
  O  O25  1  0.21427024  0.24925255  0.87335356  1
  O  O26  1  0.28572976  0.74925255  0.37335356  1
  O  O27  1  0.78572976  0.75074745  0.12664644  1
  O  O28  1  0.79614441  0.04254381  0.99288694  1
  O  O29  1  0.29614441  0.45745619  0.50711306  1
  O  O30  1  0.20385559  0.95745619  0.00711306  1
  O  O31  1  0.70385559  0.54254381  0.49288694  1
  O  O32  1  0.56048218  0.35426968  0.32788034  1
  O  O33  1  0.06048218  0.14573032  0.17211966  1
  O  O34  1  0.43951782  0.64573032  0.67211966  1
  O  O35  1  0.93951782  0.85426968  0.82788034  1
  O  O36  1  0.86995095  0.22057840  0.42307644  1
  O  O37  1  0.36995095  0.27942160  0.07692356  1
  O  O38  1  0.13004905  0.77942160  0.57692356  1
  O  O39  1  0.63004905  0.72057840  0.92307644  1
  O  O40  1  0.66865249  0.08075617  0.76178107  1
  O  O41  1  0.16865249  0.41924383  0.73821893  1
  O  O42  1  0.33134751  0.91924383  0.23821893  1
  O  O43  1  0.83134751  0.58075617  0.26178107  1
