# generated using pymatgen
data_SrHg11
_symmetry_space_group_name_H-M   'P 1'
_cell_length_a   10.14268430
_cell_length_b   10.14268430
_cell_length_c   10.14268430
_cell_angle_alpha   90.00000000
_cell_angle_beta   90.00000000
_cell_angle_gamma   90.00000000
_symmetry_Int_Tables_number   1
_chemical_formula_structural   SrHg11
_chemical_formula_sum   'Sr3 Hg33'
_cell_volume   1043.41895917
_cell_formula_units_Z   3
loop_
 _symmetry_equiv_pos_site_id
 _symmetry_equiv_pos_as_xyz
  1  'x, y, z'
loop_
 _atom_site_type_symbol
 _atom_site_label
 _atom_site_symmetry_multiplicity
 _atom_site_fract_x
 _atom_site_fract_y
 _atom_site_fract_z
 _atom_site_occupancy
  Sr  Sr0  1  0.00000000  0.00000000  0.50000000  1
  Sr  Sr1  1  0.00000000  0.50000000  -0.00000000  1
  Sr  Sr2  1  0.50000000  0.00000000  -0.00000000  1
  Hg  Hg3  1  0.50000000  0.50000000  0.50000000  1
  Hg  Hg4  1  0.15271154  0.15271154  0.84728846  1
  Hg  Hg5  1  0.15271154  0.84728846  0.15271154  1
  Hg  Hg6  1  0.84728846  0.15271154  0.15271154  1
  Hg  Hg7  1  0.84728846  0.84728846  0.84728846  1
  Hg  Hg8  1  0.84728846  0.84728846  0.15271154  1
  Hg  Hg9  1  0.84728846  0.15271154  0.84728846  1
  Hg  Hg10  1  0.15271154  0.84728846  0.84728846  1
  Hg  Hg11  1  0.15271154  0.15271154  0.15271154  1
  Hg  Hg12  1  0.34164524  0.34164524  0.00000000  1
  Hg  Hg13  1  0.34164524  0.00000000  0.65835476  1
  Hg  Hg14  1  0.00000000  0.34164524  0.65835476  1
  Hg  Hg15  1  0.34164524  0.65835476  -0.00000000  1
  Hg  Hg16  1  0.34164524  0.00000000  0.34164524  1
  Hg  Hg17  1  0.00000000  0.65835476  0.34164524  1
  Hg  Hg18  1  0.65835476  0.34164524  0.00000000  1
  Hg  Hg19  1  0.65835476  0.00000000  0.34164524  1
  Hg  Hg20  1  0.00000000  0.34164524  0.34164524  1
  Hg  Hg21  1  0.65835476  0.65835476  -0.00000000  1
  Hg  Hg22  1  0.65835476  0.00000000  0.65835476  1
  Hg  Hg23  1  0.00000000  0.65835476  0.65835476  1
  Hg  Hg24  1  0.26227244  0.26227244  0.50000000  1
  Hg  Hg25  1  0.26227244  0.50000000  0.73772756  1
  Hg  Hg26  1  0.50000000  0.26227244  0.73772756  1
  Hg  Hg27  1  0.26227244  0.73772756  0.50000000  1
  Hg  Hg28  1  0.26227244  0.50000000  0.26227244  1
  Hg  Hg29  1  0.50000000  0.73772756  0.26227244  1
  Hg  Hg30  1  0.73772756  0.26227244  0.50000000  1
  Hg  Hg31  1  0.73772756  0.50000000  0.26227244  1
  Hg  Hg32  1  0.50000000  0.26227244  0.26227244  1
  Hg  Hg33  1  0.73772756  0.73772756  0.50000000  1
  Hg  Hg34  1  0.73772756  0.50000000  0.73772756  1
  Hg  Hg35  1  0.50000000  0.73772756  0.73772756  1
