# generated using pymatgen
data_Dy4In5S13
_symmetry_space_group_name_H-M   'P 1'
_cell_length_a   3.87153330
_cell_length_b   11.87752539
_cell_length_c   21.51993062
_cell_angle_alpha   90.00000000
_cell_angle_beta   90.00000000
_cell_angle_gamma   90.00000000
_symmetry_Int_Tables_number   1
_chemical_formula_structural   Dy4In5S13
_chemical_formula_sum   'Dy8 In10 S26'
_cell_volume   989.57754830
_cell_formula_units_Z   2
loop_
 _symmetry_equiv_pos_site_id
 _symmetry_equiv_pos_as_xyz
  1  'x, y, z'
loop_
 _atom_site_type_symbol
 _atom_site_label
 _atom_site_symmetry_multiplicity
 _atom_site_fract_x
 _atom_site_fract_y
 _atom_site_fract_z
 _atom_site_occupancy
  Dy  Dy0  1  0.00000000  0.67196918  0.34041240  1
  Dy  Dy1  1  0.00000000  0.32803082  0.65958760  1
  Dy  Dy2  1  0.00000000  0.82803082  0.84041240  1
  Dy  Dy3  1  0.00000000  0.17196918  0.15958760  1
  Dy  Dy4  1  -0.00000000  0.51512379  0.17182148  1
  Dy  Dy5  1  -0.00000000  0.48487621  0.82817852  1
  Dy  Dy6  1  0.00000000  0.98487621  0.67182148  1
  Dy  Dy7  1  0.00000000  0.01512379  0.32817852  1
  In  In8  1  0.00000000  0.50000000  0.50000000  1
  In  In9  1  0.00000000  0.00000000  -0.00000000  1
  In  In10  1  0.50000000  0.84472467  0.49339921  1
  In  In11  1  0.50000000  0.15527533  0.50660079  1
  In  In12  1  0.50000000  0.65527533  0.99339921  1
  In  In13  1  0.50000000  0.34472467  0.00660079  1
  In  In14  1  0.50000000  0.84406935  0.17078630  1
  In  In15  1  0.50000000  0.15593065  0.82921370  1
  In  In16  1  0.50000000  0.65593065  0.67078630  1
  In  In17  1  0.50000000  0.34406935  0.32921370  1
  S  S18  1  0.50000000  0.84863762  0.36566620  1
  S  S19  1  0.50000000  0.15136238  0.63433380  1
  S  S20  1  0.50000000  0.65136238  0.86566620  1
  S  S21  1  0.50000000  0.34863762  0.13433380  1
  S  S22  1  0.50000000  0.58014201  0.26107090  1
  S  S23  1  0.50000000  0.41985799  0.73892910  1
  S  S24  1  0.50000000  0.91985799  0.76107090  1
  S  S25  1  0.50000000  0.08014201  0.23892910  1
  S  S26  1  0.50000000  0.50516248  0.40539876  1
  S  S27  1  0.50000000  0.49483752  0.59460124  1
  S  S28  1  0.50000000  0.99483752  0.90539876  1
  S  S29  1  0.50000000  0.00516248  0.09460124  1
  S  S30  1  -0.00000000  0.70330002  0.47287987  1
  S  S31  1  0.00000000  0.29669998  0.52712013  1
  S  S32  1  0.00000000  0.79669998  0.97287987  1
  S  S33  1  -0.00000000  0.20330002  0.02712013  1
  S  S34  1  0.00000000  0.83256354  0.24276822  1
  S  S35  1  0.00000000  0.16743646  0.75723178  1
  S  S36  1  0.00000000  0.66743646  0.74276822  1
  S  S37  1  0.00000000  0.33256354  0.25723178  1
  S  S38  1  0.50000000  0.65571990  0.11542361  1
  S  S39  1  0.50000000  0.34428010  0.88457639  1
  S  S40  1  0.50000000  0.84428010  0.61542361  1
  S  S41  1  0.50000000  0.15571990  0.38457639  1
  S  S42  1  0.00000000  0.00000000  0.50000000  1
  S  S43  1  0.00000000  0.50000000  -0.00000000  1
