# generated using pymatgen
data_TbCrO5
_symmetry_space_group_name_H-M   'P 1'
_cell_length_a   8.26378916
_cell_length_b   8.35388020
_cell_length_c   11.55779095
_cell_angle_alpha   90.00000000
_cell_angle_beta   90.00000000
_cell_angle_gamma   90.77077419
_symmetry_Int_Tables_number   1
_chemical_formula_structural   TbCrO5
_chemical_formula_sum   'Tb8 Cr8 O40'
_cell_volume   797.81648781
_cell_formula_units_Z   8
loop_
 _symmetry_equiv_pos_site_id
 _symmetry_equiv_pos_as_xyz
  1  'x, y, z'
loop_
 _atom_site_type_symbol
 _atom_site_label
 _atom_site_symmetry_multiplicity
 _atom_site_fract_x
 _atom_site_fract_y
 _atom_site_fract_z
 _atom_site_occupancy
  Tb  Tb0  1  0.13286717  0.33344206  0.94016280  1
  Tb  Tb1  1  0.36713283  0.16655794  0.44016280  1
  Tb  Tb2  1  0.86713283  0.66655794  0.05983720  1
  Tb  Tb3  1  0.63286717  0.83344206  0.55983720  1
  Tb  Tb4  1  0.56972096  0.32122490  0.92241675  1
  Tb  Tb5  1  0.93027904  0.17877510  0.42241675  1
  Tb  Tb6  1  0.43027904  0.67877510  0.07758325  1
  Tb  Tb7  1  0.06972096  0.82122490  0.57758325  1
  Cr  Cr8  1  0.36300879  0.50042754  0.67331107  1
  Cr  Cr9  1  0.13699121  0.99957246  0.17331107  1
  Cr  Cr10  1  0.63699121  0.49957246  0.32668893  1
  Cr  Cr11  1  0.86300879  0.00042754  0.82668893  1
  Cr  Cr12  1  0.86125321  0.45655475  0.68973672  1
  Cr  Cr13  1  0.63874679  0.04344525  0.18973672  1
  Cr  Cr14  1  0.13874679  0.54344525  0.31026328  1
  Cr  Cr15  1  0.36125321  0.95655475  0.81026328  1
  O  O16  1  0.34349511  0.43446446  0.81175142  1
  O  O17  1  0.15650489  0.06553554  0.31175142  1
  O  O18  1  0.65650489  0.56553554  0.18824858  1
  O  O19  1  0.84349511  0.93446446  0.68824858  1
  O  O20  1  0.19335178  0.58392586  0.63161874  1
  O  O21  1  0.30664822  0.91607414  0.13161874  1
  O  O22  1  0.80664822  0.41607414  0.36838126  1
  O  O23  1  0.69335178  0.08392586  0.86838126  1
  O  O24  1  0.50478365  0.63985122  0.66757655  1
  O  O25  1  0.99521635  0.86014878  0.16757655  1
  O  O26  1  0.49521635  0.36014878  0.33242345  1
  O  O27  1  0.00478365  0.13985122  0.83242345  1
  O  O28  1  0.40365748  0.34872840  0.58608568  1
  O  O29  1  0.09634252  0.15127160  0.08608568  1
  O  O30  1  0.59634252  0.65127160  0.41391432  1
  O  O31  1  0.90365748  0.84872840  0.91391432  1
  O  O32  1  0.68617674  0.39330172  0.74075773  1
  O  O33  1  0.81382326  0.10669828  0.24075773  1
  O  O34  1  0.31382326  0.60669828  0.25924227  1
  O  O35  1  0.18617674  0.89330172  0.75924227  1
  O  O36  1  0.84223967  0.63432728  0.62003539  1
  O  O37  1  0.65776033  0.86567272  0.12003539  1
  O  O38  1  0.15776033  0.36567272  0.37996461  1
  O  O39  1  0.34223967  0.13432728  0.87996461  1
  O  O40  1  0.98175099  0.48002182  0.80621397  1
  O  O41  1  0.51824901  0.01997818  0.30621397  1
  O  O42  1  0.01824901  0.51997818  0.19378603  1
  O  O43  1  0.48175099  0.98002182  0.69378603  1
  O  O44  1  0.92759838  0.32053241  0.59826619  1
  O  O45  1  0.57240162  0.17946759  0.09826619  1
  O  O46  1  0.07240162  0.67946759  0.40173381  1
  O  O47  1  0.42759838  0.82053241  0.90173381  1
  O  O48  1  0.35634500  0.41974784  0.04122544  1
  O  O49  1  0.14365500  0.08025216  0.54122544  1
  O  O50  1  0.64365500  0.58025216  0.95877456  1
  O  O51  1  0.85634500  0.91974784  0.45877456  1
  O  O52  1  0.16016207  0.59872561  0.01428438  1
  O  O53  1  0.33983793  0.90127439  0.51428438  1
  O  O54  1  0.83983793  0.40127439  0.98571562  1
  O  O55  1  0.66016207  0.09872561  0.48571562  1
