# generated using pymatgen
data_CaCeAl2FeSi3O13
_symmetry_space_group_name_H-M   'P 1'
_cell_length_a   5.77121072
_cell_length_b   8.97181595
_cell_length_c   10.35851245
_cell_angle_alpha   116.50351125
_cell_angle_beta   90.00000000
_cell_angle_gamma   90.00000000
_symmetry_Int_Tables_number   1
_chemical_formula_structural   CaCeAl2FeSi3O13
_chemical_formula_sum   'Ca2 Ce2 Al4 Fe2 Si6 O26'
_cell_volume   479.97939343
_cell_formula_units_Z   2
loop_
 _symmetry_equiv_pos_site_id
 _symmetry_equiv_pos_as_xyz
  1  'x, y, z'
loop_
 _atom_site_type_symbol
 _atom_site_label
 _atom_site_symmetry_multiplicity
 _atom_site_fract_x
 _atom_site_fract_y
 _atom_site_fract_z
 _atom_site_occupancy
  Ca  Ca0  1  0.25000000  0.23384294  0.85145628  1
  Ca  Ca1  1  0.75000000  0.76615706  0.14854372  1
  Ce  Ce2  1  0.25000000  0.36774561  0.56349552  1
  Ce  Ce3  1  0.75000000  0.63225439  0.43650448  1
  Al  Al4  1  0.50000000  -0.00000000  -0.00000000  1
  Al  Al5  1  -0.00000000  -0.00000000  -0.00000000  1
  Al  Al6  1  0.50000000  -0.00000000  0.50000000  1
  Al  Al7  1  -0.00000000  -0.00000000  0.50000000  1
  Fe  Fe8  1  0.75000000  0.70537725  0.77518442  1
  Fe  Fe9  1  0.25000000  0.29462275  0.22481558  1
  Si  Si10  1  0.25000000  0.66182108  0.95568822  1
  Si  Si11  1  0.75000000  0.33817892  0.04431178  1
  Si  Si12  1  0.75000000  0.31788690  0.73175047  1
  Si  Si13  1  0.25000000  0.68211310  0.26824953  1
  Si  Si14  1  0.25000000  0.81015382  0.67332915  1
  Si  Si15  1  0.75000000  0.18984618  0.32667085  1
  O  O16  1  0.48991486  0.76647845  0.96844099  1
  O  O17  1  0.98991486  0.23352155  0.03155901  1
  O  O18  1  0.51008514  0.23352155  0.03155901  1
  O  O19  1  0.01008514  0.76647845  0.96844099  1
  O  O20  1  0.47443217  0.68191748  0.62668101  1
  O  O21  1  0.97443217  0.31808252  0.37331899  1
  O  O22  1  0.52556783  0.31808252  0.37331899  1
  O  O23  1  0.02556783  0.68191748  0.62668101  1
  O  O24  1  0.51655671  0.20416849  0.66886057  1
  O  O25  1  0.01655671  0.79583151  0.33113943  1
  O  O26  1  0.48344329  0.79583151  0.33113943  1
  O  O27  1  0.98344329  0.20416849  0.66886057  1
  O  O28  1  0.75000000  0.94712901  0.88033209  1
  O  O29  1  0.25000000  0.05287099  0.11966791  1
  O  O30  1  0.25000000  0.94699267  0.84674418  1
  O  O31  1  0.75000000  0.05300733  0.15325582  1
  O  O32  1  0.25000000  0.92801989  0.58827968  1
  O  O33  1  0.75000000  0.07198011  0.41172032  1
  O  O34  1  0.25000000  0.48630503  0.80942589  1
  O  O35  1  0.75000000  0.51369497  0.19057411  1
  O  O36  1  0.75000000  0.46169367  0.67894350  1
  O  O37  1  0.25000000  0.53830633  0.32105650  1
  O  O38  1  0.75000000  0.39353588  0.90982614  1
  O  O39  1  0.25000000  0.60646412  0.09017386  1
  O  O40  1  0.75000000  0.90153773  0.55158455  1
  O  O41  1  0.25000000  0.09846227  0.44841545  1
