# generated using pymatgen
data_CaMg5P3CO16
_symmetry_space_group_name_H-M   'P 1'
_cell_length_a   6.36529064
_cell_length_b   8.81042636
_cell_length_c   10.94957542
_cell_angle_alpha   95.21107467
_cell_angle_beta   101.15154409
_cell_angle_gamma   93.30388232
_symmetry_Int_Tables_number   1
_chemical_formula_structural   CaMg5P3CO16
_chemical_formula_sum   'Ca2 Mg10 P6 C2 O32'
_cell_volume   598.19860039
_cell_formula_units_Z   2
loop_
 _symmetry_equiv_pos_site_id
 _symmetry_equiv_pos_as_xyz
  1  'x, y, z'
loop_
 _atom_site_type_symbol
 _atom_site_label
 _atom_site_symmetry_multiplicity
 _atom_site_fract_x
 _atom_site_fract_y
 _atom_site_fract_z
 _atom_site_occupancy
  Ca  Ca0  1  0.87602312  0.68367719  0.93671591  1
  Ca  Ca1  1  0.12397688  0.31632281  0.06328409  1
  Mg  Mg2  1  0.30981854  0.03620377  0.90073095  1
  Mg  Mg3  1  0.69018146  0.96379623  0.09926905  1
  Mg  Mg4  1  0.65571622  0.47010772  0.38046787  1
  Mg  Mg5  1  0.34428378  0.52989228  0.61953213  1
  Mg  Mg6  1  0.08505659  0.82119230  0.67170625  1
  Mg  Mg7  1  0.91494341  0.17880770  0.32829375  1
  Mg  Mg8  1  0.58926656  0.35110303  0.81830236  1
  Mg  Mg9  1  0.41073344  0.64889697  0.18169764  1
  Mg  Mg10  1  0.66951591  0.13167829  0.54937831  1
  Mg  Mg11  1  0.33048409  0.86832171  0.45062169  1
  P  P12  1  0.20165266  0.96821482  0.17046758  1
  P  P13  1  0.79834734  0.03178518  0.82953242  1
  P  P14  1  0.78818864  0.84122063  0.39137522  1
  P  P15  1  0.21181136  0.15877937  0.60862478  1
  P  P16  1  0.36883655  0.66918203  0.92541305  1
  P  P17  1  0.63116345  0.33081797  0.07458695  1
  C  C18  1  0.85125685  0.51505937  0.66152690  1
  C  C19  1  0.14874315  0.48494063  0.33847310  1
  O  O20  1  0.36841556  0.00435212  0.08858397  1
  O  O21  1  0.63158444  0.99564788  0.91141603  1
  O  O22  1  0.99070237  0.88954294  0.08784099  1
  O  O23  1  0.00929763  0.11045706  0.91215901  1
  O  O24  1  0.15965788  0.12267330  0.23820248  1
  O  O25  1  0.84034212  0.87732670  0.76179752  1
  O  O26  1  0.29918181  0.85137750  0.26123607  1
  O  O27  1  0.70081819  0.14862250  0.73876393  1
  O  O28  1  0.01552082  0.82314039  0.46725044  1
  O  O29  1  0.98447918  0.17685961  0.53274956  1
  O  O30  1  0.65515960  0.90924380  0.48452696  1
  O  O31  1  0.34484040  0.09075620  0.51547304  1
  O  O32  1  0.79563969  0.95117264  0.28970255  1
  O  O33  1  0.20436031  0.04882736  0.71029745  1
  O  O34  1  0.67391931  0.68439565  0.32905141  1
  O  O35  1  0.32608069  0.31560435  0.67094859  1
  O  O36  1  0.56032567  0.73359463  0.03527060  1
  O  O37  1  0.43967433  0.26640537  0.96472940  1
  O  O38  1  0.23768482  0.79415981  0.86312714  1
  O  O39  1  0.76231518  0.20584019  0.13687286  1
  O  O40  1  0.46545565  0.57230353  0.82740047  1
  O  O41  1  0.53454435  0.42769647  0.17259953  1
  O  O42  1  0.21884145  0.57746787  0.99455497  1
  O  O43  1  0.78115855  0.42253213  0.00544503  1
  O  O44  1  0.64718567  0.24429484  0.39458086  1
  O  O45  1  0.35281433  0.75570516  0.60541914  1
  O  O46  1  0.84602902  0.48071329  0.77324499  1
  O  O47  1  0.15397098  0.51928671  0.22675501  1
  O  O48  1  0.02391900  0.58172090  0.63749271  1
  O  O49  1  0.97608100  0.41827910  0.36250729  1
  O  O50  1  0.67882458  0.48627638  0.57530824  1
  O  O51  1  0.32117542  0.51372362  0.42469176  1
