# generated using pymatgen
data_Tm3(CuSn)4
_symmetry_space_group_name_H-M   'P 1'
_cell_length_a   4.14932540
_cell_length_b   8.42842004
_cell_length_c   8.16919947
_cell_angle_alpha   120.92693720
_cell_angle_beta   104.68712075
_cell_angle_gamma   89.99364550
_symmetry_Int_Tables_number   1
_chemical_formula_structural   Tm3(CuSn)4
_chemical_formula_sum   'Tm3 Cu4 Sn4'
_cell_volume   234.13200597
_cell_formula_units_Z   1
loop_
 _symmetry_equiv_pos_site_id
 _symmetry_equiv_pos_as_xyz
  1  'x, y, z'
loop_
 _atom_site_type_symbol
 _atom_site_label
 _atom_site_symmetry_multiplicity
 _atom_site_fract_x
 _atom_site_fract_y
 _atom_site_fract_z
 _atom_site_occupancy
  Tm  Tm0  1  0.85369913  0.84857018  0.70734745  1
  Tm  Tm1  1  0.14630087  0.15142982  0.29265255  1
  Tm  Tm2  1  0.50000000  0.50000000  0.00000000  1
  Cu  Cu3  1  0.30895006  0.07257491  0.61816118  1
  Cu  Cu4  1  0.69104994  0.92742509  0.38183882  1
  Cu  Cu5  1  0.31196984  0.54991628  0.62409990  1
  Cu  Cu6  1  0.68803016  0.45008372  0.37590010  1
  Sn  Sn7  1  0.17486375  0.67516434  0.34961829  1
  Sn  Sn8  1  0.82513625  0.32483566  0.65038171  1
  Sn  Sn9  1  0.49814405  0.15942593  0.99547488  1
  Sn  Sn10  1  0.50185595  0.84057407  0.00452512  1
