# generated using pymatgen
data_Y2Cu5Ni12
_symmetry_space_group_name_H-M   'P 1'
_cell_length_a   8.13269453
_cell_length_b   8.32422246
_cell_length_c   8.32422246
_cell_angle_alpha   119.88002800
_cell_angle_beta   90.00000000
_cell_angle_gamma   90.00000000
_symmetry_Int_Tables_number   1
_chemical_formula_structural   Y2Cu5Ni12
_chemical_formula_sum   'Y4 Cu10 Ni24'
_cell_volume   488.62558727
_cell_formula_units_Z   2
loop_
 _symmetry_equiv_pos_site_id
 _symmetry_equiv_pos_as_xyz
  1  'x, y, z'
loop_
 _atom_site_type_symbol
 _atom_site_label
 _atom_site_symmetry_multiplicity
 _atom_site_fract_x
 _atom_site_fract_y
 _atom_site_fract_z
 _atom_site_occupancy
  Y  Y0  1  0.75000000  0.99964185  0.00035815  1
  Y  Y1  1  0.25000000  0.00035815  0.99964185  1
  Y  Y2  1  0.25000000  0.66633892  0.33366108  1
  Y  Y3  1  0.75000000  0.33366108  0.66633892  1
  Cu  Cu4  1  0.60504283  0.66669139  0.33330861  1
  Cu  Cu5  1  0.39495717  0.33330861  0.66669139  1
  Cu  Cu6  1  0.10504283  0.33330861  0.66669139  1
  Cu  Cu7  1  0.89495717  0.66669139  0.33330861  1
  Cu  Cu8  1  0.50000000  0.50000000  0.00000000  1
  Cu  Cu9  1  0.50000000  0.50000000  0.50000000  1
  Cu  Cu10  1  0.50000000  -0.00000000  0.50000000  1
  Cu  Cu11  1  -0.00000000  0.50000000  0.00000000  1
  Cu  Cu12  1  -0.00000000  0.50000000  0.50000000  1
  Cu  Cu13  1  -0.00000000  -0.00000000  0.50000000  1
  Ni  Ni14  1  0.75000000  0.67404837  0.03801407  1
  Ni  Ni15  1  0.75000000  0.36395632  0.32601386  1
  Ni  Ni16  1  0.75000000  0.96204939  0.63631683  1
  Ni  Ni17  1  0.75000000  0.36368317  0.03795061  1
  Ni  Ni18  1  0.75000000  0.96198593  0.32595163  1
  Ni  Ni19  1  0.75000000  0.67398614  0.63604368  1
  Ni  Ni20  1  0.25000000  0.32595163  0.96198593  1
  Ni  Ni21  1  0.25000000  0.63604368  0.67398614  1
  Ni  Ni22  1  0.25000000  0.03795061  0.36368317  1
  Ni  Ni23  1  0.25000000  0.63631683  0.96204939  1
  Ni  Ni24  1  0.25000000  0.03801407  0.67404837  1
  Ni  Ni25  1  0.25000000  0.32601386  0.36395632  1
  Ni  Ni26  1  0.48175675  0.83569914  0.67151943  1
  Ni  Ni27  1  0.48185489  0.83577591  0.16422409  1
  Ni  Ni28  1  0.48175675  0.32848057  0.16430086  1
  Ni  Ni29  1  0.51824325  0.16430086  0.32848057  1
  Ni  Ni30  1  0.51814511  0.16422409  0.83577591  1
  Ni  Ni31  1  0.51824325  0.67151943  0.83569914  1
  Ni  Ni32  1  0.98175675  0.16430086  0.32848057  1
  Ni  Ni33  1  0.98185489  0.16422409  0.83577591  1
  Ni  Ni34  1  0.98175675  0.67151943  0.83569914  1
  Ni  Ni35  1  0.01824325  0.83569914  0.67151943  1
  Ni  Ni36  1  0.01814511  0.83577591  0.16422409  1
  Ni  Ni37  1  0.01824325  0.32848057  0.16430086  1
