# generated using pymatgen
data_ThH28C12(N2O3)6
_symmetry_space_group_name_H-M   'P 1'
_cell_length_a   11.79515369
_cell_length_b   11.79515369
_cell_length_c   13.30206759
_cell_angle_alpha   65.20616698
_cell_angle_beta   65.20616698
_cell_angle_gamma   62.77145783
_symmetry_Int_Tables_number   1
_chemical_formula_structural   ThH28C12(N2O3)6
_chemical_formula_sum   'Th2 H56 C24 N24 O36'
_cell_volume   1433.35246553
_cell_formula_units_Z   2
loop_
 _symmetry_equiv_pos_site_id
 _symmetry_equiv_pos_as_xyz
  1  'x, y, z'
loop_
 _atom_site_type_symbol
 _atom_site_label
 _atom_site_symmetry_multiplicity
 _atom_site_fract_x
 _atom_site_fract_y
 _atom_site_fract_z
 _atom_site_occupancy
  Th  Th0  1  0.54884639  0.45115361  0.75000000  1
  Th  Th1  1  0.45115361  0.54884639  0.25000000  1
  H  H2  1  0.21665266  0.46292859  0.75382016  1
  H  H3  1  0.53707141  0.78334734  0.74617984  1
  H  H4  1  0.78334734  0.53707141  0.24617984  1
  H  H5  1  0.46292859  0.21665266  0.25382016  1
  H  H6  1  0.09701108  0.44898822  0.74415685  1
  H  H7  1  0.55101178  0.90298892  0.75584315  1
  H  H8  1  0.90298892  0.55101178  0.25584315  1
  H  H9  1  0.44898822  0.09701108  0.24415685  1
  H  H10  1  0.64805312  0.03573432  0.04525599  1
  H  H11  1  0.96426568  0.35194688  0.45474401  1
  H  H12  1  0.35194688  0.96426568  0.95474401  1
  H  H13  1  0.03573432  0.64805312  0.54525599  1
  H  H14  1  0.72243839  0.15707452  0.94657505  1
  H  H15  1  0.84292548  0.27756161  0.55342495  1
  H  H16  1  0.27756161  0.84292548  0.05342495  1
  H  H17  1  0.15707452  0.72243839  0.44657505  1
  H  H18  1  0.95300038  0.08725162  0.85621556  1
  H  H19  1  0.91274838  0.04699962  0.64378444  1
  H  H20  1  0.04699962  0.91274838  0.14378444  1
  H  H21  1  0.08725162  0.95300038  0.35621556  1
  H  H22  1  0.03645799  0.91406798  0.86669041  1
  H  H23  1  0.08593202  0.96354201  0.63330959  1
  H  H24  1  0.96354201  0.08593202  0.13330959  1
  H  H25  1  0.91406798  0.03645799  0.36669041  1
  H  H26  1  0.76899592  0.81381700  0.06912040  1
  H  H27  1  0.18618300  0.23100408  0.43087960  1
  H  H28  1  0.23100408  0.18618300  0.93087960  1
  H  H29  1  0.81381700  0.76899592  0.56912040  1
  H  H30  1  0.94055934  0.76290530  0.99968726  1
  H  H31  1  0.23709470  0.05944066  0.50031274  1
  H  H32  1  0.05944066  0.23709470  0.00031274  1
  H  H33  1  0.76290530  0.94055934  0.49968726  1
  H  H34  1  0.21157674  0.46712197  0.98898951  1
  H  H35  1  0.53287803  0.78842326  0.51101049  1
  H  H36  1  0.78842326  0.53287803  0.01101049  1
  H  H37  1  0.46712197  0.21157674  0.48898951  1
  H  H38  1  0.05178570  0.48967575  0.08833736  1
  H  H39  1  0.51032425  0.94821430  0.41166264  1
  H  H40  1  0.94821430  0.51032425  0.91166264  1
  H  H41  1  0.48967575  0.05178570  0.58833736  1
  H  H42  1  0.37829056  0.25139678  0.03213124  1
  H  H43  1  0.74860322  0.62170944  0.46786876  1
  H  H44  1  0.62170944  0.74860322  0.96786876  1
  H  H45  1  0.25139678  0.37829056  0.53213124  1
  H  H46  1  0.32955792  0.12212340  0.14661319  1
  H  H47  1  0.87787660  0.67044208  0.35338681  1
  H  H48  1  0.67044208  0.87787660  0.85338681  1
  H  H49  1  0.12212340  0.32955792  0.64661319  1
  H  H50  1  0.99939391  0.32799985  0.24289766  1
  H  H51  1  0.67200015  0.00060609  0.25710234  1
  H  H52  1  0.00060609  0.67200015  0.75710234  1
  H  H53  1  0.32799985  0.99939391  0.74289766  1
  H  H54  1  0.12217292  0.16785730  0.27340815  1
  H  H55  1  0.83214270  0.87782708  0.22659185  1
  H  H56  1  0.87782708  0.83214270  0.72659185  1
  H  H57  1  0.16785730  0.12217292  0.77340815  1
  C  C58  1  0.66233874  0.13936273  0.72927472  1
  C  C59  1  0.86063727  0.33766126  0.77072528  1
  C  C60  1  0.33766126  0.86063727  0.27072528  1
  C  C61  1  0.13936273  0.66233874  0.22927472  1
  C  C62  1  0.52205818  0.15239413  0.81715813  1
  C  C63  1  0.84760587  0.47794182  0.68284187  1
  C  C64  1  0.47794182  0.84760587  0.18284187  1
  C  C65  1  0.15239413  0.52205818  0.31715813  1
  C  C66  1  0.24758193  0.67754015  0.80975746  1
  C  C67  1  0.32245985  0.75241807  0.69024254  1
  C  C68  1  0.75241807  0.32245985  0.19024254  1
  C  C69  1  0.67754015  0.24758193  0.30975746  1
  C  C70  1  0.43181749  0.49057326  0.53341596  1
  C  C71  1  0.50942674  0.56818251  0.96658404  1
  C  C72  1  0.56818251  0.50942674  0.46658404  1
  C  C73  1  0.49057326  0.43181749  0.03341596  1
  C  C74  1  0.84585602  0.96344009  0.96739212  1
  C  C75  1  0.03655991  0.15414398  0.53260788  1
  C  C76  1  0.15414398  0.03655991  0.03260788  1
  C  C77  1  0.96344009  0.84585602  0.46739212  1
  C  C78  1  0.18437208  0.30525898  0.13001214  1
  C  C79  1  0.69474102  0.81562792  0.36998786  1
  C  C80  1  0.81562792  0.69474102  0.86998786  1
  C  C81  1  0.30525898  0.18437208  0.63001214  1
  N  N82  1  0.73089791  0.06078459  0.99433674  1
  N  N83  1  0.93921541  0.26910209  0.50566326  1
  N  N84  1  0.26910209  0.93921541  0.00566326  1
  N  N85  1  0.06078459  0.73089791  0.49433674  1
  N  N86  1  0.95452864  0.99083535  0.89263440  1
  N  N87  1  0.00916465  0.04547136  0.60736560  1
  N  N88  1  0.04547136  0.00916465  0.10736560  1
  N  N89  1  0.99083535  0.95452864  0.39263440  1
  N  N90  1  0.85276396  0.83622246  0.01912967  1
  N  N91  1  0.16377754  0.14723604  0.48087033  1
  N  N92  1  0.14723604  0.16377754  0.98087033  1
  N  N93  1  0.83622246  0.85276396  0.51912967  1
  N  N94  1  0.14866178  0.43119475  0.06509503  1
  N  N95  1  0.56880525  0.85133822  0.43490497  1
  N  N96  1  0.85133822  0.56880525  0.93490497  1
  N  N97  1  0.43119475  0.14866178  0.56509503  1
  N  N98  1  0.30871026  0.22101153  0.10388534  1
  N  N99  1  0.77898847  0.69128974  0.39611466  1
  N  N100  1  0.69128974  0.77898847  0.89611466  1
  N  N101  1  0.22101153  0.30871026  0.60388534  1
  N  N102  1  0.09394412  0.26295310  0.22386752  1
  N  N103  1  0.73704690  0.90605588  0.27613248  1
  N  N104  1  0.90605588  0.73704690  0.77613248  1
  N  N105  1  0.26295310  0.09394412  0.72386752  1
  O  O106  1  0.68594538  0.24922256  0.67794543  1
  O  O107  1  0.75077744  0.31405462  0.82205457  1
  O  O108  1  0.31405462  0.75077744  0.32205457  1
  O  O109  1  0.24922256  0.68594538  0.17794543  1
  O  O110  1  0.74140911  0.02793811  0.71536713  1
  O  O111  1  0.97206189  0.25859089  0.78463287  1
  O  O112  1  0.25859089  0.97206189  0.28463287  1
  O  O113  1  0.02793811  0.74140911  0.21536713  1
  O  O114  1  0.47831769  0.05935697  0.85404981  1
  O  O115  1  0.94064303  0.52168231  0.64595019  1
  O  O116  1  0.52168231  0.94064303  0.14595019  1
  O  O117  1  0.05935697  0.47831769  0.35404981  1
  O  O118  1  0.46326058  0.26196667  0.84481451  1
  O  O119  1  0.73803333  0.53673942  0.65518549  1
  O  O120  1  0.53673942  0.73803333  0.15518549  1
  O  O121  1  0.26196667  0.46326058  0.34481451  1
  O  O122  1  0.31347957  0.55263402  0.84486742  1
  O  O123  1  0.44736598  0.68652043  0.65513258  1
  O  O124  1  0.68652043  0.44736598  0.15513258  1
  O  O125  1  0.55263402  0.31347957  0.34486742  1
  O  O126  1  0.13447438  0.73780517  0.86271096  1
  O  O127  1  0.26219483  0.86552562  0.63728904  1
  O  O128  1  0.86552562  0.26219483  0.13728904  1
  O  O129  1  0.73780517  0.13447438  0.36271096  1
  O  O130  1  0.39818787  0.46561765  0.64244257  1
  O  O131  1  0.53438235  0.60181213  0.85755743  1
  O  O132  1  0.60181213  0.53438235  0.35755743  1
  O  O133  1  0.46561765  0.39818787  0.14244257  1
  O  O134  1  0.36533069  0.50135706  0.47383490  1
  O  O135  1  0.49864294  0.63466931  0.02616510  1
  O  O136  1  0.63466931  0.49864294  0.52616510  1
  O  O137  1  0.50135706  0.36533069  0.97383490  1
  O  O138  1  0.12155013  0.47514078  0.79072033  1
  O  O139  1  0.52485922  0.87844987  0.70927967  1
  O  O140  1  0.87844987  0.52485922  0.20927967  1
  O  O141  1  0.47514078  0.12155013  0.29072033  1
