# generated using pymatgen
data_RbZrN3O11
_symmetry_space_group_name_H-M   'P 1'
_cell_length_a   6.06012867
_cell_length_b   9.94753532
_cell_length_c   17.18851063
_cell_angle_alpha   90.00000000
_cell_angle_beta   90.00000000
_cell_angle_gamma   90.00000000
_symmetry_Int_Tables_number   1
_chemical_formula_structural   RbZrN3O11
_chemical_formula_sum   'Rb4 Zr4 N12 O44'
_cell_volume   1036.18089896
_cell_formula_units_Z   4
loop_
 _symmetry_equiv_pos_site_id
 _symmetry_equiv_pos_as_xyz
  1  'x, y, z'
loop_
 _atom_site_type_symbol
 _atom_site_label
 _atom_site_symmetry_multiplicity
 _atom_site_fract_x
 _atom_site_fract_y
 _atom_site_fract_z
 _atom_site_occupancy
  Rb  Rb0  1  0.75000000  0.50000000  0.82972666  1
  Rb  Rb1  1  0.25000000  -0.00000000  0.67027334  1
  Rb  Rb2  1  0.25000000  0.50000000  0.17027334  1
  Rb  Rb3  1  0.75000000  -0.00000000  0.32972666  1
  Zr  Zr4  1  0.25000000  0.50000000  0.55920424  1
  Zr  Zr5  1  0.75000000  -0.00000000  0.94079576  1
  Zr  Zr6  1  0.75000000  0.50000000  0.44079576  1
  Zr  Zr7  1  0.25000000  -0.00000000  0.05920424  1
  N  N8  1  0.41590351  0.66112152  0.67680104  1
  N  N9  1  0.91590351  0.83887848  0.82319896  1
  N  N10  1  0.58409649  0.16112152  0.82319896  1
  N  N11  1  0.08409649  0.33887848  0.67680104  1
  N  N12  1  0.58409649  0.33887848  0.32319896  1
  N  N13  1  0.08409649  0.16112152  0.17680104  1
  N  N14  1  0.41590351  0.83887848  0.17680104  1
  N  N15  1  0.91590351  0.66112152  0.32319896  1
  N  N16  1  0.25000000  -0.00000000  0.42300655  1
  N  N17  1  0.75000000  0.50000000  0.07699345  1
  N  N18  1  0.75000000  -0.00000000  0.57699345  1
  N  N19  1  0.25000000  0.50000000  0.92300655  1
  O  O20  1  0.51275191  0.39451594  0.50730438  1
  O  O21  1  0.01275191  0.10548406  0.99269562  1
  O  O22  1  0.48724809  0.89451594  0.99269562  1
  O  O23  1  0.98724809  0.60548406  0.50730438  1
  O  O24  1  0.48724809  0.60548406  0.49269562  1
  O  O25  1  0.98724809  0.89451594  0.00730438  1
  O  O26  1  0.51275191  0.10548406  0.00730438  1
  O  O27  1  0.01275191  0.39451594  0.49269562  1
  O  O28  1  0.26502634  0.70076168  0.62855862  1
  O  O29  1  0.76502634  0.79923832  0.87144138  1
  O  O30  1  0.73497366  0.20076168  0.87144138  1
  O  O31  1  0.23497366  0.29923832  0.62855862  1
  O  O32  1  0.73497366  0.29923832  0.37144138  1
  O  O33  1  0.23497366  0.20076168  0.12855862  1
  O  O34  1  0.26502634  0.79923832  0.12855862  1
  O  O35  1  0.76502634  0.70076168  0.37144138  1
  O  O36  1  0.48018056  0.53837674  0.66714140  1
  O  O37  1  0.98018056  0.96162326  0.83285860  1
  O  O38  1  0.51981944  0.03837674  0.83285860  1
  O  O39  1  0.01981944  0.46162326  0.66714140  1
  O  O40  1  0.51981944  0.46162326  0.33285860  1
  O  O41  1  0.01981944  0.03837674  0.16714140  1
  O  O42  1  0.48018056  0.96162326  0.16714140  1
  O  O43  1  0.98018056  0.53837674  0.33285860  1
  O  O44  1  0.49112918  0.73408891  0.72758663  1
  O  O45  1  0.99112918  0.76591109  0.77241337  1
  O  O46  1  0.50887082  0.23408891  0.77241337  1
  O  O47  1  0.00887082  0.26591109  0.72758663  1
  O  O48  1  0.50887082  0.26591109  0.27241337  1
  O  O49  1  0.00887082  0.23408891  0.22758663  1
  O  O50  1  0.49112918  0.76591109  0.22758663  1
  O  O51  1  0.99112918  0.73408891  0.27241337  1
  O  O52  1  0.25000000  -0.00000000  0.34909822  1
  O  O53  1  0.75000000  0.50000000  0.15090178  1
  O  O54  1  0.75000000  -0.00000000  0.65090178  1
  O  O55  1  0.25000000  0.50000000  0.84909822  1
  O  O56  1  0.34575840  0.09286845  0.45896269  1
  O  O57  1  0.84575840  0.40713155  0.04103731  1
  O  O58  1  0.65424160  0.59286845  0.04103731  1
  O  O59  1  0.15424160  0.90713155  0.45896269  1
  O  O60  1  0.65424160  0.90713155  0.54103731  1
  O  O61  1  0.15424160  0.59286845  0.95896269  1
  O  O62  1  0.34575840  0.40713155  0.95896269  1
  O  O63  1  0.84575840  0.09286845  0.54103731  1
