# generated using pymatgen
data_La(IO3)4
_symmetry_space_group_name_H-M   'P 1'
_cell_length_a   7.74499291
_cell_length_b   10.75713645
_cell_length_c   14.53664779
_cell_angle_alpha   110.33520946
_cell_angle_beta   90.00000000
_cell_angle_gamma   90.00000000
_symmetry_Int_Tables_number   1
_chemical_formula_structural   La(IO3)4
_chemical_formula_sum   'La4 I16 O48'
_cell_volume   1135.62400936
_cell_formula_units_Z   4
loop_
 _symmetry_equiv_pos_site_id
 _symmetry_equiv_pos_as_xyz
  1  'x, y, z'
loop_
 _atom_site_type_symbol
 _atom_site_label
 _atom_site_symmetry_multiplicity
 _atom_site_fract_x
 _atom_site_fract_y
 _atom_site_fract_z
 _atom_site_occupancy
  La  La0  1  0.76176635  0.68119907  0.14006278  1
  La  La1  1  0.26176635  0.31880093  0.35993722  1
  La  La2  1  0.23823365  0.31880093  0.85993722  1
  La  La3  1  0.73823365  0.68119907  0.64006278  1
  I  I4  1  0.63711051  0.05203756  0.27012943  1
  I  I5  1  0.13711051  0.94796244  0.22987057  1
  I  I6  1  0.36288949  0.94796244  0.72987057  1
  I  I7  1  0.86288949  0.05203756  0.77012943  1
  I  I8  1  0.83451131  0.85151556  0.43793706  1
  I  I9  1  0.33451131  0.14848444  0.06206294  1
  I  I10  1  0.16548869  0.14848444  0.56206294  1
  I  I11  1  0.66548869  0.85151556  0.93793706  1
  I  I12  1  0.26637864  0.53491135  0.13889057  1
  I  I13  1  0.76637864  0.46508865  0.36110943  1
  I  I14  1  0.73362136  0.46508865  0.86110943  1
  I  I15  1  0.23362136  0.53491135  0.63889057  1
  I  I16  1  0.82649277  0.29661126  0.05799077  1
  I  I17  1  0.32649277  0.70338874  0.44200923  1
  I  I18  1  0.17350723  0.70338874  0.94200923  1
  I  I19  1  0.67350723  0.29661126  0.55799077  1
  O  O20  1  0.57268693  0.87947029  0.20994394  1
  O  O21  1  0.07268693  0.12052971  0.29005606  1
  O  O22  1  0.42731307  0.12052971  0.79005606  1
  O  O23  1  0.92731307  0.87947029  0.70994394  1
  O  O24  1  0.41220208  0.10403188  0.30728463  1
  O  O25  1  0.91220208  0.89596812  0.19271537  1
  O  O26  1  0.58779792  0.89596812  0.69271537  1
  O  O27  1  0.08779792  0.10403188  0.80728463  1
  O  O28  1  0.71395381  0.05644156  0.39097871  1
  O  O29  1  0.21395381  0.94355844  0.10902129  1
  O  O30  1  0.28604619  0.94355844  0.60902129  1
  O  O31  1  0.78604619  0.05644156  0.89097871  1
  O  O32  1  0.77442954  0.73029368  0.31831993  1
  O  O33  1  0.27442954  0.26970632  0.18168007  1
  O  O34  1  0.22557046  0.26970632  0.68168007  1
  O  O35  1  0.72557046  0.73029368  0.81831993  1
  O  O36  1  0.89708609  0.72856575  0.49506959  1
  O  O37  1  0.39708609  0.27143425  0.00493041  1
  O  O38  1  0.10291391  0.27143425  0.50493041  1
  O  O39  1  0.60291391  0.72856575  0.99506959  1
  O  O40  1  0.05006967  0.89330733  0.40708418  1
  O  O41  1  0.55006967  0.10669267  0.09291582  1
  O  O42  1  0.94993033  0.10669267  0.59291582  1
  O  O43  1  0.44993033  0.89330733  0.90708418  1
  O  O44  1  0.46535437  0.62547363  0.17864687  1
  O  O45  1  0.96535437  0.37452637  0.32135313  1
  O  O46  1  0.53464563  0.37452637  0.82135313  1
  O  O47  1  0.03464563  0.62547363  0.67864687  1
  O  O48  1  0.10203895  0.66578822  0.17955530  1
  O  O49  1  0.60203895  0.33421178  0.32044470  1
  O  O50  1  0.89796105  0.33421178  0.82044470  1
  O  O51  1  0.39796105  0.66578822  0.67955530  1
  O  O52  1  0.27947473  0.52798178  0.00917655  1
  O  O53  1  0.77947473  0.47201822  0.49082345  1
  O  O54  1  0.72052527  0.47201822  0.99082345  1
  O  O55  1  0.22052527  0.52798178  0.50917655  1
  O  O56  1  0.79284326  0.45032346  0.16483063  1
  O  O57  1  0.29284326  0.54967654  0.33516937  1
  O  O58  1  0.20715674  0.54967654  0.83516937  1
  O  O59  1  0.70715674  0.45032346  0.66483063  1
  O  O60  1  0.03723050  0.32910935  0.01442634  1
  O  O61  1  0.53723050  0.67089065  0.48557366  1
  O  O62  1  0.96276950  0.67089065  0.98557366  1
  O  O63  1  0.46276950  0.32910935  0.51442634  1
  O  O64  1  0.89561281  0.18192036  0.11878630  1
  O  O65  1  0.39561281  0.81807964  0.38121370  1
  O  O66  1  0.10438719  0.81807964  0.88121370  1
  O  O67  1  0.60438719  0.18192036  0.61878630  1
