# generated using pymatgen
data_CuH10C2(NCl2)2
_symmetry_space_group_name_H-M   'P 1'
_cell_length_a   7.23686933
_cell_length_b   7.52792174
_cell_length_c   8.27369582
_cell_angle_alpha   90.00000000
_cell_angle_beta   89.66560648
_cell_angle_gamma   90.00000000
_symmetry_Int_Tables_number   1
_chemical_formula_structural   CuH10C2(NCl2)2
_chemical_formula_sum   'Cu2 H20 C4 N4 Cl8'
_cell_volume   450.73157205
_cell_formula_units_Z   2
loop_
 _symmetry_equiv_pos_site_id
 _symmetry_equiv_pos_as_xyz
  1  'x, y, z'
loop_
 _atom_site_type_symbol
 _atom_site_label
 _atom_site_symmetry_multiplicity
 _atom_site_fract_x
 _atom_site_fract_y
 _atom_site_fract_z
 _atom_site_occupancy
  Cu  Cu0  1  0.50000000  -0.00000000  0.50000000  1
  Cu  Cu1  1  0.00000000  0.50000000  0.50000000  1
  H  H2  1  0.57366520  0.54758837  0.31688735  1
  H  H3  1  0.92633480  0.04758837  0.68311265  1
  H  H4  1  0.42633480  0.45241163  0.68311265  1
  H  H5  1  0.07366520  0.95241163  0.31688735  1
  H  H6  1  0.35881561  0.48762162  0.25174438  1
  H  H7  1  0.14118439  0.98762162  0.74825562  1
  H  H8  1  0.64118439  0.51237838  0.74825562  1
  H  H9  1  0.85881561  0.01237838  0.25174438  1
  H  H10  1  0.53373978  0.34213031  0.23743349  1
  H  H11  1  0.96626022  0.84213031  0.76256651  1
  H  H12  1  0.46626022  0.65786969  0.76256651  1
  H  H13  1  0.03373978  0.15786969  0.23743349  1
  H  H14  1  0.70023379  0.54203331  0.05455065  1
  H  H15  1  0.79976621  0.04203331  0.94544935  1
  H  H16  1  0.29976621  0.45796669  0.94544935  1
  H  H17  1  0.20023379  0.95796669  0.05455065  1
  H  H18  1  0.51074603  0.69260520  0.06650827  1
  H  H19  1  0.98925397  0.19260520  0.93349173  1
  H  H20  1  0.48925397  0.30739480  0.93349173  1
  H  H21  1  0.01074603  0.80739480  0.06650827  1
  C  C22  1  0.54917226  0.55123537  0.06678143  1
  C  C23  1  0.95082774  0.05123537  0.93321857  1
  C  C24  1  0.45082774  0.44876463  0.93321857  1
  C  C25  1  0.04917226  0.94876463  0.06678143  1
  N  N26  1  0.49974373  0.47702226  0.22839636  1
  N  N27  1  0.00025627  0.97702226  0.77160364  1
  N  N28  1  0.50025627  0.52297774  0.77160364  1
  N  N29  1  -0.00025627  0.02297774  0.22839636  1
  Cl  Cl30  1  0.53651846  0.05046632  0.22304055  1
  Cl  Cl31  1  0.96348154  0.55046632  0.77695945  1
  Cl  Cl32  1  0.46348154  0.94953368  0.77695945  1
  Cl  Cl33  1  0.03651846  0.44953368  0.22304055  1
  Cl  Cl34  1  0.23626697  0.30226979  0.54868504  1
  Cl  Cl35  1  0.26373303  0.80226979  0.45131496  1
  Cl  Cl36  1  0.76373303  0.69773021  0.45131496  1
  Cl  Cl37  1  0.73626697  0.19773021  0.54868504  1
