# generated using pymatgen
data_H14C3NCl5
_symmetry_space_group_name_H-M   'P 1'
_cell_length_a   8.03355463
_cell_length_b   8.22508466
_cell_length_c   13.21319250
_cell_angle_alpha   82.43643643
_cell_angle_beta   74.36380323
_cell_angle_gamma   60.76735437
_symmetry_Int_Tables_number   1
_chemical_formula_structural   H14C3NCl5
_chemical_formula_sum   'H28 C6 N2 Cl10'
_cell_volume   733.69553726
_cell_formula_units_Z   2
loop_
 _symmetry_equiv_pos_site_id
 _symmetry_equiv_pos_as_xyz
  1  'x, y, z'
loop_
 _atom_site_type_symbol
 _atom_site_label
 _atom_site_symmetry_multiplicity
 _atom_site_fract_x
 _atom_site_fract_y
 _atom_site_fract_z
 _atom_site_occupancy
  H  H0  1  0.86822765  0.92253798  0.67573310  1
  H  H1  1  0.29076563  0.07746202  0.17573310  1
  H  H2  1  0.41989992  0.49711381  0.81406860  1
  H  H3  1  0.41701373  0.50288619  0.31406860  1
  H  H4  1  0.97777387  0.21783602  0.78552102  1
  H  H5  1  0.69560989  0.78216398  0.28552102  1
  H  H6  1  0.68087977  0.36076632  0.62657930  1
  H  H7  1  0.54164608  0.63923368  0.12657930  1
  H  H8  1  0.71627373  0.07747125  0.91989601  1
  H  H9  1  0.29374498  0.92252875  0.41989601  1
  H  H10  1  0.55924000  0.05088888  0.63358124  1
  H  H11  1  0.11012888  0.94911112  0.13358124  1
  H  H12  1  0.75653274  0.98921964  0.51630957  1
  H  H13  1  0.24575237  0.01078036  0.01630957  1
  H  H14  1  0.64665992  0.84073197  0.56331058  1
  H  H15  1  0.98739189  0.15926803  0.06331058  1
  H  H16  1  0.85294081  0.67953446  0.79511835  1
  H  H17  1  0.03247527  0.32046554  0.29511835  1
  H  H18  1  0.61606918  0.87384021  0.79285453  1
  H  H19  1  0.98990940  0.12615979  0.29285453  1
  H  H20  1  0.70149656  0.66381263  0.72273823  1
  H  H21  1  0.86530919  0.33618737  0.22273823  1
  H  H22  1  0.07218334  0.73201137  0.51764045  1
  H  H23  1  0.30419471  0.26798863  0.01764045  1
  H  H24  1  0.11979269  0.59942965  0.63535080  1
  H  H25  1  0.21922234  0.40057035  0.13535080  1
  H  H26  1  0.96429641  0.58184609  0.56659895  1
  H  H27  1  0.04614251  0.41815391  0.06659895  1
  C  C28  1  0.68763164  0.93671903  0.58626753  1
  C  C29  1  0.12435066  0.06328097  0.08626753  1
  C  C30  1  0.74459584  0.75639437  0.74809866  1
  C  C31  1  0.00099021  0.24360563  0.24809866  1
  C  C32  1  0.01156299  0.67403898  0.58813473  1
  C  C33  1  0.18560198  0.32596102  0.08813473  1
  N  N34  1  0.83368591  0.82970353  0.65137854  1
  N  N35  1  0.16338944  0.17029647  0.15137854  1
  Cl  Cl36  1  0.74007744  0.19864755  0.76998706  1
  Cl  Cl37  1  0.43872500  0.80135245  0.26998706  1
  Cl  Cl38  1  0.26060614  0.65649184  0.83211689  1
  Cl  Cl39  1  0.41709798  0.34350816  0.33211689  1
  Cl  Cl40  1  0.12870309  0.23898916  0.79283526  1
  Cl  Cl41  1  0.86769225  0.76101084  0.29283526  1
  Cl  Cl42  1  0.64471721  0.46328558  0.54187884  1
  Cl  Cl43  1  0.60800279  0.53671442  0.04187884  1
  Cl  Cl44  1  0.70056607  0.98966382  0.01082177  1
  Cl  Cl45  1  0.19022989  0.01033618  0.51082177  1
