# generated using pymatgen
data_HfSO6
_symmetry_space_group_name_H-M   'P 1'
_cell_length_a   5.67975634
_cell_length_b   6.83022048
_cell_length_c   11.32074358
_cell_angle_alpha   90.00000000
_cell_angle_beta   90.00000000
_cell_angle_gamma   90.00000000
_symmetry_Int_Tables_number   1
_chemical_formula_structural   HfSO6
_chemical_formula_sum   'Hf4 S4 O24'
_cell_volume   439.17679144
_cell_formula_units_Z   4
loop_
 _symmetry_equiv_pos_site_id
 _symmetry_equiv_pos_as_xyz
  1  'x, y, z'
loop_
 _atom_site_type_symbol
 _atom_site_label
 _atom_site_symmetry_multiplicity
 _atom_site_fract_x
 _atom_site_fract_y
 _atom_site_fract_z
 _atom_site_occupancy
  Hf  Hf0  1  0.25000000  0.33529421  0.57065587  1
  Hf  Hf1  1  0.25000000  0.16470579  0.07065587  1
  Hf  Hf2  1  0.75000000  0.66470579  0.42934413  1
  Hf  Hf3  1  0.75000000  0.83529421  0.92934413  1
  S  S4  1  0.25000000  0.54791148  0.85673597  1
  S  S5  1  0.25000000  0.95208852  0.35673597  1
  S  S6  1  0.75000000  0.45208852  0.14326403  1
  S  S7  1  0.75000000  0.04791148  0.64326403  1
  O  O8  1  0.99931334  0.06643877  0.94581627  1
  O  O9  1  0.50068666  0.43356123  0.44581627  1
  O  O10  1  0.49931334  0.93356123  0.05418373  1
  O  O11  1  0.00068666  0.56643877  0.55418373  1
  O  O12  1  0.00068666  0.93356123  0.05418373  1
  O  O13  1  0.49931334  0.56643877  0.55418373  1
  O  O14  1  0.50068666  0.06643877  0.94581627  1
  O  O15  1  0.99931334  0.43356123  0.44581627  1
  O  O16  1  0.25000000  0.42933658  0.96602486  1
  O  O17  1  0.25000000  0.07066342  0.46602486  1
  O  O18  1  0.75000000  0.57066342  0.03397514  1
  O  O19  1  0.75000000  0.92933658  0.53397514  1
  O  O20  1  0.25000000  0.41658152  0.75379632  1
  O  O21  1  0.25000000  0.08341848  0.25379632  1
  O  O22  1  0.75000000  0.58341848  0.24620368  1
  O  O23  1  0.75000000  0.91658152  0.74620368  1
  O  O24  1  0.03785612  0.67271100  0.85216658  1
  O  O25  1  0.46214388  0.82728900  0.35216658  1
  O  O26  1  0.53785612  0.32728900  0.14783342  1
  O  O27  1  0.96214388  0.17271100  0.64783342  1
  O  O28  1  0.96214388  0.32728900  0.14783342  1
  O  O29  1  0.53785612  0.17271100  0.64783342  1
  O  O30  1  0.46214388  0.67271100  0.85216658  1
  O  O31  1  0.03785612  0.82728900  0.35216658  1
