# generated using pymatgen
data_K2CuH14C4(N3O4)2
_symmetry_space_group_name_H-M   'P 1'
_cell_length_a   4.00385493
_cell_length_b   13.44317214
_cell_length_c   14.08784528
_cell_angle_alpha   90.00000000
_cell_angle_beta   95.44682235
_cell_angle_gamma   90.00000000
_symmetry_Int_Tables_number   1
_chemical_formula_structural   K2CuH14C4(N3O4)2
_chemical_formula_sum   'K4 Cu2 H28 C8 N12 O16'
_cell_volume   754.84758157
_cell_formula_units_Z   2
loop_
 _symmetry_equiv_pos_site_id
 _symmetry_equiv_pos_as_xyz
  1  'x, y, z'
loop_
 _atom_site_type_symbol
 _atom_site_label
 _atom_site_symmetry_multiplicity
 _atom_site_fract_x
 _atom_site_fract_y
 _atom_site_fract_z
 _atom_site_occupancy
  K  K0  1  0.94880943  0.90314197  0.63907083  1
  K  K1  1  0.44880943  0.59685803  0.13907083  1
  K  K2  1  0.05119057  0.09685803  0.36092917  1
  K  K3  1  0.55119057  0.40314197  0.86092917  1
  Cu  Cu4  1  0.50000000  0.50000000  0.50000000  1
  Cu  Cu5  1  -0.00000000  -0.00000000  -0.00000000  1
  H  H6  1  0.16072828  0.48788501  0.33253898  1
  H  H7  1  0.66072828  0.01211499  0.83253898  1
  H  H8  1  0.83927172  0.51211499  0.66746102  1
  H  H9  1  0.33927172  0.98788501  0.16746102  1
  H  H10  1  0.10644901  0.77651737  0.38555022  1
  H  H11  1  0.60644901  0.72348263  0.88555022  1
  H  H12  1  0.89355099  0.22348263  0.61444978  1
  H  H13  1  0.39355099  0.27651737  0.11444978  1
  H  H14  1  0.70555679  0.65898527  0.59460819  1
  H  H15  1  0.20555679  0.84101473  0.09460819  1
  H  H16  1  0.29444321  0.34101473  0.40539181  1
  H  H17  1  0.79444321  0.15898527  0.90539181  1
  H  H18  1  0.51896108  0.89751964  0.43428481  1
  H  H19  1  0.01896108  0.60248036  0.93428481  1
  H  H20  1  0.48103892  0.10248036  0.56571519  1
  H  H21  1  0.98103892  0.39751964  0.06571519  1
  H  H22  1  0.58972968  0.90457186  0.32631434  1
  H  H23  1  0.08972968  0.59542814  0.82631434  1
  H  H24  1  0.41027032  0.09542814  0.67368566  1
  H  H25  1  0.91027032  0.40457186  0.17368566  1
  H  H26  1  0.76174804  0.76080573  0.24501315  1
  H  H27  1  0.26174804  0.73919427  0.74501315  1
  H  H28  1  0.23825196  0.23919427  0.75498685  1
  H  H29  1  0.73825196  0.26080573  0.25498685  1
  H  H30  1  0.76675257  0.84337836  0.16627004  1
  H  H31  1  0.26675257  0.65662164  0.66627004  1
  H  H32  1  0.23324743  0.15662164  0.83372996  1
  H  H33  1  0.73324743  0.34337836  0.33372996  1
  C  C34  1  0.12068369  0.62877158  0.35385955  1
  C  C35  1  0.62068369  0.87122842  0.85385955  1
  C  C36  1  0.87931631  0.37122842  0.64614045  1
  C  C37  1  0.37931631  0.12877158  0.14614045  1
  C  C38  1  0.40388563  0.72054717  0.49713613  1
  C  C39  1  0.90388563  0.77945283  0.99713613  1
  C  C40  1  0.59611437  0.27945283  0.50286387  1
  C  C41  1  0.09611437  0.22054717  0.00286387  1
  N  N42  1  0.23483515  0.54056772  0.38222890  1
  N  N43  1  0.73483515  0.95943228  0.88222890  1
  N  N44  1  0.76516485  0.45943228  0.61777110  1
  N  N45  1  0.26516485  0.04056772  0.11777110  1
  N  N46  1  0.19210336  0.71090654  0.41339808  1
  N  N47  1  0.69210336  0.78909346  0.91339808  1
  N  N48  1  0.80789664  0.28909346  0.58660192  1
  N  N49  1  0.30789664  0.21090654  0.08660192  1
  N  N50  1  0.52168592  0.63932078  0.54257382  1
  N  N51  1  0.02168592  0.86067922  0.04257382  1
  N  N52  1  0.47831408  0.36067922  0.45742618  1
  N  N53  1  0.97831408  0.13932078  0.95742618  1
  O  O54  1  0.94893950  0.64734426  0.27398377  1
  O  O55  1  0.44893950  0.85265574  0.77398377  1
  O  O56  1  0.05106050  0.35265574  0.72601623  1
  O  O57  1  0.55106050  0.14734426  0.22601623  1
  O  O58  1  0.46436752  0.81007806  0.52565594  1
  O  O59  1  0.96436752  0.68992194  0.02565594  1
  O  O60  1  0.53563248  0.18992194  0.47434406  1
  O  O61  1  0.03563248  0.31007806  0.97434406  1
  O  O62  1  0.56096507  0.94584395  0.38307661  1
  O  O63  1  0.06096507  0.55415605  0.88307661  1
  O  O64  1  0.43903493  0.05415605  0.61692339  1
  O  O65  1  0.93903493  0.44584395  0.11692339  1
  O  O66  1  0.64240786  0.82250356  0.22001490  1
  O  O67  1  0.14240786  0.67749644  0.72001490  1
  O  O68  1  0.35759214  0.17749644  0.77998510  1
  O  O69  1  0.85759214  0.32250356  0.27998510  1
