# generated using pymatgen
data_NaYb(BH4)4
_symmetry_space_group_name_H-M   'P 1'
_cell_length_a   7.58148229
_cell_length_b   7.58148229
_cell_length_c   9.31984745
_cell_angle_alpha   90.00000000
_cell_angle_beta   90.00000000
_cell_angle_gamma   107.38637152
_symmetry_Int_Tables_number   1
_chemical_formula_structural   NaYb(BH4)4
_chemical_formula_sum   'Na2 Yb2 B8 H32'
_cell_volume   511.21922697
_cell_formula_units_Z   2
loop_
 _symmetry_equiv_pos_site_id
 _symmetry_equiv_pos_as_xyz
  1  'x, y, z'
loop_
 _atom_site_type_symbol
 _atom_site_label
 _atom_site_symmetry_multiplicity
 _atom_site_fract_x
 _atom_site_fract_y
 _atom_site_fract_z
 _atom_site_occupancy
  Na  Na0  1  -0.00000000  -0.00000000  -0.00000000  1
  Na  Na1  1  -0.00000000  -0.00000000  0.50000000  1
  Yb  Yb2  1  0.36344937  0.63655063  0.25000000  1
  Yb  Yb3  1  0.63655063  0.36344937  0.75000000  1
  B  B4  1  0.23552683  0.76447317  0.46661044  1
  B  B5  1  0.76447317  0.23552683  0.53338956  1
  B  B6  1  0.23552683  0.76447317  0.03338956  1
  B  B7  1  0.76447317  0.23552683  0.96661044  1
  B  B8  1  0.71000568  0.78613703  0.25000000  1
  B  B9  1  0.78613703  0.71000568  0.75000000  1
  B  B10  1  0.28999432  0.21386297  0.75000000  1
  B  B11  1  0.21386297  0.28999432  0.25000000  1
  H  H12  1  0.17720702  0.82279298  0.57154833  1
  H  H13  1  0.82279298  0.17720702  0.42845167  1
  H  H14  1  0.17720702  0.82279298  0.92845167  1
  H  H15  1  0.82279298  0.17720702  0.07154833  1
  H  H16  1  0.33129871  0.66870129  0.50122601  1
  H  H17  1  0.66870129  0.33129871  0.49877399  1
  H  H18  1  0.33129871  0.66870129  0.99877399  1
  H  H19  1  0.66870129  0.33129871  0.00122601  1
  H  H20  1  0.32184974  0.89038852  0.38213848  1
  H  H21  1  0.89038852  0.32184974  0.61786152  1
  H  H22  1  0.32184974  0.89038852  0.11786152  1
  H  H23  1  0.89038852  0.32184974  0.88213848  1
  H  H24  1  0.67815026  0.10961148  0.61786152  1
  H  H25  1  0.10961148  0.67815026  0.38213848  1
  H  H26  1  0.67815026  0.10961148  0.88213848  1
  H  H27  1  0.10961148  0.67815026  0.11786152  1
  H  H28  1  0.87374401  0.87035020  0.25000000  1
  H  H29  1  0.87035020  0.87374401  0.75000000  1
  H  H30  1  0.12625599  0.12964980  0.75000000  1
  H  H31  1  0.12964980  0.12625599  0.25000000  1
  H  H32  1  0.61951399  0.90083986  0.25000000  1
  H  H33  1  0.90083986  0.61951399  0.75000000  1
  H  H34  1  0.38048601  0.09916014  0.75000000  1
  H  H35  1  0.09916014  0.38048601  0.25000000  1
  H  H36  1  0.65957033  0.69028856  0.35818612  1
  H  H37  1  0.69028856  0.65957033  0.64181388  1
  H  H38  1  0.65957033  0.69028856  0.14181388  1
  H  H39  1  0.69028856  0.65957033  0.85818612  1
  H  H40  1  0.34042967  0.30971144  0.64181388  1
  H  H41  1  0.30971144  0.34042967  0.35818612  1
  H  H42  1  0.34042967  0.30971144  0.85818612  1
  H  H43  1  0.30971144  0.34042967  0.14181388  1
