# generated using pymatgen
data_KGdP2H4O9
_symmetry_space_group_name_H-M   'P 1'
_cell_length_a   7.79195974
_cell_length_b   10.35495018
_cell_length_c   10.94288023
_cell_angle_alpha   90.00000000
_cell_angle_beta   90.00000000
_cell_angle_gamma   90.13652213
_symmetry_Int_Tables_number   1
_chemical_formula_structural   KGdP2H4O9
_chemical_formula_sum   'K4 Gd4 P8 H16 O36'
_cell_volume   882.92766896
_cell_formula_units_Z   4
loop_
 _symmetry_equiv_pos_site_id
 _symmetry_equiv_pos_as_xyz
  1  'x, y, z'
loop_
 _atom_site_type_symbol
 _atom_site_label
 _atom_site_symmetry_multiplicity
 _atom_site_fract_x
 _atom_site_fract_y
 _atom_site_fract_z
 _atom_site_occupancy
  K  K0  1  0.73924340  0.37685239  0.79807232  1
  K  K1  1  0.26075660  0.12314761  0.29807232  1
  K  K2  1  0.26075660  0.62314761  0.20192768  1
  K  K3  1  0.73924340  0.87685239  0.70192768  1
  Gd  Gd4  1  0.25120136  0.33413752  0.87650049  1
  Gd  Gd5  1  0.74879864  0.16586248  0.37650049  1
  Gd  Gd6  1  0.74879864  0.66586248  0.12349951  1
  Gd  Gd7  1  0.25120136  0.83413752  0.62349951  1
  P  P8  1  0.40215843  0.16229546  0.60958811  1
  P  P9  1  0.59784157  0.33770454  0.10958811  1
  P  P10  1  0.59784157  0.83770454  0.39041189  1
  P  P11  1  0.40215843  0.66229546  0.89041189  1
  P  P12  1  0.03435824  0.14107905  0.64671516  1
  P  P13  1  0.96564176  0.35892095  0.14671516  1
  P  P14  1  0.96564176  0.85892095  0.35328484  1
  P  P15  1  0.03435824  0.64107905  0.85328484  1
  H  H16  1  0.55527225  0.59616474  0.68004106  1
  H  H17  1  0.44472775  0.90383526  0.18004106  1
  H  H18  1  0.44472775  0.40383526  0.31995894  1
  H  H19  1  0.55527225  0.09616474  0.81995894  1
  H  H20  1  0.66491537  0.63257035  0.56853695  1
  H  H21  1  0.33508463  0.86742965  0.06853695  1
  H  H22  1  0.33508463  0.36742965  0.43146305  1
  H  H23  1  0.66491537  0.13257035  0.93146305  1
  H  H24  1  0.32906475  0.06924421  0.99920016  1
  H  H25  1  0.67093525  0.43075579  0.49920016  1
  H  H26  1  0.67093525  0.93075579  0.00079984  1
  H  H27  1  0.32906475  0.56924421  0.50079984  1
  H  H28  1  0.13710499  0.10381877  -0.00136562  1
  H  H29  1  0.86289501  0.39618123  0.49863438  1
  H  H30  1  0.86289501  0.89618123  0.00136562  1
  H  H31  1  0.13710499  0.60381877  0.50136562  1
  O  O32  1  0.42577948  0.01905352  0.63853064  1
  O  O33  1  0.57422052  0.48094648  0.13853064  1
  O  O34  1  0.57422052  0.98094648  0.36146936  1
  O  O35  1  0.42577948  0.51905352  0.86146936  1
  O  O36  1  0.50189919  0.21172589  0.49908312  1
  O  O37  1  0.49810081  0.28827411  0.99908312  1
  O  O38  1  0.49810081  0.78827411  0.50091688  1
  O  O39  1  0.50189919  0.71172589  0.00091688  1
  O  O40  1  0.42788092  0.24526517  0.72506230  1
  O  O41  1  0.57211908  0.25473483  0.22506230  1
  O  O42  1  0.57211908  0.75473483  0.27493770  1
  O  O43  1  0.42788092  0.74526517  0.77493770  1
  O  O44  1  0.20294481  0.18222288  0.56325423  1
  O  O45  1  0.79705519  0.31777712  0.06325423  1
  O  O46  1  0.79705519  0.81777712  0.43674577  1
  O  O47  1  0.20294481  0.68222288  0.93674577  1
  O  O48  1  0.05259130  0.99673723  0.67260600  1
  O  O49  1  0.94740870  0.50326277  0.17260600  1
  O  O50  1  0.94740870  0.00326277  0.32739400  1
  O  O51  1  0.05259130  0.49673723  0.82739400  1
  O  O52  1  0.88147698  0.17105385  0.56375984  1
  O  O53  1  0.11852302  0.32894615  0.06375984  1
  O  O54  1  0.11852302  0.82894615  0.43624016  1
  O  O55  1  0.88147698  0.67105385  0.93624016  1
  O  O56  1  0.03871915  0.22798149  0.75952543  1
  O  O57  1  0.96128085  0.27201851  0.25952543  1
  O  O58  1  0.96128085  0.77201851  0.24047457  1
  O  O59  1  0.03871915  0.72798149  0.74047457  1
  O  O60  1  0.65091570  0.56444806  0.62957379  1
  O  O61  1  0.34908430  0.93555194  0.12957379  1
  O  O62  1  0.34908430  0.43555194  0.37042621  1
  O  O63  1  0.65091570  0.06444806  0.87042621  1
  O  O64  1  0.23735209  0.09941457  0.94494619  1
  O  O65  1  0.76264791  0.40058543  0.44494619  1
  O  O66  1  0.76264791  0.90058543  0.05505381  1
  O  O67  1  0.23735209  0.59941457  0.55505381  1
