# generated using pymatgen
data_Ag2IO5
_symmetry_space_group_name_H-M   'P 1'
_cell_length_a   5.99474668
_cell_length_b   8.02754932
_cell_length_c   9.72080926
_cell_angle_alpha   90.00000000
_cell_angle_beta   95.85437244
_cell_angle_gamma   90.00000000
_symmetry_Int_Tables_number   1
_chemical_formula_structural   Ag2IO5
_chemical_formula_sum   'Ag8 I4 O20'
_cell_volume   465.35586137
_cell_formula_units_Z   4
loop_
 _symmetry_equiv_pos_site_id
 _symmetry_equiv_pos_as_xyz
  1  'x, y, z'
loop_
 _atom_site_type_symbol
 _atom_site_label
 _atom_site_symmetry_multiplicity
 _atom_site_fract_x
 _atom_site_fract_y
 _atom_site_fract_z
 _atom_site_occupancy
  Ag  Ag0  1  0.60208126  0.86240163  0.14333055  1
  Ag  Ag1  1  0.10208126  0.63759837  0.64333055  1
  Ag  Ag2  1  0.39791874  0.13759837  0.85666945  1
  Ag  Ag3  1  0.89791874  0.36240163  0.35666945  1
  Ag  Ag4  1  0.42929493  0.41248790  0.16995401  1
  Ag  Ag5  1  0.92929493  0.08751210  0.66995401  1
  Ag  Ag6  1  0.57070507  0.58751210  0.83004599  1
  Ag  Ag7  1  0.07070507  0.91248790  0.33004599  1
  I  I8  1  0.91662038  0.18522029  0.03809677  1
  I  I9  1  0.41662038  0.31477971  0.53809677  1
  I  I10  1  0.08337962  0.81477971  0.96190323  1
  I  I11  1  0.58337962  0.68522029  0.46190323  1
  O  O12  1  0.04106362  0.26519312  0.88630852  1
  O  O13  1  0.54106362  0.23480688  0.38630852  1
  O  O14  1  0.95893638  0.73480688  0.11369148  1
  O  O15  1  0.45893638  0.76519312  0.61369148  1
  O  O16  1  0.06795884  0.34094489  0.15930545  1
  O  O17  1  0.56795884  0.15905511  0.65930545  1
  O  O18  1  0.93204116  0.65905511  0.84069455  1
  O  O19  1  0.43204116  0.84094489  0.34069455  1
  O  O20  1  0.63814056  0.29719421  0.99484091  1
  O  O21  1  0.13814056  0.20280579  0.49484091  1
  O  O22  1  0.36185944  0.70280579  0.00515909  1
  O  O23  1  0.86185944  0.79719421  0.50515909  1
  O  O24  1  0.81012678  0.08444843  0.19943880  1
  O  O25  1  0.31012678  0.41555157  0.69943880  1
  O  O26  1  0.18987322  0.91555157  0.80056120  1
  O  O27  1  0.68987322  0.58444843  0.30056120  1
  O  O28  1  0.80323156  0.97980678  0.93173370  1
  O  O29  1  0.30323156  0.52019322  0.43173370  1
  O  O30  1  0.19676844  0.02019322  0.06826630  1
  O  O31  1  0.69676844  0.47980678  0.56826630  1
