# generated using pymatgen
data_MgB2H7
_symmetry_space_group_name_H-M   'P 1'
_cell_length_a   7.88354365
_cell_length_b   8.34899232
_cell_length_c   10.18012482
_cell_angle_alpha   90.36897682
_cell_angle_beta   88.91383332
_cell_angle_gamma   91.74004582
_symmetry_Int_Tables_number   1
_chemical_formula_structural   MgB2H7
_chemical_formula_sum   'Mg4 B8 H28'
_cell_volume   669.61136333
_cell_formula_units_Z   4
loop_
 _symmetry_equiv_pos_site_id
 _symmetry_equiv_pos_as_xyz
  1  'x, y, z'
loop_
 _atom_site_type_symbol
 _atom_site_label
 _atom_site_symmetry_multiplicity
 _atom_site_fract_x
 _atom_site_fract_y
 _atom_site_fract_z
 _atom_site_occupancy
  Mg  Mg0  1  0.17187201  0.44018962  0.26726344  1
  Mg  Mg1  1  0.58575237  0.85094338  0.84317961  1
  Mg  Mg2  1  0.68656484  0.39384511  0.01851471  1
  Mg  Mg3  1  0.97440022  0.74935999  0.78822923  1
  B  B4  1  0.77506887  0.67951576  0.96196651  1
  B  B5  1  0.61789050  0.11852816  0.94394846  1
  B  B6  1  0.42208516  0.43999579  0.14128745  1
  B  B7  1  0.73136558  0.58408782  0.82983334  1
  B  B8  1  0.94964048  0.35716493  0.13362364  1
  B  B9  1  0.13600026  0.51748967  0.46572261  1
  B  B10  1  0.82795472  0.93072000  0.65906487  1
  B  B11  1  0.27415989  0.78892062  0.82442926  1
  H  H12  1  0.48306486  0.07041062  0.89704462  1
  H  H13  1  0.35251405  0.31628676  0.18553679  1
  H  H14  1  0.59189312  0.55530427  0.78580314  1
  H  H15  1  0.93438221  0.29444073  0.02596348  1
  H  H16  1  0.03731280  0.58076656  0.38822601  1
  H  H17  1  0.88490947  0.96837335  0.76781284  1
  H  H18  1  0.34680489  0.77512936  0.92908517  1
  H  H19  1  0.58958182  0.15947684  0.05783139  1
  H  H20  1  0.92095543  0.71896060  0.99245041  1
  H  H21  1  0.34882119  0.56495819  0.16703307  1
  H  H22  1  0.10388006  0.55461269  0.57710694  1
  H  H23  1  0.81854713  0.39371437  0.19047486  1
  H  H24  1  0.36584800  0.82191756  0.72887270  1
  H  H25  1  0.67231026  0.90401715  0.66824042  1
  H  H26  1  0.72704258  0.01787898  0.94858896  1
  H  H27  1  0.42405978  0.42619815  0.02165089  1
  H  H28  1  0.84233051  0.54091386  0.75074982  1
  H  H29  1  0.67160861  0.22644534  0.87055014  1
  H  H30  1  0.67339276  0.73535713  0.04020042  1
  H  H31  1  0.55857886  0.45142225  0.19444656  1
  H  H32  1  0.01724623  0.25982290  0.20467760  1
  H  H33  1  0.11995145  0.36890252  0.45216326  1
  H  H34  1  0.89015856  0.80795960  0.61253957  1
  H  H35  1  0.17433168  0.89855396  0.83830856  1
  H  H36  1  0.03245234  0.48305837  0.11519639  1
  H  H37  1  0.28231901  0.55711724  0.43198594  1
  H  H38  1  0.20693115  0.65626624  0.79968174  1
  H  H39  1  0.85397830  0.04097355  0.58472418  1
