# generated using pymatgen
data_H19C6N7O4
_symmetry_space_group_name_H-M   'P 1'
_cell_length_a   7.90606524
_cell_length_b   10.05906320
_cell_length_c   10.93327844
_cell_angle_alpha   64.65198872
_cell_angle_beta   79.01397408
_cell_angle_gamma   70.49657680
_symmetry_Int_Tables_number   1
_chemical_formula_structural   H19C6N7O4
_chemical_formula_sum   'H38 C12 N14 O8'
_cell_volume   739.53963258
_cell_formula_units_Z   2
loop_
 _symmetry_equiv_pos_site_id
 _symmetry_equiv_pos_as_xyz
  1  'x, y, z'
loop_
 _atom_site_type_symbol
 _atom_site_label
 _atom_site_symmetry_multiplicity
 _atom_site_fract_x
 _atom_site_fract_y
 _atom_site_fract_z
 _atom_site_occupancy
  H  H0  1  0.03254795  0.60637433  0.56886602  1
  H  H1  1  0.96745205  0.39362567  0.43113398  1
  H  H2  1  0.86302028  0.52971282  0.68241886  1
  H  H3  1  0.13697972  0.47028718  0.31758114  1
  H  H4  1  0.81858696  0.73419601  0.88719917  1
  H  H5  1  0.18141304  0.26580399  0.11280083  1
  H  H6  1  0.74562400  0.59929593  0.85930107  1
  H  H7  1  0.25437600  0.40070407  0.14069893  1
  H  H8  1  0.27679331  0.73327044  0.17845164  1
  H  H9  1  0.72320669  0.26672956  0.82154836  1
  H  H10  1  0.64467335  0.40108627  0.04255405  1
  H  H11  1  0.35532665  0.59891373  0.95744595  1
  H  H12  1  0.65011424  0.39669757  0.36891913  1
  H  H13  1  0.34988576  0.60330243  0.63108087  1
  H  H14  1  0.42629419  0.51609149  0.36593806  1
  H  H15  1  0.57370581  0.48390851  0.63406194  1
  H  H16  1  0.20868820  0.93390765  0.93117438  1
  H  H17  1  0.79131180  0.06609235  0.06882562  1
  H  H18  1  0.29472249  0.95116616  0.76405644  1
  H  H19  1  0.70527751  0.04883384  0.23594356  1
  H  H20  1  0.44507860  0.90663189  0.88790412  1
  H  H21  1  0.55492140  0.09336811  0.11209588  1
  H  H22  1  0.29729135  0.34074151  0.63870774  1
  H  H23  1  0.70270865  0.65925849  0.36129226  1
  H  H24  1  0.23627924  0.20601756  0.60236584  1
  H  H25  1  0.76372076  0.79398244  0.39763416  1
  H  H26  1  0.46361233  0.17017527  0.63660121  1
  H  H27  1  0.53638767  0.82982473  0.36339879  1
  H  H28  1  0.21302506  0.33043058  0.84476135  1
  H  H29  1  0.78697494  0.66956942  0.15523865  1
  H  H30  1  0.20850870  0.93060207  0.14882108  1
  H  H31  1  0.79149130  0.06939793  0.85117892  1
  H  H32  1  0.08021002  0.85094377  0.50102142  1
  H  H33  1  0.91978998  0.14905623  0.49897858  1
  H  H34  1  0.08118184  0.00061088  0.33861158  1
  H  H35  1  0.91881816  0.99938912  0.66138842  1
  H  H36  1  0.77318694  0.32948850  0.18754946  1
  H  H37  1  0.22681306  0.67051150  0.81245054  1
  C  C38  1  0.93937825  0.68320720  0.72307328  1
  C  C39  1  0.06062175  0.31679280  0.27692672  1
  C  C40  1  0.18168103  0.77568597  0.34840884  1
  C  C41  1  0.81831897  0.22431403  0.65159116  1
  C  C42  1  0.51588610  0.46720513  0.19706281  1
  C  C43  1  0.48411390  0.53279487  0.80293719  1
  C  C44  1  0.30953600  0.97235869  0.85112260  1
  C  C45  1  0.69046400  0.02764131  0.14887740  1
  C  C46  1  0.32161925  0.21867252  0.66284708  1
  C  C47  1  0.67838075  0.78132748  0.33715292  1
  C  C48  1  0.23290016  0.20504730  0.89412008  1
  C  C49  1  0.76709984  0.79495270  0.10587992  1
  N  N50  1  0.94730434  0.59636311  0.65424878  1
  N  N51  1  0.05269566  0.40363689  0.34575122  1
  N  N52  1  0.82357988  0.67175936  0.83205303  1
  N  N53  1  0.17642012  0.32824064  0.16794697  1
  N  N54  1  0.21762673  0.81914187  0.21298157  1
  N  N55  1  0.78237327  0.18085813  0.78701843  1
  N  N56  1  0.11383332  0.88624637  0.39848378  1
  N  N57  1  0.88616668  0.11375363  0.60151622  1
  N  N58  1  0.65411930  0.38663858  0.14031093  1
  N  N59  1  0.34588070  0.61336142  0.85968907  1
  N  N60  1  0.53602141  0.46303820  0.31888142  1
  N  N61  1  0.46397859  0.53696180  0.68111858  1
  N  N62  1  0.28165348  0.13652757  0.80659162  1
  N  N63  1  0.71834652  0.86347243  0.19340838  1
  O  O64  1  0.04073123  0.77146442  0.68618550  1
  O  O65  1  0.95926877  0.22853558  0.31381450  1
  O  O66  1  0.21071410  0.63405066  0.42735611  1
  O  O67  1  0.78928590  0.36594934  0.57264389  1
  O  O68  1  0.36771718  0.54644328  0.13855450  1
  O  O69  1  0.63228282  0.45355672  0.86144550  1
  O  O70  1  0.20952898  0.13835115  0.02015632  1
  O  O71  1  0.79047102  0.86164885  0.97984368  1
