# generated using pymatgen
data_LiAl(H3C)4
_symmetry_space_group_name_H-M   'P 1'
_cell_length_a   6.46325230
_cell_length_b   10.78858457
_cell_length_c   11.78505466
_cell_angle_alpha   90.00000000
_cell_angle_beta   90.00000000
_cell_angle_gamma   95.19371139
_symmetry_Int_Tables_number   1
_chemical_formula_structural   LiAl(H3C)4
_chemical_formula_sum   'Li4 Al4 H48 C16'
_cell_volume   818.39024655
_cell_formula_units_Z   4
loop_
 _symmetry_equiv_pos_site_id
 _symmetry_equiv_pos_as_xyz
  1  'x, y, z'
loop_
 _atom_site_type_symbol
 _atom_site_label
 _atom_site_symmetry_multiplicity
 _atom_site_fract_x
 _atom_site_fract_y
 _atom_site_fract_z
 _atom_site_occupancy
  Li  Li0  1  0.09688661  0.25995425  0.94967896  1
  Li  Li1  1  0.59688661  0.75995425  0.55032104  1
  Li  Li2  1  0.90311339  0.74004575  0.05032104  1
  Li  Li3  1  0.40311339  0.24004575  0.44967896  1
  Al  Al4  1  0.43829672  0.24870319  0.81826630  1
  Al  Al5  1  0.93829672  0.74870319  0.68173370  1
  Al  Al6  1  0.56170328  0.75129681  0.18173370  1
  Al  Al7  1  0.06170328  0.25129681  0.31826630  1
  H  H8  1  0.11223370  0.07337256  0.86917561  1
  H  H9  1  0.61223370  0.57337256  0.63082439  1
  H  H10  1  0.88776630  0.92662744  0.13082439  1
  H  H11  1  0.38776630  0.42662744  0.36917561  1
  H  H12  1  0.48786244  0.14837173  0.61882029  1
  H  H13  1  0.98786244  0.64837173  0.88117971  1
  H  H14  1  0.51213756  0.85162827  0.38117971  1
  H  H15  1  0.01213756  0.35162827  0.11882029  1
  H  H16  1  0.80179788  0.16908334  0.85166527  1
  H  H17  1  0.30179788  0.66908334  0.64833473  1
  H  H18  1  0.19820212  0.83091666  0.14833473  1
  H  H19  1  0.69820212  0.33091666  0.35166527  1
  H  H20  1  0.16754824  0.42997164  0.82324178  1
  H  H21  1  0.66754824  0.92997164  0.67675822  1
  H  H22  1  0.83245176  0.57002836  0.17675822  1
  H  H23  1  0.33245176  0.07002836  0.32324178  1
  H  H24  1  0.35600458  0.01942968  0.85263586  1
  H  H25  1  0.85600458  0.51942968  0.64736414  1
  H  H26  1  0.64399542  0.98057032  0.14736414  1
  H  H27  1  0.14399542  0.48057032  0.35263586  1
  H  H28  1  0.49938114  0.31704712  0.60968010  1
  H  H29  1  0.99938114  0.81704712  0.89031990  1
  H  H30  1  0.50061886  0.68295288  0.39031990  1
  H  H31  1  0.00061886  0.18295288  0.10968010  1
  H  H32  1  0.73474209  0.26890160  0.96696283  1
  H  H33  1  0.23474209  0.76890160  0.53303717  1
  H  H34  1  0.26525791  0.73109840  0.03303717  1
  H  H35  1  0.76525791  0.23109840  0.46696283  1
  H  H36  1  0.30895665  0.43700989  0.95347274  1
  H  H37  1  0.80895665  0.93700989  0.54652726  1
  H  H38  1  0.69104335  0.56299011  0.04652726  1
  H  H39  1  0.19104335  0.06299011  0.45347274  1
  H  H40  1  0.29491995  0.08445109  0.98276327  1
  H  H41  1  0.79491995  0.58445109  0.51723673  1
  H  H42  1  0.70508005  0.91554891  0.01723673  1
  H  H43  1  0.20508005  0.41554891  0.48276327  1
  H  H44  1  0.25150198  0.22549359  0.62314091  1
  H  H45  1  0.75150198  0.72549359  0.87685909  1
  H  H46  1  0.74849802  0.77450641  0.37685909  1
  H  H47  1  0.24849802  0.27450641  0.12314091  1
  H  H48  1  0.82546084  0.33637858  0.83424468  1
  H  H49  1  0.32546084  0.83637858  0.66575532  1
  H  H50  1  0.17453916  0.66362142  0.16575532  1
  H  H51  1  0.67453916  0.16362142  0.33424468  1
  H  H52  1  0.43133831  0.48129243  0.82668471  1
  H  H53  1  0.93133831  0.98129243  0.67331529  1
  H  H54  1  0.56866169  0.51870757  0.17331529  1
  H  H55  1  0.06866169  0.01870757  0.32668471  1
  C  C56  1  0.27855336  0.09728452  0.89003911  1
  C  C57  1  0.77855336  0.59728452  0.60996089  1
  C  C58  1  0.72144664  0.90271548  0.10996089  1
  C  C59  1  0.22144664  0.40271548  0.39003911  1
  C  C60  1  0.41713600  0.23243301  0.64737809  1
  C  C61  1  0.91713600  0.73243301  0.85262191  1
  C  C62  1  0.58286400  0.76756699  0.35262191  1
  C  C63  1  0.08286400  0.26756699  0.14737809  1
  C  C64  1  0.73504952  0.25643396  0.87409193  1
  C  C65  1  0.23504952  0.75643396  0.62590807  1
  C  C66  1  0.26495048  0.74356604  0.12590807  1
  C  C67  1  0.76495048  0.24356604  0.37409193  1
  C  C68  1  0.31624734  0.40998985  0.86288903  1
  C  C69  1  0.81624734  0.90998985  0.63711097  1
  C  C70  1  0.68375266  0.59001015  0.13711097  1
  C  C71  1  0.18375266  0.09001015  0.36288903  1
