# generated using pymatgen
data_InP2PbO8
_symmetry_space_group_name_H-M   'P 1'
_cell_length_a   6.76897397
_cell_length_b   9.61235914
_cell_length_c   11.20524794
_cell_angle_alpha   90.00000000
_cell_angle_beta   90.00000000
_cell_angle_gamma   109.05851261
_symmetry_Int_Tables_number   1
_chemical_formula_structural   InP2PbO8
_chemical_formula_sum   'In4 P8 Pb4 O32'
_cell_volume   689.11451843
_cell_formula_units_Z   4
loop_
 _symmetry_equiv_pos_site_id
 _symmetry_equiv_pos_as_xyz
  1  'x, y, z'
loop_
 _atom_site_type_symbol
 _atom_site_label
 _atom_site_symmetry_multiplicity
 _atom_site_fract_x
 _atom_site_fract_y
 _atom_site_fract_z
 _atom_site_occupancy
  In  In0  1  0.66996068  0.29607146  0.92508453  1
  In  In1  1  0.83003932  0.20392854  0.42508453  1
  In  In2  1  0.33003932  0.70392854  0.07491547  1
  In  In3  1  0.16996068  0.79607146  0.57491547  1
  P  P4  1  0.31370116  0.15935804  0.46999620  1
  P  P5  1  0.18629884  0.34064196  0.96999620  1
  P  P6  1  0.68629884  0.84064196  0.53000380  1
  P  P7  1  0.81370116  0.65935804  0.03000380  1
  P  P8  1  0.34048773  0.95380657  0.85716889  1
  P  P9  1  0.15951227  0.54619343  0.35716889  1
  P  P10  1  0.65951227  0.04619343  0.14283111  1
  P  P11  1  0.84048773  0.45380657  0.64283111  1
  Pb  Pb12  1  0.36082039  0.46512501  0.65803114  1
  Pb  Pb13  1  0.13917961  0.03487499  0.15803114  1
  Pb  Pb14  1  0.63917961  0.53487499  0.34196886  1
  Pb  Pb15  1  0.86082039  0.96512501  0.84196886  1
  O  O16  1  0.30596647  0.49711204  0.44346631  1
  O  O17  1  0.19403353  0.00288796  0.94346631  1
  O  O18  1  0.69403353  0.50288796  0.55653369  1
  O  O19  1  0.80596647  0.99711204  0.05653369  1
  O  O20  1  0.28028502  0.58365360  0.23940840  1
  O  O21  1  0.21971498  0.91634640  0.73940840  1
  O  O22  1  0.71971498  0.41634640  0.76059160  1
  O  O23  1  0.78028502  0.08365360  0.26059160  1
  O  O24  1  0.28219706  0.99308693  0.47246676  1
  O  O25  1  0.21780294  0.50691307  0.97246676  1
  O  O26  1  0.71780294  0.00691307  0.52753324  1
  O  O27  1  0.78219706  0.49308693  0.02753324  1
  O  O28  1  0.30086567  0.21959853  0.59578318  1
  O  O29  1  0.19913433  0.28040147  0.09578318  1
  O  O30  1  0.69913433  0.78040147  0.40421682  1
  O  O31  1  0.80086567  0.71959853  0.90421682  1
  O  O32  1  0.36156261  0.31793377  0.89003138  1
  O  O33  1  0.13843739  0.18206623  0.39003138  1
  O  O34  1  0.63843739  0.68206623  0.10996862  1
  O  O35  1  0.86156261  0.81793377  0.60996862  1
  O  O36  1  0.44898879  0.91855218  0.16202596  1
  O  O37  1  0.05101121  0.58144782  0.66202596  1
  O  O38  1  0.55101121  0.08144782  0.83797404  1
  O  O39  1  0.94898879  0.41855218  0.33797404  1
  O  O40  1  0.39780754  0.82134617  0.90624546  1
  O  O41  1  0.10219246  0.67865383  0.40624546  1
  O  O42  1  0.60219246  0.17865383  0.09375454  1
  O  O43  1  0.89780754  0.32134617  0.59375454  1
  O  O44  1  0.47441229  0.76176571  0.59363582  1
  O  O45  1  0.02558771  0.73823429  0.09363582  1
  O  O46  1  0.52558771  0.23823429  0.40636418  1
  O  O47  1  0.97441229  0.26176571  0.90636418  1
