# generated using pymatgen
data_Mo12PO40
_symmetry_space_group_name_H-M   'P 1'
_cell_length_a   16.93259645
_cell_length_b   16.93259645
_cell_length_c   16.93259645
_cell_angle_alpha   60.00000000
_cell_angle_beta   60.00000000
_cell_angle_gamma   60.00000000
_symmetry_Int_Tables_number   1
_chemical_formula_structural   Mo12PO40
_chemical_formula_sum   'Mo24 P2 O80'
_cell_volume   3432.85671043
_cell_formula_units_Z   2
loop_
 _symmetry_equiv_pos_site_id
 _symmetry_equiv_pos_as_xyz
  1  'x, y, z'
loop_
 _atom_site_type_symbol
 _atom_site_label
 _atom_site_symmetry_multiplicity
 _atom_site_fract_x
 _atom_site_fract_y
 _atom_site_fract_z
 _atom_site_occupancy
  Mo  Mo0  1  0.53143717  0.96081566  0.75387359  1
  Mo  Mo1  1  0.53143717  0.75387359  0.75387359  1
  Mo  Mo2  1  0.53143717  0.75387359  0.96081566  1
  Mo  Mo3  1  0.96081566  0.53143717  0.75387359  1
  Mo  Mo4  1  0.75387359  0.53143717  0.96081566  1
  Mo  Mo5  1  0.75387359  0.53143717  0.75387359  1
  Mo  Mo6  1  0.75387359  0.75387359  0.53143717  1
  Mo  Mo7  1  0.75387359  0.96081566  0.53143717  1
  Mo  Mo8  1  0.96081566  0.75387359  0.53143717  1
  Mo  Mo9  1  0.75387359  0.75387359  0.96081566  1
  Mo  Mo10  1  0.96081566  0.75387359  0.75387359  1
  Mo  Mo11  1  0.75387359  0.96081566  0.75387359  1
  Mo  Mo12  1  0.21856283  0.78918434  0.99612641  1
  Mo  Mo13  1  0.21856283  0.99612641  0.99612641  1
  Mo  Mo14  1  0.21856283  0.99612641  0.78918434  1
  Mo  Mo15  1  0.78918434  0.21856283  0.99612641  1
  Mo  Mo16  1  0.99612641  0.21856283  0.78918434  1
  Mo  Mo17  1  0.99612641  0.21856283  0.99612641  1
  Mo  Mo18  1  0.99612641  0.99612641  0.21856283  1
  Mo  Mo19  1  0.99612641  0.78918434  0.21856283  1
  Mo  Mo20  1  0.78918434  0.99612641  0.21856283  1
  Mo  Mo21  1  0.99612641  0.99612641  0.78918434  1
  Mo  Mo22  1  0.78918434  0.99612641  0.99612641  1
  Mo  Mo23  1  0.99612641  0.78918434  0.99612641  1
  P  P24  1  0.75000000  0.75000000  0.75000000  1
  P  P25  1  -0.00000000  -0.00000000  -0.00000000  1
  O  O26  1  0.63839296  0.78720235  0.78720235  1
  O  O27  1  0.78720235  0.63839296  0.78720235  1
  O  O28  1  0.78720235  0.78720235  0.63839296  1
  O  O29  1  0.78720235  0.78720235  0.78720235  1
  O  O30  1  0.11160704  0.96279765  0.96279765  1
  O  O31  1  0.96279765  0.11160704  0.96279765  1
  O  O32  1  0.96279765  0.96279765  0.11160704  1
  O  O33  1  0.96279765  0.96279765  0.96279765  1
  O  O34  1  0.77789271  0.97525246  0.62342742  1
  O  O35  1  0.77789271  0.62342742  0.62342742  1
  O  O36  1  0.77789271  0.62342742  0.97525246  1
  O  O37  1  0.97525246  0.77789271  0.62342742  1
  O  O38  1  0.62342742  0.77789271  0.97525246  1
  O  O39  1  0.62342742  0.77789271  0.62342742  1
  O  O40  1  0.62342742  0.62342742  0.77789271  1
  O  O41  1  0.62342742  0.97525246  0.77789271  1
  O  O42  1  0.97525246  0.62342742  0.77789271  1
  O  O43  1  0.62342742  0.62342742  0.97525246  1
  O  O44  1  0.97525246  0.62342742  0.62342742  1
  O  O45  1  0.62342742  0.97525246  0.62342742  1
  O  O46  1  0.97210729  0.77474754  0.12657258  1
  O  O47  1  0.97210729  0.12657258  0.12657258  1
  O  O48  1  0.97210729  0.12657258  0.77474754  1
  O  O49  1  0.77474754  0.97210729  0.12657258  1
  O  O50  1  0.12657258  0.97210729  0.77474754  1
  O  O51  1  0.12657258  0.97210729  0.12657258  1
  O  O52  1  0.12657258  0.12657258  0.97210729  1
  O  O53  1  0.12657258  0.77474754  0.97210729  1
  O  O54  1  0.77474754  0.12657258  0.97210729  1
  O  O55  1  0.12657258  0.12657258  0.77474754  1
  O  O56  1  0.77474754  0.12657258  0.12657258  1
  O  O57  1  0.12657258  0.77474754  0.12657258  1
  O  O58  1  0.48280401  0.73360005  0.89179797  1
  O  O59  1  0.48280401  0.89179797  0.89179797  1
  O  O60  1  0.48280401  0.89179797  0.73360005  1
  O  O61  1  0.73360005  0.48280401  0.89179797  1
  O  O62  1  0.89179797  0.48280401  0.73360005  1
  O  O63  1  0.89179797  0.48280401  0.89179797  1
  O  O64  1  0.89179797  0.89179797  0.48280401  1
  O  O65  1  0.89179797  0.73360005  0.48280401  1
  O  O66  1  0.73360005  0.89179797  0.48280401  1
  O  O67  1  0.89179797  0.89179797  0.73360005  1
  O  O68  1  0.73360005  0.89179797  0.89179797  1
  O  O69  1  0.89179797  0.73360005  0.89179797  1
  O  O70  1  0.26719599  0.01639995  0.85820203  1
  O  O71  1  0.26719599  0.85820203  0.85820203  1
  O  O72  1  0.26719599  0.85820203  0.01639995  1
  O  O73  1  0.01639995  0.26719599  0.85820203  1
  O  O74  1  0.85820203  0.26719599  0.01639995  1
  O  O75  1  0.85820203  0.26719599  0.85820203  1
  O  O76  1  0.85820203  0.85820203  0.26719599  1
  O  O77  1  0.85820203  0.01639995  0.26719599  1
  O  O78  1  0.01639995  0.85820203  0.26719599  1
  O  O79  1  0.85820203  0.85820203  0.01639995  1
  O  O80  1  0.01639995  0.85820203  0.85820203  1
  O  O81  1  0.85820203  0.01639995  0.85820203  1
  O  O82  1  0.44469468  0.07184088  0.74173222  1
  O  O83  1  0.44469468  0.74173222  0.74173222  1
  O  O84  1  0.44469468  0.74173222  0.07184088  1
  O  O85  1  0.07184088  0.44469468  0.74173222  1
  O  O86  1  0.74173222  0.44469468  0.07184088  1
  O  O87  1  0.74173222  0.44469468  0.74173222  1
  O  O88  1  0.74173222  0.74173222  0.44469468  1
  O  O89  1  0.74173222  0.07184088  0.44469468  1
  O  O90  1  0.07184088  0.74173222  0.44469468  1
  O  O91  1  0.74173222  0.74173222  0.07184088  1
  O  O92  1  0.07184088  0.74173222  0.74173222  1
  O  O93  1  0.74173222  0.07184088  0.74173222  1
  O  O94  1  0.30530532  0.67815912  0.00826778  1
  O  O95  1  0.30530532  0.00826778  0.00826778  1
  O  O96  1  0.30530532  0.00826778  0.67815912  1
  O  O97  1  0.67815912  0.30530532  0.00826778  1
  O  O98  1  0.00826778  0.30530532  0.67815912  1
  O  O99  1  0.00826778  0.30530532  0.00826778  1
  O  O100  1  0.00826778  0.00826778  0.30530532  1
  O  O101  1  0.00826778  0.67815912  0.30530532  1
  O  O102  1  0.67815912  0.00826778  0.30530532  1
  O  O103  1  0.00826778  0.00826778  0.67815912  1
  O  O104  1  0.67815912  0.00826778  0.00826778  1
  O  O105  1  0.00826778  0.67815912  0.00826778  1
