# generated using pymatgen
data_UCr4(H3O4)6
_symmetry_space_group_name_H-M   'P 1'
_cell_length_a   9.03654556
_cell_length_b   9.03654556
_cell_length_c   13.40979052
_cell_angle_alpha   80.09262812
_cell_angle_beta   80.09262812
_cell_angle_gamma   78.50595679
_symmetry_Int_Tables_number   1
_chemical_formula_structural   UCr4(H3O4)6
_chemical_formula_sum   'U2 Cr8 H36 O48'
_cell_volume   1046.24834005
_cell_formula_units_Z   2
loop_
 _symmetry_equiv_pos_site_id
 _symmetry_equiv_pos_as_xyz
  1  'x, y, z'
loop_
 _atom_site_type_symbol
 _atom_site_label
 _atom_site_symmetry_multiplicity
 _atom_site_fract_x
 _atom_site_fract_y
 _atom_site_fract_z
 _atom_site_occupancy
  U  U0  1  0.37400966  0.62599034  0.75000000  1
  U  U1  1  0.62599034  0.37400966  0.25000000  1
  Cr  Cr2  1  0.75898848  0.45368415  0.61185636  1
  Cr  Cr3  1  0.54631585  0.24101152  0.88814364  1
  Cr  Cr4  1  0.24101152  0.54631585  0.38814364  1
  Cr  Cr5  1  0.45368415  0.75898848  0.11185636  1
  Cr  Cr6  1  0.21771342  0.00664301  0.58937307  1
  Cr  Cr7  1  0.99335699  0.78228658  0.91062693  1
  Cr  Cr8  1  0.78228658  0.99335699  0.41062693  1
  Cr  Cr9  1  0.00664301  0.21771342  0.08937307  1
  H  H10  1  0.63440110  0.04194467  0.75548336  1
  H  H11  1  0.95805533  0.36559890  0.74451664  1
  H  H12  1  0.36559890  0.95805533  0.24451664  1
  H  H13  1  0.04194467  0.63440110  0.25548336  1
  H  H14  1  0.72120673  0.95782331  0.64924097  1
  H  H15  1  0.04217669  0.27879327  0.85075903  1
  H  H16  1  0.27879327  0.04217669  0.35075903  1
  H  H17  1  0.95782331  0.72120673  0.14924097  1
  H  H18  1  0.77751895  0.87784712  0.76354129  1
  H  H19  1  0.12215288  0.22248105  0.73645871  1
  H  H20  1  0.22248105  0.12215288  0.23645871  1
  H  H21  1  0.87784712  0.77751895  0.26354129  1
  H  H22  1  0.08731163  0.60244177  0.55732156  1
  H  H23  1  0.39755823  0.91268837  0.94267844  1
  H  H24  1  0.91268837  0.39755823  0.44267844  1
  H  H25  1  0.60244177  0.08731163  0.05732156  1
  H  H26  1  0.10879033  0.74429901  0.61621125  1
  H  H27  1  0.25570099  0.89120967  0.88378875  1
  H  H28  1  0.89120967  0.25570099  0.38378875  1
  H  H29  1  0.74429901  0.10879033  0.11621125  1
  H  H30  1  0.96248397  0.64615353  0.65562720  1
  H  H31  1  0.35384647  0.03751603  0.84437280  1
  H  H32  1  0.03751603  0.35384647  0.34437280  1
  H  H33  1  0.64615353  0.96248397  0.15562720  1
  H  H34  1  0.65550865  0.50883790  0.88861974  1
  H  H35  1  0.49116210  0.34449135  0.61138026  1
  H  H36  1  0.34449135  0.49116210  0.11138026  1
  H  H37  1  0.50883790  0.65550865  0.38861974  1
  H  H38  1  0.81672114  0.64475639  0.86367725  1
  H  H39  1  0.35524361  0.18327886  0.63632275  1
  H  H40  1  0.18327886  0.35524361  0.13632275  1
  H  H41  1  0.64475639  0.81672114  0.36367725  1
  H  H42  1  0.66141902  0.60458545  0.97339624  1
  H  H43  1  0.39541455  0.33858098  0.52660376  1
  H  H44  1  0.33858098  0.39541455  0.02660376  1
  H  H45  1  0.60458545  0.66141902  0.47339624  1
  O  O46  1  0.49670071  0.75240744  0.76883257  1
  O  O47  1  0.24759256  0.50329929  0.73116743  1
  O  O48  1  0.50329929  0.24759256  0.23116743  1
  O  O49  1  0.75240744  0.49670071  0.26883257  1
  O  O50  1  0.56364397  0.51849835  0.63461678  1
  O  O51  1  0.48150165  0.43635603  0.86538322  1
  O  O52  1  0.43635603  0.48150165  0.36538322  1
  O  O53  1  0.51849835  0.56364397  0.13461678  1
  O  O54  1  0.82610820  0.52572544  0.49381297  1
  O  O55  1  0.47427456  0.17389180  0.00618703  1
  O  O56  1  0.17389180  0.47427456  0.50618703  1
  O  O57  1  0.52572544  0.82610820  0.99381297  1
  O  O58  1  0.78555477  0.27299359  0.61617164  1
  O  O59  1  0.72700641  0.21444523  0.88382836  1
  O  O60  1  0.21444523  0.72700641  0.38382836  1
  O  O61  1  0.27299359  0.78555477  0.11617164  1
  O  O62  1  0.85773777  0.49506801  0.69691434  1
  O  O63  1  0.50493199  0.14226223  0.80308566  1
  O  O64  1  0.14226223  0.50493199  0.30308566  1
  O  O65  1  0.49506801  0.85773777  0.19691434  1
  O  O66  1  0.25684794  0.81209686  0.63159887  1
  O  O67  1  0.18790314  0.74315206  0.86840113  1
  O  O68  1  0.74315206  0.18790314  0.36840113  1
  O  O69  1  0.81209686  0.25684794  0.13159887  1
  O  O70  1  0.03764570  0.04781412  0.59338963  1
  O  O71  1  0.95218588  0.96235430  0.90661037  1
  O  O72  1  0.96235430  0.95218588  0.40661037  1
  O  O73  1  0.04781412  0.03764570  0.09338963  1
  O  O74  1  0.26655357  0.11765100  0.67167879  1
  O  O75  1  0.88234900  0.73344643  0.82832121  1
  O  O76  1  0.73344643  0.88234900  0.32832121  1
  O  O77  1  0.11765100  0.26655357  0.17167879  1
  O  O78  1  0.30017269  0.04968157  0.47305922  1
  O  O79  1  0.95031843  0.69982731  0.02694078  1
  O  O80  1  0.69982731  0.95031843  0.52694078  1
  O  O81  1  0.04968157  0.30017269  0.97305922  1
  O  O82  1  0.73260824  0.97402816  0.71972132  1
  O  O83  1  0.02597184  0.26739176  0.78027868  1
  O  O84  1  0.26739176  0.02597184  0.28027868  1
  O  O85  1  0.97402816  0.73260824  0.21972132  1
  O  O86  1  0.02806042  0.69519517  0.59578413  1
  O  O87  1  0.30480483  0.97193958  0.90421587  1
  O  O88  1  0.97193958  0.30480483  0.40421587  1
  O  O89  1  0.69519517  0.02806042  0.09578413  1
  O  O90  1  0.72720648  0.54360767  0.92362847  1
  O  O91  1  0.45639233  0.27279352  0.57637153  1
  O  O92  1  0.27279352  0.45639233  0.07637153  1
  O  O93  1  0.54360767  0.72720648  0.42362847  1
