# generated using pymatgen
data_Fe3P4H8NO12
_symmetry_space_group_name_H-M   'P 1'
_cell_length_a   9.43565479
_cell_length_b   10.26324324
_cell_length_c   12.75026103
_cell_angle_alpha   90.00000000
_cell_angle_beta   99.89806299
_cell_angle_gamma   90.00000000
_symmetry_Int_Tables_number   1
_chemical_formula_structural   Fe3P4H8NO12
_chemical_formula_sum   'Fe12 P16 H32 N4 O48'
_cell_volume   1216.36169225
_cell_formula_units_Z   4
loop_
 _symmetry_equiv_pos_site_id
 _symmetry_equiv_pos_as_xyz
  1  'x, y, z'
loop_
 _atom_site_type_symbol
 _atom_site_label
 _atom_site_symmetry_multiplicity
 _atom_site_fract_x
 _atom_site_fract_y
 _atom_site_fract_z
 _atom_site_occupancy
  Fe  Fe0  1  0.19665257  0.25180886  0.12622848  1
  Fe  Fe1  1  0.30334743  0.75180886  0.87377152  1
  Fe  Fe2  1  0.80334743  0.74819114  0.87377152  1
  Fe  Fe3  1  0.69665257  0.24819114  0.12622848  1
  Fe  Fe4  1  0.22548942  0.06456937  0.91529327  1
  Fe  Fe5  1  0.27451058  0.56456937  0.08470673  1
  Fe  Fe6  1  0.77451058  0.93543063  0.08470673  1
  Fe  Fe7  1  0.72548942  0.43543063  0.91529327  1
  Fe  Fe8  1  0.32556456  0.13093988  0.36468968  1
  Fe  Fe9  1  0.17443544  0.63093988  0.63531032  1
  Fe  Fe10  1  0.67443544  0.86906012  0.63531032  1
  Fe  Fe11  1  0.82556456  0.36906012  0.36468968  1
  P  P12  1  0.97403802  0.10126736  0.28915995  1
  P  P13  1  0.52596198  0.60126736  0.71084005  1
  P  P14  1  0.02596198  0.89873264  0.71084005  1
  P  P15  1  0.47403802  0.39873264  0.28915995  1
  P  P16  1  0.44441625  0.02456254  0.15140330  1
  P  P17  1  0.05558375  0.52456254  0.84859670  1
  P  P18  1  0.55558375  0.97543746  0.84859670  1
  P  P19  1  0.94441625  0.47543746  0.15140330  1
  P  P20  1  0.89861524  0.15802902  0.94042790  1
  P  P21  1  0.60138476  0.65802902  0.05957210  1
  P  P22  1  0.10138476  0.84197098  0.05957210  1
  P  P23  1  0.39861524  0.34197098  0.94042790  1
  P  P24  1  0.17602796  0.38820067  0.46768690  1
  P  P25  1  0.32397204  0.88820067  0.53231310  1
  P  P26  1  0.82397204  0.61179933  0.53231310  1
  P  P27  1  0.67602796  0.11179933  0.46768690  1
  H  H28  1  0.99574535  0.08199068  0.39970163  1
  H  H29  1  0.50425465  0.58199068  0.60029837  1
  H  H30  1  0.00425465  0.91800932  0.60029837  1
  H  H31  1  0.49574535  0.41800932  0.39970163  1
  H  H32  1  0.43611754  0.89768934  0.11038538  1
  H  H33  1  0.06388246  0.39768934  0.88961462  1
  H  H34  1  0.56388246  0.10231066  0.88961462  1
  H  H35  1  0.93611754  0.60231066  0.11038538  1
  H  H36  1  0.88638354  0.04988393  0.87248774  1
  H  H37  1  0.61361646  0.54988393  0.12751226  1
  H  H38  1  0.11361646  0.95011607  0.12751226  1
  H  H39  1  0.38638354  0.45011607  0.87248774  1
  H  H40  1  0.19684694  0.45997693  0.37744357  1
  H  H41  1  0.30315306  0.95997693  0.62255643  1
  H  H42  1  0.80315306  0.54002307  0.62255643  1
  H  H43  1  0.69684694  0.04002307  0.37744357  1
  H  H44  1  0.89382246  0.25130001  0.60022642  1
  H  H45  1  0.60617754  0.75130001  0.39977358  1
  H  H46  1  0.10617754  0.74869999  0.39977358  1
  H  H47  1  0.39382246  0.24869999  0.60022642  1
  H  H48  1  0.01421414  0.17273754  0.69588677  1
  H  H49  1  0.48578586  0.67273754  0.30411323  1
  H  H50  1  0.98578586  0.82726246  0.30411323  1
  H  H51  1  0.51421414  0.32726246  0.69588677  1
  H  H52  1  0.88818686  0.26684529  0.73350032  1
  H  H53  1  0.61181314  0.76684529  0.26649968  1
  H  H54  1  0.11181314  0.73315471  0.26649968  1
  H  H55  1  0.38818686  0.23315471  0.73350032  1
  H  H56  1  0.02050191  0.33951106  0.68210090  1
  H  H57  1  0.47949809  0.83951106  0.31789910  1
  H  H58  1  0.97949809  0.66048894  0.31789910  1
  H  H59  1  0.52050191  0.16048894  0.68210090  1
  N  N60  1  0.95469801  0.25785949  0.67647103  1
  N  N61  1  0.54530199  0.75785949  0.32352897  1
  N  N62  1  0.04530199  0.74214051  0.32352897  1
  N  N63  1  0.45469801  0.24214051  0.67647103  1
  O  O64  1  0.12422038  0.14020345  0.26274285  1
  O  O65  1  0.37577962  0.64020345  0.73725715  1
  O  O66  1  0.87577962  0.85979655  0.73725715  1
  O  O67  1  0.62422038  0.35979655  0.26274285  1
  O  O68  1  0.36602261  0.28353755  0.26589188  1
  O  O69  1  0.13397739  0.78353755  0.73410812  1
  O  O70  1  0.63397739  0.71646245  0.73410812  1
  O  O71  1  0.86602261  0.21646245  0.26589188  1
  O  O72  1  0.32661540  0.10482355  0.08093789  1
  O  O73  1  0.17338460  0.60482355  0.91906211  1
  O  O74  1  0.67338460  0.89517645  0.91906211  1
  O  O75  1  0.82661540  0.39517645  0.08093789  1
  O  O76  1  0.06162414  0.17695552  0.98117947  1
  O  O77  1  0.43837586  0.67695552  0.01882053  1
  O  O78  1  0.93837586  0.82304448  0.01882053  1
  O  O79  1  0.56162414  0.32304448  0.98117947  1
  O  O80  1  0.09769440  0.42748208  0.14475867  1
  O  O81  1  0.40230560  0.92748208  0.85524133  1
  O  O82  1  0.90230560  0.57251792  0.85524133  1
  O  O83  1  0.59769440  0.07251792  0.14475867  1
  O  O84  1  0.31834735  0.37835563  0.03235571  1
  O  O85  1  0.18165265  0.87835563  0.96764429  1
  O  O86  1  0.68165265  0.62164437  0.96764429  1
  O  O87  1  0.81834735  0.12164437  0.03235571  1
  O  O88  1  0.41385043  0.01223070  0.26599728  1
  O  O89  1  0.08614957  0.51223070  0.73400272  1
  O  O90  1  0.58614957  0.98776930  0.73400272  1
  O  O91  1  0.91385043  0.48776930  0.26599728  1
  O  O92  1  0.26561315  0.26147921  0.47044576  1
  O  O93  1  0.23438685  0.76147921  0.52955424  1
  O  O94  1  0.73438685  0.73852079  0.52955424  1
  O  O95  1  0.76561315  0.23852079  0.47044576  1
  O  O96  1  0.26385373  0.97096987  0.43393337  1
  O  O97  1  0.23614627  0.47096987  0.56606663  1
  O  O98  1  0.73614627  0.02903013  0.56606663  1
  O  O99  1  0.76385373  0.52903013  0.43393337  1
  O  O100  1  0.51555778  0.14264446  0.45876217  1
  O  O101  1  0.98444222  0.64264446  0.54123783  1
  O  O102  1  0.48444222  0.85735554  0.54123783  1
  O  O103  1  0.01555778  0.35735554  0.45876217  1
  O  O104  1  0.08688852  0.02575423  0.76331994  1
  O  O105  1  0.41311148  0.52575423  0.23668006  1
  O  O106  1  0.91311148  0.97424577  0.23668006  1
  O  O107  1  0.58688852  0.47424577  0.76331994  1
  O  O108  1  0.32870963  0.22795987  0.87134233  1
  O  O109  1  0.17129037  0.72795987  0.12865767  1
  O  O110  1  0.67129037  0.77204013  0.12865767  1
  O  O111  1  0.82870963  0.27204013  0.87134233  1
