# generated using pymatgen
data_MgV5H20NO22
_symmetry_space_group_name_H-M   'P 1'
_cell_length_a   9.12761796
_cell_length_b   11.04449384
_cell_length_c   11.20532283
_cell_angle_alpha   66.05744366
_cell_angle_beta   72.82099759
_cell_angle_gamma   73.55823578
_symmetry_Int_Tables_number   1
_chemical_formula_structural   MgV5H20NO22
_chemical_formula_sum   'Mg2 V10 H40 N2 O44'
_cell_volume   968.97244869
_cell_formula_units_Z   2
loop_
 _symmetry_equiv_pos_site_id
 _symmetry_equiv_pos_as_xyz
  1  'x, y, z'
loop_
 _atom_site_type_symbol
 _atom_site_label
 _atom_site_symmetry_multiplicity
 _atom_site_fract_x
 _atom_site_fract_y
 _atom_site_fract_z
 _atom_site_occupancy
  Mg  Mg0  1  0.28266031  0.22830324  0.28687206  1
  Mg  Mg1  1  0.71733969  0.77169676  0.71312794  1
  V  V2  1  0.83298180  0.98764428  0.98439781  1
  V  V3  1  0.16701820  0.01235572  0.01560219  1
  V  V4  1  0.11092047  0.72771683  0.04736221  1
  V  V5  1  0.88907953  0.27228317  0.95263779  1
  V  V6  1  0.14866353  0.95123921  0.76655159  1
  V  V7  1  0.85133647  0.04876079  0.23344841  1
  V  V8  1  0.12483398  0.78798141  0.29726087  1
  V  V9  1  0.87516602  0.21201859  0.70273913  1
  V  V10  1  0.80465306  0.76226504  0.26346633  1
  V  V11  1  0.19534694  0.23773496  0.73653367  1
  H  H12  1  0.45881039  0.34777307  0.06139419  1
  H  H13  1  0.54118961  0.65222693  0.93860581  1
  H  H14  1  0.53119068  0.35713978  0.17038917  1
  H  H15  1  0.46880932  0.64286022  0.82961083  1
  H  H16  1  0.16540231  0.47690773  0.31277398  1
  H  H17  1  0.83459769  0.52309227  0.68722602  1
  H  H18  1  0.11067429  0.36764684  0.45417008  1
  H  H19  1  0.88932571  0.63235316  0.54582992  1
  H  H20  1  0.52662621  0.15136475  0.41687125  1
  H  H21  1  0.47337379  0.84863525  0.58312875  1
  H  H22  1  0.37317533  0.12078598  0.53122985  1
  H  H23  1  0.62682467  0.87921402  0.46877015  1
  H  H24  1  0.51474824  0.02158888  0.22945199  1
  H  H25  1  0.48525176  0.97841112  0.77054801  1
  H  H26  1  0.36421974  0.00846100  0.19660519  1
  H  H27  1  0.63578026  0.99153900  0.80339481  1
  H  H28  1  0.11399415  0.24945660  0.10632424  1
  H  H29  1  0.88600585  0.75054340  0.89367576  1
  H  H30  1  0.19297268  0.37947205  0.04962554  1
  H  H31  1  0.80702732  0.62052795  0.95037446  1
  H  H32  1  0.07469484  0.09293748  0.50026360  1
  H  H33  1  0.92530516  0.90706252  0.49973640  1
  H  H34  1  0.08595790  0.05006114  0.37741347  1
  H  H35  1  0.91404210  0.94993886  0.62258653  1
  H  H36  1  0.57273685  0.73649066  0.08769600  1
  H  H37  1  0.42726315  0.26350934  0.91230400  1
  H  H38  1  0.43089405  0.66395383  0.13307057  1
  H  H39  1  0.56910595  0.33604617  0.86692943  1
  H  H40  1  0.43104372  0.53031682  0.37056199  1
  H  H41  1  0.56895628  0.46968318  0.62943801  1
  H  H42  1  0.54252325  0.61416143  0.52733289  1
  H  H43  1  0.45747675  0.38583857  0.47266711  1
  H  H44  1  0.15258524  0.64101781  0.63148328  1
  H  H45  1  0.84741476  0.35898219  0.36851672  1
  H  H46  1  0.13511212  0.49741395  0.76530488  1
  H  H47  1  0.86488788  0.50258605  0.23469512  1
  H  H48  1  0.68971370  0.44466374  0.30400433  1
  H  H49  1  0.31028630  0.55533626  0.69599567  1
  H  H50  1  0.84236939  0.36384815  0.21808532  1
  H  H51  1  0.15763061  0.63615185  0.78191468  1
  N  N52  1  0.81195568  0.41825904  0.28021333  1
  N  N53  1  0.18804432  0.58174096  0.71978667  1
  O  O54  1  0.98161890  0.85457209  0.90935629  1
  O  O55  1  0.01838110  0.14542791  0.09064371  1
  O  O56  1  0.71547274  0.87429321  0.09773342  1
  O  O57  1  0.28452726  0.12570679  0.90226658  1
  O  O58  1  0.23238376  0.87782923  0.93534549  1
  O  O59  1  0.76761624  0.12217077  0.06465451  1
  O  O60  1  0.74767085  0.07682369  0.84506066  1
  O  O61  1  0.25232915  0.92317631  0.15493934  1
  O  O62  1  0.98417423  0.90558967  0.11868183  1
  O  O63  1  0.01582577  0.09441033  0.88131817  1
  O  O64  1  0.19976257  0.61600862  0.97508395  1
  O  O65  1  0.80023743  0.38399138  0.02491605  1
  O  O66  1  0.21024883  0.68369858  0.18605189  1
  O  O67  1  0.78975117  0.31630142  0.81394811  1
  O  O68  1  0.93575159  0.66116854  0.15812758  1
  O  O69  1  0.06424841  0.33883146  0.84187242  1
  O  O70  1  -0.00004031  0.05398151  0.66352864  1
  O  O71  1  0.00004031  0.94601849  0.33647136  1
  O  O72  1  0.24688421  0.84104083  0.69426243  1
  O  O73  1  0.75311579  0.15895917  0.30573757  1
  O  O74  1  0.72397375  0.92244492  0.30649278  1
  O  O75  1  0.27602625  0.07755508  0.69350722  1
  O  O76  1  0.95046325  0.70693008  0.37066181  1
  O  O77  1  0.04953675  0.29306992  0.62933819  1
  O  O78  1  0.22643699  0.71448689  0.41435926  1
  O  O79  1  0.77356301  0.28551311  0.58564074  1
  O  O80  1  0.67139719  0.67119776  0.35648032  1
  O  O81  1  0.32860281  0.32880224  0.64351968  1
  O  O82  1  0.43581974  0.35083794  0.15298060  1
  O  O83  1  0.56418026  0.64916206  0.84701940  1
  O  O84  1  0.14141286  0.38615241  0.35675172  1
  O  O85  1  0.85858714  0.61384759  0.64324828  1
  O  O86  1  0.41444736  0.15489771  0.43324715  1
  O  O87  1  0.58555264  0.84510229  0.56675285  1
  O  O88  1  0.40885088  0.06753204  0.21695739  1
  O  O89  1  0.59114912  0.93246796  0.78304261  1
  O  O90  1  0.15868986  0.30678865  0.13066278  1
  O  O91  1  0.84131014  0.69321135  0.86933722  1
  O  O92  1  0.11343558  0.11584428  0.40212433  1
  O  O93  1  0.88656442  0.88415572  0.59787567  1
  O  O94  1  0.45679889  0.34396790  0.90766178  1
  O  O95  1  0.54320111  0.65603210  0.09233822  1
  O  O96  1  0.49365740  0.44072929  0.37938997  1
  O  O97  1  0.50634260  0.55927071  0.62061003  1
