# generated using pymatgen
data_VP2NCl10O
_symmetry_space_group_name_H-M   'P 1'
_cell_length_a   10.40650439
_cell_length_b   16.44836430
_cell_length_c   20.72638914
_cell_angle_alpha   90.00000000
_cell_angle_beta   90.00000000
_cell_angle_gamma   90.00000000
_symmetry_Int_Tables_number   1
_chemical_formula_structural   VP2NCl10O
_chemical_formula_sum   'V8 P16 N8 Cl80 O8'
_cell_volume   3547.73551707
_cell_formula_units_Z   8
loop_
 _symmetry_equiv_pos_site_id
 _symmetry_equiv_pos_as_xyz
  1  'x, y, z'
loop_
 _atom_site_type_symbol
 _atom_site_label
 _atom_site_symmetry_multiplicity
 _atom_site_fract_x
 _atom_site_fract_y
 _atom_site_fract_z
 _atom_site_occupancy
  V  V0  1  0.79776116  0.58330072  0.36968420  1
  V  V1  1  0.70223884  0.08330072  0.36968420  1
  V  V2  1  0.79776116  0.91669928  0.86968420  1
  V  V3  1  0.29776116  0.91669928  0.63031580  1
  V  V4  1  0.70223884  0.41669928  0.86968420  1
  V  V5  1  0.20223884  0.41669928  0.63031580  1
  V  V6  1  0.20223884  0.08330072  0.13031580  1
  V  V7  1  0.29776116  0.58330072  0.13031580  1
  P  P8  1  0.65844679  0.64687219  0.65464926  1
  P  P9  1  0.15844679  0.85312781  0.34535074  1
  P  P10  1  0.19338438  0.27963147  0.90525538  1
  P  P11  1  0.80661562  0.77963147  0.59474462  1
  P  P12  1  0.84155321  0.14687219  0.65464926  1
  P  P13  1  0.80661562  0.72036853  0.09474462  1
  P  P14  1  0.15844679  0.64687219  0.84535074  1
  P  P15  1  0.34155321  0.35312781  0.34535074  1
  P  P16  1  0.19338438  0.22036853  0.40525538  1
  P  P17  1  0.65844679  0.85312781  0.15464926  1
  P  P18  1  0.30661562  0.72036853  0.40525538  1
  P  P19  1  0.30661562  0.77963147  0.90525538  1
  P  P20  1  0.69338438  0.22036853  0.09474462  1
  P  P21  1  0.84155321  0.35312781  0.15464926  1
  P  P22  1  0.69338438  0.27963147  0.59474462  1
  P  P23  1  0.34155321  0.14687219  0.84535074  1
  N  N24  1  0.19295298  0.71959473  0.89112946  1
  N  N25  1  0.80704702  0.21959473  0.60887054  1
  N  N26  1  0.80704702  0.28040527  0.10887054  1
  N  N27  1  0.30704702  0.21959473  0.89112946  1
  N  N28  1  0.69295298  0.78040527  0.10887054  1
  N  N29  1  0.69295298  0.71959473  0.60887054  1
  N  N30  1  0.30704702  0.28040527  0.39112946  1
  N  N31  1  0.19295298  0.78040527  0.39112946  1
  Cl  Cl32  1  0.37541882  0.66497490  0.32730187  1
  Cl  Cl33  1  0.62458118  0.16497490  0.17269813  1
  Cl  Cl34  1  0.37337415  0.18204455  0.75516640  1
  Cl  Cl35  1  0.99445227  0.59919315  0.32065719  1
  Cl  Cl36  1  0.79381014  0.77884807  0.88113714  1
  Cl  Cl37  1  0.16550631  0.57631805  0.04213355  1
  Cl  Cl38  1  0.79381014  0.72115193  0.38113714  1
  Cl  Cl39  1  0.12662585  0.68204455  0.75516640  1
  Cl  Cl40  1  0.12458118  0.33502510  0.82730187  1
  Cl  Cl41  1  0.49445227  0.90080685  0.67934281  1
  Cl  Cl42  1  0.16550631  0.92368195  0.54213355  1
  Cl  Cl43  1  0.49876704  0.09292375  0.87627065  1
  Cl  Cl44  1  0.83449369  0.07631805  0.45786645  1
  Cl  Cl45  1  0.99876704  0.40707625  0.12372935  1
  Cl  Cl46  1  0.74787688  0.63529483  0.03445503  1
  Cl  Cl47  1  0.20618986  0.22115193  0.11886286  1
  Cl  Cl48  1  0.00554773  0.09919315  0.17934281  1
  Cl  Cl49  1  0.12662585  0.81795545  0.25516640  1
  Cl  Cl50  1  0.25212312  0.13529483  0.46554497  1
  Cl  Cl51  1  0.36869400  0.04382031  0.60110837  1
  Cl  Cl52  1  0.83449369  0.42368195  0.95786645  1
  Cl  Cl53  1  0.63130600  0.95617969  0.39889163  1
  Cl  Cl54  1  0.99445227  0.90080685  0.82065719  1
  Cl  Cl55  1  0.87541882  0.66497490  0.17269813  1
  Cl  Cl56  1  0.00123296  0.90707625  0.37627065  1
  Cl  Cl57  1  0.25212312  0.36470517  0.96554497  1
  Cl  Cl58  1  0.95551307  0.77463183  0.05374362  1
  Cl  Cl59  1  0.62662585  0.68204455  0.74483360  1
  Cl  Cl60  1  0.75212312  0.36470517  0.53445503  1
  Cl  Cl61  1  0.49876704  0.40707625  0.37627065  1
  Cl  Cl62  1  0.86869400  0.45617969  0.39889163  1
  Cl  Cl63  1  0.54448693  0.27463183  0.05374362  1
  Cl  Cl64  1  0.33449369  0.42368195  0.54213355  1
  Cl  Cl65  1  0.00123296  0.59292375  0.87627065  1
  Cl  Cl66  1  0.20598713  0.06198437  0.83969944  1
  Cl  Cl67  1  0.70618986  0.27884807  0.88113714  1
  Cl  Cl68  1  0.50554773  0.40080685  0.82065719  1
  Cl  Cl69  1  0.37337415  0.31795545  0.25516640  1
  Cl  Cl70  1  0.87337415  0.31795545  0.24483360  1
  Cl  Cl71  1  0.95551307  0.72536817  0.55374362  1
  Cl  Cl72  1  0.29401287  0.93801563  0.33969944  1
  Cl  Cl73  1  0.24787688  0.86470517  0.96554497  1
  Cl  Cl74  1  0.33449369  0.07631805  0.04213355  1
  Cl  Cl75  1  0.45551307  0.77463183  0.44625638  1
  Cl  Cl76  1  0.37541882  0.83502510  0.82730187  1
  Cl  Cl77  1  0.79401287  0.56198437  0.66030056  1
  Cl  Cl78  1  0.29381014  0.77884807  0.61886286  1
  Cl  Cl79  1  0.00554773  0.40080685  0.67934281  1
  Cl  Cl80  1  0.04448693  0.27463183  0.44625638  1
  Cl  Cl81  1  0.50554773  0.09919315  0.32065719  1
  Cl  Cl82  1  0.62662585  0.81795545  0.24483360  1
  Cl  Cl83  1  0.04448693  0.22536817  0.94625638  1
  Cl  Cl84  1  0.13130600  0.95617969  0.10110837  1
  Cl  Cl85  1  0.54448693  0.22536817  0.55374362  1
  Cl  Cl86  1  0.87541882  0.83502510  0.67269813  1
  Cl  Cl87  1  0.70618986  0.22115193  0.38113714  1
  Cl  Cl88  1  0.63130600  0.54382031  0.89889163  1
  Cl  Cl89  1  0.20618986  0.27884807  0.61886286  1
  Cl  Cl90  1  0.70598713  0.43801563  0.16030056  1
  Cl  Cl91  1  0.62458118  0.33502510  0.67269813  1
  Cl  Cl92  1  0.99876704  0.09292375  0.62372935  1
  Cl  Cl93  1  0.49445227  0.59919315  0.17934281  1
  Cl  Cl94  1  0.66550631  0.92368195  0.95786645  1
  Cl  Cl95  1  0.75212312  0.13529483  0.03445503  1
  Cl  Cl96  1  0.79401287  0.93801563  0.16030056  1
  Cl  Cl97  1  0.74787688  0.86470517  0.53445503  1
  Cl  Cl98  1  0.50123296  0.59292375  0.62372935  1
  Cl  Cl99  1  0.12458118  0.16497490  0.32730187  1
  Cl  Cl100  1  0.70598713  0.06198437  0.66030056  1
  Cl  Cl101  1  0.29401287  0.56198437  0.83969944  1
  Cl  Cl102  1  0.87337415  0.18204455  0.74483360  1
  Cl  Cl103  1  0.13130600  0.54382031  0.60110837  1
  Cl  Cl104  1  0.29381014  0.72115193  0.11886286  1
  Cl  Cl105  1  0.20598713  0.43801563  0.33969944  1
  Cl  Cl106  1  0.45551307  0.72536817  0.94625638  1
  Cl  Cl107  1  0.86869400  0.04382031  0.89889163  1
  Cl  Cl108  1  0.66550631  0.57631805  0.45786645  1
  Cl  Cl109  1  0.50123296  0.90707625  0.12372935  1
  Cl  Cl110  1  0.36869400  0.45617969  0.10110837  1
  Cl  Cl111  1  0.24787688  0.63529483  0.46554497  1
  O  O112  1  0.70288245  0.56629943  0.31026832  1
  O  O113  1  0.79711755  0.43370057  0.81026832  1
  O  O114  1  0.29711755  0.43370057  0.68973168  1
  O  O115  1  0.20288245  0.56629943  0.18973168  1
  O  O116  1  0.29711755  0.06629943  0.18973168  1
  O  O117  1  0.79711755  0.06629943  0.31026832  1
  O  O118  1  0.20288245  0.93370057  0.68973168  1
  O  O119  1  0.70288245  0.93370057  0.81026832  1
