# generated using pymatgen
data_Re2Te4Cl22O
_symmetry_space_group_name_H-M   'P 1'
_cell_length_a   9.50866238
_cell_length_b   11.74053162
_cell_length_c   17.10497724
_cell_angle_alpha   102.08735843
_cell_angle_beta   90.00000000
_cell_angle_gamma   90.00000000
_symmetry_Int_Tables_number   1
_chemical_formula_structural   Re2Te4Cl22O
_chemical_formula_sum   'Re4 Te8 Cl44 O2'
_cell_volume   1867.20847276
_cell_formula_units_Z   2
loop_
 _symmetry_equiv_pos_site_id
 _symmetry_equiv_pos_as_xyz
  1  'x, y, z'
loop_
 _atom_site_type_symbol
 _atom_site_label
 _atom_site_symmetry_multiplicity
 _atom_site_fract_x
 _atom_site_fract_y
 _atom_site_fract_z
 _atom_site_occupancy
  Re  Re0  1  0.85638373  0.42580097  0.43479087  1
  Re  Re1  1  0.35638373  0.07419903  0.06520913  1
  Re  Re2  1  0.14361627  0.57419903  0.56520913  1
  Re  Re3  1  0.64361627  0.92580097  0.93479087  1
  Te  Te4  1  0.82923163  0.44177015  0.68477140  1
  Te  Te5  1  0.32923163  0.05822985  0.81522860  1
  Te  Te6  1  0.17076837  0.55822985  0.31522860  1
  Te  Te7  1  0.67076837  0.94177015  0.18477140  1
  Te  Te8  1  0.19431709  0.21655642  0.48027822  1
  Te  Te9  1  0.69431709  0.28344358  0.01972178  1
  Te  Te10  1  0.80568291  0.78344358  0.51972178  1
  Te  Te11  1  0.30568291  0.71655642  0.98027822  1
  Cl  Cl12  1  0.69321339  0.49697474  0.53925525  1
  Cl  Cl13  1  0.19321339  0.00302526  0.96074475  1
  Cl  Cl14  1  0.30678661  0.50302526  0.46074475  1
  Cl  Cl15  1  0.80678661  0.99697474  0.03925525  1
  Cl  Cl16  1  0.82277865  0.59832306  0.37993996  1
  Cl  Cl17  1  0.32277865  0.90167694  0.12006004  1
  Cl  Cl18  1  0.17722135  0.40167694  0.62006004  1
  Cl  Cl19  1  0.67722135  0.09832306  0.87993996  1
  Cl  Cl20  1  0.89050313  0.25133032  0.48533262  1
  Cl  Cl21  1  0.39050313  0.24866968  0.01466738  1
  Cl  Cl22  1  0.10949687  0.74866968  0.51466738  1
  Cl  Cl23  1  0.60949687  0.75133032  0.98533262  1
  Cl  Cl24  1  0.67662407  0.33736787  0.35357931  1
  Cl  Cl25  1  0.17662407  0.16263213  0.14642069  1
  Cl  Cl26  1  0.32337593  0.66263213  0.64642069  1
  Cl  Cl27  1  0.82337593  0.83736787  0.85357931  1
  Cl  Cl28  1  0.02407124  0.35131340  0.33150256  1
  Cl  Cl29  1  0.52407124  0.14868660  0.16849744  1
  Cl  Cl30  1  0.97592876  0.64868660  0.66849744  1
  Cl  Cl31  1  0.47592876  0.85131340  0.83150256  1
  Cl  Cl32  1  0.94828335  0.44853759  0.80684704  1
  Cl  Cl33  1  0.44828335  0.05146241  0.69315296  1
  Cl  Cl34  1  0.05171665  0.55146241  0.19315296  1
  Cl  Cl35  1  0.55171665  0.94853759  0.30684704  1
  Cl  Cl36  1  0.64617195  0.55925549  0.74493405  1
  Cl  Cl37  1  0.14617195  0.94074451  0.75506595  1
  Cl  Cl38  1  0.35382805  0.44074451  0.25506595  1
  Cl  Cl39  1  0.85382805  0.05925549  0.24493405  1
  Cl  Cl40  1  0.71473761  0.26402286  0.69036522  1
  Cl  Cl41  1  0.21473761  0.23597714  0.80963478  1
  Cl  Cl42  1  0.28526239  0.73597714  0.30963478  1
  Cl  Cl43  1  0.78526239  0.76402286  0.19036522  1
  Cl  Cl44  1  0.13966114  0.09551581  0.56773893  1
  Cl  Cl45  1  0.63966114  0.40448419  0.93226107  1
  Cl  Cl46  1  0.86033886  0.90448419  0.43226107  1
  Cl  Cl47  1  0.36033886  0.59551581  0.06773893  1
  Cl  Cl48  1  0.18761441  0.06328778  0.36433088  1
  Cl  Cl49  1  0.68761441  0.43671222  0.13566912  1
  Cl  Cl50  1  0.81238559  0.93671222  0.63566912  1
  Cl  Cl51  1  0.31238559  0.56328778  0.86433088  1
  Cl  Cl52  1  0.44034184  0.19728500  0.49596890  1
  Cl  Cl53  1  0.94034184  0.30271500  0.00403110  1
  Cl  Cl54  1  0.55965816  0.80271500  0.50403110  1
  Cl  Cl55  1  0.05965816  0.69728500  0.99596890  1
  O  O56  1  0.00000000  0.50000000  0.50000000  1
  O  O57  1  0.50000000  -0.00000000  0.00000000  1
