# generated using pymatgen
data_Tm2Ge6Pd
_symmetry_space_group_name_H-M   'P 1'
_cell_length_a   4.02909092
_cell_length_b   4.06689337
_cell_length_c   11.11476576
_cell_angle_alpha   90.00000000
_cell_angle_beta   100.44254665
_cell_angle_gamma   90.00000000
_symmetry_Int_Tables_number   1
_chemical_formula_structural   Tm2Ge6Pd
_chemical_formula_sum   'Tm2 Ge6 Pd1'
_cell_volume   179.10873970
_cell_formula_units_Z   1
loop_
 _symmetry_equiv_pos_site_id
 _symmetry_equiv_pos_as_xyz
  1  'x, y, z'
loop_
 _atom_site_type_symbol
 _atom_site_label
 _atom_site_symmetry_multiplicity
 _atom_site_fract_x
 _atom_site_fract_y
 _atom_site_fract_z
 _atom_site_occupancy
  Tm  Tm0  1  0.77703278  0.50000000  0.55406556  1
  Tm  Tm1  1  0.11839522  0.50000000  0.23679044  1
  Ge  Ge2  1  0.49280981  0.50000000  0.98561963  1
  Ge  Ge3  1  0.37822431  0.50000000  0.75644862  1
  Ge  Ge4  1  0.99152401  -0.00000000  0.98304802  1
  Ge  Ge5  1  0.87675960  0.00000000  0.75351920  1
  Ge  Ge6  1  0.67011224  0.00000000  0.34022447  1
  Ge  Ge7  1  0.24277999  -0.00000000  0.48555998  1
  Pd  Pd8  1  0.55936204  -0.00000000  0.11872408  1
