# generated using pymatgen
data_Nd4Ga18Ni
_symmetry_space_group_name_H-M   'P 1'
_cell_length_a   4.40451762
_cell_length_b   4.40451762
_cell_length_c   23.94069373
_cell_angle_alpha   95.27799193
_cell_angle_beta   95.27799193
_cell_angle_gamma   90.00000000
_symmetry_Int_Tables_number   1
_chemical_formula_structural   Nd4Ga18Ni
_chemical_formula_sum   'Nd4 Ga18 Ni1'
_cell_volume   460.49727437
_cell_formula_units_Z   1
loop_
 _symmetry_equiv_pos_site_id
 _symmetry_equiv_pos_as_xyz
  1  'x, y, z'
loop_
 _atom_site_type_symbol
 _atom_site_label
 _atom_site_symmetry_multiplicity
 _atom_site_fract_x
 _atom_site_fract_y
 _atom_site_fract_z
 _atom_site_occupancy
  Nd  Nd0  1  0.30571774  0.30571774  0.61143547  1
  Nd  Nd1  1  0.69428226  0.69428226  0.38856453  1
  Nd  Nd2  1  0.07890569  0.07890569  0.15781139  1
  Nd  Nd3  1  0.92109431  0.92109431  0.84218861  1
  Ga  Ga4  1  0.39024289  0.39024289  0.78048578  1
  Ga  Ga5  1  0.60975711  0.60975711  0.21951422  1
  Ga  Ga6  1  0.02730071  0.52730071  0.05460143  1
  Ga  Ga7  1  0.97269929  0.47269929  0.94539857  1
  Ga  Ga8  1  0.52730071  0.02730071  0.05460143  1
  Ga  Ga9  1  0.47269929  0.97269929  0.94539857  1
  Ga  Ga10  1  0.13909381  0.63909381  0.27818762  1
  Ga  Ga11  1  0.86090619  0.36090619  0.72181238  1
  Ga  Ga12  1  0.63909381  0.13909381  0.27818762  1
  Ga  Ga13  1  0.36090619  0.86090619  0.72181238  1
  Ga  Ga14  1  0.44248332  0.44248332  0.88496664  1
  Ga  Ga15  1  0.55751668  0.55751668  0.11503336  1
  Ga  Ga16  1  0.16878146  0.16878146  0.33756292  1
  Ga  Ga17  1  0.83121854  0.83121854  0.66243708  1
  Ga  Ga18  1  0.22072787  0.22072787  0.44145575  1
  Ga  Ga19  1  0.77927213  0.77927213  0.55854425  1
  Ga  Ga20  1  0.25000000  0.75000000  0.50000000  1
  Ga  Ga21  1  0.75000000  0.25000000  0.50000000  1
  Ni  Ni22  1  0.00000000  0.00000000  -0.00000000  1
