# generated using pymatgen
data_MgCr(SiO3)2
_symmetry_space_group_name_H-M   'P 1'
_cell_length_a   5.38160855
_cell_length_b   9.37478287
_cell_length_c   9.54564440
_cell_angle_alpha   90.00000000
_cell_angle_beta   100.19128654
_cell_angle_gamma   90.00000000
_symmetry_Int_Tables_number   1
_chemical_formula_structural   MgCr(SiO3)2
_chemical_formula_sum   'Mg4 Cr4 Si8 O24'
_cell_volume   473.99294308
_cell_formula_units_Z   4
loop_
 _symmetry_equiv_pos_site_id
 _symmetry_equiv_pos_as_xyz
  1  'x, y, z'
loop_
 _atom_site_type_symbol
 _atom_site_label
 _atom_site_symmetry_multiplicity
 _atom_site_fract_x
 _atom_site_fract_y
 _atom_site_fract_z
 _atom_site_occupancy
  Mg  Mg0  1  0.98838636  0.50224879  0.75249622  1
  Mg  Mg1  1  0.01161364  0.49775121  0.24750378  1
  Mg  Mg2  1  0.51161364  0.00224879  0.24750378  1
  Mg  Mg3  1  0.48838636  0.99775121  0.75249622  1
  Cr  Cr4  1  0.98806732  0.85153093  0.74802591  1
  Cr  Cr5  1  0.01193268  0.14846907  0.25197409  1
  Cr  Cr6  1  0.51193268  0.35153093  0.25197409  1
  Cr  Cr7  1  0.48806732  0.64846907  0.74802591  1
  Si  Si8  1  0.73928383  0.33832931  0.95457023  1
  Si  Si9  1  0.26071617  0.66167069  0.04542977  1
  Si  Si10  1  0.76071617  0.83832931  0.04542977  1
  Si  Si11  1  0.23928383  0.16167069  0.95457023  1
  Si  Si12  1  0.71877644  0.66276512  0.45364557  1
  Si  Si13  1  0.28122356  0.33723488  0.54635443  1
  Si  Si14  1  0.78122356  0.16276512  0.54635443  1
  Si  Si15  1  0.21877644  0.83723488  0.45364557  1
  O  O16  1  0.72644187  0.48974858  0.87411095  1
  O  O17  1  0.27355813  0.51025142  0.12588905  1
  O  O18  1  0.77355813  0.98974858  0.12588905  1
  O  O19  1  0.22644187  0.01025142  0.87411095  1
  O  O20  1  0.70903490  0.84727017  0.87058409  1
  O  O21  1  0.29096510  0.15272983  0.12941591  1
  O  O22  1  0.79096510  0.34727017  0.12941591  1
  O  O23  1  0.20903490  0.65272983  0.87058409  1
  O  O24  1  0.92489577  0.77754368  0.40731958  1
  O  O25  1  0.07510423  0.22245632  0.59268042  1
  O  O26  1  0.57510423  0.27754368  0.59268042  1
  O  O27  1  0.42489577  0.72245632  0.40731958  1
  O  O28  1  0.77317696  0.65035523  0.62906545  1
  O  O29  1  0.22682304  0.34964477  0.37093455  1
  O  O30  1  0.72682304  0.15035523  0.37093455  1
  O  O31  1  0.27317696  0.84964477  0.62906545  1
  O  O32  1  0.98331207  0.25892275  0.90144336  1
  O  O33  1  0.01668793  0.74107725  0.09855664  1
  O  O34  1  0.51668793  0.75892275  0.09855664  1
  O  O35  1  0.48331207  0.24107725  0.90144336  1
  O  O36  1  0.74658482  0.01831101  0.63175011  1
  O  O37  1  0.25341518  0.98168899  0.36824989  1
  O  O38  1  0.75341518  0.51831101  0.36824989  1
  O  O39  1  0.24658482  0.48168899  0.63175011  1
