# generated using pymatgen
data_Na3Mg2(MoO4)3
_symmetry_space_group_name_H-M   'P 1'
_cell_length_a   7.19172181
_cell_length_b   9.20309659
_cell_length_c   9.20309659
_cell_angle_alpha   95.41728624
_cell_angle_beta   105.20951577
_cell_angle_gamma   105.20951577
_symmetry_Int_Tables_number   1
_chemical_formula_structural   Na3Mg2(MoO4)3
_chemical_formula_sum   'Na6 Mg4 Mo6 O24'
_cell_volume   558.41022330
_cell_formula_units_Z   2
loop_
 _symmetry_equiv_pos_site_id
 _symmetry_equiv_pos_as_xyz
  1  'x, y, z'
loop_
 _atom_site_type_symbol
 _atom_site_label
 _atom_site_symmetry_multiplicity
 _atom_site_fract_x
 _atom_site_fract_y
 _atom_site_fract_z
 _atom_site_occupancy
  Na  Na0  1  0.75000000  0.23568940  0.76431060  1
  Na  Na1  1  0.25000000  0.76431060  0.23568940  1
  Na  Na2  1  0.00000000  -0.00000000  0.00000000  1
  Na  Na3  1  0.50000000  -0.00000000  0.00000000  1
  Na  Na4  1  0.75000000  0.52887845  0.47112155  1
  Na  Na5  1  0.25000000  0.47112155  0.52887845  1
  Mg  Mg6  1  0.62589313  0.55517258  0.87028184  1
  Mg  Mg7  1  0.37410687  0.44482742  0.12971816  1
  Mg  Mg8  1  0.87410687  0.12971816  0.44482742  1
  Mg  Mg9  1  0.12589313  0.87028184  0.55517258  1
  Mo  Mo10  1  0.75000000  0.78158973  0.21841027  1
  Mo  Mo11  1  0.25000000  0.21841027  0.78158973  1
  Mo  Mo12  1  0.87388387  0.37873261  0.15973146  1
  Mo  Mo13  1  0.12611613  0.62126739  0.84026854  1
  Mo  Mo14  1  0.62611613  0.84026854  0.62126739  1
  Mo  Mo15  1  0.37388387  0.15973146  0.37873261  1
  O  O16  1  0.66226056  0.45630109  0.09760861  1
  O  O17  1  0.33773944  0.54369891  0.90239139  1
  O  O18  1  0.83773944  0.90239139  0.54369891  1
  O  O19  1  0.16226056  0.09760861  0.45630109  1
  O  O20  1  0.88761837  0.50626275  0.84989431  1
  O  O21  1  0.11238163  0.49373725  0.15010569  1
  O  O22  1  0.61238163  0.15010569  0.49373725  1
  O  O23  1  0.38761837  0.84989431  0.50626275  1
  O  O24  1  0.81032751  0.20411392  0.03649983  1
  O  O25  1  0.18967249  0.79588608  0.96350017  1
  O  O26  1  0.68967249  0.96350017  0.79588608  1
  O  O27  1  0.31032751  0.03649983  0.20411392  1
  O  O28  1  0.77344847  0.75749587  0.02093241  1
  O  O29  1  0.22655153  0.24250413  0.97906759  1
  O  O30  1  0.72655153  0.97906759  0.24250413  1
  O  O31  1  0.27344847  0.02093241  0.75749587  1
  O  O32  1  0.52515735  0.65807760  0.26291448  1
  O  O33  1  0.47484265  0.34192240  0.73708552  1
  O  O34  1  0.97484265  0.73708552  0.34192240  1
  O  O35  1  0.02515735  0.26291448  0.65807760  1
  O  O36  1  0.59514276  0.64683075  0.66105941  1
  O  O37  1  0.40485724  0.35316925  0.33894059  1
  O  O38  1  0.90485724  0.33894059  0.35316925  1
  O  O39  1  0.09514276  0.66105941  0.64683075  1
