# generated using pymatgen
data_Mn6Al31Cu2
_symmetry_space_group_name_H-M   'P 1'
_cell_length_a   7.71410414
_cell_length_b   12.54552531
_cell_length_c   12.48851314
_cell_angle_alpha   90.00000000
_cell_angle_beta   107.98981661
_cell_angle_gamma   90.00000000
_symmetry_Int_Tables_number   1
_chemical_formula_structural   Mn6Al31Cu2
_chemical_formula_sum   'Mn12 Al62 Cu4'
_cell_volume   1149.51986783
_cell_formula_units_Z   2
loop_
 _symmetry_equiv_pos_site_id
 _symmetry_equiv_pos_as_xyz
  1  'x, y, z'
loop_
 _atom_site_type_symbol
 _atom_site_label
 _atom_site_symmetry_multiplicity
 _atom_site_fract_x
 _atom_site_fract_y
 _atom_site_fract_z
 _atom_site_occupancy
  Mn  Mn0  1  0.35835854  0.05101902  0.71671709  1
  Mn  Mn1  1  0.64164146  0.94898098  0.28328291  1
  Mn  Mn2  1  0.64164146  0.55101902  0.28328291  1
  Mn  Mn3  1  0.35835854  0.44898098  0.71671709  1
  Mn  Mn4  1  0.91169321  0.57258796  0.82338642  1
  Mn  Mn5  1  0.08830679  0.42741204  0.17661358  1
  Mn  Mn6  1  0.08830679  0.07258796  0.17661358  1
  Mn  Mn7  1  0.91169321  0.92741204  0.82338642  1
  Mn  Mn8  1  0.54245450  0.25000000  0.08490899  1
  Mn  Mn9  1  0.45754550  0.75000000  0.91509101  1
  Mn  Mn10  1  0.92066197  0.25000000  0.84132393  1
  Mn  Mn11  1  0.07933803  0.75000000  0.15867607  1
  Al  Al12  1  0.20184089  0.25000000  0.40368178  1
  Al  Al13  1  0.79815911  0.75000000  0.59631822  1
  Al  Al14  1  0.09532852  0.12576384  0.56527522  1
  Al  Al15  1  0.90467148  0.87423616  0.43472478  1
  Al  Al16  1  0.90467148  0.62576384  0.43472478  1
  Al  Al17  1  0.46994669  0.37423616  0.56527522  1
  Al  Al18  1  0.09532852  0.37423616  0.56527522  1
  Al  Al19  1  0.53005331  0.62576384  0.43472478  1
  Al  Al20  1  0.53005331  0.87423616  0.43472478  1
  Al  Al21  1  0.46994669  0.12576384  0.56527522  1
  Al  Al22  1  0.74568202  0.06650040  0.10846970  1
  Al  Al23  1  0.25431798  0.93349960  0.89153030  1
  Al  Al24  1  0.25431798  0.56650040  0.89153030  1
  Al  Al25  1  0.36278767  0.43349960  0.10846970  1
  Al  Al26  1  0.74568202  0.43349960  0.10846970  1
  Al  Al27  1  0.63721233  0.56650040  0.89153030  1
  Al  Al28  1  0.63721233  0.93349960  0.89153030  1
  Al  Al29  1  0.36278767  0.06650040  0.10846970  1
  Al  Al30  1  0.98369624  0.09283328  0.96739248  1
  Al  Al31  1  0.01630376  0.90716672  0.03260752  1
  Al  Al32  1  0.01630376  0.59283328  0.03260752  1
  Al  Al33  1  0.98369624  0.40716672  0.96739248  1
  Al  Al34  1  0.74116330  0.05513466  0.48232659  1
  Al  Al35  1  0.25883670  0.94486534  0.51767341  1
  Al  Al36  1  0.25883670  0.55513466  0.51767341  1
  Al  Al37  1  0.74116330  0.44486534  0.48232659  1
  Al  Al38  1  0.22040390  0.25000000  0.97518760  1
  Al  Al39  1  0.77959610  0.75000000  0.02481240  1
  Al  Al40  1  0.75478370  0.25000000  0.97518760  1
  Al  Al41  1  0.24521630  0.75000000  0.02481240  1
  Al  Al42  1  0.08171301  0.10752833  0.78113332  1
  Al  Al43  1  0.91828699  0.89247167  0.21886668  1
  Al  Al44  1  0.91828699  0.60752833  0.21886668  1
  Al  Al45  1  0.69942031  0.39247167  0.78113332  1
  Al  Al46  1  0.08171301  0.39247167  0.78113332  1
  Al  Al47  1  0.30057969  0.60752833  0.21886668  1
  Al  Al48  1  0.30057969  0.89247167  0.21886668  1
  Al  Al49  1  0.69942031  0.10752833  0.78113332  1
  Al  Al50  1  0.91750193  0.25000000  0.20277345  1
  Al  Al51  1  0.08249807  0.75000000  0.79722655  1
  Al  Al52  1  0.28527151  0.25000000  0.20277345  1
  Al  Al53  1  0.71472849  0.75000000  0.79722655  1
  Al  Al54  1  0.36254247  0.25000000  0.72508495  1
  Al  Al55  1  0.63745753  0.75000000  0.27491505  1
  Al  Al56  1  0.46019086  0.11704234  0.92038171  1
  Al  Al57  1  0.53980914  0.88295766  0.07961829  1
  Al  Al58  1  0.53980914  0.61704234  0.07961829  1
  Al  Al59  1  0.46019086  0.38295766  0.92038171  1
  Al  Al60  1  0.63647063  0.14868040  0.27294125  1
  Al  Al61  1  0.36352937  0.85131960  0.72705875  1
  Al  Al62  1  0.36352937  0.64868040  0.72705875  1
  Al  Al63  1  0.63647063  0.35131960  0.27294125  1
  Al  Al64  1  0.98185391  0.06300675  0.34577531  1
  Al  Al65  1  0.01814609  0.93699325  0.65422469  1
  Al  Al66  1  0.01814609  0.56300675  0.65422469  1
  Al  Al67  1  0.36392139  0.43699325  0.34577531  1
  Al  Al68  1  0.98185391  0.43699325  0.34577531  1
  Al  Al69  1  0.63607861  0.56300675  0.65422469  1
  Al  Al70  1  0.63607861  0.93699325  0.65422469  1
  Al  Al71  1  0.36392139  0.06300675  0.34577531  1
  Al  Al72  1  0.81414745  0.25000000  0.62829490  1
  Al  Al73  1  0.18585255  0.75000000  0.37170510  1
  Cu  Cu74  1  0.88771545  0.25000000  0.42790519  1
  Cu  Cu75  1  0.11228455  0.75000000  0.57209481  1
  Cu  Cu76  1  0.54018974  0.25000000  0.42790519  1
  Cu  Cu77  1  0.45981026  0.75000000  0.57209481  1
