# generated using pymatgen
data_Nd3Cd2Si3O13
_symmetry_space_group_name_H-M   'P 1'
_cell_length_a   7.00949984
_cell_length_b   9.64853725
_cell_length_c   9.64853726
_cell_angle_alpha   120.00000584
_cell_angle_beta   90.00000000
_cell_angle_gamma   90.00000000
_symmetry_Int_Tables_number   1
_chemical_formula_structural   Nd3Cd2Si3O13
_chemical_formula_sum   'Nd6 Cd4 Si6 O26'
_cell_volume   565.11988889
_cell_formula_units_Z   2
loop_
 _symmetry_equiv_pos_site_id
 _symmetry_equiv_pos_as_xyz
  1  'x, y, z'
loop_
 _atom_site_type_symbol
 _atom_site_label
 _atom_site_symmetry_multiplicity
 _atom_site_fract_x
 _atom_site_fract_y
 _atom_site_fract_z
 _atom_site_occupancy
  Nd  Nd0  1  0.75000000  0.75083503  0.98989025  1
  Nd  Nd1  1  0.25000000  0.24916497  0.01010975  1
  Nd  Nd2  1  0.75000000  0.23905522  0.24916497  1
  Nd  Nd3  1  0.25000000  0.76094478  0.75083503  1
  Nd  Nd4  1  0.75000000  0.01010975  0.76094478  1
  Nd  Nd5  1  0.25000000  0.98989025  0.23905522  1
  Cd  Cd6  1  0.00543313  0.66666700  0.33333300  1
  Cd  Cd7  1  0.99456687  0.33333300  0.66666700  1
  Cd  Cd8  1  0.50543313  0.33333300  0.66666700  1
  Cd  Cd9  1  0.49456687  0.66666700  0.33333300  1
  Si  Si10  1  0.75000000  0.97265248  0.37132106  1
  Si  Si11  1  0.25000000  0.02734752  0.62867894  1
  Si  Si12  1  0.75000000  0.39866858  0.02734752  1
  Si  Si13  1  0.25000000  0.60133142  0.97265248  1
  Si  Si14  1  0.75000000  0.62867894  0.60133142  1
  Si  Si15  1  0.25000000  0.37132106  0.39866858  1
  O  O16  1  0.75000000  0.51533649  0.68396777  1
  O  O17  1  0.25000000  0.48466351  0.31603223  1
  O  O18  1  0.75000000  0.16863128  0.48466351  1
  O  O19  1  0.25000000  0.83136872  0.51533649  1
  O  O20  1  0.75000000  0.31603223  0.83136872  1
  O  O21  1  0.25000000  0.68396777  0.16863128  1
  O  O22  1  0.75000000  -0.00000000  0.00000000  1
  O  O23  1  0.25000000  -0.00000000  0.00000000  1
  O  O24  1  0.75000000  0.87389189  0.46908880  1
  O  O25  1  0.25000000  0.12610811  0.53091120  1
  O  O26  1  0.75000000  0.59519690  0.12610811  1
  O  O27  1  0.25000000  0.40480310  0.87389189  1
  O  O28  1  0.75000000  0.53091120  0.40480310  1
  O  O29  1  0.25000000  0.46908880  0.59519690  1
  O  O30  1  0.93261526  0.91548672  0.24732486  1
  O  O31  1  0.06738474  0.08451328  0.75267514  1
  O  O32  1  0.93261526  0.33183814  0.08451328  1
  O  O33  1  0.43261526  0.08451328  0.75267514  1
  O  O34  1  0.06738474  0.66816186  0.91548672  1
  O  O35  1  0.56738474  0.91548672  0.24732486  1
  O  O36  1  0.93261526  0.75267514  0.66816186  1
  O  O37  1  0.43261526  0.66816186  0.91548672  1
  O  O38  1  0.06738474  0.24732486  0.33183814  1
  O  O39  1  0.56738474  0.33183814  0.08451328  1
  O  O40  1  0.43261526  0.24732486  0.33183814  1
  O  O41  1  0.56738474  0.75267514  0.66816186  1
