# generated using pymatgen
data_NiTeO3
_symmetry_space_group_name_H-M   'P 1'
_cell_length_a   5.26688967
_cell_length_b   5.99931677
_cell_length_c   7.58228936
_cell_angle_alpha   90.00000000
_cell_angle_beta   90.00000000
_cell_angle_gamma   90.00000000
_symmetry_Int_Tables_number   1
_chemical_formula_structural   NiTeO3
_chemical_formula_sum   'Ni4 Te4 O12'
_cell_volume   239.58320419
_cell_formula_units_Z   4
loop_
 _symmetry_equiv_pos_site_id
 _symmetry_equiv_pos_as_xyz
  1  'x, y, z'
loop_
 _atom_site_type_symbol
 _atom_site_label
 _atom_site_symmetry_multiplicity
 _atom_site_fract_x
 _atom_site_fract_y
 _atom_site_fract_z
 _atom_site_occupancy
  Ni  Ni0  1  -0.00000000  0.00000000  0.00000000  1
  Ni  Ni1  1  0.50000000  0.50000000  0.00000000  1
  Ni  Ni2  1  -0.00000000  0.00000000  0.50000000  1
  Ni  Ni3  1  0.50000000  0.50000000  0.50000000  1
  Te  Te4  1  0.51482405  0.98553864  0.25000000  1
  Te  Te5  1  0.48517595  0.01446136  0.75000000  1
  Te  Te6  1  0.01482405  0.51446136  0.75000000  1
  Te  Te7  1  0.98517595  0.48553864  0.25000000  1
  O  O8  1  0.15731330  0.06087551  0.25000000  1
  O  O9  1  0.84268670  0.93912449  0.75000000  1
  O  O10  1  0.65731330  0.43912449  0.75000000  1
  O  O11  1  0.34268670  0.56087551  0.25000000  1
  O  O12  1  0.64500057  0.18292048  0.06422338  1
  O  O13  1  0.35499943  0.81707952  0.93577662  1
  O  O14  1  0.14500057  0.31707952  0.93577662  1
  O  O15  1  0.35499943  0.81707952  0.56422338  1
  O  O16  1  0.85499943  0.68292048  0.06422338  1
  O  O17  1  0.64500057  0.18292048  0.43577662  1
  O  O18  1  0.85499943  0.68292048  0.43577662  1
  O  O19  1  0.14500057  0.31707952  0.56422338  1
