# generated using pymatgen
data_CrSe
_symmetry_space_group_name_H-M   'P 1'
_cell_length_a   3.53039381
_cell_length_b   3.53032414
_cell_length_c   6.32051710
_cell_angle_alpha   90.00055862
_cell_angle_beta   89.99864355
_cell_angle_gamma   90.00011085
_symmetry_Int_Tables_number   1
_chemical_formula_structural   CrSe
_chemical_formula_sum   'Cr2 Se2'
_cell_volume   78.77535081
_cell_formula_units_Z   2
loop_
 _symmetry_equiv_pos_site_id
 _symmetry_equiv_pos_as_xyz
  1  'x, y, z'
loop_
 _atom_site_type_symbol
 _atom_site_label
 _atom_site_symmetry_multiplicity
 _atom_site_fract_x
 _atom_site_fract_y
 _atom_site_fract_z
 _atom_site_occupancy
  Cr  Cr0  1  0.99998528  -0.00000302  0.00000104  1
  Cr  Cr1  1  0.50001360  0.50001004  -0.00000146  1
  Se  Se2  1  0.00000531  0.49999128  0.26537588  1
  Se  Se3  1  0.49999581  0.00000170  0.73462455  1
