# generated using pymatgen
data_Nd2CuSnO6
_symmetry_space_group_name_H-M   'P 1'
_cell_length_a   7.76811913
_cell_length_b   7.79372514
_cell_length_c   8.61684434
_cell_angle_alpha   92.76871508
_cell_angle_beta   90.00000000
_cell_angle_gamma   90.00000000
_symmetry_Int_Tables_number   1
_chemical_formula_structural   Nd2CuSnO6
_chemical_formula_sum   'Nd8 Cu4 Sn4 O24'
_cell_volume   521.07704936
_cell_formula_units_Z   4
loop_
 _symmetry_equiv_pos_site_id
 _symmetry_equiv_pos_as_xyz
  1  'x, y, z'
loop_
 _atom_site_type_symbol
 _atom_site_label
 _atom_site_symmetry_multiplicity
 _atom_site_fract_x
 _atom_site_fract_y
 _atom_site_fract_z
 _atom_site_occupancy
  Nd  Nd0  1  0.75000000  0.77277301  0.68916030  1
  Nd  Nd1  1  0.25000000  0.22722699  0.31083970  1
  Nd  Nd2  1  0.75000000  0.29150740  0.27144136  1
  Nd  Nd3  1  0.25000000  0.70849260  0.72855864  1
  Nd  Nd4  1  0.75000000  0.80510232  0.25152918  1
  Nd  Nd5  1  0.25000000  0.19489768  0.74847082  1
  Nd  Nd6  1  0.75000000  0.29095433  0.70868854  1
  Nd  Nd7  1  0.25000000  0.70904567  0.29131146  1
  Cu  Cu8  1  0.00000000  0.50000000  0.50000000  1
  Cu  Cu9  1  0.50000000  0.50000000  0.50000000  1
  Cu  Cu10  1  0.00000000  -0.00000000  0.50000000  1
  Cu  Cu11  1  0.50000000  0.00000000  0.50000000  1
  Sn  Sn12  1  0.00000000  0.00000000  -0.00000000  1
  Sn  Sn13  1  0.50000000  -0.00000000  -0.00000000  1
  Sn  Sn14  1  0.00000000  0.50000000  -0.00000000  1
  Sn  Sn15  1  0.50000000  0.50000000  0.00000000  1
  O  O16  1  0.75000000  0.46626262  0.49393470  1
  O  O17  1  0.25000000  0.53373738  0.50606530  1
  O  O18  1  0.75000000  0.91263152  0.95502818  1
  O  O19  1  0.25000000  0.08736848  0.04497182  1
  O  O20  1  0.75000000  0.52453878  0.09502228  1
  O  O21  1  0.25000000  0.47546122  0.90497772  1
  O  O22  1  0.44096751  0.93876984  0.77144895  1
  O  O23  1  0.55903249  0.06123016  0.22855105  1
  O  O24  1  0.94096751  0.06123016  0.22855105  1
  O  O25  1  0.05903249  0.93876984  0.77144895  1
  O  O26  1  0.75000000  0.03839605  0.53730498  1
  O  O27  1  0.25000000  0.96160395  0.46269502  1
  O  O28  1  0.95615626  0.24638948  0.91299301  1
  O  O29  1  0.04384374  0.75361052  0.08700699  1
  O  O30  1  0.45615626  0.75361052  0.08700699  1
  O  O31  1  0.54384374  0.24638948  0.91299301  1
  O  O32  1  0.94351755  0.56458834  0.77617168  1
  O  O33  1  0.05648245  0.43541166  0.22382832  1
  O  O34  1  0.44351755  0.43541166  0.22382832  1
  O  O35  1  0.55648245  0.56458834  0.77617168  1
  O  O36  1  0.95797143  0.75044089  0.45702913  1
  O  O37  1  0.04202857  0.24955911  0.54297087  1
  O  O38  1  0.45797143  0.24955911  0.54297087  1
  O  O39  1  0.54202857  0.75044089  0.45702913  1
