# generated using pymatgen
data_Sr5Co3F19
_symmetry_space_group_name_H-M   'P 1'
_cell_length_a   7.42660962
_cell_length_b   10.89864208
_cell_length_c   10.89864208
_cell_angle_alpha   83.33378503
_cell_angle_beta   70.07970383
_cell_angle_gamma   70.07970383
_symmetry_Int_Tables_number   1
_chemical_formula_structural   Sr5Co3F19
_chemical_formula_sum   'Sr10 Co6 F38'
_cell_volume   779.73286423
_cell_formula_units_Z   2
loop_
 _symmetry_equiv_pos_site_id
 _symmetry_equiv_pos_as_xyz
  1  'x, y, z'
loop_
 _atom_site_type_symbol
 _atom_site_label
 _atom_site_symmetry_multiplicity
 _atom_site_fract_x
 _atom_site_fract_y
 _atom_site_fract_z
 _atom_site_occupancy
  Sr  Sr0  1  0.22108312  0.82831392  0.72951985  1
  Sr  Sr1  1  0.77891688  0.17168608  0.27048015  1
  Sr  Sr2  1  0.95060297  0.27048015  0.82831392  1
  Sr  Sr3  1  0.04939703  0.72951985  0.17168608  1
  Sr  Sr4  1  0.42460139  0.82683604  0.32396118  1
  Sr  Sr5  1  0.57539861  0.17316396  0.67603882  1
  Sr  Sr6  1  0.74856257  0.67603882  0.82683604  1
  Sr  Sr7  1  0.25143743  0.32396118  0.17316396  1
  Sr  Sr8  1  0.25000000  0.50000000  0.50000000  1
  Sr  Sr9  1  0.75000000  0.50000000  0.50000000  1
  Co  Co10  1  0.17660010  0.16308110  0.48371869  1
  Co  Co11  1  0.82339990  0.83691890  0.51628131  1
  Co  Co12  1  0.66031879  0.51628131  0.16308110  1
  Co  Co13  1  0.33968121  0.48371869  0.83691890  1
  Co  Co14  1  0.25297708  0.00000000  -0.00000000  1
  Co  Co15  1  0.74702292  0.00000000  -0.00000000  1
  F  F16  1  0.56950797  0.85478356  0.65647479  1
  F  F17  1  0.43049203  0.14521644  0.34352521  1
  F  F18  1  0.08076632  0.14521644  0.34352521  1
  F  F19  1  0.22598276  0.34352521  0.85478356  1
  F  F20  1  0.91923368  0.85478356  0.65647479  1
  F  F21  1  0.77401724  0.65647479  0.14521644  1
  F  F22  1  0.42429153  0.65647479  0.14521644  1
  F  F23  1  0.57570847  0.34352521  0.85478356  1
  F  F24  1  0.28826408  0.07247039  0.82693528  1
  F  F25  1  0.71173592  0.92752961  0.17306472  1
  F  F26  1  0.18766975  0.92752961  0.17306472  1
  F  F27  1  0.11519936  0.17306472  0.07247039  1
  F  F28  1  0.81233025  0.07247039  0.82693528  1
  F  F29  1  0.88480064  0.82693528  0.92752961  1
  F  F30  1  0.36073447  0.82693528  0.92752961  1
  F  F31  1  0.63926553  0.17306472  0.07247039  1
  F  F32  1  0.38288034  0.69592107  0.53831826  1
  F  F33  1  0.61711966  0.30407893  0.46168174  1
  F  F34  1  0.92119859  0.46168174  0.69592107  1
  F  F35  1  0.07880141  0.53831826  0.30407893  1
  F  F36  1  -0.00000000  0.00000000  -0.00000000  1
  F  F37  1  0.10842597  0.34480489  0.43834317  1
  F  F38  1  0.89157403  0.65519511  0.56165683  1
  F  F39  1  0.54676914  0.56165683  0.34480489  1
  F  F40  1  0.45323086  0.43834317  0.65519511  1
  F  F41  1  0.26499119  0.21474992  0.61511559  1
  F  F42  1  0.73500881  0.78525008  0.38488441  1
  F  F43  1  0.09485670  0.78525008  0.38488441  1
  F  F44  1  0.88010679  0.38488441  0.21474992  1
  F  F45  1  0.90514330  0.21474992  0.61511559  1
  F  F46  1  0.11989321  0.61511559  0.78525008  1
  F  F47  1  0.47974111  0.61511559  0.78525008  1
  F  F48  1  0.52025889  0.38488441  0.21474992  1
  F  F49  1  0.24416229  0.98567273  0.52600269  1
  F  F50  1  0.75583771  0.01432727  0.47399731  1
  F  F51  1  0.77016498  0.47399731  0.98567273  1
  F  F52  1  0.22983502  0.52600269  0.01432727  1
  F  F53  1  0.50000000  0.00000000  -0.00000000  1
