# generated using pymatgen
data_LiPr(MoO4)2
_symmetry_space_group_name_H-M   'P 1'
_cell_length_a   5.11774134
_cell_length_b   6.00898635
_cell_length_c   10.42533627
_cell_angle_alpha   90.00000000
_cell_angle_beta   95.03397520
_cell_angle_gamma   90.00000000
_symmetry_Int_Tables_number   1
_chemical_formula_structural   LiPr(MoO4)2
_chemical_formula_sum   'Li2 Pr2 Mo4 O16'
_cell_volume   319.36788321
_cell_formula_units_Z   2
loop_
 _symmetry_equiv_pos_site_id
 _symmetry_equiv_pos_as_xyz
  1  'x, y, z'
loop_
 _atom_site_type_symbol
 _atom_site_label
 _atom_site_symmetry_multiplicity
 _atom_site_fract_x
 _atom_site_fract_y
 _atom_site_fract_z
 _atom_site_occupancy
  Li  Li0  1  0.25000000  0.71631147  0.25000000  1
  Li  Li1  1  0.75000000  0.28368853  0.75000000  1
  Pr  Pr2  1  0.75000000  0.28487508  0.25000000  1
  Pr  Pr3  1  0.25000000  0.71512492  0.75000000  1
  Mo  Mo4  1  0.75878636  0.81925328  0.02325297  1
  Mo  Mo5  1  0.24121364  0.18074672  0.97674703  1
  Mo  Mo6  1  0.74121364  0.81925328  0.47674703  1
  Mo  Mo7  1  0.25878636  0.18074672  0.52325297  1
  O  O8  1  0.45524335  0.89862610  0.59209440  1
  O  O9  1  0.54475665  0.10137390  0.40790560  1
  O  O10  1  0.04475665  0.89862610  0.90790560  1
  O  O11  1  0.95524335  0.10137390  0.09209440  1
  O  O12  1  0.12097113  0.36412791  0.39752814  1
  O  O13  1  0.87902887  0.63587209  0.60247186  1
  O  O14  1  0.37902887  0.36412791  0.10247186  1
  O  O15  1  0.62097113  0.63587209  0.89752814  1
  O  O16  1  0.01837210  0.91336083  0.38680831  1
  O  O17  1  0.98162790  0.08663917  0.61319169  1
  O  O18  1  0.48162790  0.91336083  0.11319169  1
  O  O19  1  0.51837210  0.08663917  0.88680831  1
  O  O20  1  0.91789840  0.63075679  0.13774234  1
  O  O21  1  0.08210160  0.36924321  0.86225766  1
  O  O22  1  0.58210160  0.63075679  0.36225766  1
  O  O23  1  0.41789840  0.36924321  0.63774234  1
