# generated using pymatgen
data_La3FeSiS7
_symmetry_space_group_name_H-M   'P 1'
_cell_length_a   5.68901228
_cell_length_b   10.38102390
_cell_length_c   10.38102390
_cell_angle_alpha   119.99999439
_cell_angle_beta   90.00000000
_cell_angle_gamma   90.00000000
_symmetry_Int_Tables_number   1
_chemical_formula_structural   La3FeSiS7
_chemical_formula_sum   'La6 Fe2 Si2 S14'
_cell_volume   530.94301204
_cell_formula_units_Z   2
loop_
 _symmetry_equiv_pos_site_id
 _symmetry_equiv_pos_as_xyz
  1  'x, y, z'
loop_
 _atom_site_type_symbol
 _atom_site_label
 _atom_site_symmetry_multiplicity
 _atom_site_fract_x
 _atom_site_fract_y
 _atom_site_fract_z
 _atom_site_occupancy
  La  La0  1  0.76633489  0.64395685  0.76635687  1
  La  La1  1  0.76633489  0.12240003  0.35604315  1
  La  La2  1  0.26633489  0.35604315  0.23364313  1
  La  La3  1  0.76633489  0.23364313  0.87759997  1
  La  La4  1  0.26633489  0.87759997  0.64395685  1
  La  La5  1  0.26633489  0.76635687  0.12240003  1
  Fe  Fe6  1  0.00191469  -0.00000000  -0.00000000  1
  Fe  Fe7  1  0.50191469  -0.00000000  -0.00000000  1
  Si  Si8  1  0.85168938  0.66666700  0.33333300  1
  Si  Si9  1  0.35168938  0.33333300  0.66666700  1
  S  S10  1  0.48310775  0.66666700  0.33333300  1
  S  S11  1  0.98310775  0.33333300  0.66666700  1
  S  S12  1  0.99066430  0.88478086  0.40859290  1
  S  S13  1  0.99066430  0.52381203  0.11521914  1
  S  S14  1  0.49066430  0.11521914  0.59140710  1
  S  S15  1  0.99066430  0.59140710  0.47618797  1
  S  S16  1  0.49066430  0.47618797  0.88478086  1
  S  S17  1  0.49066430  0.40859290  0.52381203  1
  S  S18  1  0.75376354  0.84285005  0.08074564  1
  S  S19  1  0.75376354  0.23789559  0.15714995  1
  S  S20  1  0.25376354  0.15714995  0.91925436  1
  S  S21  1  0.75376354  0.91925436  0.76210441  1
  S  S22  1  0.25376354  0.76210441  0.84285005  1
  S  S23  1  0.25376354  0.08074564  0.23789559  1
