# generated using pymatgen
data_LaTa2CuBrO7
_symmetry_space_group_name_H-M   'P 1'
_cell_length_a   3.92948615
_cell_length_b   3.92948105
_cell_length_c   11.79002804
_cell_angle_alpha   90.00001743
_cell_angle_beta   89.99995209
_cell_angle_gamma   89.92774767
_symmetry_Int_Tables_number   1
_chemical_formula_structural   LaTa2CuBrO7
_chemical_formula_sum   'La1 Ta2 Cu1 Br1 O7'
_cell_volume   182.04780798
_cell_formula_units_Z   1
loop_
 _symmetry_equiv_pos_site_id
 _symmetry_equiv_pos_as_xyz
  1  'x, y, z'
loop_
 _atom_site_type_symbol
 _atom_site_label
 _atom_site_symmetry_multiplicity
 _atom_site_fract_x
 _atom_site_fract_y
 _atom_site_fract_z
 _atom_site_occupancy
  La  La0  1  0.50000095  0.49999895  -0.00000048  1
  Ta  Ta1  1  0.99999962  0.00000042  0.19104142  1
  Ta  Ta2  1  0.00000029  0.99999975  0.80895886  1
  Cu  Cu3  1  0.00000091  0.00000066  0.49999947  1
  Br  Br4  1  0.49999989  0.50000061  0.49999990  1
  O  O5  1  -0.00000086  0.50000013  0.15553835  1
  O  O6  1  0.99999935  0.50000009  0.84446186  1
  O  O7  1  0.50000051  0.99999944  0.15553843  1
  O  O8  1  0.49999994  -0.00000009  0.84446222  1
  O  O9  1  0.00000021  0.00000037  0.34370114  1
  O  O10  1  -0.00000003  0.00000012  0.65629867  1
  O  O11  1  0.99999922  -0.00000044  0.00000015  1
