# generated using pymatgen
data_Bi12SbO20
_symmetry_space_group_name_H-M   'P 1'
_cell_length_a   9.01414070
_cell_length_b   9.01414070
_cell_length_c   9.01414070
_cell_angle_alpha   109.47122063
_cell_angle_beta   109.47122063
_cell_angle_gamma   109.47122063
_symmetry_Int_Tables_number   1
_chemical_formula_structural   Bi12SbO20
_chemical_formula_sum   'Bi12 Sb1 O20'
_cell_volume   563.83380039
_cell_formula_units_Z   1
loop_
 _symmetry_equiv_pos_site_id
 _symmetry_equiv_pos_as_xyz
  1  'x, y, z'
loop_
 _atom_site_type_symbol
 _atom_site_label
 _atom_site_symmetry_multiplicity
 _atom_site_fract_x
 _atom_site_fract_y
 _atom_site_fract_z
 _atom_site_occupancy
  Bi  Bi0  1  0.49903245  0.33794138  0.19501728  1
  Bi  Bi1  1  0.50096755  0.69598483  0.83890893  1
  Bi  Bi2  1  0.85707590  0.66205862  0.16109107  1
  Bi  Bi3  1  0.33794138  0.19501728  0.49903245  1
  Bi  Bi4  1  0.14292410  0.30401517  0.80498272  1
  Bi  Bi5  1  0.69598483  0.83890893  0.50096755  1
  Bi  Bi6  1  0.66205862  0.16109107  0.85707590  1
  Bi  Bi7  1  0.30401517  0.80498272  0.14292410  1
  Bi  Bi8  1  0.19501728  0.49903245  0.33794138  1
  Bi  Bi9  1  0.16109107  0.85707590  0.66205862  1
  Bi  Bi10  1  0.80498272  0.14292410  0.30401517  1
  Bi  Bi11  1  0.83890893  0.50096755  0.69598483  1
  Sb  Sb12  1  0.00000000  -0.00000000  -0.00000000  1
  O  O13  1  0.38531813  0.38531813  0.38531813  1
  O  O14  1  0.61468187  0.00000000  -0.00000000  1
  O  O15  1  0.00000000  0.61468187  -0.00000000  1
  O  O16  1  0.00000000  0.00000000  0.61468187  1
  O  O17  1  0.73908203  0.62417814  0.37698477  1
  O  O18  1  0.26091797  0.63790274  0.88509611  1
  O  O19  1  0.75280663  0.37582186  0.11490389  1
  O  O20  1  0.62417814  0.37698477  0.73908203  1
  O  O21  1  0.24719337  0.36209726  0.62301523  1
  O  O22  1  0.63790274  0.88509611  0.26091797  1
  O  O23  1  0.37582186  0.11490389  0.75280663  1
  O  O24  1  0.36209726  0.62301523  0.24719337  1
  O  O25  1  0.37698477  0.73908203  0.62417814  1
  O  O26  1  0.11490389  0.75280663  0.37582186  1
  O  O27  1  0.62301523  0.24719337  0.36209726  1
  O  O28  1  0.88509611  0.26091797  0.63790274  1
  O  O29  1  0.77542296  0.77542296  0.77542296  1
  O  O30  1  0.22457704  0.00000000  -0.00000000  1
  O  O31  1  -0.00000000  0.22457704  0.00000000  1
  O  O32  1  -0.00000000  0.00000000  0.22457704  1
