# generated using pymatgen
data_K3LiPb4
_symmetry_space_group_name_H-M   'P 1'
_cell_length_a   7.32674866
_cell_length_b   8.95977392
_cell_length_c   10.35839832
_cell_angle_alpha   90.00000000
_cell_angle_beta   90.00000000
_cell_angle_gamma   114.13380801
_symmetry_Int_Tables_number   1
_chemical_formula_structural   K3LiPb4
_chemical_formula_sum   'K6 Li2 Pb8'
_cell_volume   620.55191838
_cell_formula_units_Z   2
loop_
 _symmetry_equiv_pos_site_id
 _symmetry_equiv_pos_as_xyz
  1  'x, y, z'
loop_
 _atom_site_type_symbol
 _atom_site_label
 _atom_site_symmetry_multiplicity
 _atom_site_fract_x
 _atom_site_fract_y
 _atom_site_fract_z
 _atom_site_occupancy
  K  K0  1  0.76868854  0.53737709  0.25000000  1
  K  K1  1  0.23131146  0.46262291  0.75000000  1
  K  K2  1  0.38966923  0.77933847  0.04756789  1
  K  K3  1  0.61033077  0.22066153  0.95243211  1
  K  K4  1  0.61033077  0.22066153  0.54756789  1
  K  K5  1  0.38966923  0.77933847  0.45243211  1
  Li  Li6  1  0.00000000  0.00000000  -0.00000000  1
  Li  Li7  1  0.00000000  0.00000000  0.50000000  1
  Pb  Pb8  1  0.25547541  0.07836866  0.25000000  1
  Pb  Pb9  1  0.74452459  0.92163134  0.75000000  1
  Pb  Pb10  1  0.82289326  0.07836866  0.25000000  1
  Pb  Pb11  1  0.17710674  0.92163134  0.75000000  1
  Pb  Pb12  1  0.17532491  0.35064981  0.09958940  1
  Pb  Pb13  1  0.82467509  0.64935019  0.90041060  1
  Pb  Pb14  1  0.82467509  0.64935019  0.59958940  1
  Pb  Pb15  1  0.17532491  0.35064981  0.40041060  1
