# generated using pymatgen
data_DyTa5Ag2O15
_symmetry_space_group_name_H-M   'P 1'
_cell_length_a   3.91669821
_cell_length_b   12.59469962
_cell_length_c   12.59469962
_cell_angle_alpha   90.00000000
_cell_angle_beta   90.00000000
_cell_angle_gamma   90.00000000
_symmetry_Int_Tables_number   1
_chemical_formula_structural   DyTa5Ag2O15
_chemical_formula_sum   'Dy2 Ta10 Ag4 O30'
_cell_volume   621.29196614
_cell_formula_units_Z   2
loop_
 _symmetry_equiv_pos_site_id
 _symmetry_equiv_pos_as_xyz
  1  'x, y, z'
loop_
 _atom_site_type_symbol
 _atom_site_label
 _atom_site_symmetry_multiplicity
 _atom_site_fract_x
 _atom_site_fract_y
 _atom_site_fract_z
 _atom_site_occupancy
  Dy  Dy0  1  0.50000000  0.00000000  -0.00000000  1
  Dy  Dy1  1  0.50000000  0.50000000  0.50000000  1
  Ta  Ta2  1  -0.00000000  0.00000000  0.50000000  1
  Ta  Ta3  1  -0.00000000  0.50000000  -0.00000000  1
  Ta  Ta4  1  0.00000000  0.07856641  0.21104981  1
  Ta  Ta5  1  -0.00000000  0.92143359  0.78895019  1
  Ta  Ta6  1  -0.00000000  0.78895019  0.07856641  1
  Ta  Ta7  1  -0.00000000  0.42143359  0.71104981  1
  Ta  Ta8  1  0.00000000  0.21104981  0.92143359  1
  Ta  Ta9  1  0.00000000  0.57856641  0.28895019  1
  Ta  Ta10  1  0.00000000  0.71104981  0.57856641  1
  Ta  Ta11  1  -0.00000000  0.28895019  0.42143359  1
  Ag  Ag12  1  0.50000000  0.17182200  0.67182200  1
  Ag  Ag13  1  0.50000000  0.82817800  0.32817800  1
  Ag  Ag14  1  0.50000000  0.32817800  0.17182200  1
  Ag  Ag15  1  0.50000000  0.67182200  0.82817800  1
  O  O16  1  0.50000000  0.07973331  0.18918087  1
  O  O17  1  0.50000000  0.92026669  0.81081913  1
  O  O18  1  0.50000000  0.81081913  0.07973331  1
  O  O19  1  0.50000000  0.42026669  0.68918087  1
  O  O20  1  0.50000000  0.18918087  0.92026669  1
  O  O21  1  0.50000000  0.57973331  0.31081913  1
  O  O22  1  0.50000000  0.68918087  0.57973331  1
  O  O23  1  0.50000000  0.31081913  0.42026669  1
  O  O24  1  -0.00000000  0.72437317  0.22437317  1
  O  O25  1  0.00000000  0.27562683  0.77562683  1
  O  O26  1  0.00000000  0.77562683  0.72437317  1
  O  O27  1  -0.00000000  0.22437317  0.27562683  1
  O  O28  1  0.50000000  0.00000000  0.50000000  1
  O  O29  1  0.50000000  0.50000000  -0.00000000  1
  O  O30  1  0.00000000  0.13006315  0.05677825  1
  O  O31  1  -0.00000000  0.86993685  0.94322175  1
  O  O32  1  0.00000000  0.94322175  0.13006315  1
  O  O33  1  -0.00000000  0.36993685  0.55677825  1
  O  O34  1  -0.00000000  0.05677825  0.86993685  1
  O  O35  1  0.00000000  0.63006315  0.44322175  1
  O  O36  1  -0.00000000  0.55677825  0.63006315  1
  O  O37  1  0.00000000  0.44322175  0.36993685  1
  O  O38  1  -0.00000000  0.99909880  0.34104002  1
  O  O39  1  0.00000000  0.00090120  0.65895998  1
  O  O40  1  -0.00000000  0.65895998  0.99909880  1
  O  O41  1  0.00000000  0.50090120  0.84104002  1
  O  O42  1  0.00000000  0.34104002  0.00090120  1
  O  O43  1  -0.00000000  0.49909880  0.15895998  1
  O  O44  1  0.00000000  0.84104002  0.49909880  1
  O  O45  1  -0.00000000  0.15895998  0.50090120  1
