# generated using pymatgen
data_LuCrO5
_symmetry_space_group_name_H-M   'P 1'
_cell_length_a   8.03618670
_cell_length_b   8.15946888
_cell_length_c   11.41504493
_cell_angle_alpha   90.00000000
_cell_angle_beta   90.00000000
_cell_angle_gamma   92.13573676
_symmetry_Int_Tables_number   1
_chemical_formula_structural   LuCrO5
_chemical_formula_sum   'Lu8 Cr8 O40'
_cell_volume   747.97613861
_cell_formula_units_Z   8
loop_
 _symmetry_equiv_pos_site_id
 _symmetry_equiv_pos_as_xyz
  1  'x, y, z'
loop_
 _atom_site_type_symbol
 _atom_site_label
 _atom_site_symmetry_multiplicity
 _atom_site_fract_x
 _atom_site_fract_y
 _atom_site_fract_z
 _atom_site_occupancy
  Lu  Lu0  1  0.86709192  0.66009310  0.55867897  1
  Lu  Lu1  1  0.13290808  0.33990690  0.44132103  1
  Lu  Lu2  1  0.63290808  0.83990690  0.05867897  1
  Lu  Lu3  1  0.36709192  0.16009310  0.94132103  1
  Lu  Lu4  1  0.07184622  0.82258172  0.07588899  1
  Lu  Lu5  1  0.92815378  0.17741828  0.92411101  1
  Lu  Lu6  1  0.42815378  0.67741828  0.57588899  1
  Lu  Lu7  1  0.57184622  0.32258172  0.42411101  1
  Cr  Cr8  1  0.13592089  0.00084011  0.67214511  1
  Cr  Cr9  1  0.86407911  -0.00084011  0.32785489  1
  Cr  Cr10  1  0.36407911  0.49915989  0.17214511  1
  Cr  Cr11  1  0.63592089  0.50084011  0.82785489  1
  Cr  Cr12  1  0.36270111  0.95538936  0.31020207  1
  Cr  Cr13  1  0.63729889  0.04461064  0.68979793  1
  Cr  Cr14  1  0.13729889  0.54461064  0.81020207  1
  Cr  Cr15  1  0.86270111  0.45538936  0.18979793  1
  O  O16  1  0.30688631  0.91442841  0.62797020  1
  O  O17  1  0.69311369  0.08557159  0.37202980  1
  O  O18  1  0.19311369  0.58557159  0.12797020  1
  O  O19  1  0.80688631  0.41442841  0.87202980  1
  O  O20  1  0.15562171  0.60411504  0.51300971  1
  O  O21  1  0.84437829  0.39588496  0.48699029  1
  O  O22  1  0.34437829  0.89588496  0.01300971  1
  O  O23  1  0.65562171  0.10411504  0.98699029  1
  O  O24  1  0.65883696  0.56566048  0.68730074  1
  O  O25  1  0.34116304  0.43433952  0.31269926  1
  O  O26  1  0.84116304  0.93433952  0.18730074  1
  O  O27  1  0.15883696  0.06566048  0.81269926  1
  O  O28  1  0.42428412  0.81369821  0.40343091  1
  O  O29  1  0.57571588  0.18630179  0.59656909  1
  O  O30  1  0.07571588  0.68630179  0.90343091  1
  O  O31  1  0.92428412  0.31369821  0.09656909  1
  O  O32  1  0.90117941  0.84239672  0.41597924  1
  O  O33  1  0.09882059  0.15760328  0.58402076  1
  O  O34  1  0.59882059  0.65760328  0.91597924  1
  O  O35  1  0.40117941  0.34239672  0.08402076  1
  O  O36  1  0.98742814  0.85671188  0.66517894  1
  O  O37  1  0.01257186  0.14328812  0.33482106  1
  O  O38  1  0.51257186  0.64328812  0.16517894  1
  O  O39  1  0.48742814  0.35671188  0.83482106  1
  O  O40  1  0.18222030  0.89121706  0.25533395  1
  O  O41  1  0.81777970  0.10878294  0.74466605  1
  O  O42  1  0.31777970  0.60878294  0.75533395  1
  O  O43  1  0.68222030  0.39121706  0.24466605  1
  O  O44  1  0.48846019  0.98071710  0.19317224  1
  O  O45  1  0.51153981  0.01928290  0.80682776  1
  O  O46  1  0.01153981  0.51928290  0.69317224  1
  O  O47  1  0.98846019  0.48071710  0.30682776  1
  O  O48  1  0.63941584  0.58393326  0.45978403  1
  O  O49  1  0.36058416  0.41606674  0.54021597  1
  O  O50  1  0.86058416  0.91606674  0.95978403  1
  O  O51  1  0.13941584  0.08393326  0.04021597  1
  O  O52  1  0.84755939  0.63523645  0.11855726  1
  O  O53  1  0.15244061  0.36476355  0.88144274  1
  O  O54  1  0.65244061  0.86476355  0.61855726  1
  O  O55  1  0.34755939  0.13523645  0.38144274  1
