# generated using pymatgen
data_CoP3H12NO7
_symmetry_space_group_name_H-M   'P 1'
_cell_length_a   7.47440398
_cell_length_b   9.30620511
_cell_length_c   15.17788796
_cell_angle_alpha   90.00000000
_cell_angle_beta   90.00000000
_cell_angle_gamma   108.55025386
_symmetry_Int_Tables_number   1
_chemical_formula_structural   CoP3H12NO7
_chemical_formula_sum   'Co4 P12 H48 N4 O28'
_cell_volume   1000.89720112
_cell_formula_units_Z   4
loop_
 _symmetry_equiv_pos_site_id
 _symmetry_equiv_pos_as_xyz
  1  'x, y, z'
loop_
 _atom_site_type_symbol
 _atom_site_label
 _atom_site_symmetry_multiplicity
 _atom_site_fract_x
 _atom_site_fract_y
 _atom_site_fract_z
 _atom_site_occupancy
  Co  Co0  1  0.10308143  0.09734075  0.82817088  1
  Co  Co1  1  0.60308143  0.59734075  0.67182912  1
  Co  Co2  1  0.89691857  0.90265925  0.17182912  1
  Co  Co3  1  0.39691857  0.40265925  0.32817088  1
  P  P4  1  0.30299316  0.72817691  0.57284978  1
  P  P5  1  0.92763565  0.69802649  0.82944938  1
  P  P6  1  0.69700684  0.27182309  0.42715022  1
  P  P7  1  0.85283594  0.95483388  0.65308500  1
  P  P8  1  0.57236435  0.80197351  0.32944938  1
  P  P9  1  0.19700684  0.77182309  0.07284978  1
  P  P10  1  0.35283594  0.45483388  0.84691500  1
  P  P11  1  0.07236435  0.30197351  0.17055062  1
  P  P12  1  0.14716406  0.04516612  0.34691500  1
  P  P13  1  0.64716406  0.54516612  0.15308500  1
  P  P14  1  0.80299316  0.22817691  0.92715022  1
  P  P15  1  0.42763565  0.19802649  0.67055062  1
  H  H16  1  0.82531942  0.01527698  0.57007053  1
  H  H17  1  0.54159369  0.16269166  0.46795293  1
  H  H18  1  0.42427918  0.95963917  0.80945155  1
  H  H19  1  0.28237606  0.79637882  0.65409766  1
  H  H20  1  0.45840631  0.83730834  0.53204707  1
  H  H21  1  0.46935986  0.78941785  0.81132904  1
  H  H22  1  0.00669244  0.11400845  0.36370865  1
  H  H23  1  0.20059125  0.04447741  0.99540156  1
  H  H24  1  0.77376396  0.68226704  0.88777182  1
  H  H25  1  0.57590703  0.13509972  0.09318682  1
  H  H26  1  0.29940875  0.45552259  0.49540156  1
  H  H27  1  0.50669244  0.61400845  0.13629135  1
  H  H28  1  0.79940875  0.95552259  0.00459844  1
  H  H29  1  0.72623604  0.81773296  0.38777182  1
  H  H30  1  0.53064014  0.21058215  0.18867096  1
  H  H31  1  0.53462541  0.11679980  0.62749925  1
  H  H32  1  0.57572082  0.04036083  0.19054845  1
  H  H33  1  0.27376396  0.18226704  0.61222818  1
  H  H34  1  0.22623604  0.31773296  0.11222818  1
  H  H35  1  0.78237606  0.29637882  0.84590234  1
  H  H36  1  0.96537459  0.38320020  0.12749925  1
  H  H37  1  0.17468058  0.98472302  0.42992947  1
  H  H38  1  0.37245308  0.05136761  0.14719616  1
  H  H39  1  0.89213741  0.65214986  0.54599396  1
  H  H40  1  0.71762394  0.20362118  0.34590234  1
  H  H41  1  0.12754692  0.44863239  0.64719616  1
  H  H42  1  0.32531942  0.51527698  0.92992947  1
  H  H43  1  0.49330756  0.38599155  0.86370865  1
  H  H44  1  0.10786259  0.34785014  0.45400604  1
  H  H45  1  0.60786259  0.84785014  0.04599396  1
  H  H46  1  0.21762394  0.70362118  0.15409766  1
  H  H47  1  0.07572082  0.54036083  0.30945155  1
  H  H48  1  0.70059125  0.54447741  0.50459844  1
  H  H49  1  0.04159369  0.66269166  0.03204707  1
  H  H50  1  0.96935986  0.28941785  0.68867096  1
  H  H51  1  0.95840631  0.33730834  0.96795293  1
  H  H52  1  0.03064014  0.71058215  0.31132904  1
  H  H53  1  0.92409297  0.36490028  0.59318682  1
  H  H54  1  0.92427918  0.45963917  0.69054845  1
  H  H55  1  0.07590703  0.63509972  0.40681318  1
  H  H56  1  0.03462541  0.61679980  0.87250075  1
  H  H57  1  0.67468058  0.48472302  0.07007053  1
  H  H58  1  0.42409297  0.86490028  0.90681318  1
  H  H59  1  0.39213741  0.15214986  0.95400604  1
  H  H60  1  0.46537459  0.88320020  0.37250075  1
  H  H61  1  0.62754692  0.94863239  0.85280384  1
  H  H62  1  0.87245308  0.55136761  0.35280384  1
  H  H63  1  0.99330756  0.88599155  0.63629135  1
  N  N64  1  0.48514475  0.89076840  0.84447224  1
  N  N65  1  0.51485525  0.10923160  0.15552776  1
  N  N66  1  0.98514475  0.39076840  0.65552776  1
  N  N67  1  0.01485525  0.60923160  0.34447224  1
  O  O68  1  0.35621576  0.58412412  0.59134680  1
  O  O69  1  0.43384165  0.59020056  0.78520330  1
  O  O70  1  0.14378424  0.91587588  0.09134680  1
  O  O71  1  0.87322662  0.29368293  0.48253403  1
  O  O72  1  0.37322662  0.79368293  0.01746597  1
  O  O73  1  0.25187692  0.12026191  0.94845834  1
  O  O74  1  0.64378424  0.41587588  0.40865320  1
  O  O75  1  0.95237214  0.13688924  0.17500281  1
  O  O76  1  0.93384165  0.09020056  0.71479670  1
  O  O77  1  0.06615835  0.90979944  0.28520330  1
  O  O78  1  0.54762786  0.36311076  0.67500281  1
  O  O79  1  0.14623673  0.38775754  0.25584481  1
  O  O80  1  0.12677338  0.70631707  0.51746597  1
  O  O81  1  0.74812308  0.87973809  0.05154166  1
  O  O82  1  0.66968275  0.83476043  0.68052308  1
  O  O83  1  0.16968275  0.33476043  0.81947692  1
  O  O84  1  0.24812308  0.37973809  0.44845834  1
  O  O85  1  0.75187692  0.62026191  0.55154166  1
  O  O86  1  0.62677338  0.20631707  0.98253403  1
  O  O87  1  0.33031725  0.16523957  0.31947692  1
  O  O88  1  0.35376327  0.11224246  0.75584481  1
  O  O89  1  0.64623673  0.88775754  0.24415519  1
  O  O90  1  0.83031725  0.66523957  0.18052308  1
  O  O91  1  0.04762786  0.86311076  0.82499719  1
  O  O92  1  0.85376327  0.61224246  0.74415519  1
  O  O93  1  0.85621576  0.08412412  0.90865320  1
  O  O94  1  0.45237214  0.63688924  0.32499719  1
  O  O95  1  0.56615835  0.40979944  0.21479670  1
