# generated using pymatgen
data_Ce6N8O33
_symmetry_space_group_name_H-M   'P 1'
_cell_length_a   9.29243311
_cell_length_b   10.56520569
_cell_length_c   11.02795727
_cell_angle_alpha   123.57177431
_cell_angle_beta   112.01112149
_cell_angle_gamma   89.86659246
_symmetry_Int_Tables_number   1
_chemical_formula_structural   Ce6N8O33
_chemical_formula_sum   'Ce6 N8 O33'
_cell_volume   806.36957052
_cell_formula_units_Z   1
loop_
 _symmetry_equiv_pos_site_id
 _symmetry_equiv_pos_as_xyz
  1  'x, y, z'
loop_
 _atom_site_type_symbol
 _atom_site_label
 _atom_site_symmetry_multiplicity
 _atom_site_fract_x
 _atom_site_fract_y
 _atom_site_fract_z
 _atom_site_occupancy
  Ce  Ce0  1  0.84091399  0.92129324  0.59086472  1
  Ce  Ce1  1  0.15908601  0.07870676  0.40913528  1
  Ce  Ce2  1  0.80515191  0.79605278  0.21701512  1
  Ce  Ce3  1  0.19484809  0.20394722  0.78298488  1
  Ce  Ce4  1  0.15617285  0.80625122  0.49162484  1
  Ce  Ce5  1  0.84382715  0.19374878  0.50837516  1
  N  N6  1  0.36353330  0.71935966  0.86536037  1
  N  N7  1  0.63646670  0.28064034  0.13463963  1
  N  N8  1  0.58222976  0.87991571  0.67234043  1
  N  N9  1  0.41777024  0.12008429  0.32765957  1
  N  N10  1  0.83403454  0.52382490  0.66337276  1
  N  N11  1  0.16596546  0.47617510  0.33662724  1
  N  N12  1  0.67591131  0.47021169  0.92168431  1
  N  N13  1  0.32408869  0.52978831  0.07831569  1
  O  O14  1  0.87708909  0.72469673  0.37978812  1
  O  O15  1  0.12291091  0.27530327  0.62021188  1
  O  O16  1  0.45946358  0.86955004  0.69151608  1
  O  O17  1  0.54053642  0.13044996  0.30848392  1
  O  O18  1  0.61234679  0.33077514  0.80996659  1
  O  O19  1  0.38765321  0.66922486  0.19003341  1
  O  O20  1  0.36189631  0.62746981  0.72958117  1
  O  O21  1  0.63810369  0.37253019  0.27041883  1
  O  O22  1  0.11052788  0.95986087  0.71593219  1
  O  O23  1  0.88947212  0.04013913  0.28406781  1
  O  O24  1  0.92707567  0.18112901  0.71883235  1
  O  O25  1  0.07292433  0.81887099  0.28116765  1
  O  O26  1  0.59457559  0.76659820  0.54765365  1
  O  O27  1  0.40542441  0.23340180  0.45234635  1
  O  O28  1  0.82843038  0.52948166  0.00957081  1
  O  O29  1  0.17156962  0.47051834  -0.00957081  1
  O  O30  1  0.70328003  0.94565589  0.39853394  1
  O  O31  1  0.29671997  0.05434411  0.60146606  1
  O  O32  1  0.23824051  0.70842571  0.88059795  1
  O  O33  1  0.76175949  0.29157429  0.11940205  1
  O  O34  1  0.30150767  0.99560090  0.22491390  1
  O  O35  1  0.69849233  0.00439910  0.77508610  1
  O  O36  1  0.00000000  -0.00000000  0.50000000  1
  O  O37  1  0.49010284  0.82334835  0.98604283  1
  O  O38  1  0.50989716  0.17665165  0.01395717  1
  O  O39  1  0.90910609  0.46238265  0.57533716  1
  O  O40  1  0.09089391  0.53761735  0.42466284  1
  O  O41  1  0.83644989  0.66377718  0.73744466  1
  O  O42  1  0.16355011  0.33622282  0.26255534  1
  O  O43  1  0.59050687  0.57143054  0.96186332  1
  O  O44  1  0.40949313  0.42856946  0.03813668  1
  O  O45  1  0.75624330  0.42771572  0.66939397  1
  O  O46  1  0.24375670  0.57228428  0.33060603  1
