# generated using pymatgen
data_Y4CdS7
_symmetry_space_group_name_H-M   'P 1'
_cell_length_a   3.84991676
_cell_length_b   6.66016938
_cell_length_c   11.62039303
_cell_angle_alpha   104.32601783
_cell_angle_beta   90.00000005
_cell_angle_gamma   73.20038478
_symmetry_Int_Tables_number   1
_chemical_formula_structural   Y4CdS7
_chemical_formula_sum   'Y4 Cd1 S7'
_cell_volume   275.55036758
_cell_formula_units_Z   1
loop_
 _symmetry_equiv_pos_site_id
 _symmetry_equiv_pos_as_xyz
  1  'x, y, z'
loop_
 _atom_site_type_symbol
 _atom_site_label
 _atom_site_symmetry_multiplicity
 _atom_site_fract_x
 _atom_site_fract_y
 _atom_site_fract_z
 _atom_site_occupancy
  Y  Y0  1  0.69318751  0.61362498  0.19977795  1
  Y  Y1  1  0.30713320  0.38573360  0.80388370  1
  Y  Y2  1  0.00007970  0.99984060  0.00250905  1
  Y  Y3  1  0.11494853  0.77010294  0.57133435  1
  Cd  Cd4  1  0.88473898  0.23052204  0.42090016  1
  S  S5  1  0.74158185  0.51683630  0.64709808  1
  S  S6  1  0.25826661  0.48346677  0.35128015  1
  S  S7  1  0.34061762  0.31876475  0.04977993  1
  S  S8  1  0.65973870  0.68052260  0.94832956  1
  S  S9  1  0.03880515  0.92238970  0.21780409  1
  S  S10  1  0.96072816  0.07854367  0.78537267  1
  S  S11  1  0.50017398  0.99965203  0.50193031  1
