# generated using pymatgen
data_Yb4Y
_symmetry_space_group_name_H-M   'P 1'
_cell_length_a   3.75201421
_cell_length_b   3.75201421
_cell_length_c   15.75319363
_cell_angle_alpha   90.00000000
_cell_angle_beta   96.83943766
_cell_angle_gamma   120.00000000
_symmetry_Int_Tables_number   1
_chemical_formula_structural   Yb4Y
_chemical_formula_sum   'Yb4 Y1'
_cell_volume   190.23166934
_cell_formula_units_Z   1
loop_
 _symmetry_equiv_pos_site_id
 _symmetry_equiv_pos_as_xyz
  1  'x, y, z'
loop_
 _atom_site_type_symbol
 _atom_site_label
 _atom_site_symmetry_multiplicity
 _atom_site_fract_x
 _atom_site_fract_y
 _atom_site_fract_z
 _atom_site_occupancy
  Yb  Yb0  1  0.79483436  0.39741718  0.19225154  1
  Yb  Yb1  1  0.59900709  0.79950354  0.39851063  1
  Yb  Yb2  1  0.40099291  0.20049646  0.60148937  1
  Yb  Yb3  1  0.20516564  0.60258282  0.80774846  1
  Y  Y4  1  -0.00000000  0.00000000  -0.00000000  1
