# generated using pymatgen
data_ZrB2Mo3C2
_symmetry_space_group_name_H-M   'P 1'
_cell_length_a   3.16135173
_cell_length_b   3.19532372
_cell_length_c   8.97661210
_cell_angle_alpha   79.74785144
_cell_angle_beta   90.00000000
_cell_angle_gamma   90.00000000
_symmetry_Int_Tables_number   1
_chemical_formula_structural   ZrB2Mo3C2
_chemical_formula_sum   'Zr1 B2 Mo3 C2'
_cell_volume   89.22986886
_cell_formula_units_Z   1
loop_
 _symmetry_equiv_pos_site_id
 _symmetry_equiv_pos_as_xyz
  1  'x, y, z'
loop_
 _atom_site_type_symbol
 _atom_site_label
 _atom_site_symmetry_multiplicity
 _atom_site_fract_x
 _atom_site_fract_y
 _atom_site_fract_z
 _atom_site_occupancy
  Zr  Zr0  1  0.25000000  0.68643735  0.62712530  1
  B  B1  1  0.25000000  0.52859589  0.94280821  1
  B  B2  1  0.75000000  0.47164692  0.05670616  1
  Mo  Mo3  1  0.75000000  0.31249911  0.37500177  1
  Mo  Mo4  1  0.25000000  0.92890795  0.14218409  1
  Mo  Mo5  1  0.75000000  0.06709921  0.86580158  1
  C  C6  1  0.25000000  0.81395340  0.37209319  1
  C  C7  1  0.75000000  0.19086015  0.61827969  1
