# generated using pymatgen
data_Mg3H13C9NO13
_symmetry_space_group_name_H-M   'P 1'
_cell_length_a   10.07933529
_cell_length_b   11.56518734
_cell_length_c   14.85972117
_cell_angle_alpha   91.44788823
_cell_angle_beta   90.00000000
_cell_angle_gamma   90.00000000
_symmetry_Int_Tables_number   1
_chemical_formula_structural   Mg3H13C9NO13
_chemical_formula_sum   'Mg12 H52 C36 N4 O52'
_cell_volume   1731.63574067
_cell_formula_units_Z   4
loop_
 _symmetry_equiv_pos_site_id
 _symmetry_equiv_pos_as_xyz
  1  'x, y, z'
loop_
 _atom_site_type_symbol
 _atom_site_label
 _atom_site_symmetry_multiplicity
 _atom_site_fract_x
 _atom_site_fract_y
 _atom_site_fract_z
 _atom_site_occupancy
  Mg  Mg0  1  0.07876580  0.75526779  0.13566130  1
  Mg  Mg1  1  0.42123420  0.25526779  0.63566130  1
  Mg  Mg2  1  0.92123420  0.24473221  0.86433870  1
  Mg  Mg3  1  0.57876580  0.74473221  0.36433870  1
  Mg  Mg4  1  -0.00000000  0.50000000  0.00000000  1
  Mg  Mg5  1  0.50000000  0.00000000  0.50000000  1
  Mg  Mg6  1  0.38818022  0.76160696  0.19021742  1
  Mg  Mg7  1  0.11181978  0.26160696  0.69021742  1
  Mg  Mg8  1  0.61181978  0.23839304  0.80978258  1
  Mg  Mg9  1  0.88818022  0.73839304  0.30978258  1
  Mg  Mg10  1  -0.00000000  0.00000000  0.00000000  1
  Mg  Mg11  1  0.50000000  0.50000000  0.50000000  1
  H  H12  1  0.95945871  0.47122406  0.27046614  1
  H  H13  1  0.54054129  0.97122406  0.77046614  1
  H  H14  1  0.04054129  0.52877594  0.72953386  1
  H  H15  1  0.45945871  0.02877594  0.22953386  1
  H  H16  1  0.39272300  0.56167549  0.04229658  1
  H  H17  1  0.10727700  0.06167549  0.54229658  1
  H  H18  1  0.60727700  0.43832451  0.95770342  1
  H  H19  1  0.89272300  0.93832451  0.45770342  1
  H  H20  1  0.28765319  0.01528952  0.02248365  1
  H  H21  1  0.21234681  0.51528952  0.52248365  1
  H  H22  1  0.71234681  0.98471048  0.97751635  1
  H  H23  1  0.78765319  0.48471048  0.47751635  1
  H  H24  1  0.75160287  0.65116799  0.12265870  1
  H  H25  1  0.74839713  0.15116799  0.62265870  1
  H  H26  1  0.24839713  0.34883201  0.87734130  1
  H  H27  1  0.25160287  0.84883201  0.37734130  1
  H  H28  1  0.83855981  0.68780075  0.92328596  1
  H  H29  1  0.66144019  0.18780075  0.42328596  1
  H  H30  1  0.16144019  0.31219925  0.07671404  1
  H  H31  1  0.33855981  0.81219925  0.57671404  1
  H  H32  1  0.78218371  0.97088457  0.22836884  1
  H  H33  1  0.71781629  0.47088457  0.72836884  1
  H  H34  1  0.21781629  0.02911543  0.77163116  1
  H  H35  1  0.28218371  0.52911543  0.27163116  1
  H  H36  1  0.11577914  0.36827465  0.39281243  1
  H  H37  1  0.38422086  0.86827465  0.89281243  1
  H  H38  1  0.88422086  0.63172535  0.60718757  1
  H  H39  1  0.61577914  0.13172535  0.10718757  1
  H  H40  1  0.21081660  0.33020849  0.29442030  1
  H  H41  1  0.28918340  0.83020849  0.79442030  1
  H  H42  1  0.78918340  0.66979151  0.70557970  1
  H  H43  1  0.71081660  0.16979151  0.20557970  1
  H  H44  1  0.25019115  0.26803085  0.39925327  1
  H  H45  1  0.24980885  0.76803085  0.89925327  1
  H  H46  1  0.74980885  0.73196915  0.60074673  1
  H  H47  1  0.75019115  0.23196915  0.10074673  1
  H  H48  1  0.05401741  0.03609266  0.28468680  1
  H  H49  1  0.44598259  0.53609266  0.78468680  1
  H  H50  1  0.94598259  0.96390734  0.71531320  1
  H  H51  1  0.55401741  0.46390734  0.21531320  1
  H  H52  1  0.21926728  0.07444146  0.31866293  1
  H  H53  1  0.28073272  0.57444146  0.81866293  1
  H  H54  1  0.78073272  0.92555854  0.68133707  1
  H  H55  1  0.71926728  0.42555854  0.18133707  1
  H  H56  1  0.15128658  0.12886970  0.21639614  1
  H  H57  1  0.34871342  0.62886970  0.71639614  1
  H  H58  1  0.84871342  0.87113030  0.78360386  1
  H  H59  1  0.65128658  0.37113030  0.28360386  1
  H  H60  1  0.92335804  0.28879051  0.40138360  1
  H  H61  1  0.57664196  0.78879051  0.90138360  1
  H  H62  1  0.07664196  0.71120949  0.59861640  1
  H  H63  1  0.42335804  0.21120949  0.09861640  1
  C  C64  1  0.98276333  0.51881949  0.20869171  1
  C  C65  1  0.51723667  0.01881949  0.70869171  1
  C  C66  1  0.01723667  0.48118051  0.79130829  1
  C  C67  1  0.48276333  0.98118051  0.29130829  1
  C  C68  1  0.28581192  0.58016186  0.05078600  1
  C  C69  1  0.21418808  0.08016186  0.55078600  1
  C  C70  1  0.71418808  0.41983814  0.94921400  1
  C  C71  1  0.78581192  0.91983814  0.44921400  1
  C  C72  1  0.27108486  0.93864964  0.06394646  1
  C  C73  1  0.22891514  0.43864964  0.56394646  1
  C  C74  1  0.72891514  0.06135036  0.93605354  1
  C  C75  1  0.77108486  0.56135036  0.43605354  1
  C  C76  1  0.67050382  0.68117329  0.16761738  1
  C  C77  1  0.82949618  0.18117329  0.66761738  1
  C  C78  1  0.32949618  0.31882671  0.83238262  1
  C  C79  1  0.17050382  0.81882671  0.33238262  1
  C  C80  1  0.90452950  0.74047732  0.96750040  1
  C  C81  1  0.59547050  0.24047732  0.46750040  1
  C  C82  1  0.09547050  0.25952268  0.03249960  1
  C  C83  1  0.40452950  0.75952268  0.53249960  1
  C  C84  1  0.85978428  0.94319307  0.17986656  1
  C  C85  1  0.64021572  0.44319307  0.67986656  1
  C  C86  1  0.14021572  0.05680693  0.82013344  1
  C  C87  1  0.35978428  0.55680693  0.32013344  1
  C  C88  1  0.16789825  0.29765812  0.35698623  1
  C  C89  1  0.33210175  0.79765812  0.85698623  1
  C  C90  1  0.83210175  0.70234188  0.64301377  1
  C  C91  1  0.66789825  0.20234188  0.14301377  1
  C  C92  1  0.12836397  0.10496829  0.28593262  1
  C  C93  1  0.37163603  0.60496829  0.78593262  1
  C  C94  1  0.87163603  0.89503171  0.71406738  1
  C  C95  1  0.62836397  0.39503171  0.21406738  1
  C  C96  1  0.94704805  0.20842240  0.36188656  1
  C  C97  1  0.55295195  0.70842240  0.86188656  1
  C  C98  1  0.05295195  0.79157760  0.63811344  1
  C  C99  1  0.44704805  0.29157760  0.13811344  1
  N  N100  1  0.07590180  0.20359436  0.33704588  1
  N  N101  1  0.42409820  0.70359436  0.83704588  1
  N  N102  1  0.92409820  0.79640564  0.66295412  1
  N  N103  1  0.57590180  0.29640564  0.16295412  1
  O  O104  1  0.99306607  0.62943906  0.21863066  1
  O  O105  1  0.50693393  0.12943906  0.71863066  1
  O  O106  1  0.00693393  0.37056094  0.78136934  1
  O  O107  1  0.49306607  0.87056094  0.28136934  1
  O  O108  1  0.99616407  0.46275273  0.13628285  1
  O  O109  1  0.50383593  0.96275273  0.63628285  1
  O  O110  1  0.00383593  0.53724727  0.86371715  1
  O  O111  1  0.49616407  0.03724727  0.36371715  1
  O  O112  1  0.25642550  0.65982393  0.11014681  1
  O  O113  1  0.24357450  0.15982393  0.61014681  1
  O  O114  1  0.74357450  0.34017607  0.88985319  1
  O  O115  1  0.75642550  0.84017607  0.38985319  1
  O  O116  1  0.20429547  0.52482547  0.00306656  1
  O  O117  1  0.29570453  0.02482547  0.50306656  1
  O  O118  1  0.79570453  0.47517453  0.99693344  1
  O  O119  1  0.70429547  0.97517453  0.49693344  1
  O  O120  1  0.15067627  0.90175381  0.06748409  1
  O  O121  1  0.34932373  0.40175381  0.56748409  1
  O  O122  1  0.84932373  0.09824619  0.93251591  1
  O  O123  1  0.65067627  0.59824619  0.43251591  1
  O  O124  1  0.36928146  0.89583498  0.10285728  1
  O  O125  1  0.13071854  0.39583498  0.60285728  1
  O  O126  1  0.63071854  0.10416502  0.89714272  1
  O  O127  1  0.86928146  0.60416502  0.39714272  1
  O  O128  1  0.19984189  0.80306239  0.24870462  1
  O  O129  1  0.30015811  0.30306239  0.74870462  1
  O  O130  1  0.80015811  0.19693761  0.75129538  1
  O  O131  1  0.69984189  0.69693761  0.25129538  1
  O  O132  1  0.55834226  0.69630838  0.13314091  1
  O  O133  1  0.94165774  0.19630838  0.63314091  1
  O  O134  1  0.44165774  0.30369162  0.86685909  1
  O  O135  1  0.05834226  0.80369162  0.36685909  1
  O  O136  1  0.97472771  0.68482132  0.02501935  1
  O  O137  1  0.52527229  0.18482132  0.52501935  1
  O  O138  1  0.02527229  0.31517868  0.97498065  1
  O  O139  1  0.47472771  0.81517868  0.47498065  1
  O  O140  1  0.90483671  0.84813097  0.95906904  1
  O  O141  1  0.59516329  0.34813097  0.45906904  1
  O  O142  1  0.09516329  0.15186903  0.04093096  1
  O  O143  1  0.40483671  0.65186903  0.54093096  1
  O  O144  1  0.92070928  0.84824611  0.19766575  1
  O  O145  1  0.57929072  0.34824611  0.69766575  1
  O  O146  1  0.07929072  0.15175389  0.80233425  1
  O  O147  1  0.42070928  0.65175389  0.30233425  1
  O  O148  1  0.88169993  0.00504508  0.11387376  1
  O  O149  1  0.61830007  0.50504508  0.61387376  1
  O  O150  1  0.11830007  0.99495492  0.88612624  1
  O  O151  1  0.38169993  0.49495492  0.38612624  1
  O  O152  1  0.86154698  0.13379749  0.34462086  1
  O  O153  1  0.63845302  0.63379749  0.84462086  1
  O  O154  1  0.13845302  0.86620251  0.65537914  1
  O  O155  1  0.36154698  0.36620251  0.15537914  1
