# generated using pymatgen
data_Y2AlCo3
_symmetry_space_group_name_H-M   'P 1'
_cell_length_a   5.35835510
_cell_length_b   5.35835510
_cell_length_c   4.98991006
_cell_angle_alpha   90.00000000
_cell_angle_beta   57.52585245
_cell_angle_gamma   120.00000000
_symmetry_Int_Tables_number   1
_chemical_formula_structural   Y2AlCo3
_chemical_formula_sum   'Y2 Al1 Co3'
_cell_volume   97.35182423
_cell_formula_units_Z   1
loop_
 _symmetry_equiv_pos_site_id
 _symmetry_equiv_pos_as_xyz
  1  'x, y, z'
loop_
 _atom_site_type_symbol
 _atom_site_label
 _atom_site_symmetry_multiplicity
 _atom_site_fract_x
 _atom_site_fract_y
 _atom_site_fract_z
 _atom_site_occupancy
  Y  Y0  1  0.49282890  0.74641445  0.76075665  1
  Y  Y1  1  0.00717110  0.00358555  0.98924335  1
  Al  Al2  1  0.75000000  0.37500000  0.87500000  1
  Co  Co3  1  0.25000000  0.37500000  0.37500000  1
  Co  Co4  1  0.25000000  0.87500000  0.37500000  1
  Co  Co5  1  0.75000000  0.37500000  0.37500000  1
