# generated using pymatgen
data_ZrTi2Al
_symmetry_space_group_name_H-M   'P 1'
_cell_length_a   4.79499592
_cell_length_b   5.93563886
_cell_length_c   5.93081447
_cell_angle_alpha   120.03844014
_cell_angle_beta   90.00000000
_cell_angle_gamma   90.00000000
_symmetry_Int_Tables_number   1
_chemical_formula_structural   ZrTi2Al
_chemical_formula_sum   'Zr2 Ti4 Al2'
_cell_volume   146.12762571
_cell_formula_units_Z   2
loop_
 _symmetry_equiv_pos_site_id
 _symmetry_equiv_pos_as_xyz
  1  'x, y, z'
loop_
 _atom_site_type_symbol
 _atom_site_label
 _atom_site_symmetry_multiplicity
 _atom_site_fract_x
 _atom_site_fract_y
 _atom_site_fract_z
 _atom_site_occupancy
  Zr  Zr0  1  0.75000000  0.16634332  0.83059980  1
  Zr  Zr1  1  0.75000000  0.66421529  0.83047536  1
  Ti  Ti2  1  0.75000000  0.16901483  0.33796682  1
  Ti  Ti3  1  0.25000000  0.83526187  0.17957878  1
  Ti  Ti4  1  0.25000000  0.34427224  0.17962142  1
  Ti  Ti5  1  0.25000000  0.82593171  0.65180660  1
  Al  Al6  1  0.75000000  0.66624679  0.33251132  1
  Al  Al7  1  0.25000000  0.32871396  0.65743990  1
