# generated using pymatgen
data_Y2Co3Si
_symmetry_space_group_name_H-M   'P 1'
_cell_length_a   5.25636354
_cell_length_b   5.25636354
_cell_length_c   4.90668755
_cell_angle_alpha   90.00000000
_cell_angle_beta   57.61317765
_cell_angle_gamma   120.00000000
_symmetry_Int_Tables_number   1
_chemical_formula_structural   Y2Co3Si
_chemical_formula_sum   'Y2 Co3 Si1'
_cell_volume   92.25619031
_cell_formula_units_Z   1
loop_
 _symmetry_equiv_pos_site_id
 _symmetry_equiv_pos_as_xyz
  1  'x, y, z'
loop_
 _atom_site_type_symbol
 _atom_site_label
 _atom_site_symmetry_multiplicity
 _atom_site_fract_x
 _atom_site_fract_y
 _atom_site_fract_z
 _atom_site_occupancy
  Y  Y0  1  0.49644626  0.74822313  0.75533060  1
  Y  Y1  1  0.00355374  0.00177687  0.99466940  1
  Co  Co2  1  0.25000000  0.37500000  0.37500000  1
  Co  Co3  1  0.25000000  0.87500000  0.37500000  1
  Co  Co4  1  0.75000000  0.37500000  0.37500000  1
  Si  Si5  1  0.75000000  0.37500000  0.87500000  1
