# generated using pymatgen
data_Y2MnS4
_symmetry_space_group_name_H-M   'P 1'
_cell_length_a   3.79782019
_cell_length_b   6.48459523
_cell_length_c   12.90528256
_cell_angle_alpha   90.00000000
_cell_angle_beta   90.00000000
_cell_angle_gamma   72.97230310
_symmetry_Int_Tables_number   1
_chemical_formula_structural   Y2MnS4
_chemical_formula_sum   'Y4 Mn2 S8'
_cell_volume   303.89031869
_cell_formula_units_Z   2
loop_
 _symmetry_equiv_pos_site_id
 _symmetry_equiv_pos_as_xyz
  1  'x, y, z'
loop_
 _atom_site_type_symbol
 _atom_site_label
 _atom_site_symmetry_multiplicity
 _atom_site_fract_x
 _atom_site_fract_y
 _atom_site_fract_z
 _atom_site_occupancy
  Y  Y0  1  0.38130059  0.23739882  0.78456729  1
  Y  Y1  1  0.61869941  0.76260118  0.28456729  1
  Y  Y2  1  0.13740138  0.72519724  0.58195524  1
  Y  Y3  1  0.86259862  0.27480276  0.08195524  1
  Mn  Mn4  1  0.12654792  0.74690415  0.94574382  1
  Mn  Mn5  1  0.87345208  0.25309585  0.44574382  1
  S  S6  1  0.79071548  0.41856904  0.63444687  1
  S  S7  1  0.20928452  0.58143096  0.13444687  1
  S  S8  1  0.49026917  0.01946166  0.99587430  1
  S  S9  1  0.50973083  0.98053834  0.49587430  1
  S  S10  1  0.76006871  0.47986258  0.89553219  1
  S  S11  1  0.23993129  0.52013742  0.39553219  1
  S  S12  1  0.03842525  0.92314949  0.76988029  1
  S  S13  1  0.96157475  0.07685051  0.26988029  1
