# generated using pymatgen
data_Tm4MnS7
_symmetry_space_group_name_H-M   'P 1'
_cell_length_a   3.75718865
_cell_length_b   6.48001391
_cell_length_c   11.36318916
_cell_angle_alpha   104.04676049
_cell_angle_beta   89.99999995
_cell_angle_gamma   73.14767262
_symmetry_Int_Tables_number   1
_chemical_formula_structural   Tm4MnS7
_chemical_formula_sum   'Tm4 Mn1 S7'
_cell_volume   256.11846078
_cell_formula_units_Z   1
loop_
 _symmetry_equiv_pos_site_id
 _symmetry_equiv_pos_as_xyz
  1  'x, y, z'
loop_
 _atom_site_type_symbol
 _atom_site_label
 _atom_site_symmetry_multiplicity
 _atom_site_fract_x
 _atom_site_fract_y
 _atom_site_fract_z
 _atom_site_occupancy
  Tm  Tm0  1  0.69332412  0.61335176  0.20301954  1
  Tm  Tm1  1  0.30596232  0.38807536  0.80280746  1
  Tm  Tm2  1  -0.00011455  0.00022909  0.00525049  1
  Tm  Tm3  1  0.11426771  0.77146457  0.56752770  1
  Mn  Mn4  1  0.88557016  0.22885968  0.42107529  1
  S  S5  1  0.74373801  0.51252398  0.64136733  1
  S  S6  1  0.26686521  0.46626958  0.35240213  1
  S  S7  1  0.33905719  0.32188561  0.05083714  1
  S  S8  1  0.65954392  0.68091215  0.94883458  1
  S  S9  1  0.03467190  0.93065619  0.22455139  1
  S  S10  1  0.96299203  0.07401594  0.78450325  1
  S  S11  1  0.49412195  0.01175609  0.49782369  1
