# generated using pymatgen
data_V(CoSe2)2
_symmetry_space_group_name_H-M   'P 1'
_cell_length_a   3.44489390
_cell_length_b   6.05339080
_cell_length_c   6.48133301
_cell_angle_alpha   115.22553939
_cell_angle_beta   74.58817328
_cell_angle_gamma   90.00000000
_symmetry_Int_Tables_number   1
_chemical_formula_structural   V(CoSe2)2
_chemical_formula_sum   'V1 Co2 Se4'
_cell_volume   116.87320934
_cell_formula_units_Z   1
loop_
 _symmetry_equiv_pos_site_id
 _symmetry_equiv_pos_as_xyz
  1  'x, y, z'
loop_
 _atom_site_type_symbol
 _atom_site_label
 _atom_site_symmetry_multiplicity
 _atom_site_fract_x
 _atom_site_fract_y
 _atom_site_fract_z
 _atom_site_occupancy
  V  V0  1  0.74515870  0.31171871  0.50968260  1
  Co  Co1  1  0.99201467  0.00726928  0.01597067  1
  Co  Co2  1  0.26314193  0.68474612  0.47371615  1
  Se  Se3  1  0.36059949  0.97387464  0.27880101  1
  Se  Se4  1  0.63537401  0.01032201  0.72925198  1
  Se  Se5  1  0.10732397  0.56491127  0.78535206  1
  Se  Se6  1  0.89638724  0.44715796  0.20722552  1
