# generated using pymatgen
data_ThFe4Ni
_symmetry_space_group_name_H-M   'P 1'
_cell_length_a   4.11761170
_cell_length_b   5.02753495
_cell_length_c   5.02567658
_cell_angle_alpha   119.99153531
_cell_angle_beta   90.00000000
_cell_angle_gamma   90.00000000
_symmetry_Int_Tables_number   1
_chemical_formula_structural   ThFe4Ni
_chemical_formula_sum   'Th1 Fe4 Ni1'
_cell_volume   90.10786377
_cell_formula_units_Z   1
loop_
 _symmetry_equiv_pos_site_id
 _symmetry_equiv_pos_as_xyz
  1  'x, y, z'
loop_
 _atom_site_type_symbol
 _atom_site_label
 _atom_site_symmetry_multiplicity
 _atom_site_fract_x
 _atom_site_fract_y
 _atom_site_fract_z
 _atom_site_occupancy
  Th  Th0  1  -0.00000000  0.00000147  0.00001378  1
  Fe  Fe1  1  0.50000000  0.50145037  0.00284595  1
  Fe  Fe2  1  0.50000000  0.50144860  0.49859277  1
  Fe  Fe3  1  0.50000000  0.99715891  0.49857675  1
  Fe  Fe4  1  0.00000000  0.66652531  0.33324446  1
  Ni  Ni5  1  0.00000000  0.33331535  0.66672629  1
