# generated using pymatgen
data_TlIn2GaSe4
_symmetry_space_group_name_H-M   'P 1'
_cell_length_a   6.71179238
_cell_length_b   6.71179238
_cell_length_c   6.71179238
_cell_angle_alpha   59.93006013
_cell_angle_beta   75.42407095
_cell_angle_gamma   104.31664123
_symmetry_Int_Tables_number   1
_chemical_formula_structural   TlIn2GaSe4
_chemical_formula_sum   'Tl1 In2 Ga1 Se4'
_cell_volume   226.68426613
_cell_formula_units_Z   1
loop_
 _symmetry_equiv_pos_site_id
 _symmetry_equiv_pos_as_xyz
  1  'x, y, z'
loop_
 _atom_site_type_symbol
 _atom_site_label
 _atom_site_symmetry_multiplicity
 _atom_site_fract_x
 _atom_site_fract_y
 _atom_site_fract_z
 _atom_site_occupancy
  Tl  Tl0  1  -0.00000000  0.75000000  0.25000000  1
  In  In1  1  0.50000000  0.75000000  0.75000000  1
  In  In2  1  -0.00000000  0.25000000  0.75000000  1
  Ga  Ga3  1  0.50000000  0.25000000  0.25000000  1
  Se  Se4  1  0.50095702  0.31494396  0.85262559  1
  Se  Se5  1  0.49904298  0.64641739  0.18601305  1
  Se  Se6  1  0.16756955  0.85358261  0.64737441  1
  Se  Se7  1  0.83243045  0.18505604  0.31398695  1
