# generated using pymatgen
data_SrNdGaCuO5
_symmetry_space_group_name_H-M   'P 1'
_cell_length_a   5.32285259
_cell_length_b   5.61895643
_cell_length_c   9.10864522
_cell_angle_alpha   72.03608205
_cell_angle_beta   73.01251630
_cell_angle_gamma   90.00446781
_symmetry_Int_Tables_number   1
_chemical_formula_structural   SrNdGaCuO5
_chemical_formula_sum   'Sr2 Nd2 Ga2 Cu2 O10'
_cell_volume   246.62082209
_cell_formula_units_Z   2
loop_
 _symmetry_equiv_pos_site_id
 _symmetry_equiv_pos_as_xyz
  1  'x, y, z'
loop_
 _atom_site_type_symbol
 _atom_site_label
 _atom_site_symmetry_multiplicity
 _atom_site_fract_x
 _atom_site_fract_y
 _atom_site_fract_z
 _atom_site_occupancy
  Sr  Sr0  1  0.11109772  0.59898927  0.77681163  1
  Sr  Sr1  1  0.38790935  0.87580090  0.22318837  1
  Nd  Nd2  1  0.89723432  0.42935162  0.20126613  1
  Nd  Nd3  1  0.59850045  0.13061775  0.79873387  1
  Ga  Ga4  1  0.70858065  0.81394865  0.50000000  1
  Ga  Ga5  1  0.21379141  0.18421779  0.50000000  1
  Cu  Cu6  1  0.49987174  0.50476854  0.00054684  1
  Cu  Cu7  1  0.00041858  0.00531538  0.99945316  1
  O  O8  1  0.84926525  0.13120749  0.50000000  1
  O  O9  1  0.35587745  0.87249927  0.50000000  1
  O  O10  1  0.68118482  0.57170707  0.69471112  1
  O  O11  1  0.38713266  0.40104936  0.29640118  1
  O  O12  1  0.87589593  0.76641819  0.30528888  1
  O  O13  1  0.18353384  0.19745054  0.70359882  1
  O  O14  1  0.74242431  0.24644936  0.01137738  1
  O  O15  1  0.75579608  0.76324721  0.98588767  1
  O  O16  1  0.25380169  0.75782674  0.98862262  1
  O  O17  1  0.24168375  0.24913488  0.01411233  1
