# generated using pymatgen
data_SrLaScO4
_symmetry_space_group_name_H-M   'P 1'
_cell_length_a   4.07113701
_cell_length_b   4.07113701
_cell_length_c   6.92885344
_cell_angle_alpha   72.91551871
_cell_angle_beta   72.91551871
_cell_angle_gamma   90.00000000
_symmetry_Int_Tables_number   1
_chemical_formula_structural   SrLaScO4
_chemical_formula_sum   'Sr1 La1 Sc1 O4'
_cell_volume   104.45918106
_cell_formula_units_Z   1
loop_
 _symmetry_equiv_pos_site_id
 _symmetry_equiv_pos_as_xyz
  1  'x, y, z'
loop_
 _atom_site_type_symbol
 _atom_site_label
 _atom_site_symmetry_multiplicity
 _atom_site_fract_x
 _atom_site_fract_y
 _atom_site_fract_z
 _atom_site_occupancy
  Sr  Sr0  1  0.35664366  0.35664366  0.28671268  1
  La  La1  1  0.64145551  0.64145551  0.71708898  1
  Sc  Sc2  1  0.99688741  0.99688741  0.00622518  1
  O  O3  1  0.16916347  0.16916347  0.66167306  1
  O  O4  1  0.82296258  0.82296258  0.35407484  1
  O  O5  1  0.00644368  0.50644368  0.98711263  1
  O  O6  1  0.50644368  0.00644368  0.98711263  1
