# generated using pymatgen
data_Ti3Fe2(BiO3)6
_symmetry_space_group_name_H-M   'P 1'
_cell_length_a   4.00049844
_cell_length_b   4.00049844
_cell_length_c   24.69248340
_cell_angle_alpha   85.96524794
_cell_angle_beta   94.98033991
_cell_angle_gamma   88.28901072
_symmetry_Int_Tables_number   1
_chemical_formula_structural   Ti3Fe2(BiO3)6
_chemical_formula_sum   'Ti3 Fe2 Bi6 O18'
_cell_volume   392.45321001
_cell_formula_units_Z   1
loop_
 _symmetry_equiv_pos_site_id
 _symmetry_equiv_pos_as_xyz
  1  'x, y, z'
loop_
 _atom_site_type_symbol
 _atom_site_label
 _atom_site_symmetry_multiplicity
 _atom_site_fract_x
 _atom_site_fract_y
 _atom_site_fract_z
 _atom_site_occupancy
  Ti  Ti0  1  0.39728220  0.56297065  0.83431154  1
  Ti  Ti1  1  0.65379736  0.31807044  0.33572691  1
  Ti  Ti2  1  0.31846056  0.65116573  0.66729483  1
  Fe  Fe3  1  0.49045712  0.49164818  0.99880893  1
  Fe  Fe4  1  0.57138039  0.40575627  0.16562413  1
  Bi  Bi5  1  0.88493897  0.95919135  0.92574762  1
  Bi  Bi6  1  0.95808685  0.86606179  0.09202506  1
  Bi  Bi7  1  0.66383910  0.10929234  0.55454676  1
  Bi  Bi8  1  0.11934280  0.66717468  0.45216812  1
  Bi  Bi9  1  0.79828854  0.04995609  0.74833246  1
  Bi  Bi10  1  0.04229103  0.78613759  0.25615343  1
  O  O11  1  0.69225630  0.85322506  0.32161075  1
  O  O12  1  0.85907723  0.69434942  0.68000328  1
  O  O13  1  0.37435270  0.17907395  0.68000328  1
  O  O14  1  0.17483581  0.37064555  0.32161075  1
  O  O15  1  0.61829746  0.92759313  0.15861959  1
  O  O16  1  0.94145643  0.62379563  0.83344625  1
  O  O17  1  0.45724188  0.10801018  0.83344625  1
  O  O18  1  0.08621272  0.45967787  0.15861959  1
  O  O19  1  0.72352651  0.31620127  0.40732524  1
  O  O20  1  0.31842905  0.72410518  0.59432387  1
  O  O21  1  0.65743204  0.41219841  0.24523363  1
  O  O22  1  0.42053966  0.66528315  0.75525651  1
  O  O23  1  0.19306957  0.18949801  0.50178293  1
  O  O24  1  0.69128094  0.69128664  0.50178293  1
  O  O25  1  0.57224271  0.49274574  0.07949697  1
  O  O26  1  0.49544506  0.58218035  0.91326471  1
  O  O27  1  0.53339561  0.01322656  0.99171684  1
  O  O28  1  0.00494340  0.54167878  0.99171684  1
