# generated using pymatgen
data_TbDyC4
_symmetry_space_group_name_H-M   'P 1'
_cell_length_a   3.67991943
_cell_length_b   4.06140076
_cell_length_c   6.61284614
_cell_angle_alpha   83.93971864
_cell_angle_beta   73.84479691
_cell_angle_gamma   63.06137845
_symmetry_Int_Tables_number   1
_chemical_formula_structural   TbDyC4
_chemical_formula_sum   'Tb1 Dy1 C4'
_cell_volume   84.60549065
_cell_formula_units_Z   1
loop_
 _symmetry_equiv_pos_site_id
 _symmetry_equiv_pos_as_xyz
  1  'x, y, z'
loop_
 _atom_site_type_symbol
 _atom_site_label
 _atom_site_symmetry_multiplicity
 _atom_site_fract_x
 _atom_site_fract_y
 _atom_site_fract_z
 _atom_site_occupancy
  Tb  Tb0  1  -0.00000000  0.50000000  0.50000000  1
  Dy  Dy1  1  -0.00000000  0.00000000  0.00000000  1
  C  C2  1  0.60535248  0.59227963  0.19701541  1
  C  C3  1  0.60399705  0.09337763  0.69862827  1
  C  C4  1  0.39464752  0.40772037  0.80298459  1
  C  C5  1  0.39600295  0.90662237  0.30137173  1
