# generated using pymatgen
data_SrEu2BeO5
_symmetry_space_group_name_H-M   'P 1'
_cell_length_a   6.64189582
_cell_length_b   7.25606739
_cell_length_c   9.63504062
_cell_angle_alpha   90.00000000
_cell_angle_beta   90.00000000
_cell_angle_gamma   90.00000000
_symmetry_Int_Tables_number   1
_chemical_formula_structural   SrEu2BeO5
_chemical_formula_sum   'Sr4 Eu8 Be4 O20'
_cell_volume   464.35156838
_cell_formula_units_Z   4
loop_
 _symmetry_equiv_pos_site_id
 _symmetry_equiv_pos_as_xyz
  1  'x, y, z'
loop_
 _atom_site_type_symbol
 _atom_site_label
 _atom_site_symmetry_multiplicity
 _atom_site_fract_x
 _atom_site_fract_y
 _atom_site_fract_z
 _atom_site_occupancy
  Sr  Sr0  1  0.58479621  0.98076247  0.67438633  1
  Sr  Sr1  1  0.41520379  0.48076247  0.32561367  1
  Sr  Sr2  1  0.08479621  0.48076247  0.82561367  1
  Sr  Sr3  1  0.91520379  0.98076247  0.17438633  1
  Eu  Eu4  1  0.08792135  0.74776353  0.52198558  1
  Eu  Eu5  1  0.41207865  0.74776353  0.02198558  1
  Eu  Eu6  1  0.91207865  0.24776353  0.47801442  1
  Eu  Eu7  1  0.58792135  0.24776353  0.97801442  1
  Eu  Eu8  1  0.91952527  0.52203222  0.17358613  1
  Eu  Eu9  1  0.08047473  0.02203222  0.82641387  1
  Eu  Eu10  1  0.41952527  0.02203222  0.32641387  1
  Eu  Eu11  1  0.58047473  0.52203222  0.67358613  1
  Be  Be12  1  0.69157234  0.74959768  0.39948800  1
  Be  Be13  1  0.80842766  0.74959768  0.89948800  1
  Be  Be14  1  0.30842766  0.24959768  0.60051200  1
  Be  Be15  1  0.19157234  0.24959768  0.10051200  1
  O  O16  1  0.01869861  0.74987091  0.99123527  1
  O  O17  1  0.48130139  0.74987091  0.49123527  1
  O  O18  1  0.98130139  0.24987091  0.00876473  1
  O  O19  1  0.51869861  0.24987091  0.50876473  1
  O  O20  1  0.31366218  0.05861526  0.06867652  1
  O  O21  1  0.19065386  0.44093821  0.56698940  1
  O  O22  1  0.68633782  0.55861526  0.93132348  1
  O  O23  1  0.80934614  0.94093821  0.43301060  1
  O  O24  1  0.69065386  0.94093821  0.93301060  1
  O  O25  1  0.81366218  0.55861526  0.43132348  1
  O  O26  1  0.30934614  0.44093821  0.06698940  1
  O  O27  1  0.18633782  0.05861526  0.56867652  1
  O  O28  1  0.63033916  0.75061966  0.22779533  1
  O  O29  1  0.86966084  0.75061966  0.72779533  1
  O  O30  1  0.36966084  0.25061966  0.77220467  1
  O  O31  1  0.13033916  0.25061966  0.27220467  1
  O  O32  1  0.16333737  0.74980005  0.28333647  1
  O  O33  1  0.33666263  0.74980005  0.78333647  1
  O  O34  1  0.83666263  0.24980005  0.71666353  1
  O  O35  1  0.66333737  0.24980005  0.21666353  1
