# generated using pymatgen
data_Sr4La2Mg(RuO6)2
_symmetry_space_group_name_H-M   'P 1'
_cell_length_a   3.90552508
_cell_length_b   3.90552508
_cell_length_c   19.37335323
_cell_angle_alpha   84.21497110
_cell_angle_beta   84.21497110
_cell_angle_gamma   90.00000000
_symmetry_Int_Tables_number   1
_chemical_formula_structural   Sr4La2Mg(RuO6)2
_chemical_formula_sum   'Sr4 La2 Mg1 Ru2 O12'
_cell_volume   292.48649881
_cell_formula_units_Z   1
loop_
 _symmetry_equiv_pos_site_id
 _symmetry_equiv_pos_as_xyz
  1  'x, y, z'
loop_
 _atom_site_type_symbol
 _atom_site_label
 _atom_site_symmetry_multiplicity
 _atom_site_fract_x
 _atom_site_fract_y
 _atom_site_fract_z
 _atom_site_occupancy
  Sr  Sr0  1  0.78440150  0.78440150  0.43119799  1
  Sr  Sr1  1  0.11807283  0.11807283  0.76385434  1
  Sr  Sr2  1  0.88192717  0.88192717  0.23614566  1
  Sr  Sr3  1  0.21559850  0.21559850  0.56880201  1
  La  La4  1  0.45446670  0.45446670  0.09106560  1
  La  La5  1  0.54553330  0.54553330  0.90893440  1
  Mg  Mg6  1  0.00000000  0.00000000  -0.00000000  1
  Ru  Ru7  1  0.33370805  0.33370805  0.33258289  1
  Ru  Ru8  1  0.66629195  0.66629195  0.66741711  1
  O  O9  1  0.50000000  0.00000000  -0.00000000  1
  O  O10  1  0.83313641  0.33313641  0.33372618  1
  O  O11  1  0.16686359  0.66686359  0.66627382  1
  O  O12  1  0.00000000  0.50000000  -0.00000000  1
  O  O13  1  0.33313641  0.83313641  0.33372618  1
  O  O14  1  0.66686359  0.16686359  0.66627382  1
  O  O15  1  0.38912991  0.38912991  0.22174018  1
  O  O16  1  0.72086318  0.72086318  0.55827264  1
  O  O17  1  0.05677105  0.05677105  0.88645890  1
  O  O18  1  0.94322895  0.94322895  0.11354110  1
  O  O19  1  0.27913682  0.27913682  0.44172736  1
  O  O20  1  0.61087009  0.61087009  0.77825982  1
