# generated using pymatgen
data_UO3
_symmetry_space_group_name_H-M   'P 1'
_cell_length_a   4.11976039
_cell_length_b   10.67213894
_cell_length_c   14.41969404
_cell_angle_alpha   90.00000000
_cell_angle_beta   90.00000000
_cell_angle_gamma   94.03891488
_symmetry_Int_Tables_number   1
_chemical_formula_structural   UO3
_chemical_formula_sum   'U10 O30'
_cell_volume   632.41117721
_cell_formula_units_Z   10
loop_
 _symmetry_equiv_pos_site_id
 _symmetry_equiv_pos_as_xyz
  1  'x, y, z'
loop_
 _atom_site_type_symbol
 _atom_site_label
 _atom_site_symmetry_multiplicity
 _atom_site_fract_x
 _atom_site_fract_y
 _atom_site_fract_z
 _atom_site_occupancy
  U  U0  1  0.62363325  0.32375953  0.49870207  1
  U  U1  1  0.81861142  0.19990384  0.23267231  1
  U  U2  1  0.98259592  0.99440041  0.48123519  1
  U  U3  1  0.86835793  0.66610954  0.21762106  1
  U  U4  1  0.58370626  0.29954632  0.95848062  1
  U  U5  1  0.37636675  0.67624047  0.99870207  1
  U  U6  1  0.13164207  0.33389046  0.71762106  1
  U  U7  1  0.41629374  0.70045368  0.45848062  1
  U  U8  1  0.01740408  0.00559959  0.98123519  1
  U  U9  1  0.18138858  0.80009616  0.73267231  1
  O  O10  1  0.36856853  0.65569270  0.14294717  1
  O  O11  1  0.60270577  0.51294811  0.47682829  1
  O  O12  1  0.09457086  0.16570027  0.71611011  1
  O  O13  1  0.80355804  0.70254022  0.72848388  1
  O  O14  1  0.41137421  0.86926919  0.01303908  1
  O  O15  1  0.18020999  0.50247398  0.72327928  1
  O  O16  1  0.64470640  0.28534159  0.08900483  1
  O  O17  1  0.00211560  0.06782909  0.36510262  1
  O  O18  1  0.31000929  0.70673049  0.86257885  1
  O  O19  1  0.07828936  0.24101172  0.94063953  1
  O  O20  1  0.45620050  0.90617665  0.45625579  1
  O  O21  1  0.51315249  0.91933663  0.73439609  1
  O  O22  1  0.63143147  0.34430730  0.64294717  1
  O  O23  1  0.81979001  0.49752602  0.22327928  1
  O  O24  1  0.60530227  0.32909674  0.82353893  1
  O  O25  1  0.58862579  0.13073081  0.51303908  1
  O  O26  1  0.39729423  0.48705189  0.97682829  1
  O  O27  1  0.35529360  0.71465841  0.58900483  1
  O  O28  1  0.48684751  0.08066337  0.23439609  1
  O  O29  1  0.39469773  0.67090326  0.32353893  1
  O  O30  1  0.92171064  0.75898828  0.44063953  1
  O  O31  1  0.12161229  0.31658407  0.53495133  1
  O  O32  1  0.87838771  0.68341593  0.03495133  1
  O  O33  1  0.19644196  0.29745978  0.22848388  1
  O  O34  1  0.99160812  0.92973864  0.60013497  1
  O  O35  1  0.68999071  0.29326951  0.36257885  1
  O  O36  1  0.99788440  0.93217091  0.86510262  1
  O  O37  1  0.00839188  0.07026136  0.10013497  1
  O  O38  1  0.90542914  0.83429973  0.21611011  1
  O  O39  1  0.54379950  0.09382335  0.95625579  1
