# generated using pymatgen
data_TaNb(AgO3)2
_symmetry_space_group_name_H-M   'P 1'
_cell_length_a   5.61427106
_cell_length_b   5.68672835
_cell_length_c   15.85188433
_cell_angle_alpha   90.00000000
_cell_angle_beta   90.00000000
_cell_angle_gamma   90.00000000
_symmetry_Int_Tables_number   1
_chemical_formula_structural   TaNb(AgO3)2
_chemical_formula_sum   'Ta4 Nb4 Ag8 O24'
_cell_volume   506.10048596
_cell_formula_units_Z   4
loop_
 _symmetry_equiv_pos_site_id
 _symmetry_equiv_pos_as_xyz
  1  'x, y, z'
loop_
 _atom_site_type_symbol
 _atom_site_label
 _atom_site_symmetry_multiplicity
 _atom_site_fract_x
 _atom_site_fract_y
 _atom_site_fract_z
 _atom_site_occupancy
  Ta  Ta0  1  0.25291611  0.23125701  0.87506236  1
  Ta  Ta1  1  0.74708389  0.76874299  0.37506236  1
  Ta  Ta2  1  0.25291611  0.26874299  0.12493764  1
  Ta  Ta3  1  0.74708389  0.73125701  0.62493764  1
  Nb  Nb4  1  0.74699621  0.76944804  0.12534579  1
  Nb  Nb5  1  0.25300379  0.23055196  0.62534579  1
  Nb  Nb6  1  0.74699621  0.73055196  0.87465421  1
  Nb  Nb7  1  0.25300379  0.26944804  0.37465421  1
  Ag  Ag8  1  0.74848172  0.25000000  -0.00000000  1
  Ag  Ag9  1  0.25151828  0.75000000  0.50000000  1
  Ag  Ag10  1  0.25025602  0.75000000  -0.00000000  1
  Ag  Ag11  1  0.74974398  0.25000000  0.50000000  1
  Ag  Ag12  1  0.75258429  0.26318157  0.24990480  1
  Ag  Ag13  1  0.24741571  0.73681843  0.74990480  1
  Ag  Ag14  1  0.75258429  0.23681843  0.75009520  1
  Ag  Ag15  1  0.24741571  0.76318157  0.25009520  1
  O  O16  1  0.46561974  0.96485953  0.11083794  1
  O  O17  1  0.53438026  0.03514047  0.61083794  1
  O  O18  1  0.46561974  0.53514047  0.88916206  1
  O  O19  1  0.53438026  0.46485953  0.38916206  1
  O  O20  1  0.53236597  0.03716664  0.88948044  1
  O  O21  1  0.46763403  0.96283336  0.38948044  1
  O  O22  1  0.53236597  0.46283336  0.11051956  1
  O  O23  1  0.46763403  0.53716664  0.61051956  1
  O  O24  1  0.80797463  0.75000000  -0.00000000  1
  O  O25  1  0.19202537  0.25000000  0.50000000  1
  O  O26  1  0.19303574  0.25000000  -0.00000000  1
  O  O27  1  0.80696426  0.75000000  0.50000000  1
  O  O28  1  0.69176444  0.73158231  0.25069557  1
  O  O29  1  0.30823556  0.26841769  0.75069557  1
  O  O30  1  0.69176444  0.76841769  0.74930443  1
  O  O31  1  0.30823556  0.23158231  0.24930443  1
  O  O32  1  0.96840690  0.02822495  0.13963665  1
  O  O33  1  0.03159310  0.97177505  0.63963665  1
  O  O34  1  0.96840690  0.47177505  0.86036335  1
  O  O35  1  0.03159310  0.52822495  0.36036335  1
  O  O36  1  0.03390553  0.97423652  0.86001239  1
  O  O37  1  0.96609447  0.02576348  0.36001239  1
  O  O38  1  0.03390553  0.52576348  0.13998761  1
  O  O39  1  0.96609447  0.47423652  0.63998761  1
