# generated using pymatgen
data_Ta2NiS4
_symmetry_space_group_name_H-M   'P 1'
_cell_length_a   3.35048204
_cell_length_b   3.35047851
_cell_length_c   12.33979076
_cell_angle_alpha   90.00172402
_cell_angle_beta   89.99807374
_cell_angle_gamma   119.99899026
_symmetry_Int_Tables_number   1
_chemical_formula_structural   Ta2NiS4
_chemical_formula_sum   'Ta2 Ni1 S4'
_cell_volume   119.96566801
_cell_formula_units_Z   1
loop_
 _symmetry_equiv_pos_site_id
 _symmetry_equiv_pos_as_xyz
  1  'x, y, z'
loop_
 _atom_site_type_symbol
 _atom_site_label
 _atom_site_symmetry_multiplicity
 _atom_site_fract_x
 _atom_site_fract_y
 _atom_site_fract_z
 _atom_site_occupancy
  Ta  Ta0  1  0.99999915  -0.00000309  0.73932416  1
  Ta  Ta1  1  0.00000085  0.00000309  0.26067584  1
  Ni  Ni2  1  -0.00000000  -0.00000000  0.50000000  1
  S  S3  1  0.66668351  0.33332461  0.13512177  1
  S  S4  1  0.33331649  0.66667539  0.86487823  1
  S  S5  1  0.33335546  0.66664402  0.61296965  1
  S  S6  1  0.66664454  0.33335598  0.38703035  1
