# generated using pymatgen
data_Ti8Ni3(B4Ru9)2
_symmetry_space_group_name_H-M   'P 1'
_cell_length_a   2.97922640
_cell_length_b   17.52808814
_cell_length_c   17.52498436
_cell_angle_alpha   90.00000000
_cell_angle_beta   90.00000000
_cell_angle_gamma   90.00000000
_symmetry_Int_Tables_number   1
_chemical_formula_structural   Ti8Ni3(B4Ru9)2
_chemical_formula_sum   'Ti16 Ni6 B16 Ru36'
_cell_volume   915.15718809
_cell_formula_units_Z   2
loop_
 _symmetry_equiv_pos_site_id
 _symmetry_equiv_pos_as_xyz
  1  'x, y, z'
loop_
 _atom_site_type_symbol
 _atom_site_label
 _atom_site_symmetry_multiplicity
 _atom_site_fract_x
 _atom_site_fract_y
 _atom_site_fract_z
 _atom_site_occupancy
  Ti  Ti0  1  -0.00000000  0.68702959  0.53453118  1
  Ti  Ti1  1  0.00000000  0.31297041  0.46546882  1
  Ti  Ti2  1  0.00000000  0.81297041  0.03453118  1
  Ti  Ti3  1  -0.00000000  0.18702959  0.96546882  1
  Ti  Ti4  1  0.00000000  0.53451852  0.31292271  1
  Ti  Ti5  1  0.00000000  0.46548148  0.68707729  1
  Ti  Ti6  1  0.00000000  0.03451852  0.18707729  1
  Ti  Ti7  1  -0.00000000  0.96548148  0.81292271  1
  Ti  Ti8  1  0.00000000  0.80331079  0.30331638  1
  Ti  Ti9  1  -0.00000000  0.19668921  0.69668362  1
  Ti  Ti10  1  -0.00000000  0.69668921  0.80331638  1
  Ti  Ti11  1  0.00000000  0.30331079  0.19668362  1
  Ti  Ti12  1  -0.00000000  0.82923602  0.67074934  1
  Ti  Ti13  1  0.00000000  0.17076398  0.32925066  1
  Ti  Ti14  1  0.00000000  0.67076398  0.17074934  1
  Ti  Ti15  1  -0.00000000  0.32923602  0.82925066  1
  Ni  Ni16  1  0.00000000  0.95043796  0.54953393  1
  Ni  Ni17  1  0.00000000  0.04956204  0.45046607  1
  Ni  Ni18  1  -0.00000000  0.54956204  0.04953393  1
  Ni  Ni19  1  -0.00000000  0.45043796  0.95046607  1
  Ni  Ni20  1  0.00000000  0.50000000  0.50000000  1
  Ni  Ni21  1  -0.00000000  -0.00000000  -0.00000000  1
  B  B22  1  -0.00000000  0.83526548  0.46119098  1
  B  B23  1  0.00000000  0.16473452  0.53880902  1
  B  B24  1  -0.00000000  0.66473452  0.96119098  1
  B  B25  1  0.00000000  0.33526548  0.03880902  1
  B  B26  1  0.00000000  0.46124326  0.16471245  1
  B  B27  1  0.00000000  0.53875674  0.83528755  1
  B  B28  1  0.00000000  0.96124326  0.33528755  1
  B  B29  1  0.00000000  0.03875674  0.66471245  1
  B  B30  1  -0.00000000  0.66756499  0.37865050  1
  B  B31  1  -0.00000000  0.33243501  0.62134950  1
  B  B32  1  0.00000000  0.83243501  0.87865050  1
  B  B33  1  0.00000000  0.16756499  0.12134950  1
  B  B34  1  0.00000000  0.37870161  0.33246681  1
  B  B35  1  -0.00000000  0.62129839  0.66753319  1
  B  B36  1  0.00000000  0.87870161  0.16753319  1
  B  B37  1  -0.00000000  0.12129839  0.83246681  1
  Ru  Ru38  1  0.50000000  0.91587260  0.41581262  1
  Ru  Ru39  1  0.50000000  0.08412740  0.58418738  1
  Ru  Ru40  1  0.50000000  0.58412740  0.91581262  1
  Ru  Ru41  1  0.50000000  0.41587260  0.08418738  1
  Ru  Ru42  1  0.50000000  0.59523695  0.43119244  1
  Ru  Ru43  1  0.50000000  0.40476305  0.56880756  1
  Ru  Ru44  1  0.50000000  0.90476305  0.93119244  1
  Ru  Ru45  1  0.50000000  0.09523695  0.06880756  1
  Ru  Ru46  1  0.50000000  0.43117414  0.40473945  1
  Ru  Ru47  1  0.50000000  0.56882586  0.59526055  1
  Ru  Ru48  1  0.50000000  0.93117414  0.09526055  1
  Ru  Ru49  1  0.50000000  0.06882586  0.90473945  1
  Ru  Ru50  1  0.50000000  0.75192196  0.41893085  1
  Ru  Ru51  1  0.50000000  0.24807804  0.58106915  1
  Ru  Ru52  1  0.50000000  0.74807804  0.91893085  1
  Ru  Ru53  1  0.50000000  0.25192196  0.08106915  1
  Ru  Ru54  1  0.50000000  0.41890520  0.24810932  1
  Ru  Ru55  1  0.50000000  0.58109480  0.75189068  1
  Ru  Ru56  1  0.50000000  0.91890520  0.25189068  1
  Ru  Ru57  1  0.50000000  0.08109480  0.74810932  1
  Ru  Ru58  1  0.50000000  0.83033026  0.54989936  1
  Ru  Ru59  1  0.50000000  0.16966974  0.45010064  1
  Ru  Ru60  1  0.50000000  0.66966974  0.04989936  1
  Ru  Ru61  1  0.50000000  0.33033026  0.95010064  1
  Ru  Ru62  1  0.50000000  0.54987695  0.16969344  1
  Ru  Ru63  1  0.50000000  0.45012305  0.83030656  1
  Ru  Ru64  1  0.50000000  0.04987695  0.33030656  1
  Ru  Ru65  1  0.50000000  0.95012305  0.66969344  1
  Ru  Ru66  1  0.50000000  0.66718887  0.28861264  1
  Ru  Ru67  1  0.50000000  0.33281113  0.71138736  1
  Ru  Ru68  1  0.50000000  0.83281113  0.78861264  1
  Ru  Ru69  1  0.50000000  0.16718887  0.21138736  1
  Ru  Ru70  1  0.50000000  0.28862431  0.33284888  1
  Ru  Ru71  1  0.50000000  0.71137569  0.66715112  1
  Ru  Ru72  1  0.50000000  0.78862431  0.16715112  1
  Ru  Ru73  1  0.50000000  0.21137569  0.83284888  1
