# generated using pymatgen
data_Sm2Ti12(CuO4)9
_symmetry_space_group_name_H-M   'P 1'
_cell_length_a   6.46916586
_cell_length_b   10.52712822
_cell_length_c   10.52712822
_cell_angle_alpha   120.00000000
_cell_angle_beta   90.00000000
_cell_angle_gamma   90.00000000
_symmetry_Int_Tables_number   1
_chemical_formula_structural   Sm2Ti12(CuO4)9
_chemical_formula_sum   'Sm2 Ti12 Cu9 O36'
_cell_volume   620.86723693
_cell_formula_units_Z   1
loop_
 _symmetry_equiv_pos_site_id
 _symmetry_equiv_pos_as_xyz
  1  'x, y, z'
loop_
 _atom_site_type_symbol
 _atom_site_label
 _atom_site_symmetry_multiplicity
 _atom_site_fract_x
 _atom_site_fract_y
 _atom_site_fract_z
 _atom_site_occupancy
  Sm  Sm0  1  0.00417791  -0.00000000  -0.00000000  1
  Sm  Sm1  1  0.66248909  0.66666700  0.33333300  1
  Ti  Ti2  1  0.16997993  0.65141746  0.82422288  1
  Ti  Ti3  1  0.83333300  0.33333300  0.16666700  1
  Ti  Ti4  1  0.49668707  0.01524954  0.50911012  1
  Ti  Ti5  1  0.83333300  0.33333300  0.66666700  1
  Ti  Ti6  1  0.49325122  0.00000000  0.00000000  1
  Ti  Ti7  1  0.17341578  0.66666700  0.33333300  1
  Ti  Ti8  1  0.16997993  0.17280642  0.34858254  1
  Ti  Ti9  1  0.83333300  0.83333300  0.66666700  1
  Ti  Ti10  1  0.49668707  0.49386058  0.98475046  1
  Ti  Ti11  1  0.49668707  0.49088988  0.50613942  1
  Ti  Ti12  1  0.16997993  0.17577712  0.82719358  1
  Ti  Ti13  1  0.83333300  0.83333300  0.16666700  1
  Cu  Cu14  1  0.67124643  0.67000732  0.83493542  1
  Cu  Cu15  1  0.33333300  0.33333300  0.16666700  1
  Cu  Cu16  1  0.99542057  0.99665968  0.49839758  1
  Cu  Cu17  1  0.99542057  0.50160242  0.49826209  1
  Cu  Cu18  1  0.67124643  0.16506458  0.83507091  1
  Cu  Cu19  1  0.33333300  0.83333300  0.16666700  1
  Cu  Cu20  1  0.33333300  0.83333300  0.66666700  1
  Cu  Cu21  1  0.99542057  0.50173791  0.00334032  1
  Cu  Cu22  1  0.67124643  0.16492909  0.32999268  1
  O  O23  1  0.24487480  0.06392680  0.62227513  1
  O  O24  1  0.91983714  0.74271722  0.95925087  1
  O  O25  1  0.58354460  0.40845415  0.29214415  1
  O  O26  1  0.34908683  0.52563787  0.17540222  1
  O  O27  1  0.00292178  0.18522499  0.50186245  1
  O  O28  1  0.68584480  0.85986138  0.84249577  1
  O  O29  1  0.98082120  0.80680462  0.49083823  1
  O  O30  1  0.66374522  0.48144201  0.83147055  1
  O  O31  1  0.31758017  0.14102913  0.15793078  1
  O  O32  1  0.08312240  0.25821285  0.04118885  1
  O  O33  1  0.74682986  0.92394978  0.37408213  1
  O  O34  1  0.42179120  0.60273920  0.71105887  1
  O  O35  1  0.42179120  0.28894113  0.89168133  1
  O  O36  1  0.08312240  0.95881115  0.21702401  1
  O  O37  1  0.74682986  0.62591787  0.54986664  1
  O  O38  1  0.66374522  0.16852945  0.64997145  1
  O  O39  1  0.31758017  0.84206922  0.98309734  1
  O  O40  1  0.98082120  0.50916177  0.31596739  1
  O  O41  1  0.68584480  0.15750423  0.01736661  1
  O  O42  1  0.34908683  0.82459778  0.35023566  1
  O  O43  1  0.00292178  0.49813755  0.68336155  1
  O  O44  1  0.91983714  0.04074913  0.78346636  1
  O  O45  1  0.58354460  0.70785585  0.11630899  1
  O  O46  1  0.24487480  0.37772487  0.44165267  1
  O  O47  1  0.00292178  0.31663845  0.81477501  1
  O  O48  1  0.68584480  0.98263339  0.14013862  1
  O  O49  1  0.34908683  0.64976434  0.47436213  1
  O  O50  1  0.58354460  0.88369101  0.59154585  1
  O  O51  1  0.24487480  0.55834733  0.93607320  1
  O  O52  1  0.91983714  0.21653364  0.25728278  1
  O  O53  1  0.74682986  0.45013336  0.07605022  1
  O  O54  1  0.42179120  0.10831867  0.39726080  1
  O  O55  1  0.08312240  0.78297599  0.74178715  1
  O  O56  1  0.31758017  0.01690266  0.85897087  1
  O  O57  1  0.98082120  0.68403261  0.19319538  1
  O  O58  1  0.66374522  0.35002855  0.51855799  1
