# generated using pymatgen
data_Sm2Mn2Al2Fe13
_symmetry_space_group_name_H-M   'P 1'
_cell_length_a   6.43767575
_cell_length_b   6.42126744
_cell_length_c   6.43767575
_cell_angle_alpha   82.18301763
_cell_angle_beta   82.26804990
_cell_angle_gamma   82.18301763
_symmetry_Int_Tables_number   1
_chemical_formula_structural   Sm2Mn2Al2Fe13
_chemical_formula_sum   'Sm2 Mn2 Al2 Fe13'
_cell_volume   259.36614615
_cell_formula_units_Z   1
loop_
 _symmetry_equiv_pos_site_id
 _symmetry_equiv_pos_as_xyz
  1  'x, y, z'
loop_
 _atom_site_type_symbol
 _atom_site_label
 _atom_site_symmetry_multiplicity
 _atom_site_fract_x
 _atom_site_fract_y
 _atom_site_fract_z
 _atom_site_occupancy
  Sm  Sm0  1  0.65082003  0.64887180  0.65082003  1
  Sm  Sm1  1  0.34917997  0.35112820  0.34917997  1
  Mn  Mn2  1  0.50000000  0.00000000  0.00000000  1
  Mn  Mn3  1  0.00000000  0.00000000  0.50000000  1
  Al  Al4  1  0.89997360  0.89493278  0.89997360  1
  Al  Al5  1  0.10002640  0.10506722  0.10002640  1
  Fe  Fe6  1  0.34049794  0.84738804  0.34049794  1
  Fe  Fe7  1  0.84376475  0.34063030  0.33948692  1
  Fe  Fe8  1  0.33948692  0.34063030  0.84376475  1
  Fe  Fe9  1  0.65950206  0.15261196  0.65950206  1
  Fe  Fe10  1  0.15623525  0.65936970  0.66051308  1
  Fe  Fe11  1  0.66051308  0.65936970  0.15623525  1
  Fe  Fe12  1  0.70779736  -0.00000000  0.29220264  1
  Fe  Fe13  1  0.00141129  0.28776984  0.70922995  1
  Fe  Fe14  1  0.29077005  0.71223016  0.99858871  1
  Fe  Fe15  1  0.99858871  0.71223016  0.29077005  1
  Fe  Fe16  1  0.70922995  0.28776984  0.00141129  1
  Fe  Fe17  1  0.29220264  0.00000000  0.70779736  1
  Fe  Fe18  1  0.00000000  0.50000000  0.00000000  1
