# generated using pymatgen
data_Si3Au10
_symmetry_space_group_name_H-M   'P 1'
_cell_length_a   8.46649847
_cell_length_b   8.46649847
_cell_length_c   8.46649847
_cell_angle_alpha   70.52877937
_cell_angle_beta   70.52877937
_cell_angle_gamma   109.47122063
_symmetry_Int_Tables_number   1
_chemical_formula_structural   Si3Au10
_chemical_formula_sum   'Si6 Au20'
_cell_volume   467.18577602
_cell_formula_units_Z   2
loop_
 _symmetry_equiv_pos_site_id
 _symmetry_equiv_pos_as_xyz
  1  'x, y, z'
loop_
 _atom_site_type_symbol
 _atom_site_label
 _atom_site_symmetry_multiplicity
 _atom_site_fract_x
 _atom_site_fract_y
 _atom_site_fract_z
 _atom_site_occupancy
  Si  Si0  1  0.69738172  0.69738172  -0.00000000  1
  Si  Si1  1  0.69738172  0.00000000  0.30261828  1
  Si  Si2  1  -0.00000000  0.69738172  0.30261828  1
  Si  Si3  1  0.30261828  0.30261828  0.00000000  1
  Si  Si4  1  0.30261828  0.00000000  0.69738172  1
  Si  Si5  1  0.00000000  0.30261828  0.69738172  1
  Au  Au6  1  0.29343239  0.60539244  0.39460756  1
  Au  Au7  1  0.60539244  0.60539244  0.70656761  1
  Au  Au8  1  0.60539244  0.29343239  0.39460756  1
  Au  Au9  1  0.70656761  0.31196005  0.68803995  1
  Au  Au10  1  0.39460756  0.68803995  -0.00000000  1
  Au  Au11  1  0.39460756  0.00000000  0.31196005  1
  Au  Au12  1  -0.00000000  0.39460756  0.31196005  1
  Au  Au13  1  0.68803995  0.39460756  -0.00000000  1
  Au  Au14  1  0.31196005  0.70656761  0.68803995  1
  Au  Au15  1  -0.00000000  0.68803995  0.60539244  1
  Au  Au16  1  0.31196005  0.31196005  0.29343239  1
  Au  Au17  1  0.68803995  0.00000000  0.60539244  1
  Au  Au18  1  0.69288206  0.69288206  0.30711794  1
  Au  Au19  1  0.30711794  -0.00000000  0.00000000  1
  Au  Au20  1  -0.00000000  0.30711794  -0.00000000  1
  Au  Au21  1  0.00000000  0.00000000  0.69288206  1
  Au  Au22  1  0.32236459  0.32236459  0.67763541  1
  Au  Au23  1  0.67763541  -0.00000000  -0.00000000  1
  Au  Au24  1  0.00000000  0.67763541  -0.00000000  1
  Au  Au25  1  -0.00000000  0.00000000  0.32236459  1
