# generated using pymatgen
data_Sr2CeYCu2RuO10
_symmetry_space_group_name_H-M   'P 1'
_cell_length_a   3.86065930
_cell_length_b   3.86065930
_cell_length_c   14.89575215
_cell_angle_alpha   82.55414154
_cell_angle_beta   82.55414154
_cell_angle_gamma   90.00000000
_symmetry_Int_Tables_number   1
_chemical_formula_structural   Sr2CeYCu2RuO10
_chemical_formula_sum   'Sr2 Ce1 Y1 Cu2 Ru1 O10'
_cell_volume   218.25631986
_cell_formula_units_Z   1
loop_
 _symmetry_equiv_pos_site_id
 _symmetry_equiv_pos_as_xyz
  1  'x, y, z'
loop_
 _atom_site_type_symbol
 _atom_site_label
 _atom_site_symmetry_multiplicity
 _atom_site_fract_x
 _atom_site_fract_y
 _atom_site_fract_z
 _atom_site_occupancy
  Sr  Sr0  1  0.58005969  0.58005969  0.83988062  1
  Sr  Sr1  1  0.42309331  0.42309331  0.15381338  1
  Ce  Ce2  1  0.29288575  0.29288575  0.41422850  1
  Y  Y3  1  0.70533263  0.70533263  0.58933473  1
  Cu  Cu4  1  0.14450207  0.14450207  0.71099586  1
  Cu  Cu5  1  0.85610165  0.85610165  0.28779670  1
  Ru  Ru6  1  0.00002938  0.00002938  -0.00005875  1
  O  O7  1  0.06892397  0.06892397  0.86215206  1
  O  O8  1  0.93021128  0.93021128  0.13957745  1
  O  O9  1  0.65252547  0.15252547  0.69494905  1
  O  O10  1  0.15252547  0.65252547  0.69494905  1
  O  O11  1  0.34679907  0.84679907  0.30640187  1
  O  O12  1  0.84679907  0.34679907  0.30640187  1
  O  O13  1  0.75058584  0.25058584  0.49882833  1
  O  O14  1  0.25058584  0.75058584  0.49882833  1
  O  O15  1  0.49951976  0.99951976  0.00096048  1
  O  O16  1  0.99951976  0.49951976  0.00096048  1
