# generated using pymatgen
data_Sr8Cu(WO6)3
_symmetry_space_group_name_H-M   'P 1'
_cell_length_a   5.96010901
_cell_length_b   15.81446161
_cell_length_c   10.41704182
_cell_angle_alpha   109.16934088
_cell_angle_beta   90.01595348
_cell_angle_gamma   100.79198220
_symmetry_Int_Tables_number   1
_chemical_formula_structural   Sr8Cu(WO6)3
_chemical_formula_sum   'Sr16 Cu2 W6 O36'
_cell_volume   909.00190535
_cell_formula_units_Z   2
loop_
 _symmetry_equiv_pos_site_id
 _symmetry_equiv_pos_as_xyz
  1  'x, y, z'
loop_
 _atom_site_type_symbol
 _atom_site_label
 _atom_site_symmetry_multiplicity
 _atom_site_fract_x
 _atom_site_fract_y
 _atom_site_fract_z
 _atom_site_occupancy
  Sr  Sr0  1  0.46417593  0.93355723  0.15468594  1
  Sr  Sr1  1  0.12522877  0.25393644  0.14371248  1
  Sr  Sr2  1  0.79622342  0.58003754  0.15092165  1
  Sr  Sr3  1  0.54664170  0.09979772  0.94395430  1
  Sr  Sr4  1  0.21553656  0.43436161  0.95678572  1
  Sr  Sr5  1  0.88460085  0.75962444  0.91302103  1
  Sr  Sr6  1  0.03873423  0.09259050  0.35777718  1
  Sr  Sr7  1  0.70555929  0.40625421  0.34884190  1
  Sr  Sr8  1  0.37546088  0.73366946  0.34776936  1
  Sr  Sr9  1  0.95593751  0.92674584  0.66122404  1
  Sr  Sr10  1  0.63803788  0.25959256  0.66210768  1
  Sr  Sr11  1  0.28919722  0.58726355  0.65518136  1
  Sr  Sr12  1  0.92067988  0.83837330  0.26428282  1
  Sr  Sr13  1  0.74727671  0.49903376  0.75213425  1
  Sr  Sr14  1  0.41643369  0.83439695  0.74752530  1
  Sr  Sr15  1  0.08549950  0.16599109  0.74739654  1
  Cu  Cu16  1  0.59422037  0.18444130  0.32510872  1
  Cu  Cu17  1  0.26429565  0.51190375  0.32563210  1
  W  W18  1  0.49234193  0.00159829  0.49765879  1
  W  W19  1  0.17009480  0.33165250  0.49319003  1
  W  W20  1  0.83514121  0.66191152  0.49682433  1
  W  W21  1  0.33647671  0.66715222  0.99673029  1
  W  W22  1  0.99702037  0.00118527  0.00048966  1
  W  W23  1  0.66436775  0.33339724  0.00432410  1
  O  O24  1  0.58891824  0.89530853  0.36324759  1
  O  O25  1  0.31732863  0.23299936  0.35771369  1
  O  O26  1  0.97792705  0.55529170  0.37837158  1
  O  O27  1  0.21689886  0.96822445  0.37440388  1
  O  O28  1  0.88531546  0.27223425  0.35778228  1
  O  O29  1  0.54823913  0.60370990  0.36301343  1
  O  O30  1  0.62018702  0.07767525  0.36755787  1
  O  O31  1  0.26676648  0.39858870  0.36095802  1
  O  O32  1  0.95191266  0.72034979  0.36317514  1
  O  O33  1  0.39309242  0.10928374  0.60840288  1
  O  O34  1  0.02955804  0.42870260  0.59144609  1
  O  O35  1  0.69889554  0.76472417  0.58565573  1
  O  O36  1  0.79667688  0.03917694  0.58572597  1
  O  O37  1  0.45839818  0.37447445  0.59122522  1
  O  O38  1  0.11215079  0.70757817  0.60808567  1
  O  O39  1  0.36243610  0.92803998  0.60095649  1
  O  O40  1  0.04577260  0.24917909  0.58434134  1
  O  O41  1  0.69839707  0.58746290  0.59940364  1
  O  O42  1  0.43708398  0.55738398  0.87789655  1
  O  O43  1  0.11227039  0.89525417  0.87554567  1
  O  O44  1  0.78465003  0.22940808  0.88197723  1
  O  O45  1  0.05258348  0.62364869  0.87613948  1
  O  O46  1  0.71557649  0.95844075  0.87561881  1
  O  O47  1  0.38387522  0.29288082  0.88115182  1
  O  O48  1  0.79758254  0.40465887  0.88650646  1
  O  O49  1  0.46622673  0.73046171  0.87052931  1
  O  O50  1  0.12538991  0.06974565  0.88055653  1
  O  O51  1  0.86216869  0.09969681  0.11203939  1
  O  O52  1  0.53043661  0.43325056  0.11902642  1
  O  O53  1  0.21204351  0.77275032  0.10432077  1
  O  O54  1  0.27899890  0.04872806  0.11199477  1
  O  O55  1  0.94780625  0.38215363  0.11888966  1
  O  O56  1  0.62812182  0.70999213  0.10651393  1
  O  O57  1  0.54731499  0.25872945  0.11235598  1
  O  O58  1  0.21561090  0.59934017  0.11520369  1
  O  O59  1  0.87420561  0.92200387  0.10498745  1
