# generated using pymatgen
data_SmBeCu4
_symmetry_space_group_name_H-M   'P 1'
_cell_length_a   3.86219678
_cell_length_b   5.12231470
_cell_length_c   5.12242583
_cell_angle_alpha   60.02314488
_cell_angle_beta   90.00000000
_cell_angle_gamma   90.00000000
_symmetry_Int_Tables_number   1
_chemical_formula_structural   SmBeCu4
_chemical_formula_sum   'Sm1 Be1 Cu4'
_cell_volume   87.78255249
_cell_formula_units_Z   1
loop_
 _symmetry_equiv_pos_site_id
 _symmetry_equiv_pos_as_xyz
  1  'x, y, z'
loop_
 _atom_site_type_symbol
 _atom_site_label
 _atom_site_symmetry_multiplicity
 _atom_site_fract_x
 _atom_site_fract_y
 _atom_site_fract_z
 _atom_site_occupancy
  Sm  Sm0  1  0.00000000  0.99996929  0.00001719  1
  Be  Be1  1  0.00000000  0.33334354  0.33341105  1
  Cu  Cu2  1  0.00000000  0.66663791  0.66668187  1
  Cu  Cu3  1  0.50000000  0.49490330  0.49491869  1
  Cu  Cu4  1  0.50000000  0.49489323  0.01015735  1
  Cu  Cu5  1  0.50000000  0.01015273  0.49491384  1
