# generated using pymatgen
data_SmMo6(SeS)4
_symmetry_space_group_name_H-M   'P 1'
_cell_length_a   6.69670611
_cell_length_b   6.62955743
_cell_length_c   6.68298229
_cell_angle_alpha   88.69043320
_cell_angle_beta   92.38142824
_cell_angle_gamma   91.54913966
_symmetry_Int_Tables_number   1
_chemical_formula_structural   SmMo6(SeS)4
_chemical_formula_sum   'Sm1 Mo6 Se4 S4'
_cell_volume   296.26426174
_cell_formula_units_Z   1
loop_
 _symmetry_equiv_pos_site_id
 _symmetry_equiv_pos_as_xyz
  1  'x, y, z'
loop_
 _atom_site_type_symbol
 _atom_site_label
 _atom_site_symmetry_multiplicity
 _atom_site_fract_x
 _atom_site_fract_y
 _atom_site_fract_z
 _atom_site_occupancy
  Sm  Sm0  1  0.98338431  0.99911884  0.98085396  1
  Mo  Mo1  1  0.42862047  0.43411798  0.76968494  1
  Mo  Mo2  1  0.23357141  0.57614844  0.43995508  1
  Mo  Mo3  1  0.56526496  0.77362555  0.58135539  1
  Mo  Mo4  1  0.57489264  0.56428504  0.23260374  1
  Mo  Mo5  1  0.77237918  0.42199333  0.56683375  1
  Mo  Mo6  1  0.43712984  0.22436994  0.42529542  1
  Se  Se7  1  0.23621145  0.36703292  0.11863050  1
  Se  Se8  1  0.88093407  0.76541746  0.37344397  1
  Se  Se9  1  0.24538806  0.76322009  0.76630985  1
  Se  Se10  1  0.75768855  0.23589314  0.23986586  1
  S  S11  1  0.37262598  0.86898694  0.25969661  1
  S  S12  1  0.74690362  0.62511077  0.87441451  1
  S  S13  1  0.13291168  0.25295009  0.62489837  1
  S  S14  1  0.63209376  0.12772948  0.74615806  1
