# generated using pymatgen
data_Sr3Ti2Mn2BiO12
_symmetry_space_group_name_H-M   'P 1'
_cell_length_a   5.55252665
_cell_length_b   5.55252665
_cell_length_c   9.57145495
_cell_angle_alpha   73.13865759
_cell_angle_beta   106.86134241
_cell_angle_gamma   120.00000000
_symmetry_Int_Tables_number   1
_chemical_formula_structural   Sr3Ti2Mn2BiO12
_chemical_formula_sum   'Sr3 Ti2 Mn2 Bi1 O12'
_cell_volume   240.79810868
_cell_formula_units_Z   1
loop_
 _symmetry_equiv_pos_site_id
 _symmetry_equiv_pos_as_xyz
  1  'x, y, z'
loop_
 _atom_site_type_symbol
 _atom_site_label
 _atom_site_symmetry_multiplicity
 _atom_site_fract_x
 _atom_site_fract_y
 _atom_site_fract_z
 _atom_site_occupancy
  Sr  Sr0  1  0.62373700  0.37626300  0.87121101  1
  Sr  Sr1  1  0.37500000  0.62500000  0.12500000  1
  Sr  Sr2  1  0.12626300  0.87373700  0.37878899  1
  Ti  Ti3  1  0.99958463  0.00041537  0.99875389  1
  Ti  Ti4  1  0.75041537  0.24958463  0.25124611  1
  Mn  Mn5  1  0.50029594  0.49970406  0.50088781  1
  Mn  Mn6  1  0.24970406  0.75029594  0.74911219  1
  Bi  Bi7  1  0.87500000  0.12500000  0.62500000  1
  O  O8  1  0.62787558  0.87857073  0.87073411  1
  O  O9  1  0.87500000  0.62500000  0.62500000  1
  O  O10  1  0.37500000  0.12500000  0.12500000  1
  O  O11  1  0.12212442  0.37142927  0.37926589  1
  O  O12  1  0.37500000  0.12500000  0.62500000  1
  O  O13  1  0.62857073  0.87787558  0.37926589  1
  O  O14  1  0.12142927  0.37212442  0.87073411  1
  O  O15  1  0.87500000  0.62500000  0.12500000  1
  O  O16  1  0.37500000  0.62500000  0.62500000  1
  O  O17  1  0.62857073  0.37142927  0.37926589  1
  O  O18  1  0.12142927  0.87857073  0.87073411  1
  O  O19  1  0.87500000  0.12500000  0.12500000  1
