# generated using pymatgen
data_Sr3Pr3Mn2Cu2O13
_symmetry_space_group_name_H-M   'P 1'
_cell_length_a   5.46050634
_cell_length_b   5.46648153
_cell_length_c   10.54727067
_cell_angle_alpha   90.00000000
_cell_angle_beta   74.99764980
_cell_angle_gamma   90.00000000
_symmetry_Int_Tables_number   1
_chemical_formula_structural   Sr3Pr3Mn2Cu2O13
_chemical_formula_sum   'Sr3 Pr3 Mn2 Cu2 O13'
_cell_volume   304.10243411
_cell_formula_units_Z   1
loop_
 _symmetry_equiv_pos_site_id
 _symmetry_equiv_pos_as_xyz
  1  'x, y, z'
loop_
 _atom_site_type_symbol
 _atom_site_label
 _atom_site_symmetry_multiplicity
 _atom_site_fract_x
 _atom_site_fract_y
 _atom_site_fract_z
 _atom_site_occupancy
  Sr  Sr0  1  0.31713606  0.00000000  0.36572788  1
  Sr  Sr1  1  0.99850948  0.50000000  0.00298103  1
  Sr  Sr2  1  0.49711655  -0.00000000  0.00576691  1
  Pr  Pr3  1  0.82170360  0.50000000  0.35659281  1
  Pr  Pr4  1  0.68041586  -0.00000000  0.63916828  1
  Pr  Pr5  1  0.17943163  0.50000000  0.64113674  1
  Mn  Mn6  1  0.09440113  -0.00000000  0.81119773  1
  Mn  Mn7  1  0.90539359  0.00000000  0.18921281  1
  Cu  Cu8  1  0.59678885  0.50000000  0.80642230  1
  Cu  Cu9  1  0.40109348  0.50000000  0.19781305  1
  O  O10  1  0.19421458  0.00000000  0.61157085  1
  O  O11  1  0.70843820  0.50000000  0.58312360  1
  O  O12  1  0.29043918  0.50000000  0.41912165  1
  O  O13  1  0.79823567  -0.00000000  0.40352865  1
  O  O14  1  0.35066565  0.24910728  0.80450590  1
  O  O15  1  0.84482846  0.75089272  0.80450590  1
  O  O16  1  0.84482846  0.24910728  0.80450590  1
  O  O17  1  0.35066565  0.75089272  0.80450590  1
  O  O18  1  0.15417282  0.25615613  0.18808231  1
  O  O19  1  0.65774486  0.74384387  0.18808231  1
  O  O20  1  0.65774486  0.25615613  0.18808231  1
  O  O21  1  0.15417282  0.74384387  0.18808231  1
  O  O22  1  0.00185857  0.00000000  0.99628286  1
