# generated using pymatgen
data_K3Fe(CN)6
_symmetry_space_group_name_H-M   'P 1'
_cell_length_a   8.39330572
_cell_length_b   10.41579497
_cell_length_c   13.44090379
_cell_angle_alpha   90.00000000
_cell_angle_beta   90.00000000
_cell_angle_gamma   90.00000000
_symmetry_Int_Tables_number   1
_chemical_formula_structural   K3Fe(CN)6
_chemical_formula_sum   'K12 Fe4 C24 N24'
_cell_volume   1175.04348015
_cell_formula_units_Z   4
loop_
 _symmetry_equiv_pos_site_id
 _symmetry_equiv_pos_as_xyz
  1  'x, y, z'
loop_
 _atom_site_type_symbol
 _atom_site_label
 _atom_site_symmetry_multiplicity
 _atom_site_fract_x
 _atom_site_fract_y
 _atom_site_fract_z
 _atom_site_occupancy
  K  K0  1  0.62652538  0.00000000  0.25000000  1
  K  K1  1  0.12587951  0.26981752  0.99870466  1
  K  K2  1  0.62587951  0.23018248  0.99870466  1
  K  K3  1  0.37347462  0.00000000  0.75000000  1
  K  K4  1  0.87412049  0.73018248  0.00129534  1
  K  K5  1  0.37412049  0.76981752  0.00129534  1
  K  K6  1  0.62587951  0.76981752  0.50129534  1
  K  K7  1  0.12652538  0.50000000  0.25000000  1
  K  K8  1  0.87347462  0.50000000  0.75000000  1
  K  K9  1  0.37412049  0.23018248  0.49870466  1
  K  K10  1  0.12587951  0.73018248  0.50129534  1
  K  K11  1  0.87412049  0.26981752  0.49870466  1
  Fe  Fe12  1  0.37658787  0.50000000  0.75000000  1
  Fe  Fe13  1  0.62341213  0.50000000  0.25000000  1
  Fe  Fe14  1  0.87658787  0.00000000  0.75000000  1
  Fe  Fe15  1  0.12341213  0.00000000  0.25000000  1
  C  C16  1  0.37630811  0.66703803  0.68961895  1
  C  C17  1  0.53626184  0.55405952  0.84416577  1
  C  C18  1  0.53626184  0.44594048  0.65583423  1
  C  C19  1  0.96373816  0.05405952  0.15583423  1
  C  C20  1  0.78576320  0.44791103  0.15765790  1
  C  C21  1  0.12369189  0.16703803  0.31038105  1
  C  C22  1  0.78576320  0.55208897  0.34234210  1
  C  C23  1  0.21423680  0.44791103  0.65765790  1
  C  C24  1  0.71423680  0.05208897  0.65765790  1
  C  C25  1  0.21423680  0.55208897  0.84234210  1
  C  C26  1  0.71423680  0.94791103  0.84234210  1
  C  C27  1  0.03626184  0.05405952  0.65583423  1
  C  C28  1  0.46373816  0.55405952  0.34416577  1
  C  C29  1  0.03626184  0.94594048  0.84416577  1
  C  C30  1  0.37630811  0.33296197  0.81038105  1
  C  C31  1  0.62369189  0.33296197  0.31038105  1
  C  C32  1  0.46373816  0.44594048  0.15583423  1
  C  C33  1  0.28576320  0.94791103  0.34234210  1
  C  C34  1  0.87630811  0.16703803  0.81038105  1
  C  C35  1  0.28576320  0.05208897  0.15765790  1
  C  C36  1  0.62369189  0.66703803  0.18961895  1
  C  C37  1  0.12369189  0.83296197  0.18961895  1
  C  C38  1  0.87630811  0.83296197  0.68961895  1
  C  C39  1  0.96373816  0.94594048  0.34416577  1
  N  N40  1  0.37976536  0.23183259  0.84950882  1
  N  N41  1  0.38692540  0.08358990  0.10204232  1
  N  N42  1  0.13644833  0.08797316  0.60034668  1
  N  N43  1  0.87976536  0.26816741  0.84950882  1
  N  N44  1  0.88692540  0.58358990  0.39795768  1
  N  N45  1  0.88692540  0.41641010  0.10204232  1
  N  N46  1  0.36355167  0.58797316  0.39965332  1
  N  N47  1  0.63644833  0.41202684  0.60034668  1
  N  N48  1  0.38692540  0.91641010  0.39795768  1
  N  N49  1  0.12023464  0.73183259  0.15049118  1
  N  N50  1  0.87976536  0.73183259  0.65049118  1
  N  N51  1  0.13644833  0.91202684  0.89965332  1
  N  N52  1  0.61307460  0.91641010  0.89795768  1
  N  N53  1  0.36355167  0.41202684  0.10034668  1
  N  N54  1  0.86355167  0.08797316  0.10034668  1
  N  N55  1  0.86355167  0.91202684  0.39965332  1
  N  N56  1  0.11307460  0.41641010  0.60204232  1
  N  N57  1  0.11307460  0.58358990  0.89795768  1
  N  N58  1  0.37976536  0.76816741  0.65049118  1
  N  N59  1  0.12023464  0.26816741  0.34950882  1
  N  N60  1  0.62023464  0.23183259  0.34950882  1
  N  N61  1  0.61307460  0.08358990  0.60204232  1
  N  N62  1  0.62023464  0.76816741  0.15049118  1
  N  N63  1  0.63644833  0.58797316  0.89965332  1
