# generated using pymatgen
data_PrThUS5
_symmetry_space_group_name_H-M   'P 1'
_cell_length_a   7.48865309
_cell_length_b   8.07899656
_cell_length_c   12.04446597
_cell_angle_alpha   90.00000000
_cell_angle_beta   90.00000000
_cell_angle_gamma   90.00000000
_symmetry_Int_Tables_number   1
_chemical_formula_structural   PrThUS5
_chemical_formula_sum   'Pr4 Th4 U4 S20'
_cell_volume   728.69985751
_cell_formula_units_Z   4
loop_
 _symmetry_equiv_pos_site_id
 _symmetry_equiv_pos_as_xyz
  1  'x, y, z'
loop_
 _atom_site_type_symbol
 _atom_site_label
 _atom_site_symmetry_multiplicity
 _atom_site_fract_x
 _atom_site_fract_y
 _atom_site_fract_z
 _atom_site_occupancy
  Pr  Pr0  1  0.97656689  0.00086167  0.17982567  1
  Pr  Pr1  1  0.52343311  0.49913833  0.67982567  1
  Pr  Pr2  1  0.02343311  0.50086167  0.82017433  1
  Pr  Pr3  1  0.47656689  0.99913833  0.32017433  1
  Th  Th4  1  0.02281181  0.00063461  0.82375918  1
  Th  Th5  1  0.47718819  0.49936539  0.32375918  1
  Th  Th6  1  0.97718819  0.50063461  0.17624082  1
  Th  Th7  1  0.52281181  0.99936539  0.67624082  1
  U  U8  1  0.42917684  0.74881514  0.00596512  1
  U  U9  1  0.07082316  0.75118486  0.50596512  1
  U  U10  1  0.57082316  0.24881514  0.99403488  1
  U  U11  1  0.92917684  0.25118486  0.49403488  1
  S  S12  1  0.66212722  0.54057822  0.90437149  1
  S  S13  1  0.83787278  0.95942178  0.40437149  1
  S  S14  1  0.33787278  0.04057822  0.09562851  1
  S  S15  1  0.16212722  0.45942178  0.59562851  1
  S  S16  1  0.33577919  0.45825104  0.10068617  1
  S  S17  1  0.16422081  0.04174896  0.60068617  1
  S  S18  1  0.66422081  0.95825104  0.89931383  1
  S  S19  1  0.83577919  0.54174896  0.39931383  1
  S  S20  1  0.30234386  0.75765840  0.78546061  1
  S  S21  1  0.19765614  0.74234160  0.28546061  1
  S  S22  1  0.69765614  0.25765840  0.21453939  1
  S  S23  1  0.80234386  0.24234160  0.71453939  1
  S  S24  1  0.67062425  0.74134154  0.18650821  1
  S  S25  1  0.82937575  0.75865846  0.68650821  1
  S  S26  1  0.32937575  0.24134154  0.81349179  1
  S  S27  1  0.17062425  0.25865846  0.31349179  1
  S  S28  1  0.04106640  0.75042883  0.00052381  1
  S  S29  1  0.45893360  0.74957117  0.50052381  1
  S  S30  1  0.95893360  0.25042883  0.99947619  1
  S  S31  1  0.54106640  0.24957117  0.49947619  1
