# generated using pymatgen
data_Si16O32F
_symmetry_space_group_name_H-M   'P 1'
_cell_length_a   7.58846857
_cell_length_b   14.22452834
_cell_length_c   18.34943154
_cell_angle_alpha   90.00000000
_cell_angle_beta   90.00000000
_cell_angle_gamma   99.36900124
_symmetry_Int_Tables_number   1
_chemical_formula_structural   Si16O32F
_chemical_formula_sum   'Si32 O64 F2'
_cell_volume   1954.25989191
_cell_formula_units_Z   2
loop_
 _symmetry_equiv_pos_site_id
 _symmetry_equiv_pos_as_xyz
  1  'x, y, z'
loop_
 _atom_site_type_symbol
 _atom_site_label
 _atom_site_symmetry_multiplicity
 _atom_site_fract_x
 _atom_site_fract_y
 _atom_site_fract_z
 _atom_site_occupancy
  Si  Si0  1  0.94401859  0.08993629  0.16435141  1
  Si  Si1  1  0.05598141  0.41006371  0.66435141  1
  Si  Si2  1  0.05425033  0.91014790  0.83643415  1
  Si  Si3  1  0.94574967  0.58985210  0.33643415  1
  Si  Si4  1  0.39626635  0.14303608  0.00280872  1
  Si  Si5  1  0.60373365  0.35696392  0.50280872  1
  Si  Si6  1  0.60344628  0.85646032  0.99669072  1
  Si  Si7  1  0.39655372  0.64353968  0.49669072  1
  Si  Si8  1  0.32016384  0.20690393  0.16104395  1
  Si  Si9  1  0.67983616  0.29309607  0.66104395  1
  Si  Si10  1  0.67861754  0.79040442  0.83740140  1
  Si  Si11  1  0.32138246  0.70959558  0.33740140  1
  Si  Si12  1  0.67931460  0.27382471  0.34965613  1
  Si  Si13  1  0.32068540  0.22617529  0.84965613  1
  Si  Si14  1  0.32078205  0.73010654  0.65025886  1
  Si  Si15  1  0.67921795  0.76989346  0.15025886  1
  Si  Si16  1  0.42613024  0.89546907  0.23041102  1
  Si  Si17  1  0.57386976  0.60453093  0.73041102  1
  Si  Si18  1  0.58277548  0.11898119  0.75511079  1
  Si  Si19  1  0.41722452  0.38101881  0.25511079  1
  Si  Si20  1  0.05616541  0.88470444  0.14998844  1
  Si  Si21  1  0.94383459  0.61529556  0.64998844  1
  Si  Si22  1  0.93945111  0.11435315  0.85042776  1
  Si  Si23  1  0.06054889  0.38564685  0.35042776  1
  Si  Si24  1  0.58405174  0.09800667  0.25569555  1
  Si  Si25  1  0.41594826  0.40199333  0.75569555  1
  Si  Si26  1  0.41465416  0.90217900  0.74619475  1
  Si  Si27  1  0.58534584  0.59782100  0.24619475  1
  Si  Si28  1  0.77732402  0.07589592  0.00793918  1
  Si  Si29  1  0.22267598  0.42410408  0.50793918  1
  Si  Si30  1  0.22323314  0.92400045  0.99259621  1
  Si  Si31  1  0.77676686  0.57599955  0.49259621  1
  O  O32  1  0.77751857  0.09909696  0.21725923  1
  O  O33  1  0.22248143  0.40090304  0.71725923  1
  O  O34  1  0.22130533  0.90043634  0.78377217  1
  O  O35  1  0.77869467  0.59956366  0.28377217  1
  O  O36  1  0.49033185  0.99135649  0.28093150  1
  O  O37  1  0.50966815  0.50864351  0.78093150  1
  O  O38  1  0.51257200  0.00974870  0.72968124  1
  O  O39  1  0.48742800  0.49025130  0.22968124  1
  O  O40  1  0.99712282  0.98435187  0.17440702  1
  O  O41  1  0.00287718  0.51564813  0.67440702  1
  O  O42  1  0.00093737  0.01490737  0.82530737  1
  O  O43  1  0.99906263  0.48509263  0.32530737  1
  O  O44  1  0.33790227  0.19782286  0.07374622  1
  O  O45  1  0.66209773  0.30217714  0.57374622  1
  O  O46  1  0.65997613  0.79960474  0.92539266  1
  O  O47  1  0.34002387  0.70039526  0.42539266  1
  O  O48  1  0.58467328  0.83220223  0.20903116  1
  O  O49  1  0.41532672  0.66779777  0.70903116  1
  O  O50  1  0.42323809  0.15705187  0.79944768  1
  O  O51  1  0.57676191  0.34294813  0.29944768  1
  O  O52  1  0.62867453  0.28926345  0.43390689  1
  O  O53  1  0.37132547  0.21073655  0.93390689  1
  O  O54  1  0.37390568  0.71081437  0.56673603  1
  O  O55  1  0.62609432  0.78918563  0.06673603  1
  O  O56  1  0.37073901  0.31934166  0.18118373  1
  O  O57  1  0.62926099  0.18065834  0.68118373  1
  O  O58  1  0.62649258  0.67938418  0.80940492  1
  O  O59  1  0.37350742  0.82061582  0.30940492  1
  O  O60  1  0.11492268  0.16915802  0.18684588  1
  O  O61  1  0.88507732  0.33084198  0.68684588  1
  O  O62  1  0.88383083  0.82995480  0.81345166  1
  O  O63  1  0.11616917  0.67004520  0.31345166  1
  O  O64  1  0.73014100  0.95964279  0.00490763  1
  O  O65  1  0.26985900  0.54035721  0.50490763  1
  O  O66  1  0.27048080  0.03940485  0.99358218  1
  O  O67  1  0.72951920  0.46059515  0.49358218  1
  O  O68  1  0.21633501  0.86199156  0.20292879  1
  O  O69  1  0.78366499  0.63800844  0.70292879  1
  O  O70  1  0.76239528  0.12825283  0.80470418  1
  O  O71  1  0.23760472  0.37174717  0.30470418  1
  O  O72  1  0.89652073  0.10762261  0.07966723  1
  O  O73  1  0.10347927  0.39237739  0.57966723  1
  O  O74  1  0.10332964  0.89215785  0.92078864  1
  O  O75  1  0.89667036  0.60784215  0.42078864  1
  O  O76  1  0.89346973  0.79660887  0.16192187  1
  O  O77  1  0.10653027  0.70339113  0.66192187  1
  O  O78  1  0.10514174  0.20038853  0.83604773  1
  O  O79  1  0.89485826  0.29961147  0.33604773  1
  O  O80  1  0.60197571  0.12690674  0.00962500  1
  O  O81  1  0.39802429  0.37309326  0.50962500  1
  O  O82  1  0.39808105  0.87223498  0.98855604  1
  O  O83  1  0.60191895  0.62776502  0.48855604  1
  O  O84  1  0.45611295  0.14705301  0.20143882  1
  O  O85  1  0.54388705  0.35294699  0.70143882  1
  O  O86  1  0.54306068  0.85382642  0.80073074  1
  O  O87  1  0.45693932  0.64617358  0.30073074  1
  O  O88  1  0.10680323  0.88641455  0.06407297  1
  O  O89  1  0.89319677  0.61358545  0.56407297  1
  O  O90  1  0.89445666  0.11271040  0.93676264  1
  O  O91  1  0.10554334  0.38728960  0.43676264  1
  O  O92  1  0.61522669  0.16236324  0.32957739  1
  O  O93  1  0.38477331  0.33763676  0.82957739  1
  O  O94  1  0.38668436  0.84202296  0.67009704  1
  O  O95  1  0.61331564  0.65797704  0.17009704  1
  F  F96  1  0.46939384  0.95821653  0.14977668  1
  F  F97  1  0.53060616  0.54178347  0.64977668  1
