# generated using pymatgen
data_Nd2Mn22C3
_symmetry_space_group_name_H-M   'P 1'
_cell_length_a   6.45103948
_cell_length_b   7.71663295
_cell_length_c   7.75354351
_cell_angle_alpha   99.12299777
_cell_angle_beta   114.94284139
_cell_angle_gamma   65.65309015
_symmetry_Int_Tables_number   1
_chemical_formula_structural   Nd2Mn22C3
_chemical_formula_sum   'Nd2 Mn22 C3'
_cell_volume   318.79433677
_cell_formula_units_Z   1
loop_
 _symmetry_equiv_pos_site_id
 _symmetry_equiv_pos_as_xyz
  1  'x, y, z'
loop_
 _atom_site_type_symbol
 _atom_site_label
 _atom_site_symmetry_multiplicity
 _atom_site_fract_x
 _atom_site_fract_y
 _atom_site_fract_z
 _atom_site_occupancy
  Nd  Nd0  1  0.37480395  0.74836245  0.24836245  1
  Nd  Nd1  1  0.62519605  0.25163755  0.75163755  1
  Mn  Mn2  1  -0.00000000  0.50000000  -0.00000000  1
  Mn  Mn3  1  -0.00000000  0.50000000  0.50000000  1
  Mn  Mn4  1  0.50000000  -0.00000000  -0.00000000  1
  Mn  Mn5  1  -0.00000000  -0.00000000  0.50000000  1
  Mn  Mn6  1  0.13035890  0.24970874  0.74970874  1
  Mn  Mn7  1  0.86964110  0.75029126  0.25029126  1
  Mn  Mn8  1  0.17623850  0.17768489  0.41776117  1
  Mn  Mn9  1  0.43616222  0.91776117  0.67768489  1
  Mn  Mn10  1  0.85332142  0.82283395  0.92070643  1
  Mn  Mn11  1  0.25544894  0.42070643  0.32283395  1
  Mn  Mn12  1  0.18617682  0.57475533  0.82866769  1
  Mn  Mn13  1  0.43226446  0.32866769  0.07475533  1
  Mn  Mn14  1  0.84940682  0.08783813  0.17255213  1
  Mn  Mn15  1  0.26469282  0.67255213  0.58783813  1
  Mn  Mn16  1  0.82376150  0.82231511  0.58223883  1
  Mn  Mn17  1  0.56383778  0.08223883  0.32231511  1
  Mn  Mn18  1  0.14667858  0.17716605  0.07929357  1
  Mn  Mn19  1  0.74455106  0.57929357  0.67716605  1
  Mn  Mn20  1  0.81382318  0.42524467  0.17133231  1
  Mn  Mn21  1  0.56773554  0.67133231  0.92524467  1
  Mn  Mn22  1  0.15059318  0.91216187  0.82744787  1
  Mn  Mn23  1  0.73530718  0.32744787  0.41216187  1
  C  C24  1  0.50000000  0.50000000  0.50000000  1
  C  C25  1  -0.00000000  -0.00000000  -0.00000000  1
  C  C26  1  0.50000000  -0.00000000  0.50000000  1
