# generated using pymatgen
data_NbAlO4
_symmetry_space_group_name_H-M   'P 1'
_cell_length_a   3.81308295
_cell_length_b   6.29463756
_cell_length_c   6.68002085
_cell_angle_alpha   104.99534477
_cell_angle_beta   90.00000023
_cell_angle_gamma   72.36913194
_symmetry_Int_Tables_number   1
_chemical_formula_structural   NbAlO4
_chemical_formula_sum   'Nb2 Al2 O8'
_cell_volume   147.06323367
_cell_formula_units_Z   2
loop_
 _symmetry_equiv_pos_site_id
 _symmetry_equiv_pos_as_xyz
  1  'x, y, z'
loop_
 _atom_site_type_symbol
 _atom_site_label
 _atom_site_symmetry_multiplicity
 _atom_site_fract_x
 _atom_site_fract_y
 _atom_site_fract_z
 _atom_site_occupancy
  Nb  Nb0  1  0.19118806  0.61762389  0.24638842  1
  Nb  Nb1  1  0.80881194  0.38237611  0.75361158  1
  Al  Al2  1  0.90133748  0.19732504  0.18268113  1
  Al  Al3  1  0.09866252  0.80267496  0.81731887  1
  O  O4  1  0.73581507  0.52836987  0.17063321  1
  O  O5  1  0.26418493  0.47163013  0.82936679  1
  O  O6  1  0.36582189  0.26835622  0.19619130  1
  O  O7  1  0.63417811  0.73164378  0.80380870  1
  O  O8  1  0.06217754  0.87564492  0.12157804  1
  O  O9  1  0.93782246  0.12435508  0.87842196  1
  O  O10  1  0.87164925  0.25670149  0.47503578  1
  O  O11  1  0.12835075  0.74329851  0.52496422  1
