# generated using pymatgen
data_Pr4AlFe33
_symmetry_space_group_name_H-M   'P 1'
_cell_length_a   6.49843346
_cell_length_b   6.49843346
_cell_length_c   13.02522624
_cell_angle_alpha   82.82700725
_cell_angle_beta   82.82700725
_cell_angle_gamma   82.85057151
_symmetry_Int_Tables_number   1
_chemical_formula_structural   Pr4AlFe33
_chemical_formula_sum   'Pr4 Al1 Fe33'
_cell_volume   538.15315300
_cell_formula_units_Z   1
loop_
 _symmetry_equiv_pos_site_id
 _symmetry_equiv_pos_as_xyz
  1  'x, y, z'
loop_
 _atom_site_type_symbol
 _atom_site_label
 _atom_site_symmetry_multiplicity
 _atom_site_fract_x
 _atom_site_fract_y
 _atom_site_fract_z
 _atom_site_occupancy
  Pr  Pr0  1  0.65329574  0.65329574  0.32806693  1
  Pr  Pr1  1  0.65795147  0.65795147  0.82836859  1
  Pr  Pr2  1  0.34196325  0.34196325  0.17151661  1
  Pr  Pr3  1  0.34407068  0.34407068  0.67025171  1
  Al  Al4  1  0.90478939  0.90478939  0.45234660  1
  Fe  Fe5  1  0.28619266  0.71441142  0.49955230  1
  Fe  Fe6  1  0.28767649  0.71228681  0.00010265  1
  Fe  Fe7  1  0.71198163  0.99958979  0.14436727  1
  Fe  Fe8  1  0.71399302  0.00016870  0.64296374  1
  Fe  Fe9  1  0.99913903  0.28603456  0.35738444  1
  Fe  Fe10  1  0.99956898  0.28826955  0.85558358  1
  Fe  Fe11  1  0.28603456  0.99913903  0.35738444  1
  Fe  Fe12  1  0.28826955  0.99956898  0.85558358  1
  Fe  Fe13  1  0.99958979  0.71198163  0.14436727  1
  Fe  Fe14  1  0.00016870  0.71399302  0.64296374  1
  Fe  Fe15  1  0.71228681  0.28767649  0.00010265  1
  Fe  Fe16  1  0.71441142  0.28619266  0.49955230  1
  Fe  Fe17  1  -0.00024073  -0.00024073  0.24968618  1
  Fe  Fe18  1  0.00049362  0.00049362  0.75008975  1
  Fe  Fe19  1  0.99987929  0.49992436  0.49996837  1
  Fe  Fe20  1  0.00055970  0.49996336  -0.00000831  1
  Fe  Fe21  1  0.49996336  0.00055970  -0.00000831  1
  Fe  Fe22  1  0.49992436  0.99987929  0.49996837  1
  Fe  Fe23  1  0.34071203  0.34071203  0.42367808  1
  Fe  Fe24  1  0.34052752  0.34052752  0.92290104  1
  Fe  Fe25  1  0.34102479  0.84619629  0.17067873  1
  Fe  Fe26  1  0.34212613  0.84777633  0.67020890  1
  Fe  Fe27  1  0.84619629  0.34102479  0.17067873  1
  Fe  Fe28  1  0.84777633  0.34212613  0.67020890  1
  Fe  Fe29  1  0.65968769  0.65968769  0.07675662  1
  Fe  Fe30  1  0.65906178  0.65906178  0.57691684  1
  Fe  Fe31  1  0.65713585  0.15398163  0.32979385  1
  Fe  Fe32  1  0.65787244  0.15353168  0.82944996  1
  Fe  Fe33  1  0.15398163  0.65713585  0.32979385  1
  Fe  Fe34  1  0.15353168  0.65787244  0.82944996  1
  Fe  Fe35  1  0.90352638  0.90352638  0.95152911  1
  Fe  Fe36  1  0.09624134  0.09624134  0.04789230  1
  Fe  Fe37  1  0.09863537  0.09863537  0.54990871  1
