# generated using pymatgen
data_Pr3ErMn6(FeCo13)2
_symmetry_space_group_name_H-M   'P 1'
_cell_length_a   6.38651640
_cell_length_b   6.38651640
_cell_length_c   12.78167949
_cell_angle_alpha   82.81479160
_cell_angle_beta   82.81479160
_cell_angle_gamma   82.82765406
_symmetry_Int_Tables_number   1
_chemical_formula_structural   Pr3ErMn6(FeCo13)2
_chemical_formula_sum   'Pr3 Er1 Mn6 Fe2 Co26'
_cell_volume   510.00990594
_cell_formula_units_Z   1
loop_
 _symmetry_equiv_pos_site_id
 _symmetry_equiv_pos_as_xyz
  1  'x, y, z'
loop_
 _atom_site_type_symbol
 _atom_site_label
 _atom_site_symmetry_multiplicity
 _atom_site_fract_x
 _atom_site_fract_y
 _atom_site_fract_z
 _atom_site_occupancy
  Pr  Pr0  1  0.65757422  0.65757422  0.82859944  1
  Pr  Pr1  1  0.34318457  0.34318457  0.17164545  1
  Pr  Pr2  1  0.34190567  0.34190567  0.67074112  1
  Er  Er3  1  0.66001913  0.66001913  0.33023457  1
  Mn  Mn4  1  0.00153533  0.00153533  0.24809906  1
  Mn  Mn5  1  0.00276785  0.00276785  0.74717138  1
  Mn  Mn6  1  0.00188638  0.49576954  0.50020818  1
  Mn  Mn7  1  0.00234099  0.49489646  0.00199294  1
  Mn  Mn8  1  0.49489646  0.00234099  0.00199294  1
  Mn  Mn9  1  0.49576954  0.00188638  0.50020818  1
  Fe  Fe10  1  0.90579403  0.90579403  0.45252096  1
  Fe  Fe11  1  0.90704394  0.90704394  0.95398900  1
  Co  Co12  1  0.28807179  0.71383178  0.49812715  1
  Co  Co13  1  0.28287867  0.71621739  0.00120076  1
  Co  Co14  1  0.71340213  0.99767529  0.14463005  1
  Co  Co15  1  0.71643529  0.00077344  0.64078965  1
  Co  Co16  1  0.99901674  0.28685304  0.35691494  1
  Co  Co17  1  0.99973599  0.28422428  0.85820600  1
  Co  Co18  1  0.28685304  0.99901674  0.35691494  1
  Co  Co19  1  0.28422428  0.99973599  0.85820600  1
  Co  Co20  1  0.99767529  0.71340213  0.14463005  1
  Co  Co21  1  0.00077344  0.71643529  0.64078965  1
  Co  Co22  1  0.71621739  0.28287867  0.00120076  1
  Co  Co23  1  0.71383178  0.28807179  0.49812715  1
  Co  Co24  1  0.34711026  0.34711026  0.41961678  1
  Co  Co25  1  0.34421125  0.34421125  0.92047698  1
  Co  Co26  1  0.34660170  0.83954824  0.17415216  1
  Co  Co27  1  0.34459224  0.84046606  0.67134193  1
  Co  Co28  1  0.83954824  0.34660170  0.17415216  1
  Co  Co29  1  0.84046606  0.34459224  0.67134193  1
  Co  Co30  1  0.65616980  0.65616980  0.08029640  1
  Co  Co31  1  0.65569377  0.65569377  0.57491059  1
  Co  Co32  1  0.65588947  0.15523612  0.32793780  1
  Co  Co33  1  0.65630971  0.15539917  0.82815918  1
  Co  Co34  1  0.15523612  0.65588947  0.32793780  1
  Co  Co35  1  0.15539917  0.65630971  0.82815918  1
  Co  Co36  1  0.09418295  0.09418295  0.04843291  1
  Co  Co37  1  0.09475532  0.09475532  0.54594390  1
