# generated using pymatgen
data_Sb(WO3)5
_symmetry_space_group_name_H-M   'P 1'
_cell_length_a   7.53834925
_cell_length_b   7.71652883
_cell_length_c   11.12152095
_cell_angle_alpha   69.70103100
_cell_angle_beta   90.00000000
_cell_angle_gamma   90.00000000
_symmetry_Int_Tables_number   1
_chemical_formula_structural   Sb(WO3)5
_chemical_formula_sum   'Sb2 W10 O30'
_cell_volume   606.75969492
_cell_formula_units_Z   2
loop_
 _symmetry_equiv_pos_site_id
 _symmetry_equiv_pos_as_xyz
  1  'x, y, z'
loop_
 _atom_site_type_symbol
 _atom_site_label
 _atom_site_symmetry_multiplicity
 _atom_site_fract_x
 _atom_site_fract_y
 _atom_site_fract_z
 _atom_site_occupancy
  Sb  Sb0  1  0.42573738  0.75000000  0.00000000  1
  Sb  Sb1  1  0.57426262  0.25000000  -0.00000000  1
  W  W2  1  0.25045655  0.91030545  0.67938909  1
  W  W3  1  0.25426799  0.40980157  0.68039687  1
  W  W4  1  0.74954345  0.08969455  0.32061091  1
  W  W5  1  0.74573201  0.59019843  0.31960313  1
  W  W6  1  0.25426799  0.09019843  0.31960313  1
  W  W7  1  0.25045655  0.58969455  0.32061091  1
  W  W8  1  0.74573201  0.90980157  0.68039687  1
  W  W9  1  0.74954345  0.41030545  0.67938909  1
  W  W10  1  0.01818770  0.25000000  -0.00000000  1
  W  W11  1  0.98181230  0.75000000  0.00000000  1
  O  O12  1  0.00022383  0.92532983  0.64934035  1
  O  O13  1  0.99977617  0.42532983  0.64934035  1
  O  O14  1  0.99977617  0.07467017  0.35065965  1
  O  O15  1  0.00022383  0.57467017  0.35065965  1
  O  O16  1  0.49904704  0.87911375  0.74177249  1
  O  O17  1  0.50095296  0.37911375  0.74177249  1
  O  O18  1  0.50095296  0.12088625  0.25822751  1
  O  O19  1  0.49904704  0.62088625  0.25822751  1
  O  O20  1  0.00000000  0.50000000  0.00000000  1
  O  O21  1  0.00000000  0.00000000  0.00000000  1
  O  O22  1  0.20204601  0.81058325  0.87883349  1
  O  O23  1  0.18179483  0.31605600  0.86788801  1
  O  O24  1  0.79795399  0.18941675  0.12116651  1
  O  O25  1  0.81820517  0.68394400  0.13211199  1
  O  O26  1  0.18179483  0.18394400  0.13211199  1
  O  O27  1  0.20204601  0.68941675  0.12116651  1
  O  O28  1  0.81820517  0.81605600  0.86788801  1
  O  O29  1  0.79795399  0.31058325  0.87883349  1
  O  O30  1  0.25378996  0.15738585  0.68500931  1
  O  O31  1  0.25378996  0.65760484  0.68500931  1
  O  O32  1  0.74621004  0.34239516  0.31499069  1
  O  O33  1  0.74621004  0.84261415  0.31499069  1
  O  O34  1  0.25378996  0.34261415  0.31499069  1
  O  O35  1  0.25378996  0.84239516  0.31499069  1
  O  O36  1  0.74621004  0.15760484  0.68500931  1
  O  O37  1  0.74621004  0.65738585  0.68500931  1
  O  O38  1  0.30433983  -0.00005212  0.50010424  1
  O  O39  1  0.30433983  0.50005212  0.49989576  1
  O  O40  1  0.69566017  0.00005212  0.49989576  1
  O  O41  1  0.69566017  0.49994788  0.50010424  1
