# generated using pymatgen
data_PrErMn4Co13
_symmetry_space_group_name_H-M   'P 1'
_cell_length_a   6.34381371
_cell_length_b   6.38446776
_cell_length_c   6.38446812
_cell_angle_alpha   83.06564108
_cell_angle_beta   82.60617620
_cell_angle_gamma   82.60617847
_symmetry_Int_Tables_number   1
_chemical_formula_structural   PrErMn4Co13
_chemical_formula_sum   'Pr1 Er1 Mn4 Co13'
_cell_volume   252.86991038
_cell_formula_units_Z   1
loop_
 _symmetry_equiv_pos_site_id
 _symmetry_equiv_pos_as_xyz
  1  'x, y, z'
loop_
 _atom_site_type_symbol
 _atom_site_label
 _atom_site_symmetry_multiplicity
 _atom_site_fract_x
 _atom_site_fract_y
 _atom_site_fract_z
 _atom_site_occupancy
  Pr  Pr0  1  0.34526716  0.34880611  0.34880611  1
  Er  Er1  1  0.65762416  0.65372849  0.65372849  1
  Mn  Mn2  1  0.89211034  0.89911549  0.89911549  1
  Mn  Mn3  1  0.10621301  0.09904934  0.09904934  1
  Mn  Mn4  1  0.99823211  0.99846891  0.50029730  1
  Mn  Mn5  1  0.99823211  0.50029730  0.99846891  1
  Co  Co6  1  0.28912787  0.71394149  0.99796203  1
  Co  Co7  1  0.71109363  0.99899194  0.28613444  1
  Co  Co8  1  0.99861344  0.28445677  0.71577220  1
  Co  Co9  1  0.28912787  0.99796203  0.71394149  1
  Co  Co10  1  0.99861344  0.71577220  0.28445677  1
  Co  Co11  1  0.71109363  0.28613444  0.99899194  1
  Co  Co12  1  0.34772609  0.34761466  0.84531841  1
  Co  Co13  1  0.34772609  0.84531841  0.34761466  1
  Co  Co14  1  0.84410316  0.34508084  0.34508084  1
  Co  Co15  1  0.65460738  0.65503214  0.15405060  1
  Co  Co16  1  0.65460738  0.15405060  0.65503214  1
  Co  Co17  1  0.15507129  0.65777384  0.65777384  1
  Co  Co18  1  0.50080986  0.99840502  0.99840502  1
