# generated using pymatgen
data_Re2C3I4O3
_symmetry_space_group_name_H-M   'P 1'
_cell_length_a   8.81096068
_cell_length_b   12.15722518
_cell_length_c   12.87587835
_cell_angle_alpha   95.65610056
_cell_angle_beta   90.00000000
_cell_angle_gamma   111.24615440
_symmetry_Int_Tables_number   1
_chemical_formula_structural   Re2C3I4O3
_chemical_formula_sum   'Re8 C12 I16 O12'
_cell_volume   1278.27326014
_cell_formula_units_Z   4
loop_
 _symmetry_equiv_pos_site_id
 _symmetry_equiv_pos_as_xyz
  1  'x, y, z'
loop_
 _atom_site_type_symbol
 _atom_site_label
 _atom_site_symmetry_multiplicity
 _atom_site_fract_x
 _atom_site_fract_y
 _atom_site_fract_z
 _atom_site_occupancy
  Re  Re0  1  0.35515846  0.98418923  0.83593159  1
  Re  Re1  1  0.68115586  0.67695879  0.24527916  1
  Re  Re2  1  0.00419707  0.32304121  0.25472084  1
  Re  Re3  1  0.64484154  0.01581077  0.16406841  1
  Re  Re4  1  0.31884414  0.32304121  0.75472084  1
  Re  Re5  1  0.37096923  0.01581077  0.66406841  1
  Re  Re6  1  0.62903077  0.98418923  0.33593159  1
  Re  Re7  1  0.99580293  0.67695879  0.74527916  1
  C  C8  1  0.54848737  0.53424065  0.16412857  1
  C  C9  1  0.45151263  0.46575935  0.83587143  1
  C  C10  1  0.78321558  0.65710484  0.69291127  1
  C  C11  1  0.01424673  0.46575935  0.33587143  1
  C  C12  1  0.68250722  0.59002305  0.36164236  1
  C  C13  1  0.09248417  0.40997695  0.13835764  1
  C  C14  1  0.87388925  0.65710484  0.19291127  1
  C  C15  1  0.90751583  0.59002305  0.86164236  1
  C  C16  1  0.98575327  0.53424065  0.66412857  1
  C  C17  1  0.21678442  0.34289516  0.30708873  1
  C  C18  1  0.12611075  0.34289516  0.80708873  1
  C  C19  1  0.31749278  0.40997695  0.63835764  1
  I  I20  1  0.14692448  0.80491191  0.57495613  1
  I  I21  1  0.61968539  0.94993787  0.60391314  1
  I  I22  1  0.12926188  0.10525211  0.63768572  1
  I  I23  1  0.38031461  0.05006213  0.39608686  1
  I  I24  1  0.02400978  0.89474789  0.86231428  1
  I  I25  1  0.87073812  0.89474789  0.36231428  1
  I  I26  1  0.57532747  0.25047198  0.67301748  1
  I  I27  1  0.34201256  0.19508809  0.92504387  1
  I  I28  1  0.67514451  0.25047198  0.17301748  1
  I  I29  1  0.97599022  0.10525211  0.13768572  1
  I  I30  1  0.32485549  0.74952802  0.82698252  1
  I  I31  1  0.65798744  0.80491191  0.07495613  1
  I  I32  1  0.42467253  0.74952802  0.32698252  1
  I  I33  1  0.33025248  0.94993787  0.10391314  1
  I  I34  1  0.85307552  0.19508809  0.42504387  1
  I  I35  1  0.66974752  0.05006213  0.89608686  1
  O  O36  1  0.02450511  0.55424516  0.38574684  1
  O  O37  1  0.14590831  0.46409488  0.06841309  1
  O  O38  1  0.47025995  0.44575484  0.11425316  1
  O  O39  1  0.65349725  0.64670853  0.66221563  1
  O  O40  1  0.85409169  0.53590512  0.93158691  1
  O  O41  1  0.00678872  0.35329147  0.83778437  1
  O  O42  1  0.68181343  0.53590512  0.43158691  1
  O  O43  1  0.99321128  0.64670853  0.16221563  1
  O  O44  1  0.97549489  0.44575484  0.61425316  1
  O  O45  1  0.52974005  0.55424516  0.88574684  1
  O  O46  1  0.34650275  0.35329147  0.33778437  1
  O  O47  1  0.31818657  0.46409488  0.56841309  1
