# generated using pymatgen
data_PrZrNO2
_symmetry_space_group_name_H-M   'P 1'
_cell_length_a   5.79623036
_cell_length_b   5.96834793
_cell_length_c   8.23252300
_cell_angle_alpha   90.00000000
_cell_angle_beta   89.36052954
_cell_angle_gamma   90.00000000
_symmetry_Int_Tables_number   1
_chemical_formula_structural   PrZrNO2
_chemical_formula_sum   'Pr4 Zr4 N4 O8'
_cell_volume   284.77750008
_cell_formula_units_Z   4
loop_
 _symmetry_equiv_pos_site_id
 _symmetry_equiv_pos_as_xyz
  1  'x, y, z'
loop_
 _atom_site_type_symbol
 _atom_site_label
 _atom_site_symmetry_multiplicity
 _atom_site_fract_x
 _atom_site_fract_y
 _atom_site_fract_z
 _atom_site_occupancy
  Pr  Pr0  1  0.51972445  0.54882665  0.25752548  1
  Pr  Pr1  1  0.98027555  0.04882665  0.24247452  1
  Pr  Pr2  1  0.48027555  0.45117335  0.74247452  1
  Pr  Pr3  1  0.01972445  0.95117335  0.75752548  1
  Zr  Zr4  1  0.50000000  0.00000000  0.00000000  1
  Zr  Zr5  1  -0.00000000  0.50000000  0.50000000  1
  Zr  Zr6  1  0.50000000  -0.00000000  0.50000000  1
  Zr  Zr7  1  -0.00000000  0.50000000  0.00000000  1
  N  N8  1  0.79501722  0.79442111  0.05664355  1
  N  N9  1  0.70498278  0.29442111  0.44335645  1
  N  N10  1  0.20498278  0.20557889  0.94335645  1
  N  N11  1  0.29501722  0.70557889  0.55664355  1
  O  O12  1  0.38826455  0.96133894  0.24996070  1
  O  O13  1  0.11173545  0.46133894  0.25003930  1
  O  O14  1  0.61173545  0.03866106  0.75003930  1
  O  O15  1  0.88826455  0.53866106  0.74996070  1
  O  O16  1  0.20800916  0.20823568  0.56345377  1
  O  O17  1  0.29199084  0.70823568  0.93654623  1
  O  O18  1  0.79199084  0.79176432  0.43654623  1
  O  O19  1  0.70800916  0.29176432  0.06345377  1
