# generated using pymatgen
data_MnFe4CuO8
_symmetry_space_group_name_H-M   'P 1'
_cell_length_a   6.08264717
_cell_length_b   6.08264717
_cell_length_c   6.08264717
_cell_angle_alpha   90.00000000
_cell_angle_beta   60.00000000
_cell_angle_gamma   120.00000000
_symmetry_Int_Tables_number   1
_chemical_formula_structural   MnFe4CuO8
_chemical_formula_sum   'Mn1 Fe4 Cu1 O8'
_cell_volume   159.13396295
_cell_formula_units_Z   1
loop_
 _symmetry_equiv_pos_site_id
 _symmetry_equiv_pos_as_xyz
  1  'x, y, z'
loop_
 _atom_site_type_symbol
 _atom_site_label
 _atom_site_symmetry_multiplicity
 _atom_site_fract_x
 _atom_site_fract_y
 _atom_site_fract_z
 _atom_site_occupancy
  Mn  Mn0  1  0.25000000  0.12500000  0.12500000  1
  Fe  Fe1  1  0.50023606  0.00035409  0.49988197  1
  Fe  Fe2  1  0.50023606  0.49988197  0.49988197  1
  Fe  Fe3  1  -0.00023606  0.49988197  0.00035409  1
  Fe  Fe4  1  -0.00023606  0.49988197  0.49988197  1
  Cu  Cu5  1  0.75000000  0.87500000  0.87500000  1
  O  O6  1  0.97335735  0.71003602  0.26332133  1
  O  O7  1  0.97335735  0.26332133  0.26332133  1
  O  O8  1  0.52664265  0.26332133  0.71003602  1
  O  O9  1  0.52664265  0.26332133  0.26332133  1
  O  O10  1  0.02111059  0.28166589  0.73944470  1
  O  O11  1  0.02111059  0.73944470  0.73944470  1
  O  O12  1  0.47888941  0.73944470  0.28166589  1
  O  O13  1  0.47888941  0.73944470  0.73944470  1
