# generated using pymatgen
data_Ni3W6C
_symmetry_space_group_name_H-M   'P 1'
_cell_length_a   7.98915908
_cell_length_b   7.98509573
_cell_length_c   19.53952305
_cell_angle_alpha   89.94358389
_cell_angle_beta   90.00000000
_cell_angle_gamma   120.01683453
_symmetry_Int_Tables_number   1
_chemical_formula_structural   Ni3W6C
_chemical_formula_sum   'Ni24 W48 C8'
_cell_volume   1079.32393604
_cell_formula_units_Z   8
loop_
 _symmetry_equiv_pos_site_id
 _symmetry_equiv_pos_as_xyz
  1  'x, y, z'
loop_
 _atom_site_type_symbol
 _atom_site_label
 _atom_site_symmetry_multiplicity
 _atom_site_fract_x
 _atom_site_fract_y
 _atom_site_fract_z
 _atom_site_occupancy
  Ni  Ni0  1  0.33359807  0.16719713  0.96000195  1
  Ni  Ni1  1  -0.00004779  0.49990442  0.29157546  1
  Ni  Ni2  1  0.66689897  0.83379694  0.62596487  1
  Ni  Ni3  1  0.55481986  0.60963972  0.73631375  1
  Ni  Ni4  1  0.22275784  0.94551467  0.06970741  1
  Ni  Ni5  1  0.88859001  0.27718103  0.40263907  1
  Ni  Ni6  1  0.55496803  0.94542751  0.73641443  1
  Ni  Ni7  1  0.22112553  0.27609650  0.06955128  1
  Ni  Ni8  1  0.88951680  0.61156580  0.40268903  1
  Ni  Ni9  1  0.89045949  0.94542751  0.73641443  1
  Ni  Ni10  1  0.55497197  0.27609650  0.06955128  1
  Ni  Ni11  1  0.22204799  0.61156580  0.40268903  1
  Ni  Ni12  1  0.99976803  0.49953606  0.70736813  1
  Ni  Ni13  1  0.66671479  0.83342858  0.04175754  1
  Ni  Ni14  1  0.33306793  0.16613687  0.37333205  1
  Ni  Ni15  1  0.77807599  0.05615297  0.93069493  1
  Ni  Ni16  1  0.44390916  0.38781833  0.26362559  1
  Ni  Ni17  1  0.11184714  0.72369328  0.59701925  1
  Ni  Ni18  1  0.77714920  0.72176820  0.93064497  1
  Ni  Ni19  1  0.44554147  0.05723650  0.26378172  1
  Ni  Ni20  1  0.11169897  0.38790549  0.59691857  1
  Ni  Ni21  1  0.44461801  0.72176820  0.93064497  1
  Ni  Ni22  1  0.11169503  0.05723650  0.26378172  1
  Ni  Ni23  1  0.77620751  0.38790549  0.59691857  1
  W  W24  1  0.11952915  0.73905830  0.93873782  1
  W  W25  1  0.78715372  0.07430645  0.26880369  1
  W  W26  1  0.45446835  0.40893770  0.60571466  1
  W  W27  1  0.87346294  0.24692588  0.81087567  1
  W  W28  1  0.53882293  0.57764485  0.14499555  1
  W  W29  1  0.20813240  0.91626579  0.47682141  1
  W  W30  1  0.11849864  0.38055068  0.93975933  1
  W  W31  1  0.78668193  0.71228944  0.27201623  1
  W  W32  1  0.45379317  0.04552916  0.60552071  1
  W  W33  1  0.87260741  0.62550384  0.81088351  1
  W  W34  1  0.55269490  0.96363983  0.14691348  1
  W  W35  1  0.20781943  0.29134309  0.47714467  1
  W  W36  1  0.25289643  0.62550384  0.81088351  1
  W  W37  1  0.91094594  0.96363983  0.14691348  1
  W  W38  1  0.58352267  0.29134309  0.47714467  1
  W  W39  1  0.76205205  0.38055068  0.93975933  1
  W  W40  1  0.42560851  0.71228944  0.27201623  1
  W  W41  1  0.09173499  0.04552916  0.60552071  1
  W  W42  1  0.21219765  0.92439630  0.72761934  1
  W  W43  1  0.87951328  0.25902655  0.06452931  1
  W  W44  1  0.54713785  0.59427470  0.39459518  1
  W  W45  1  0.45853360  0.41706821  0.85651259  1
  W  W46  1  0.12784407  0.75568815  0.18833745  1
  W  W47  1  0.79320406  0.08640712  0.52245733  1
  W  W48  1  0.21287283  0.28780484  0.72781329  1
  W  W49  1  0.87998507  0.62104356  0.06131677  1
  W  W50  1  0.54816836  0.95278232  0.39357367  1
  W  W51  1  0.45884657  0.04199091  0.85618933  1
  W  W52  1  0.11397210  0.36969317  0.18641952  1
  W  W53  1  0.79405959  0.70782916  0.52244949  1
  W  W54  1  0.08314333  0.04199091  0.85618933  1
  W  W55  1  0.75572106  0.36969317  0.18641952  1
  W  W56  1  0.41377057  0.70782916  0.52244949  1
  W  W57  1  0.57493101  0.28780484  0.72781329  1
  W  W58  1  0.24105849  0.62104356  0.06131677  1
  W  W59  1  0.90461495  0.95278232  0.39357367  1
  W  W60  1  0.66692179  0.83384258  0.83333729  1
  W  W61  1  0.33333300  0.16666700  0.16666700  1
  W  W62  1  -0.00025479  0.49949042  0.49999571  1
  W  W63  1  0.49994386  0.49988772  0.00061011  1
  W  W64  1  0.16672314  0.83344528  0.33272289  1
  W  W65  1  0.83333300  0.16666700  0.66666700  1
  W  W66  1  0.49957339  0.99927902  0.00037111  1
  W  W67  1  0.16709361  0.33405398  0.33296189  1
  W  W68  1  0.83333300  0.66666700  0.66666700  1
  W  W69  1  0.33333300  0.66666700  0.66666700  1
  W  W70  1  0.99970563  0.99927902  0.00037111  1
  W  W71  1  0.66696137  0.33405398  0.33296189  1
  C  C72  1  0.50041230  0.50082461  0.50034285  1
  C  C73  1  0.16625470  0.83250839  0.83299015  1
  C  C74  1  0.83333300  0.66666700  0.16666700  1
  C  C75  1  0.50079269  0.99955142  0.49952241  1
  C  C76  1  0.16587431  0.33378158  0.83381059  1
  C  C77  1  0.33333300  0.66666700  0.16666700  1
  C  C78  1  0.99875872  0.99955142  0.49952241  1
  C  C79  1  0.66790828  0.33378158  0.83381059  1
