# generated using pymatgen
data_NaFe6H12S4O29
_symmetry_space_group_name_H-M   'P 1'
_cell_length_a   7.10310598
_cell_length_b   10.30095481
_cell_length_c   7.40345285
_cell_angle_alpha   90.00000185
_cell_angle_beta   89.99999768
_cell_angle_gamma   93.37254687
_symmetry_Int_Tables_number   1
_chemical_formula_structural   NaFe6H12S4O29
_chemical_formula_sum   'Na1 Fe6 H12 S4 O29'
_cell_volume   540.76340943
_cell_formula_units_Z   1
loop_
 _symmetry_equiv_pos_site_id
 _symmetry_equiv_pos_as_xyz
  1  'x, y, z'
loop_
 _atom_site_type_symbol
 _atom_site_label
 _atom_site_symmetry_multiplicity
 _atom_site_fract_x
 _atom_site_fract_y
 _atom_site_fract_z
 _atom_site_occupancy
  Na  Na0  1  0.00000000  0.00000000  0.00000000  1
  Fe  Fe1  1  0.50000300  0.00000000  0.00000000  1
  Fe  Fe2  1  0.00000300  0.50000000  0.50000000  1
  Fe  Fe3  1  0.25253564  0.25150155  0.24930021  1
  Fe  Fe4  1  0.74746836  0.74850245  0.75070379  1
  Fe  Fe5  1  0.74746836  0.74850245  0.24929621  1
  Fe  Fe6  1  0.25253564  0.25150155  0.75069979  1
  H  H7  1  0.97816995  0.69859869  0.00000000  1
  H  H8  1  0.49283485  0.22593943  0.50000000  1
  H  H9  1  0.18814521  0.49286192  0.79217976  1
  H  H10  1  0.67855559  0.98697893  0.29774077  1
  H  H11  1  0.18814521  0.49286192  0.20782024  1
  H  H12  1  0.67855559  0.98697893  0.70225923  1
  H  H13  1  0.02183005  0.30140131  1.00000000  1
  H  H14  1  0.50716515  0.77406057  0.50000000  1
  H  H15  1  0.81185479  0.50713808  0.20782024  1
  H  H16  1  0.32144441  0.01302107  0.70225923  1
  H  H17  1  0.81185479  0.50713808  0.79217976  1
  H  H18  1  0.32144441  0.01302107  0.29774077  1
  S  S19  1  0.37908503  0.69463416  1.00000000  1
  S  S20  1  0.88499460  0.18989650  0.50000000  1
  S  S21  1  0.62091497  0.30536584  0.00000000  1
  S  S22  1  0.11500540  0.81010350  0.50000000  1
  O  O23  1  0.86095200  0.74552922  1.00000000  1
  O  O24  1  0.35881249  0.24421936  0.50000000  1
  O  O25  1  0.16033688  0.42803445  0.69626013  1
  O  O26  1  0.66948501  0.92982200  0.19074343  1
  O  O27  1  0.16033688  0.42803445  0.30373987  1
  O  O28  1  0.66948501  0.92982200  0.80925657  1
  O  O29  1  0.13904800  0.25447078  0.00000000  1
  O  O30  1  0.64118751  0.75578064  0.50000000  1
  O  O31  1  0.83966312  0.57196555  0.30373987  1
  O  O32  1  0.33051499  0.07017800  0.80925657  1
  O  O33  1  0.83966312  0.57196555  0.69626013  1
  O  O34  1  0.33051499  0.07017800  0.19074343  1
  O  O35  1  0.20718802  0.60731717  0.00000000  1
  O  O36  1  0.71085396  0.10455347  0.50000000  1
  O  O37  1  0.79281198  0.39268283  1.00000000  1
  O  O38  1  0.28914604  0.89544653  0.50000000  1
  O  O39  1  0.32433824  0.83282478  0.00000000  1
  O  O40  1  0.83414252  0.32864707  0.50000000  1
  O  O41  1  0.49302143  0.66957622  0.83550643  1
  O  O42  1  0.99848784  0.16370905  0.33497698  1
  O  O43  1  0.49302143  0.66957622  0.16449357  1
  O  O44  1  0.99848784  0.16370905  0.66502302  1
  O  O45  1  0.67566176  0.16717522  1.00000000  1
  O  O46  1  0.16585748  0.67135293  0.50000000  1
  O  O47  1  0.50697857  0.33042378  0.16449357  1
  O  O48  1  0.00151216  0.83629095  0.66502302  1
  O  O49  1  0.50697857  0.33042378  0.83550643  1
  O  O50  1  0.00151216  0.83629095  0.33497698  1
  O  O51  1  0.50000000  0.50000000  0.50000000  1
