# generated using pymatgen
data_U(HO2)2
_symmetry_space_group_name_H-M   'P 1'
_cell_length_a   5.42213849
_cell_length_b   6.02181806
_cell_length_c   10.14415412
_cell_angle_alpha   90.00000000
_cell_angle_beta   90.00000000
_cell_angle_gamma   90.00000000
_symmetry_Int_Tables_number   1
_chemical_formula_structural   U(HO2)2
_chemical_formula_sum   'U4 H8 O16'
_cell_volume   331.21810995
_cell_formula_units_Z   4
loop_
 _symmetry_equiv_pos_site_id
 _symmetry_equiv_pos_as_xyz
  1  'x, y, z'
loop_
 _atom_site_type_symbol
 _atom_site_label
 _atom_site_symmetry_multiplicity
 _atom_site_fract_x
 _atom_site_fract_y
 _atom_site_fract_z
 _atom_site_occupancy
  U  U0  1  0.50000000  0.00000000  0.50000000  1
  U  U1  1  0.00000000  0.50000000  0.50000000  1
  U  U2  1  0.50000000  0.50000000  0.00000000  1
  U  U3  1  0.00000000  0.00000000  0.00000000  1
  H  H4  1  0.64982813  0.37884881  0.26156241  1
  H  H5  1  0.14982813  0.12115119  0.73843759  1
  H  H6  1  0.35017187  0.87884881  0.23843759  1
  H  H7  1  0.85017187  0.62115119  0.76156241  1
  H  H8  1  0.35017187  0.62115119  0.73843759  1
  H  H9  1  0.85017187  0.87884881  0.26156241  1
  H  H10  1  0.64982813  0.12115119  0.76156241  1
  H  H11  1  0.14982813  0.37884881  0.23843759  1
  O  O12  1  0.66508304  0.47239459  0.18147733  1
  O  O13  1  0.16508304  0.02760541  0.81852267  1
  O  O14  1  0.33491696  0.97239459  0.31852267  1
  O  O15  1  0.83491696  0.52760541  0.68147733  1
  O  O16  1  0.33491696  0.52760541  0.81852267  1
  O  O17  1  0.83491696  0.97239459  0.18147733  1
  O  O18  1  0.66508304  0.02760541  0.68147733  1
  O  O19  1  0.16508304  0.47239459  0.31852267  1
  O  O20  1  0.73477371  0.29695259  0.43947767  1
  O  O21  1  0.23477371  0.20304741  0.56052233  1
  O  O22  1  0.26522629  0.79695259  0.06052233  1
  O  O23  1  0.76522629  0.70304741  0.93947767  1
  O  O24  1  0.26522629  0.70304741  0.56052233  1
  O  O25  1  0.76522629  0.79695259  0.43947767  1
  O  O26  1  0.73477371  0.20304741  0.93947767  1
  O  O27  1  0.23477371  0.29695259  0.06052233  1
