# generated using pymatgen
data_MnHg3S4
_symmetry_space_group_name_H-M   'P 1'
_cell_length_a   4.19050634
_cell_length_b   4.19050634
_cell_length_c   13.83327955
_cell_angle_alpha   81.28818393
_cell_angle_beta   98.71181607
_cell_angle_gamma   120.00000000
_symmetry_Int_Tables_number   1
_chemical_formula_structural   MnHg3S4
_chemical_formula_sum   'Mn1 Hg3 S4'
_cell_volume   207.12991244
_cell_formula_units_Z   1
loop_
 _symmetry_equiv_pos_site_id
 _symmetry_equiv_pos_as_xyz
  1  'x, y, z'
loop_
 _atom_site_type_symbol
 _atom_site_label
 _atom_site_symmetry_multiplicity
 _atom_site_fract_x
 _atom_site_fract_y
 _atom_site_fract_z
 _atom_site_occupancy
  Mn  Mn0  1  0.24913853  0.75086147  0.74741559  1
  Hg  Hg1  1  0.99775600  0.00224400  0.99326799  1
  Hg  Hg2  1  0.75013123  0.24986877  0.25039368  1
  Hg  Hg3  1  0.50304698  0.49695302  0.50914095  1
  S  S4  1  0.06116005  0.93883995  0.18348015  1
  S  S5  1  0.81375065  0.18624935  0.44125195  1
  S  S6  1  0.56708440  0.43291560  0.70125319  1
  S  S7  1  0.30793217  0.69206783  0.92379651  1
