# generated using pymatgen
data_NdTa3O9
_symmetry_space_group_name_H-M   'P 1'
_cell_length_a   11.81214238
_cell_length_b   13.20438573
_cell_length_c   12.60909985
_cell_angle_alpha   89.99589356
_cell_angle_beta   89.99590834
_cell_angle_gamma   107.33525652
_symmetry_Int_Tables_number   1
_chemical_formula_structural   NdTa3O9
_chemical_formula_sum   'Nd10 Ta30 O90'
_cell_volume   1877.33687201
_cell_formula_units_Z   10
loop_
 _symmetry_equiv_pos_site_id
 _symmetry_equiv_pos_as_xyz
  1  'x, y, z'
loop_
 _atom_site_type_symbol
 _atom_site_label
 _atom_site_symmetry_multiplicity
 _atom_site_fract_x
 _atom_site_fract_y
 _atom_site_fract_z
 _atom_site_occupancy
  Nd  Nd0  1  0.66572875  0.50122109  0.49835473  1
  Nd  Nd1  1  0.33333300  0.50000000  0.50000000  1
  Nd  Nd2  1  0.00093825  0.49877891  0.50164527  1
  Nd  Nd3  1  0.50098916  0.99891979  0.99826246  1
  Nd  Nd4  1  0.16567784  0.00108021  0.00173754  1
  Nd  Nd5  1  0.83333300  0.00000000  0.00000000  1
  Nd  Nd6  1  0.95283227  0.35429361  0.85414344  1
  Nd  Nd7  1  0.71383473  0.64570639  0.14585656  1
  Nd  Nd8  1  0.21394896  0.14536178  0.35368761  1
  Nd  Nd9  1  0.45271804  0.85463822  0.64631239  1
  Ta  Ta10  1  0.69356299  0.07961794  0.78755263  1
  Ta  Ta11  1  0.35940966  0.08091542  0.78971057  1
  Ta  Ta12  1  0.02752624  0.08048288  0.78941355  1
  Ta  Ta13  1  0.97310401  0.92038206  0.21244737  1
  Ta  Ta14  1  0.63913976  0.91951712  0.21058645  1
  Ta  Ta15  1  0.30725734  0.91908458  0.21028943  1
  Ta  Ta16  1  0.73570335  0.21007167  0.07974981  1
  Ta  Ta17  1  0.40414770  0.21100021  0.08090781  1
  Ta  Ta18  1  0.07034957  0.21277448  0.08019387  1
  Ta  Ta19  1  0.93096365  0.78992833  0.92025019  1
  Ta  Ta20  1  0.59631643  0.78722552  0.91980613  1
  Ta  Ta21  1  0.26251930  0.78899979  0.91909219  1
  Ta  Ta22  1  0.76267364  0.28947413  0.58143405  1
  Ta  Ta23  1  0.43107870  0.29011310  0.58026353  1
  Ta  Ta24  1  0.09642589  0.28735704  0.58079117  1
  Ta  Ta25  1  0.90399336  0.71052587  0.41856595  1
  Ta  Ta26  1  0.57024111  0.71264296  0.41920883  1
  Ta  Ta27  1  0.23558730  0.70988690  0.41973647  1
  Ta  Ta28  1  0.80707362  0.41863379  0.28984513  1
  Ta  Ta29  1  0.47325594  0.42014535  0.28774304  1
  Ta  Ta30  1  0.13893465  0.41897857  0.28950647  1
  Ta  Ta31  1  0.85959338  0.58136621  0.71015487  1
  Ta  Ta32  1  0.52773235  0.58102143  0.71049353  1
  Ta  Ta33  1  0.19341006  0.57985465  0.71225696  1
  Ta  Ta34  1  0.67170129  0.00451608  0.49544337  1
  Ta  Ta35  1  0.33333300  0.00000000  0.50000000  1
  Ta  Ta36  1  0.99496571  0.99548392  0.50455663  1
  Ta  Ta37  1  0.83333300  0.50000000  0.00000000  1
  Ta  Ta38  1  0.49492575  0.49561363  0.99530923  1
  Ta  Ta39  1  0.17174125  0.50438637  0.00469077  1
  O  O40  1  0.52519833  0.07390849  0.80924079  1
  O  O41  1  0.19195367  0.07537075  0.80263595  1
  O  O42  1  0.85825450  0.07633905  0.80850333  1
  O  O43  1  0.80841150  0.92366095  0.19149667  1
  O  O44  1  0.47471333  0.92462925  0.19736405  1
  O  O45  1  0.14146867  0.92609151  0.19075921  1
  O  O46  1  0.56486342  0.19513576  0.07705299  1
  O  O47  1  0.22961994  0.19135797  0.07581898  1
  O  O48  1  0.89787272  0.19255070  0.07271468  1
  O  O49  1  0.76879328  0.80744930  0.92728532  1
  O  O50  1  0.43704706  0.80864203  0.92418102  1
  O  O51  1  0.10180358  0.80486424  0.92294701  1
  O  O52  1  0.60189519  0.30514158  0.57812994  1
  O  O53  1  0.26887654  0.30795692  0.57439910  1
  O  O54  1  0.93740527  0.30949189  0.57789923  1
  O  O55  1  0.72926173  0.69050811  0.42210077  1
  O  O56  1  0.39779046  0.69204308  0.42560090  1
  O  O57  1  0.06477081  0.69485842  0.42187006  1
  O  O58  1  0.64090307  0.42435899  0.30998472  1
  O  O59  1  0.30769918  0.42173666  0.30943493  1
  O  O60  1  0.97443100  0.42350321  0.30257836  1
  O  O61  1  0.69223600  0.57649679  0.69742164  1
  O  O62  1  0.35896782  0.57826334  0.69056507  1
  O  O63  1  0.02576293  0.57564101  0.69001528  1
  O  O64  1  0.40417371  0.21133944  0.71103442  1
  O  O65  1  0.05904761  0.22519524  0.72453884  1
  O  O66  1  0.75667622  0.22313051  0.72521329  1
  O  O67  1  0.90999078  0.77686949  0.27478671  1
  O  O68  1  0.60761939  0.77480476  0.27546116  1
  O  O69  1  0.26249229  0.78866056  0.28896558  1
  O  O70  1  0.76254951  0.28815152  0.21060838  1
  O  O71  1  0.40974740  0.27651839  0.22467161  1
  O  O72  1  0.10737222  0.27421077  0.22423337  1
  O  O73  1  0.90411649  0.71184848  0.78939162  1
  O  O74  1  0.55929478  0.72578923  0.77576663  1
  O  O75  1  0.25691960  0.72348161  0.77532839  1
  O  O76  1  0.81347970  0.43935596  0.63361452  1
  O  O77  1  0.47802196  0.44019092  0.63232131  1
  O  O78  1  0.14897041  0.43960721  0.63004081  1
  O  O79  1  0.85318730  0.56064404  0.36638548  1
  O  O80  1  0.51769559  0.56039279  0.36995919  1
  O  O81  1  0.18864504  0.55980908  0.36767869  1
  O  O82  1  0.79131410  0.36832717  0.44048782  1
  O  O83  1  0.45794092  0.36911953  0.43919481  1
  O  O84  1  0.11903427  0.36763816  0.43988625  1
  O  O85  1  0.87535290  0.63167283  0.55951218  1
  O  O86  1  0.54763273  0.63236184  0.56011375  1
  O  O87  1  0.20872508  0.63088047  0.56080519  1
  O  O88  1  0.70856612  0.13043783  0.93849722  1
  O  O89  1  0.37566562  0.13086012  0.94016435  1
  O  O90  1  0.04687041  0.13210070  0.93922181  1
  O  O91  1  0.95810088  0.86956217  0.06150278  1
  O  O92  1  0.61979659  0.86789930  0.06077819  1
  O  O93  1  0.29100038  0.86913988  0.05983565  1
  O  O94  1  0.35306549  0.06140893  0.13350033  1
  O  O95  1  0.01821125  0.06094091  0.12949420  1
  O  O96  1  0.68875152  0.06031367  0.13181662  1
  O  O97  1  0.64845475  0.93905909  0.87050580  1
  O  O98  1  0.31360151  0.93859107  0.86649967  1
  O  O99  1  0.97791548  0.93968633  0.86818338  1
  O  O100  1  0.79618366  0.34063928  0.99092134  1
  O  O101  1  0.45118224  0.34508471  0.00895375  1
  O  O102  1  0.09409305  0.33967091  0.99084755  1
  O  O103  1  0.87048334  0.65936072  0.00907866  1
  O  O104  1  0.57257395  0.66032909  0.00915245  1
  O  O105  1  0.21548376  0.65491529  0.99104625  1
  O  O106  1  0.66094751  0.99086568  0.34544758  1
  O  O107  1  0.31999003  0.00786725  0.34107093  1
  O  O108  1  0.02241265  0.00980206  0.33914565  1
  O  O109  1  0.64425435  0.99019794  0.66085435  1
  O  O110  1  0.34667597  0.99213275  0.65892907  1
  O  O111  1  0.00571949  0.00913432  0.65455242  1
  O  O112  1  0.36998475  0.15932734  0.49180753  1
  O  O113  1  0.07298815  0.16040849  0.49177136  1
  O  O114  1  0.71574443  0.15467075  0.51014492  1
  O  O115  1  0.95092257  0.84532925  0.48985508  1
  O  O116  1  0.59367785  0.83959151  0.50822864  1
  O  O117  1  0.29668225  0.84067266  0.50819247  1
  O  O118  1  0.81914151  0.50692773  0.15894846  1
  O  O119  1  0.52243052  0.50867088  0.16100541  1
  O  O120  1  0.16094669  0.48968642  0.15473106  1
  O  O121  1  0.84752549  0.49307227  0.84105154  1
  O  O122  1  0.50572031  0.51031358  0.84526894  1
  O  O123  1  0.14423548  0.49132912  0.83899459  1
  O  O124  1  0.49736694  0.99643406  0.50433862  1
  O  O125  1  0.16930006  0.00356594  0.49566138  1
  O  O126  1  0.83333300  0.00000000  0.50000000  1
  O  O127  1  0.66949394  0.50398141  0.00386808  1
  O  O128  1  0.33333300  0.50000000  -0.00000000  1
  O  O129  1  0.99717306  0.49601859  0.99613192  1
