# generated using pymatgen
data_MnB4Mo3
_symmetry_space_group_name_H-M   'P 1'
_cell_length_a   3.06041898
_cell_length_b   4.48307109
_cell_length_c   6.23628244
_cell_angle_alpha   110.31712511
_cell_angle_beta   90.00000000
_cell_angle_gamma   90.00000000
_symmetry_Int_Tables_number   1
_chemical_formula_structural   MnB4Mo3
_chemical_formula_sum   'Mn1 B4 Mo3'
_cell_volume   80.23902858
_cell_formula_units_Z   1
loop_
 _symmetry_equiv_pos_site_id
 _symmetry_equiv_pos_as_xyz
  1  'x, y, z'
loop_
 _atom_site_type_symbol
 _atom_site_label
 _atom_site_symmetry_multiplicity
 _atom_site_fract_x
 _atom_site_fract_y
 _atom_site_fract_z
 _atom_site_occupancy
  Mn  Mn0  1  0.25000000  0.27110397  0.06804117  1
  B  B1  1  0.25000000  0.88416118  0.72545151  1
  B  B2  1  0.25000000  0.88759837  0.21679615  1
  B  B3  1  0.75000000  0.13011751  0.27162348  1
  B  B4  1  0.75000000  0.12447815  0.79253651  1
  Mo  Mo5  1  0.25000000  0.29039485  0.57276015  1
  Mo  Mo6  1  0.75000000  0.70401168  0.93101227  1
  Mo  Mo7  1  0.75000000  0.70813430  0.42177875  1
