# generated using pymatgen
data_NaLa2TaTi2O10
_symmetry_space_group_name_H-M   'P 1'
_cell_length_a   3.88586589
_cell_length_b   3.88165326
_cell_length_c   15.21668310
_cell_angle_alpha   83.08755851
_cell_angle_beta   82.24682786
_cell_angle_gamma   90.00831831
_symmetry_Int_Tables_number   1
_chemical_formula_structural   NaLa2TaTi2O10
_chemical_formula_sum   'Na1 La2 Ta1 Ti2 O10'
_cell_volume   225.73952321
_cell_formula_units_Z   1
loop_
 _symmetry_equiv_pos_site_id
 _symmetry_equiv_pos_as_xyz
  1  'x, y, z'
loop_
 _atom_site_type_symbol
 _atom_site_label
 _atom_site_symmetry_multiplicity
 _atom_site_fract_x
 _atom_site_fract_y
 _atom_site_fract_z
 _atom_site_occupancy
  Na  Na0  1  0.75027168  0.24989553  0.50454750  1
  La  La1  1  0.43438877  0.43090538  0.13503197  1
  La  La2  1  0.57377778  0.58814172  0.83725248  1
  Ta  Ta3  1  0.85571372  0.85090811  0.29301147  1
  Ti  Ti4  1  0.01421868  0.98680427  0.99867605  1
  Ti  Ti5  1  0.15008692  0.14891922  0.70021352  1
  O  O6  1  0.20764123  0.20504872  0.58712582  1
  O  O7  1  0.79192283  0.79382427  0.41290043  1
  O  O8  1  0.63293213  0.13074287  0.73766081  1
  O  O9  1  0.13028942  0.62814968  0.73916816  1
  O  O10  1  0.37372071  0.86462455  0.26134489  1
  O  O11  1  0.87333891  0.36410311  0.26259095  1
  O  O12  1  0.07845210  0.04802019  0.87415676  1
  O  O13  1  0.94699514  0.91603607  0.13627122  1
  O  O14  1  0.51925192  0.95212460  0.00981533  1
  O  O15  1  0.03799806  0.47075168  0.01023264  1
