# generated using pymatgen
data_NaLaTa2O7
_symmetry_space_group_name_H-M   'P 1'
_cell_length_a   3.92552160
_cell_length_b   3.92552160
_cell_length_c   11.21003000
_cell_angle_alpha   79.91612182
_cell_angle_beta   79.91612182
_cell_angle_gamma   90.00000000
_symmetry_Int_Tables_number   1
_chemical_formula_structural   NaLaTa2O7
_chemical_formula_sum   'Na1 La1 Ta2 O7'
_cell_volume   167.36396808
_cell_formula_units_Z   1
loop_
 _symmetry_equiv_pos_site_id
 _symmetry_equiv_pos_as_xyz
  1  'x, y, z'
loop_
 _atom_site_type_symbol
 _atom_site_label
 _atom_site_symmetry_multiplicity
 _atom_site_fract_x
 _atom_site_fract_y
 _atom_site_fract_z
 _atom_site_occupancy
  Na  Na0  1  0.75000000  0.25000000  0.50000000  1
  La  La1  1  0.00000000  0.00000000  -0.00000000  1
  Ta  Ta2  1  0.39575450  0.39575450  0.20849100  1
  Ta  Ta3  1  0.60424550  0.60424550  0.79150900  1
  O  O4  1  0.31253448  0.31253448  0.37493103  1
  O  O5  1  0.68746552  0.68746552  0.62506897  1
  O  O6  1  0.58499799  0.08499799  0.83000402  1
  O  O7  1  0.08468168  0.58468168  0.83063665  1
  O  O8  1  0.41531832  0.91531832  0.16936335  1
  O  O9  1  0.91500201  0.41500201  0.16999598  1
  O  O10  1  0.50000000  0.50000000  -0.00000000  1
