# generated using pymatgen
data_NaLaNb4O12
_symmetry_space_group_name_H-M   'P 1'
_cell_length_a   5.63264050
_cell_length_b   5.63264050
_cell_length_c   8.96763446
_cell_angle_alpha   71.69461996
_cell_angle_beta   71.69461996
_cell_angle_gamma   89.99493889
_symmetry_Int_Tables_number   1
_chemical_formula_structural   NaLaNb4O12
_chemical_formula_sum   'Na1 La1 Nb4 O12'
_cell_volume   254.90877944
_cell_formula_units_Z   1
loop_
 _symmetry_equiv_pos_site_id
 _symmetry_equiv_pos_as_xyz
  1  'x, y, z'
loop_
 _atom_site_type_symbol
 _atom_site_label
 _atom_site_symmetry_multiplicity
 _atom_site_fract_x
 _atom_site_fract_y
 _atom_site_fract_z
 _atom_site_occupancy
  Na  Na0  1  0.50000000  0.50000000  0.00000000  1
  La  La1  1  -0.00000000  -0.00000000  0.00000000  1
  Nb  Nb2  1  0.37084974  0.87084974  0.25830051  1
  Nb  Nb3  1  0.87084974  0.37084974  0.25830051  1
  Nb  Nb4  1  0.12915026  0.62915026  0.74169949  1
  Nb  Nb5  1  0.62915026  0.12915026  0.74169949  1
  O  O6  1  0.12929237  0.12929237  0.22798278  1
  O  O7  1  0.64272485  0.64272485  0.22798278  1
  O  O8  1  0.87070763  0.87070763  0.77201722  1
  O  O9  1  0.35727515  0.35727515  0.77201722  1
  O  O10  1  0.64048610  0.12881936  0.23069454  1
  O  O11  1  0.12881936  0.64048610  0.23069454  1
  O  O12  1  0.35951390  0.87118064  0.76930546  1
  O  O13  1  0.87118064  0.35951390  0.76930546  1
  O  O14  1  0.25000000  0.75000000  0.50000000  1
  O  O15  1  0.75000000  0.25000000  0.50000000  1
  O  O16  1  0.50000000  -0.00000000  0.00000000  1
  O  O17  1  -0.00000000  0.50000000  0.00000000  1
