# generated using pymatgen
data_MgScAlO4
_symmetry_space_group_name_H-M   'P 1'
_cell_length_a   3.26850828
_cell_length_b   3.26864314
_cell_length_c   8.56701802
_cell_angle_alpha   90.00000228
_cell_angle_beta   100.99516922
_cell_angle_gamma   59.99861635
_symmetry_Int_Tables_number   1
_chemical_formula_structural   MgScAlO4
_chemical_formula_sum   'Mg1 Sc1 Al1 O4'
_cell_volume   77.31699901
_cell_formula_units_Z   1
loop_
 _symmetry_equiv_pos_site_id
 _symmetry_equiv_pos_as_xyz
  1  'x, y, z'
loop_
 _atom_site_type_symbol
 _atom_site_label
 _atom_site_symmetry_multiplicity
 _atom_site_fract_x
 _atom_site_fract_y
 _atom_site_fract_z
 _atom_site_occupancy
  Mg  Mg0  1  0.56643618  0.21678191  0.34958909  1
  Sc  Sc1  1  0.99086917  0.00456541  0.98633490  1
  Al  Al2  1  0.42667627  0.78666187  0.63998347  1
  O  O3  1  0.75809250  0.12095375  0.63710656  1
  O  O4  1  0.27658381  0.86170809  0.41479616  1
  O  O5  1  0.40625571  0.29687214  0.10948771  1
  O  O6  1  0.57508635  0.71245682  0.86270211  1
