# generated using pymatgen
data_La2Ge3
_symmetry_space_group_name_H-M   'P 1'
_cell_length_a   4.17089300
_cell_length_b   4.31354309
_cell_length_c   7.93153698
_cell_angle_alpha   74.22123968
_cell_angle_beta   74.75595472
_cell_angle_gamma   90.00000000
_symmetry_Int_Tables_number   1
_chemical_formula_structural   La2Ge3
_chemical_formula_sum   'La2 Ge3'
_cell_volume   132.09668751
_cell_formula_units_Z   1
loop_
 _symmetry_equiv_pos_site_id
 _symmetry_equiv_pos_as_xyz
  1  'x, y, z'
loop_
 _atom_site_type_symbol
 _atom_site_label
 _atom_site_symmetry_multiplicity
 _atom_site_fract_x
 _atom_site_fract_y
 _atom_site_fract_z
 _atom_site_occupancy
  La  La0  1  0.75034920  0.25034920  0.49930159  1
  La  La1  1  0.00031345  0.00031345  0.99937310  1
  Ge  Ge2  1  0.40838613  0.40838613  0.18322774  1
  Ge  Ge3  1  0.17844205  0.67844205  0.64311590  1
  Ge  Ge4  1  0.57750916  0.57750916  0.84498167  1
