# generated using pymatgen
data_KRb2Mo(OF)3
_symmetry_space_group_name_H-M   'P 1'
_cell_length_a   6.39253208
_cell_length_b   6.51993303
_cell_length_c   6.51993303
_cell_angle_alpha   89.26550724
_cell_angle_beta   59.77297121
_cell_angle_gamma   120.22702879
_symmetry_Int_Tables_number   1
_chemical_formula_structural   KRb2Mo(OF)3
_chemical_formula_sum   'K1 Rb2 Mo1 O3 F3'
_cell_volume   189.53195582
_cell_formula_units_Z   1
loop_
 _symmetry_equiv_pos_site_id
 _symmetry_equiv_pos_as_xyz
  1  'x, y, z'
loop_
 _atom_site_type_symbol
 _atom_site_label
 _atom_site_symmetry_multiplicity
 _atom_site_fract_x
 _atom_site_fract_y
 _atom_site_fract_z
 _atom_site_occupancy
  K  K0  1  -0.00000000  0.49608062  0.49608062  1
  Rb  Rb1  1  0.50000000  0.24003435  0.24003435  1
  Rb  Rb2  1  0.50000000  0.74003435  0.74003435  1
  Mo  Mo3  1  -0.00000000  0.98093345  0.98093345  1
  O  O4  1  0.40224477  0.22174374  0.81949897  1
  O  O5  1  -0.00000000  0.78871313  0.78871313  1
  O  O6  1  0.59775523  0.81949897  0.22174374  1
  F  F7  1  -0.00000000  0.21683230  0.77422095  1
  F  F8  1  -0.00000000  0.22190814  0.22190814  1
  F  F9  1  -0.00000000  0.77422095  0.21683230  1
