# generated using pymatgen
data_Mg7TiAl6Si8(H4O19)2
_symmetry_space_group_name_H-M   'P 1'
_cell_length_a   5.07238259
_cell_length_b   12.29894242
_cell_length_c   12.29895029
_cell_angle_alpha   59.99998492
_cell_angle_beta   90.00005861
_cell_angle_gamma   90.00036970
_symmetry_Int_Tables_number   1
_chemical_formula_structural   Mg7TiAl6Si8(H4O19)2
_chemical_formula_sum   'Mg7 Ti1 Al6 Si8 H8 O38'
_cell_volume   664.47459864
_cell_formula_units_Z   1
loop_
 _symmetry_equiv_pos_site_id
 _symmetry_equiv_pos_as_xyz
  1  'x, y, z'
loop_
 _atom_site_type_symbol
 _atom_site_label
 _atom_site_symmetry_multiplicity
 _atom_site_fract_x
 _atom_site_fract_y
 _atom_site_fract_z
 _atom_site_occupancy
  Mg  Mg0  1  0.30766538  0.99999795  0.99999843  1
  Mg  Mg1  1  0.50115777  0.91345488  0.42554423  1
  Mg  Mg2  1  0.50114602  0.66099062  0.91346534  1
  Mg  Mg3  1  0.50114049  0.42553846  0.66099804  1
  Mg  Mg4  1  0.00230058  0.08634503  0.57440336  1
  Mg  Mg5  1  0.00228365  0.33928398  0.08632062  1
  Mg  Mg6  1  0.00229224  0.57439798  0.33926875  1
  Ti  Ti7  1  0.80692581  0.00000072  0.99999763  1
  Al  Al8  1  0.01032321  0.07025576  0.34821561  1
  Al  Al9  1  0.01030242  0.58152992  0.07025580  1
  Al  Al10  1  0.01030947  0.34821934  0.58152922  1
  Al  Al11  1  0.50796241  0.93014709  0.65151963  1
  Al  Al12  1  0.50795747  0.41832943  0.93014733  1
  Al  Al13  1  0.50796337  0.65151842  0.41833279  1
  Si  Si14  1  0.71533371  0.66666169  0.66666823  1
  Si  Si15  1  0.21745909  0.33334020  0.33333158  1
  Si  Si16  1  0.02059861  0.84355557  0.30337807  1
  Si  Si17  1  0.02059276  0.85306426  0.84355392  1
  Si  Si18  1  0.02060187  0.30337806  0.85306383  1
  Si  Si19  1  0.52738054  0.15662814  0.69660109  1
  Si  Si20  1  0.52739101  0.14677280  0.15662583  1
  Si  Si21  1  0.52738169  0.69660412  0.14677295  1
  H  H22  1  0.72426834  0.33335979  0.33331930  1
  H  H23  1  0.22264407  0.66663697  0.66668117  1
  H  H24  1  0.57757212  0.12265056  0.43459983  1
  H  H25  1  0.57759190  0.44274153  0.12265882  1
  H  H26  1  0.57759755  0.43460376  0.44273983  1
  H  H27  1  0.07736754  0.87792677  0.56505887  1
  H  H28  1  0.07738932  0.55701682  0.87792185  1
  H  H29  1  0.07739606  0.56505305  0.55702235  1
  O  O30  1  0.33250804  0.06433734  0.27748916  1
  O  O31  1  0.33248139  0.65817409  0.06434363  1
  O  O32  1  0.33248979  0.27748703  0.65817220  1
  O  O33  1  0.83084254  0.93478355  0.72077192  1
  O  O34  1  0.83084682  0.34445050  0.93477704  1
  O  O35  1  0.83083803  0.72077174  0.34444763  1
  O  O36  1  0.68404205  0.04606032  0.47753329  1
  O  O37  1  0.68402594  0.47641208  0.04605227  1
  O  O38  1  0.68403261  0.47753375  0.47641318  1
  O  O39  1  0.18492533  0.95418504  0.52260756  1
  O  O40  1  0.18490029  0.52320154  0.95419621  1
  O  O41  1  0.18490696  0.52259217  0.52320991  1
  O  O42  1  0.53429056  0.33341836  0.33329503  1
  O  O43  1  0.03241739  0.66658842  0.66670298  1
  O  O44  1  0.04625442  0.92280196  0.14806869  1
  O  O45  1  0.04625185  0.92912849  0.92280326  1
  O  O46  1  0.04626448  0.14806780  0.92913221  1
  O  O47  1  0.57519119  0.07771646  0.85105145  1
  O  O48  1  0.57519238  0.07123595  0.07771353  1
  O  O49  1  0.57519028  0.85105394  0.07123107  1
  O  O50  1  0.10283652  0.19228433  0.38811585  1
  O  O51  1  0.10274012  0.41959793  0.19229054  1
  O  O52  1  0.10275625  0.38810931  0.41959745  1
  O  O53  1  0.59933364  0.80742449  0.61227276  1
  O  O54  1  0.59923754  0.58030789  0.80741474  1
  O  O55  1  0.59925860  0.61228114  0.58030154  1
  O  O56  1  0.87175424  0.92771253  0.35550606  1
  O  O57  1  0.87174474  0.71678164  0.92770714  1
  O  O58  1  0.87174446  0.35550093  0.71678494  1
  O  O59  1  0.37280041  0.07234755  0.64616813  1
  O  O60  1  0.37279890  0.28148178  0.07235005  1
  O  O61  1  0.37279577  0.64616663  0.28148670  1
  O  O62  1  0.30777062  0.79530978  0.37887538  1
  O  O63  1  0.30778043  0.82581077  0.79531147  1
  O  O64  1  0.30778902  0.37886706  0.82581451  1
  O  O65  1  0.81021440  0.20624644  0.61790352  1
  O  O66  1  0.81023053  0.17585595  0.20624149  1
  O  O67  1  0.81022500  0.61790965  0.17585116  1
