# generated using pymatgen
data_Mn7Si3O14
_symmetry_space_group_name_H-M   'P 1'
_cell_length_a   4.90408635
_cell_length_b   10.61707165
_cell_length_c   11.30194429
_cell_angle_alpha   104.17488506
_cell_angle_beta   90.00000000
_cell_angle_gamma   90.00000000
_symmetry_Int_Tables_number   1
_chemical_formula_structural   Mn7Si3O14
_chemical_formula_sum   'Mn14 Si6 O28'
_cell_volume   570.54181186
_cell_formula_units_Z   2
loop_
 _symmetry_equiv_pos_site_id
 _symmetry_equiv_pos_as_xyz
  1  'x, y, z'
loop_
 _atom_site_type_symbol
 _atom_site_label
 _atom_site_symmetry_multiplicity
 _atom_site_fract_x
 _atom_site_fract_y
 _atom_site_fract_z
 _atom_site_occupancy
  Mn  Mn0  1  0.48557222  0.42156821  0.70484106  1
  Mn  Mn1  1  0.98557222  0.07843179  0.29515894  1
  Mn  Mn2  1  0.49513774  0.57771275  0.29930601  1
  Mn  Mn3  1  0.99513774  0.92228725  0.70069399  1
  Mn  Mn4  1  0.52432905  0.17717799  0.84781555  1
  Mn  Mn5  1  0.02432905  0.32282201  0.15218445  1
  Mn  Mn6  1  0.47581940  0.81805279  0.14592457  1
  Mn  Mn7  1  0.97581940  0.68194721  0.85407543  1
  Mn  Mn8  1  0.49314185  0.49721929  0.00321103  1
  Mn  Mn9  1  0.99314185  0.00278071  0.99678897  1
  Mn  Mn10  1  0.97303759  0.15881237  0.59151085  1
  Mn  Mn11  1  0.47303759  0.34118763  0.40848915  1
  Mn  Mn12  1  0.00499408  0.82688021  0.42557847  1
  Mn  Mn13  1  0.50499408  0.67311979  0.57442153  1
  Si  Si14  1  0.07038643  0.36631700  0.85736782  1
  Si  Si15  1  0.57038643  0.13368300  0.14263218  1
  Si  Si16  1  0.91780122  0.63131382  0.14832582  1
  Si  Si17  1  0.41780122  0.86868618  0.85167418  1
  Si  Si18  1  0.90941681  0.47933866  0.55814445  1
  Si  Si19  1  0.40941681  0.02066134  0.44185555  1
  O  O20  1  0.24645003  0.98229278  0.55461122  1
  O  O21  1  0.74645003  0.51770722  0.44538878  1
  O  O22  1  0.74169897  0.02108309  0.43712295  1
  O  O23  1  0.24169897  0.47891691  0.56287705  1
  O  O24  1  0.27193495  0.01004294  0.84544423  1
  O  O25  1  0.77193495  0.48995706  0.15455577  1
  O  O26  1  0.70644264  0.98896890  0.14366340  1
  O  O27  1  0.20644264  0.51103110  0.85633660  1
  O  O28  1  0.79124644  0.08075581  0.71740378  1
  O  O29  1  0.29124644  0.41924419  0.28259622  1
  O  O30  1  0.26766226  0.92107777  0.31682274  1
  O  O31  1  0.76766226  0.57892223  0.68317726  1
  O  O32  1  0.77605227  0.33329310  0.55892406  1
  O  O33  1  0.27605227  0.16670690  0.44107594  1
  O  O34  1  0.30002476  0.69335713  0.43130853  1
  O  O35  1  0.80002476  0.80664287  0.56869147  1
  O  O36  1  0.70869898  0.16950595  0.02173467  1
  O  O37  1  0.20869898  0.33049405  0.97826533  1
  O  O38  1  0.27914914  0.83302772  0.97255449  1
  O  O39  1  0.77914914  0.66697228  0.02744551  1
  O  O40  1  0.22010064  0.26855819  0.73776954  1
  O  O41  1  0.72010064  0.23144181  0.26223046  1
  O  O42  1  0.76846603  0.72736383  0.26946627  1
  O  O43  1  0.26846603  0.77263617  0.73053373  1
  O  O44  1  0.73815501  0.36836333  0.85414024  1
  O  O45  1  0.23815501  0.13163667  0.14585976  1
  O  O46  1  0.24868147  0.63370238  0.14783899  1
  O  O47  1  0.74868147  0.86629762  0.85216101  1
