# generated using pymatgen
data_LiTiFeO4
_symmetry_space_group_name_H-M   'P 1'
_cell_length_a   5.99220432
_cell_length_b   5.99220432
_cell_length_c   5.93982810
_cell_angle_alpha   90.18082253
_cell_angle_beta   59.63146772
_cell_angle_gamma   120.13156851
_symmetry_Int_Tables_number   1
_chemical_formula_structural   LiTiFeO4
_chemical_formula_sum   'Li2 Ti2 Fe2 O8'
_cell_volume   149.90456177
_cell_formula_units_Z   2
loop_
 _symmetry_equiv_pos_site_id
 _symmetry_equiv_pos_as_xyz
  1  'x, y, z'
loop_
 _atom_site_type_symbol
 _atom_site_label
 _atom_site_symmetry_multiplicity
 _atom_site_fract_x
 _atom_site_fract_y
 _atom_site_fract_z
 _atom_site_occupancy
  Li  Li0  1  0.74902806  0.37404870  0.87692324  1
  Li  Li1  1  0.50562580  0.75465284  0.73972136  1
  Ti  Ti2  1  0.23935826  0.85580712  0.38732520  1
  Ti  Ti3  1  0.75686769  0.37331654  0.38732520  1
  Fe  Fe4  1  0.25012597  0.37653715  0.37333687  1
  Fe  Fe5  1  0.98719382  0.99229123  0.02051496  1
  O  O6  1  0.26455926  0.12835880  0.60708194  1
  O  O7  1  0.72826412  0.12757950  0.14415638  1
  O  O8  1  0.73078021  0.60132066  0.14399411  1
  O  O9  1  0.25468523  0.12522568  0.14399411  1
  O  O10  1  0.22651631  0.62262399  0.15085970  1
  O  O11  1  0.78566690  0.62513322  0.58919988  1
  O  O12  1  0.77482551  0.16071361  0.59278353  1
  O  O13  1  0.24650286  0.63239096  0.59278353  1
