# generated using pymatgen
data_P(HO)3
_symmetry_space_group_name_H-M   'P 1'
_cell_length_a   7.87254911
_cell_length_b   11.50521489
_cell_length_c   7.36100146
_cell_angle_alpha   90.00000000
_cell_angle_beta   90.00000000
_cell_angle_gamma   90.01836399
_symmetry_Int_Tables_number   1
_chemical_formula_structural   P(HO)3
_chemical_formula_sum   'P8 H24 O24'
_cell_volume   666.72539078
_cell_formula_units_Z   8
loop_
 _symmetry_equiv_pos_site_id
 _symmetry_equiv_pos_as_xyz
  1  'x, y, z'
loop_
 _atom_site_type_symbol
 _atom_site_label
 _atom_site_symmetry_multiplicity
 _atom_site_fract_x
 _atom_site_fract_y
 _atom_site_fract_z
 _atom_site_occupancy
  P  P0  1  0.50467501  0.38375809  0.02475347  1
  P  P1  1  0.49532499  0.61624191  0.52475347  1
  P  P2  1  0.99798007  0.88143652  0.52552515  1
  P  P3  1  0.00201993  0.11856348  0.02552515  1
  P  P4  1  0.56031371  0.12365172  0.45695844  1
  P  P5  1  0.43968629  0.87634828  0.95695844  1
  P  P6  1  0.94011123  0.62189610  0.95629062  1
  P  P7  1  0.05988877  0.37810390  0.45629062  1
  H  H8  1  0.76395260  0.45148342  0.96134992  1
  H  H9  1  0.23604740  0.54851658  0.46134992  1
  H  H10  1  0.74308860  0.95129847  0.44573998  1
  H  H11  1  0.25691140  0.04870153  0.94573998  1
  H  H12  1  0.33818865  0.23811697  0.92365672  1
  H  H13  1  0.66181135  0.76188303  0.42365672  1
  H  H14  1  0.16539002  0.73712741  0.42108395  1
  H  H15  1  0.83460998  0.26287259  0.92108395  1
  H  H16  1  0.49409089  0.57998767  0.97438692  1
  H  H17  1  0.50590911  0.42001233  0.47438692  1
  H  H18  1  0.00222504  0.07785711  0.47665255  1
  H  H19  1  0.99777496  0.92214289  0.97665255  1
  H  H20  1  0.47846488  0.25964407  0.65813522  1
  H  H21  1  0.52153512  0.74035593  0.15813522  1
  H  H22  1  0.02043764  0.75773714  0.15764732  1
  H  H23  1  0.97956236  0.24226286  0.65764732  1
  H  H24  1  0.55952196  0.07935934  0.16586076  1
  H  H25  1  0.44047804  0.92064066  0.66586076  1
  H  H26  1  0.93871946  0.57855782  0.66460159  1
  H  H27  1  0.06128054  0.42144218  0.16460159  1
  H  H28  1  0.28843226  0.04730191  0.47057172  1
  H  H29  1  0.71156774  0.95269809  0.97057172  1
  H  H30  1  0.21399576  0.54633520  0.97234802  1
  H  H31  1  0.78600424  0.45366480  0.47234802  1
  O  O32  1  0.69858172  0.37967634  0.93163084  1
  O  O33  1  0.30141828  0.62032366  0.43163084  1
  O  O34  1  0.80222953  0.87471964  0.43750434  1
  O  O35  1  0.19777047  0.12528036  0.93750434  1
  O  O36  1  0.41692731  0.29838223  0.87318705  1
  O  O37  1  0.58307269  0.70161777  0.37318705  1
  O  O38  1  0.08624786  0.79765689  0.37225074  1
  O  O39  1  0.91375214  0.20234311  0.87225074  1
  O  O40  1  0.43569314  0.50846174  0.93198622  1
  O  O41  1  0.56430686  0.49153826  0.43198622  1
  O  O42  1  0.05970897  0.00724331  0.43022618  1
  O  O43  1  0.94029103  0.99275669  0.93022618  1
  O  O44  1  0.49405313  0.25120916  0.52399070  1
  O  O45  1  0.50594687  0.74879084  0.02399070  1
  O  O46  1  0.00424110  0.74986576  0.02375403  1
  O  O47  1  0.99575890  0.25013424  0.52375403  1
  O  O48  1  0.52075473  0.14528366  0.24370428  1
  O  O49  1  0.47924527  0.85471634  0.74370428  1
  O  O50  1  0.97807100  0.64428551  0.74283149  1
  O  O51  1  0.02192900  0.35571449  0.24283149  1
  O  O52  1  0.40427070  0.03582179  0.52225426  1
  O  O53  1  0.59572930  0.96417821  0.02225426  1
  O  O54  1  0.09644150  0.53491745  0.02088150  1
  O  O55  1  0.90355850  0.46508255  0.52088150  1
