# generated using pymatgen
data_La2Ti3ZnO10
_symmetry_space_group_name_H-M   'P 1'
_cell_length_a   3.84159549
_cell_length_b   3.84159549
_cell_length_c   14.02517006
_cell_angle_alpha   82.12839677
_cell_angle_beta   82.12839677
_cell_angle_gamma   90.00000000
_symmetry_Int_Tables_number   1
_chemical_formula_structural   La2Ti3ZnO10
_chemical_formula_sum   'La2 Ti3 Zn1 O10'
_cell_volume   203.06212716
_cell_formula_units_Z   1
loop_
 _symmetry_equiv_pos_site_id
 _symmetry_equiv_pos_as_xyz
  1  'x, y, z'
loop_
 _atom_site_type_symbol
 _atom_site_label
 _atom_site_symmetry_multiplicity
 _atom_site_fract_x
 _atom_site_fract_y
 _atom_site_fract_z
 _atom_site_occupancy
  La  La0  1  0.42038786  0.42038786  0.15922428  1
  La  La1  1  0.57961214  0.57961214  0.84077572  1
  Ti  Ti2  1  0.15555394  0.15555394  0.68889212  1
  Ti  Ti3  1  0.84444606  0.84444606  0.31110788  1
  Ti  Ti4  1  -0.00000000  -0.00000000  0.00000000  1
  Zn  Zn5  1  0.75000000  0.25000000  0.50000000  1
  O  O6  1  0.50011938  0.00011938  0.99976124  1
  O  O7  1  0.99988062  0.49988062  0.00023876  1
  O  O8  1  0.64058693  0.14058693  0.71882614  1
  O  O9  1  0.13878848  0.63878848  0.72242304  1
  O  O10  1  0.36121152  0.86121152  0.27757696  1
  O  O11  1  0.85941307  0.35941307  0.28117386  1
  O  O12  1  0.22109485  0.22109485  0.55781031  1
  O  O13  1  0.77890515  0.77890515  0.44218969  1
  O  O14  1  0.07106182  0.07106182  0.85787637  1
  O  O15  1  0.92893818  0.92893818  0.14212363  1
