# generated using pymatgen
data_MnV4Fe(Pb2O9)2
_symmetry_space_group_name_H-M   'P 1'
_cell_length_a   6.07593406
_cell_length_b   7.98810831
_cell_length_c   8.97704930
_cell_angle_alpha   112.70466251
_cell_angle_beta   89.79556607
_cell_angle_gamma   89.07748557
_symmetry_Int_Tables_number   1
_chemical_formula_structural   MnV4Fe(Pb2O9)2
_chemical_formula_sum   'Mn1 V4 Fe1 Pb4 O18'
_cell_volume   401.86428152
_cell_formula_units_Z   1
loop_
 _symmetry_equiv_pos_site_id
 _symmetry_equiv_pos_as_xyz
  1  'x, y, z'
loop_
 _atom_site_type_symbol
 _atom_site_label
 _atom_site_symmetry_multiplicity
 _atom_site_fract_x
 _atom_site_fract_y
 _atom_site_fract_z
 _atom_site_occupancy
  Mn  Mn0  1  0.50000000  0.00000000  -0.00000000  1
  V  V1  1  0.24971936  0.03540224  0.33477824  1
  V  V2  1  0.75028064  0.96459776  0.66522176  1
  V  V3  1  0.25622222  0.43276218  0.17481305  1
  V  V4  1  0.74377778  0.56723782  0.82518695  1
  Fe  Fe5  1  -0.00000000  0.00000000  -0.00000000  1
  Pb  Pb6  1  0.24618343  0.68298898  0.61201251  1
  Pb  Pb7  1  0.75381657  0.31701102  0.38798749  1
  Pb  Pb8  1  0.24857575  0.28335421  0.74535351  1
  Pb  Pb9  1  0.75142425  0.71664579  0.25464649  1
  O  O10  1  0.25055757  0.52512338  0.03619796  1
  O  O11  1  0.74944243  0.47487662  0.96380204  1
  O  O12  1  0.24796507  0.26357971  0.45363620  1
  O  O13  1  0.75203493  0.73642029  0.54636380  1
  O  O14  1  0.50981182  0.02092551  0.79255807  1
  O  O15  1  0.00709445  0.98554393  0.21324921  1
  O  O16  1  0.49018818  0.97907449  0.20744193  1
  O  O17  1  0.99290555  0.01445607  0.78675079  1
  O  O18  1  0.25360526  0.91946232  0.45726442  1
  O  O19  1  0.74639474  0.08053768  0.54273558  1
  O  O20  1  0.25035742  0.84453070  0.92492572  1
  O  O21  1  0.74964258  0.15546930  0.07507428  1
  O  O22  1  0.26346494  0.18548311  0.06825324  1
  O  O23  1  0.73653506  0.81451689  0.93174676  1
  O  O24  1  0.48608491  0.50910086  0.29771464  1
  O  O25  1  0.98155783  0.49824007  0.70436997  1
  O  O26  1  0.51391509  0.49089914  0.70228536  1
  O  O27  1  0.01844217  0.50175993  0.29563003  1
