# generated using pymatgen
data_Hf3TiV8
_symmetry_space_group_name_H-M   'P 1'
_cell_length_a   5.13083095
_cell_length_b   5.13083095
_cell_length_c   8.94164699
_cell_angle_alpha   73.32716479
_cell_angle_beta   90.00000000
_cell_angle_gamma   120.00000000
_symmetry_Int_Tables_number   1
_chemical_formula_structural   Hf3TiV8
_chemical_formula_sum   'Hf3 Ti1 V8'
_cell_volume   192.34400564
_cell_formula_units_Z   1
loop_
 _symmetry_equiv_pos_site_id
 _symmetry_equiv_pos_as_xyz
  1  'x, y, z'
loop_
 _atom_site_type_symbol
 _atom_site_label
 _atom_site_symmetry_multiplicity
 _atom_site_fract_x
 _atom_site_fract_y
 _atom_site_fract_z
 _atom_site_occupancy
  Hf  Hf0  1  0.37529236  0.75058473  0.87412291  1
  Hf  Hf1  1  0.99842603  0.99685206  0.00472192  1
  Hf  Hf2  1  0.50142731  0.00285461  0.49571808  1
  Ti  Ti3  1  0.87461352  0.74922703  0.37615945  1
  V  V4  1  0.43685460  0.37082346  0.19232194  1
  V  V5  1  0.93874052  0.37914646  0.68211302  1
  V  V6  1  0.43685460  0.87370920  0.19232194  1
  V  V7  1  0.93874052  0.87748105  0.68211302  1
  V  V8  1  0.18815331  0.37630663  0.43554006  1
  V  V9  1  0.68652243  0.37304487  0.94043270  1
  V  V10  1  0.93396886  0.37082346  0.19232194  1
  V  V11  1  0.44040593  0.37914646  0.68211302  1
