# generated using pymatgen
data_KCr20O40
_symmetry_space_group_name_H-M   'P 1'
_cell_length_a   9.95335719
_cell_length_b   9.95335719
_cell_length_c   10.27674448
_cell_angle_alpha   61.03559777
_cell_angle_beta   61.03559777
_cell_angle_gamma   90.00000000
_symmetry_Int_Tables_number   1
_chemical_formula_structural   KCr20O40
_chemical_formula_sum   'K1 Cr20 O40'
_cell_volume   741.87512240
_cell_formula_units_Z   1
loop_
 _symmetry_equiv_pos_site_id
 _symmetry_equiv_pos_as_xyz
  1  'x, y, z'
loop_
 _atom_site_type_symbol
 _atom_site_label
 _atom_site_symmetry_multiplicity
 _atom_site_fract_x
 _atom_site_fract_y
 _atom_site_fract_z
 _atom_site_occupancy
  K  K0  1  0.90000000  0.90000000  0.20000000  1
  Cr  Cr1  1  0.36483096  0.85305636  0.59987016  1
  Cr  Cr2  1  0.76470112  0.25292652  0.80012984  1
  Cr  Cr3  1  0.16456525  0.65263251  -0.00006102  1
  Cr  Cr4  1  0.56261269  0.05481313  0.20000000  1
  Cr  Cr5  1  0.96450423  0.45257148  0.40006102  1
  Cr  Cr6  1  0.23738731  0.74518687  0.20000000  1
  Cr  Cr7  1  0.63543475  0.14736749  0.40006102  1
  Cr  Cr8  1  0.03529888  0.54707348  0.59987016  1
  Cr  Cr9  1  0.43516904  0.94694364  0.80012984  1
  Cr  Cr10  1  0.83549577  0.34742852  -0.00006102  1
  Cr  Cr11  1  0.45257148  0.63543475  0.40006102  1
  Cr  Cr12  1  0.85305636  0.03529888  0.59987016  1
  Cr  Cr13  1  0.25292652  0.43516904  0.80012984  1
  Cr  Cr14  1  0.65263251  0.83549577  -0.00006102  1
  Cr  Cr15  1  0.05481313  0.23738731  0.20000000  1
  Cr  Cr16  1  0.14736749  0.96450423  0.40006102  1
  Cr  Cr17  1  0.54707348  0.36483096  0.59987016  1
  Cr  Cr18  1  0.94694364  0.76470112  0.80012984  1
  Cr  Cr19  1  0.34742852  0.16456525  -0.00006102  1
  Cr  Cr20  1  0.74518687  0.56261269  0.20000000  1
  O  O21  1  0.36200549  0.66237186  0.60027058  1
  O  O22  1  0.76227607  0.06264244  0.79972942  1
  O  O23  1  0.16218375  0.46289269  0.99981083  1
  O  O24  1  0.56315654  0.86310878  0.20000000  1
  O  O25  1  0.96199458  0.26270352  0.40018917  1
  O  O26  1  0.23684346  0.93689122  0.20000000  1
  O  O27  1  0.63781625  0.33710731  0.40018917  1
  O  O28  1  0.03772393  0.73735756  0.60027058  1
  O  O29  1  0.43799451  0.13762814  0.79972942  1
  O  O30  1  0.83800542  0.53729648  0.99981083  1
  O  O31  1  0.26270352  0.63781625  0.40018917  1
  O  O32  1  0.66237186  0.03772393  0.60027058  1
  O  O33  1  0.06264244  0.43799451  0.79972942  1
  O  O34  1  0.46289269  0.83800542  0.99981083  1
  O  O35  1  0.86310878  0.23684346  0.20000000  1
  O  O36  1  0.33710731  0.96199458  0.40018917  1
  O  O37  1  0.73735756  0.36200549  0.60027058  1
  O  O38  1  0.13762814  0.76227607  0.79972942  1
  O  O39  1  0.53729648  0.16218375  0.99981083  1
  O  O40  1  0.93689122  0.56315654  0.20000000  1
  O  O41  1  0.00623657  0.64362814  0.39841227  1
  O  O42  1  0.40778102  0.04066222  0.59919929  1
  O  O43  1  0.80698031  0.43986151  0.80080071  1
  O  O44  1  0.20464884  0.84204041  0.00158773  1
  O  O45  1  0.60734493  0.24089663  0.20000000  1
  O  O46  1  0.59535116  0.95795959  0.39841227  1
  O  O47  1  0.99301969  0.36013849  0.59919929  1
  O  O48  1  0.39221898  0.75933778  0.80080071  1
  O  O49  1  0.79376343  0.15637186  0.00158773  1
  O  O50  1  0.19265507  0.55910337  0.20000000  1
  O  O51  1  0.24089663  0.19265507  0.20000000  1
  O  O52  1  0.64362814  0.59535116  0.39841227  1
  O  O53  1  0.04066222  0.99301969  0.59919929  1
  O  O54  1  0.43986151  0.39221898  0.80080071  1
  O  O55  1  0.84204041  0.79376343  0.00158773  1
  O  O56  1  0.36013849  0.40778102  0.59919929  1
  O  O57  1  0.75933778  0.80698031  0.80080071  1
  O  O58  1  0.15637186  0.20464884  0.00158773  1
  O  O59  1  0.55910337  0.60734493  0.20000000  1
  O  O60  1  0.95795959  0.00623657  0.39841227  1
