# generated using pymatgen
data_Ho2Ga3Fe
_symmetry_space_group_name_H-M   'P 1'
_cell_length_a   4.31043918
_cell_length_b   5.66842545
_cell_length_c   5.59745805
_cell_angle_alpha   95.14287561
_cell_angle_beta   112.64593898
_cell_angle_gamma   67.65300778
_symmetry_Int_Tables_number   1
_chemical_formula_structural   Ho2Ga3Fe
_chemical_formula_sum   'Ho2 Ga3 Fe1'
_cell_volume   116.48287048
_cell_formula_units_Z   1
loop_
 _symmetry_equiv_pos_site_id
 _symmetry_equiv_pos_as_xyz
  1  'x, y, z'
loop_
 _atom_site_type_symbol
 _atom_site_label
 _atom_site_symmetry_multiplicity
 _atom_site_fract_x
 _atom_site_fract_y
 _atom_site_fract_z
 _atom_site_occupancy
  Ho  Ho0  1  0.75092347  0.70778950  0.20963644  1
  Ho  Ho1  1  0.25283289  0.29204860  0.79771438  1
  Ga  Ga2  1  0.46738861  0.68277047  0.61754769  1
  Ga  Ga3  1  0.04548361  0.12884038  0.21980761  1
  Ga  Ga4  1  0.93497661  0.90079591  0.77074913  1
  Fe  Fe5  1  0.54839482  0.28775513  0.38454477  1
