# generated using pymatgen
data_K3Mg4(Si2O7)2
_symmetry_space_group_name_H-M   'P 1'
_cell_length_a   5.12391127
_cell_length_b   5.12597594
_cell_length_c   13.27973153
_cell_angle_alpha   89.99504029
_cell_angle_beta   90.00879440
_cell_angle_gamma   119.99914392
_symmetry_Int_Tables_number   1
_chemical_formula_structural   K3Mg4(Si2O7)2
_chemical_formula_sum   'K3 Mg4 Si4 O14'
_cell_volume   302.06599082
_cell_formula_units_Z   1
loop_
 _symmetry_equiv_pos_site_id
 _symmetry_equiv_pos_as_xyz
  1  'x, y, z'
loop_
 _atom_site_type_symbol
 _atom_site_label
 _atom_site_symmetry_multiplicity
 _atom_site_fract_x
 _atom_site_fract_y
 _atom_site_fract_z
 _atom_site_occupancy
  K  K0  1  0.33062664  0.65567687  0.75006620  1
  K  K1  1  0.66900093  0.32468432  0.75005636  1
  K  K2  1  0.68016081  0.33913855  0.24982692  1
  Mg  Mg3  1  0.33450847  0.66575620  0.49323819  1
  Mg  Mg4  1  0.66726577  0.33299261  0.50075879  1
  Mg  Mg5  1  0.66728516  0.33292068  0.99940589  1
  Mg  Mg6  1  0.33459114  0.66584324  0.00694313  1
  Si  Si7  1  -0.00046914  0.99551373  0.62075393  1
  Si  Si8  1  0.00381310  0.00091643  0.37612103  1
  Si  Si9  1  0.00377396  0.00108003  0.12386515  1
  Si  Si10  1  -0.00041334  0.99561261  0.87922617  1
  O  O11  1  0.31130818  0.99570929  0.90909473  1
  O  O12  1  0.68806311  0.68528183  0.90879417  1
  O  O13  1  0.00025225  0.30706546  0.90947651  1
  O  O14  1  0.69887232  0.00599037  0.08762418  1
  O  O15  1  0.31315084  0.30512079  0.08822787  1
  O  O16  1  0.99742131  0.69085927  0.08775244  1
  O  O17  1  0.69909223  0.00595670  0.41236669  1
  O  O18  1  0.31292867  0.30493579  0.41175556  1
  O  O19  1  0.99742277  0.69115698  0.41220525  1
  O  O20  1  0.31119417  0.99570623  0.59088913  1
  O  O21  1  0.68810976  0.68534485  0.59119759  1
  O  O22  1  0.00017372  0.30699549  0.59048910  1
  O  O23  1  0.00086873  0.99676830  0.74998147  1
  O  O24  1  0.00099843  0.00097341  0.24988356  1
