# generated using pymatgen
data_KFe6H12S4O29
_symmetry_space_group_name_H-M   'P 1'
_cell_length_a   7.29209964
_cell_length_b   10.39022100
_cell_length_c   7.41735455
_cell_angle_alpha   89.99999820
_cell_angle_beta   89.99999945
_cell_angle_gamma   91.41554949
_symmetry_Int_Tables_number   1
_chemical_formula_structural   KFe6H12S4O29
_chemical_formula_sum   'K1 Fe6 H12 S4 O29'
_cell_volume   561.81568665
_cell_formula_units_Z   1
loop_
 _symmetry_equiv_pos_site_id
 _symmetry_equiv_pos_as_xyz
  1  'x, y, z'
loop_
 _atom_site_type_symbol
 _atom_site_label
 _atom_site_symmetry_multiplicity
 _atom_site_fract_x
 _atom_site_fract_y
 _atom_site_fract_z
 _atom_site_occupancy
  K  K0  1  -0.00000000  0.00000000  0.00000000  1
  Fe  Fe1  1  -0.00000000  0.50000000  0.50000000  1
  Fe  Fe2  1  0.50000000  0.00000000  0.00000000  1
  Fe  Fe3  1  0.25222625  0.25165053  0.25088508  1
  Fe  Fe4  1  0.74777375  0.74834947  0.74911492  1
  Fe  Fe5  1  0.25222625  0.25165053  0.74911492  1
  Fe  Fe6  1  0.74777375  0.74834947  0.25088508  1
  H  H7  1  0.97492834  0.69519927  1.00000000  1
  H  H8  1  0.48252295  0.20700138  0.50000000  1
  H  H9  1  0.19633027  0.49120640  0.78380390  1
  H  H10  1  0.68500254  0.98748021  0.29259590  1
  H  H11  1  0.19633027  0.49120640  0.21619610  1
  H  H12  1  0.68500254  0.98748021  0.70740410  1
  H  H13  1  0.02507166  0.30480073  0.00000000  1
  H  H14  1  0.51747705  0.79299862  0.50000000  1
  H  H15  1  0.80366973  0.50879360  0.21619610  1
  H  H16  1  0.31499746  0.01251979  0.70740410  1
  H  H17  1  0.80366973  0.50879360  0.78380390  1
  H  H18  1  0.31499746  0.01251979  0.29259590  1
  S  S19  1  0.39083736  0.69673496  1.00000000  1
  S  S20  1  0.89269181  0.19492250  0.50000000  1
  S  S21  1  0.60916264  0.30326504  0.00000000  1
  S  S22  1  0.10730819  0.80507750  0.50000000  1
  O  O23  1  0.33608688  0.83541170  1.00000000  1
  O  O24  1  0.84124431  0.33355525  0.50000000  1
  O  O25  1  0.50298743  0.67132126  0.83530463  1
  O  O26  1  0.00457833  0.16769881  0.33475539  1
  O  O27  1  0.50298743  0.67132126  0.16469537  1
  O  O28  1  0.00457833  0.16769881  0.66524461  1
  O  O29  1  0.66391312  0.16458830  0.00000000  1
  O  O30  1  0.15875569  0.66644475  0.50000000  1
  O  O31  1  0.49701257  0.32867874  0.16469537  1
  O  O32  1  0.99542167  0.83230119  0.66524461  1
  O  O33  1  0.49701257  0.32867874  0.83530463  1
  O  O34  1  0.99542167  0.83230119  0.33475539  1
  O  O35  1  0.22533652  0.61305646  0.00000000  1
  O  O36  1  0.72546031  0.11231949  0.50000000  1
  O  O37  1  0.77466348  0.38694354  1.00000000  1
  O  O38  1  0.27453969  0.88768051  0.50000000  1
  O  O39  1  0.85569155  0.73753908  0.00000000  1
  O  O40  1  0.35374353  0.23262657  0.50000000  1
  O  O41  1  0.15939812  0.42648254  0.69324742  1
  O  O42  1  0.66618313  0.92820620  0.19049156  1
  O  O43  1  0.15939812  0.42648254  0.30675258  1
  O  O44  1  0.66618313  0.92820620  0.80950844  1
  O  O45  1  0.14430845  0.26246092  1.00000000  1
  O  O46  1  0.64625647  0.76737343  0.50000000  1
  O  O47  1  0.84060188  0.57351746  0.30675258  1
  O  O48  1  0.33381687  0.07179380  0.80950844  1
  O  O49  1  0.84060188  0.57351746  0.69324742  1
  O  O50  1  0.33381687  0.07179380  0.19049156  1
  O  O51  1  0.50000000  0.50000000  0.50000000  1
