# generated using pymatgen
data_InSnCl3
_symmetry_space_group_name_H-M   'P 1'
_cell_length_a   11.43199056
_cell_length_b   11.43199056
_cell_length_c   11.57359848
_cell_angle_alpha   62.75255133
_cell_angle_beta   62.75255133
_cell_angle_gamma   94.18568197
_symmetry_Int_Tables_number   1
_chemical_formula_structural   InSnCl3
_chemical_formula_sum   'In8 Sn8 Cl24'
_cell_volume   1116.47839853
_cell_formula_units_Z   8
loop_
 _symmetry_equiv_pos_site_id
 _symmetry_equiv_pos_as_xyz
  1  'x, y, z'
loop_
 _atom_site_type_symbol
 _atom_site_label
 _atom_site_symmetry_multiplicity
 _atom_site_fract_x
 _atom_site_fract_y
 _atom_site_fract_z
 _atom_site_occupancy
  In  In0  1  0.50024651  0.50079157  0.99896192  1
  In  In1  1  0.00079157  0.00024651  0.99896192  1
  In  In2  1  0.51824193  0.01824193  0.83079281  1
  In  In3  1  0.35321021  0.52255361  0.50062606  1
  In  In4  1  0.02255361  0.85321021  0.50062606  1
  In  In5  1  0.15096527  0.65096527  0.83079281  1
  In  In6  1  0.64616374  0.47682033  0.50062606  1
  In  In7  1  0.97682033  0.14616374  0.50062606  1
  Sn  Sn8  1  0.14976619  0.64976619  0.20046763  1
  Sn  Sn9  1  0.86929315  0.36929315  0.76141370  1
  Sn  Sn10  1  0.64594547  0.84240134  0.51165318  1
  Sn  Sn11  1  0.34240134  0.14594547  0.51165318  1
  Sn  Sn12  1  0.75024478  0.75024478  0.99951045  1
  Sn  Sn13  1  0.25024478  0.25024478  0.99951045  1
  Sn  Sn14  1  0.83038544  0.33038544  0.17726281  1
  Sn  Sn15  1  0.49235175  0.99235175  0.17726281  1
  Cl  Cl16  1  0.69720770  0.83295052  0.73738079  1
  Cl  Cl17  1  0.58681000  0.43256794  0.25729824  1
  Cl  Cl18  1  0.20815891  0.93879655  0.14122292  1
  Cl  Cl19  1  0.06589903  0.33538550  0.87249721  1
  Cl  Cl20  1  0.43879655  0.70815891  0.14122292  1
  Cl  Cl21  1  0.83538550  0.56589903  0.87249721  1
  Cl  Cl22  1  0.33295052  0.19720770  0.73738079  1
  Cl  Cl23  1  0.93256794  0.08681000  0.25729824  1
  Cl  Cl24  1  0.31013382  0.15589176  0.25729824  1
  Cl  Cl25  1  0.42966869  0.56541151  0.73738079  1
  Cl  Cl26  1  0.79211729  0.06160376  0.87249721  1
  Cl  Cl27  1  0.91998053  0.65061817  0.14122292  1
  Cl  Cl28  1  0.56160376  0.29211729  0.87249721  1
  Cl  Cl29  1  0.15061817  0.41998053  0.14122292  1
  Cl  Cl30  1  0.65589176  0.81013382  0.25729824  1
  Cl  Cl31  1  0.06541151  0.92966869  0.73738079  1
  Cl  Cl32  1  0.68565536  0.18565536  0.12868928  1
  Cl  Cl33  1  0.31028339  0.81028339  0.87943322  1
  Cl  Cl34  1  0.19452820  0.31015100  0.49532081  1
  Cl  Cl35  1  0.81015100  0.69452820  0.49532081  1
  Cl  Cl36  1  0.64150082  0.14150082  0.47919281  1
  Cl  Cl37  1  0.11022179  0.61022179  0.50425286  1
  Cl  Cl38  1  0.37930637  0.87930637  0.47919281  1
  Cl  Cl39  1  0.88552535  0.38552535  0.50425286  1
