# generated using pymatgen
data_FeHO2
_symmetry_space_group_name_H-M   'P 1'
_cell_length_a   9.74078480
_cell_length_b   3.05524883
_cell_length_c   4.96295586
_cell_angle_alpha   91.16863247
_cell_angle_beta   90.00000000
_cell_angle_gamma   90.00000000
_symmetry_Int_Tables_number   1
_chemical_formula_structural   FeHO2
_chemical_formula_sum   'Fe4 H4 O8'
_cell_volume   147.66943210
_cell_formula_units_Z   4
loop_
 _symmetry_equiv_pos_site_id
 _symmetry_equiv_pos_as_xyz
  1  'x, y, z'
loop_
 _atom_site_type_symbol
 _atom_site_label
 _atom_site_symmetry_multiplicity
 _atom_site_fract_x
 _atom_site_fract_y
 _atom_site_fract_z
 _atom_site_occupancy
  Fe  Fe0  1  0.61986250  0.23848660  0.54672363  1
  Fe  Fe1  1  0.11986250  0.26151340  0.95327637  1
  Fe  Fe2  1  0.31470399  0.75593611  0.44076210  1
  Fe  Fe3  1  0.81470399  0.74406389  0.05923790  1
  H  H4  1  0.37389800  0.26185691  0.96486917  1
  H  H5  1  0.87389800  0.23814309  0.53513083  1
  H  H6  1  0.54829592  0.71518089  0.10024213  1
  H  H7  1  0.04829592  0.78481911  0.39975787  1
  O  O8  1  0.31872810  0.26311831  0.13480067  1
  O  O9  1  0.81872810  0.23688169  0.36519933  1
  O  O10  1  0.67104514  0.74668149  0.77869414  1
  O  O11  1  0.17104514  0.75331851  0.72130586  1
  O  O12  1  0.41505168  0.25455526  0.61783951  1
  O  O13  1  0.91505168  0.24544474  0.88216049  1
  O  O14  1  0.59945467  0.72712699  0.27004198  1
  O  O15  1  0.09945467  0.77287301  0.22995802  1
