# generated using pymatgen
data_FeCoSn4
_symmetry_space_group_name_H-M   'P 1'
_cell_length_a   5.27108456
_cell_length_b   5.27108456
_cell_length_c   5.27108456
_cell_angle_alpha   62.50391683
_cell_angle_beta   74.38594913
_cell_angle_gamma   105.61405087
_symmetry_Int_Tables_number   1
_chemical_formula_structural   FeCoSn4
_chemical_formula_sum   'Fe1 Co1 Sn4'
_cell_volume   111.05974386
_cell_formula_units_Z   1
loop_
 _symmetry_equiv_pos_site_id
 _symmetry_equiv_pos_as_xyz
  1  'x, y, z'
loop_
 _atom_site_type_symbol
 _atom_site_label
 _atom_site_symmetry_multiplicity
 _atom_site_fract_x
 _atom_site_fract_y
 _atom_site_fract_z
 _atom_site_occupancy
  Fe  Fe0  1  -0.00000000  0.75000000  0.25000000  1
  Co  Co1  1  -0.00000000  0.25000000  0.75000000  1
  Sn  Sn2  1  0.50000000  0.33422125  0.83422125  1
  Sn  Sn3  1  0.50000000  0.66577875  0.16577875  1
  Sn  Sn4  1  0.16844251  0.83422125  0.66577875  1
  Sn  Sn5  1  0.83155749  0.16577875  0.33422125  1
