# generated using pymatgen
data_FeCu(RhS2)4
_symmetry_space_group_name_H-M   'P 1'
_cell_length_a   6.89985131
_cell_length_b   6.89985131
_cell_length_c   6.89985131
_cell_angle_alpha   90.00000000
_cell_angle_beta   60.00000000
_cell_angle_gamma   120.00000000
_symmetry_Int_Tables_number   1
_chemical_formula_structural   FeCu(RhS2)4
_chemical_formula_sum   'Fe1 Cu1 Rh4 S8'
_cell_volume   232.27592473
_cell_formula_units_Z   1
loop_
 _symmetry_equiv_pos_site_id
 _symmetry_equiv_pos_as_xyz
  1  'x, y, z'
loop_
 _atom_site_type_symbol
 _atom_site_label
 _atom_site_symmetry_multiplicity
 _atom_site_fract_x
 _atom_site_fract_y
 _atom_site_fract_z
 _atom_site_occupancy
  Fe  Fe0  1  0.25000000  0.62500000  0.62500000  1
  Cu  Cu1  1  0.75000000  0.37500000  0.37500000  1
  Rh  Rh2  1  0.50256363  0.50384545  0.99871818  1
  Rh  Rh3  1  0.50256363  0.99871818  0.99871818  1
  Rh  Rh4  1  0.99743637  0.99871818  0.50384545  1
  Rh  Rh5  1  0.99743637  0.99871818  0.99871818  1
  S  S6  1  0.01799623  0.77699435  0.24100188  1
  S  S7  1  0.01799623  0.24100188  0.24100188  1
  S  S8  1  0.48200377  0.24100188  0.77699435  1
  S  S9  1  0.48200377  0.24100188  0.24100188  1
  S  S10  1  0.99752093  0.24628139  0.75123954  1
  S  S11  1  0.99752093  0.75123954  0.75123954  1
  S  S12  1  0.50247907  0.75123954  0.24628139  1
  S  S13  1  0.50247907  0.75123954  0.75123954  1
