# generated using pymatgen
data_Dy4CdSe7
_symmetry_space_group_name_H-M   'P 1'
_cell_length_a   4.00045457
_cell_length_b   6.95151353
_cell_length_c   12.16457687
_cell_angle_alpha   104.33209503
_cell_angle_beta   89.99999995
_cell_angle_gamma   73.27730532
_symmetry_Int_Tables_number   1
_chemical_formula_structural   Dy4CdSe7
_chemical_formula_sum   'Dy4 Cd1 Se7'
_cell_volume   312.97132481
_cell_formula_units_Z   1
loop_
 _symmetry_equiv_pos_site_id
 _symmetry_equiv_pos_as_xyz
  1  'x, y, z'
loop_
 _atom_site_type_symbol
 _atom_site_label
 _atom_site_symmetry_multiplicity
 _atom_site_fract_x
 _atom_site_fract_y
 _atom_site_fract_z
 _atom_site_occupancy
  Dy  Dy0  1  0.69396006  0.61207989  0.19906923  1
  Dy  Dy1  1  0.30668285  0.38663431  0.80376632  1
  Dy  Dy2  1  0.00002176  0.99995648  0.00244976  1
  Dy  Dy3  1  0.11507413  0.76985174  0.57143464  1
  Cd  Cd4  1  0.88396973  0.23206054  0.42160395  1
  Se  Se5  1  0.74241861  0.51516278  0.64694895  1
  Se  Se6  1  0.25853041  0.48293919  0.35118157  1
  Se  Se7  1  0.33948344  0.32103312  0.04923841  1
  Se  Se8  1  0.66065933  0.67868135  0.94878220  1
  Se  Se9  1  0.03763917  0.92472166  0.21826073  1
  Se  Se10  1  0.96189306  0.07621388  0.78528939  1
  Se  Se11  1  0.49966747  0.00066506  0.50197485  1
