# generated using pymatgen
data_Ga2Ni7Ge2
_symmetry_space_group_name_H-M   'P 1'
_cell_length_a   3.98750927
_cell_length_b   3.98750927
_cell_length_c   9.98411414
_cell_angle_alpha   90.00000000
_cell_angle_beta   90.00000000
_cell_angle_gamma   120.00434317
_symmetry_Int_Tables_number   1
_chemical_formula_structural   Ga2Ni7Ge2
_chemical_formula_sum   'Ga2 Ni7 Ge2'
_cell_volume   137.47526711
_cell_formula_units_Z   1
loop_
 _symmetry_equiv_pos_site_id
 _symmetry_equiv_pos_as_xyz
  1  'x, y, z'
loop_
 _atom_site_type_symbol
 _atom_site_label
 _atom_site_symmetry_multiplicity
 _atom_site_fract_x
 _atom_site_fract_y
 _atom_site_fract_z
 _atom_site_occupancy
  Ga  Ga0  1  0.66667114  0.33332886  0.37500000  1
  Ga  Ga1  1  0.66667586  0.33332414  0.87500000  1
  Ni  Ni2  1  0.00001581  0.99998419  0.24952116  1
  Ni  Ni3  1  0.99997887  0.00002113  0.75092293  1
  Ni  Ni4  1  0.99997887  0.00002113  0.99907707  1
  Ni  Ni5  1  0.00001581  0.99998419  0.50047884  1
  Ni  Ni6  1  0.66666964  0.33333036  0.12006623  1
  Ni  Ni7  1  0.66666964  0.33333036  0.62993377  1
  Ni  Ni8  1  0.33335438  0.66664562  0.37500000  1
  Ge  Ge9  1  0.33333499  0.66666501  0.11593898  1
  Ge  Ge10  1  0.33333499  0.66666501  0.63406102  1
