# generated using pymatgen
data_Ga12OF36
_symmetry_space_group_name_H-M   'P 1'
_cell_length_a   7.33034848
_cell_length_b   10.46044249
_cell_length_c   10.46044249
_cell_angle_alpha   74.20950769
_cell_angle_beta   69.48918419
_cell_angle_gamma   69.48918419
_symmetry_Int_Tables_number   1
_chemical_formula_structural   Ga12OF36
_chemical_formula_sum   'Ga12 O1 F36'
_cell_volume   693.34815567
_cell_formula_units_Z   1
loop_
 _symmetry_equiv_pos_site_id
 _symmetry_equiv_pos_as_xyz
  1  'x, y, z'
loop_
 _atom_site_type_symbol
 _atom_site_label
 _atom_site_symmetry_multiplicity
 _atom_site_fract_x
 _atom_site_fract_y
 _atom_site_fract_z
 _atom_site_occupancy
  Ga  Ga0  1  0.75011934  0.74993434  0.74982698  1
  Ga  Ga1  1  0.24997043  0.25006969  0.24998945  1
  Ga  Ga2  1  0.00002957  0.50001055  0.49993031  1
  Ga  Ga3  1  0.49988066  0.00017302  0.00006566  1
  Ga  Ga4  1  0.49989136  0.00015462  0.50009828  1
  Ga  Ga5  1  0.00038920  0.49934563  0.99956399  1
  Ga  Ga6  1  0.99985574  0.00015462  0.50009828  1
  Ga  Ga7  1  0.50070119  0.49934563  0.99956399  1
  Ga  Ga8  1  0.25014426  0.24990172  0.74984538  1
  Ga  Ga9  1  0.74929881  0.75043601  0.25065437  1
  Ga  Ga10  1  0.75010864  0.24990172  0.74984538  1
  Ga  Ga11  1  0.24961080  0.75043601  0.25065437  1
  O  O12  1  0.12500000  0.82146944  0.92853056  1
  F  F13  1  0.62500000  0.84007823  0.90992177  1
  F  F14  1  0.12500000  0.34005602  0.40994398  1
  F  F15  1  0.87507118  0.65996002  0.58989762  1
  F  F16  1  0.37492882  0.16010238  0.09003998  1
  F  F17  1  0.95477619  0.62505616  0.83481391  1
  F  F18  1  0.45511920  0.12550287  0.33473584  1
  F  F19  1  0.91513567  0.87459312  0.66531093  1
  F  F20  1  0.41547689  0.37452083  0.16530425  1
  F  F21  1  0.16535791  0.41526416  0.62449713  1
  F  F22  1  0.66464627  0.91518609  0.12494384  1
  F  F23  1  0.70503972  0.08468907  0.87540688  1
  F  F24  1  0.20530197  0.58469575  0.37547917  1
  F  F25  1  0.54496028  0.87459312  0.66531093  1
  F  F26  1  0.04469803  0.37452083  0.16530425  1
  F  F27  1  0.58535373  0.62505616  0.83481391  1
  F  F28  1  0.08464209  0.12550287  0.33473584  1
  F  F29  1  0.33486433  0.08468907  0.87540688  1
  F  F30  1  0.83452311  0.58469575  0.37547917  1
  F  F31  1  0.79488080  0.41526416  0.62449713  1
  F  F32  1  0.29522381  0.91518609  0.12494384  1
  F  F33  1  0.40722601  0.15415412  0.59584588  1
  F  F34  1  0.90632061  0.65338845  0.09661155  1
  F  F35  1  0.65791772  0.34535043  0.90399510  1
  F  F36  1  0.15726324  0.84600490  0.40464957  1
  F  F37  1  0.09273676  0.34535043  0.90399510  1
  F  F38  1  0.59208228  0.84600490  0.40464957  1
  F  F39  1  0.84277399  0.15415412  0.59584588  1
  F  F40  1  0.34367939  0.65338845  0.09661155  1
  F  F41  1  0.97791435  0.80885343  0.23531787  1
  F  F42  1  0.47905340  0.30950085  0.73239235  1
  F  F43  1  0.52091598  0.69059804  0.26757000  1
  F  F44  1  0.02104077  0.19045241  0.76746604  1
  F  F45  1  0.77094660  0.01760765  0.44049915  1
  F  F46  1  0.27208565  0.51468213  0.94114657  1
  F  F47  1  0.72908402  0.48243000  0.05940196  1
  F  F48  1  0.22895923  0.98253396  0.55954759  1
