# generated using pymatgen
data_Sr(H2O3)2
_symmetry_space_group_name_H-M   'P 1'
_cell_length_a   5.13869147
_cell_length_b   5.13869147
_cell_length_c   9.38844258
_cell_angle_alpha   103.86702943
_cell_angle_beta   76.13297057
_cell_angle_gamma   110.56925170
_symmetry_Int_Tables_number   1
_chemical_formula_structural   Sr(H2O3)2
_chemical_formula_sum   'Sr2 H8 O12'
_cell_volume   222.02243110
_cell_formula_units_Z   2
loop_
 _symmetry_equiv_pos_site_id
 _symmetry_equiv_pos_as_xyz
  1  'x, y, z'
loop_
 _atom_site_type_symbol
 _atom_site_label
 _atom_site_symmetry_multiplicity
 _atom_site_fract_x
 _atom_site_fract_y
 _atom_site_fract_z
 _atom_site_occupancy
  Sr  Sr0  1  0.88375479  0.88662740  0.73880864  1
  Sr  Sr1  1  0.11337260  0.11624521  0.23880864  1
  H  H2  1  0.10055364  0.58433811  0.94263679  1
  H  H3  1  0.30079479  0.98867895  0.88700733  1
  H  H4  1  0.64400098  0.17725095  0.61501958  1
  H  H5  1  0.82274905  0.35599902  0.11501958  1
  H  H6  1  0.41566189  0.89944636  0.44263679  1
  H  H7  1  0.01132105  0.69920521  0.38700733  1
  H  H8  1  0.35443988  0.19701129  0.51259766  1
  H  H9  1  0.80298871  0.64556012  0.01259766  1
  O  O10  1  0.01734773  0.73707697  0.98458556  1
  O  O11  1  0.84175874  0.20890743  0.56517427  1
  O  O12  1  0.79109257  0.15824126  0.06517427  1
  O  O13  1  0.26292303  0.98265227  0.48458556  1
  O  O14  1  0.41278704  0.06725032  0.79751068  1
  O  O15  1  0.99106706  0.39394478  0.68756244  1
  O  O16  1  0.60605522  0.00893294  0.18756244  1
  O  O17  1  0.93274968  0.58721296  0.29751068  1
  O  O18  1  0.50167826  0.52038718  0.53875047  1
  O  O19  1  0.41596802  0.44719057  0.90437957  1
  O  O20  1  0.55280943  0.58403198  0.40437957  1
  O  O21  1  0.47961282  0.49832174  0.03875047  1
