# generated using pymatgen
data_Fe3Ni3B2
_symmetry_space_group_name_H-M   'P 1'
_cell_length_a   4.40939560
_cell_length_b   5.29250868
_cell_length_c   6.62096762
_cell_angle_alpha   90.00000000
_cell_angle_beta   89.98159306
_cell_angle_gamma   90.00000000
_symmetry_Int_Tables_number   1
_chemical_formula_structural   Fe3Ni3B2
_chemical_formula_sum   'Fe6 Ni6 B4'
_cell_volume   154.51195418
_cell_formula_units_Z   2
loop_
 _symmetry_equiv_pos_site_id
 _symmetry_equiv_pos_as_xyz
  1  'x, y, z'
loop_
 _atom_site_type_symbol
 _atom_site_label
 _atom_site_symmetry_multiplicity
 _atom_site_fract_x
 _atom_site_fract_y
 _atom_site_fract_z
 _atom_site_occupancy
  Fe  Fe0  1  0.35335312  0.67744919  0.05640439  1
  Fe  Fe1  1  0.14664688  0.17744919  0.44359561  1
  Fe  Fe2  1  0.64695439  0.32112216  0.56123064  1
  Fe  Fe3  1  0.85304561  0.82112216  0.93876936  1
  Fe  Fe4  1  0.65034263  0.31908824  0.93999174  1
  Fe  Fe5  1  0.84965737  0.81908824  0.56000826  1
  Ni  Ni6  1  0.34801471  0.68301802  0.43433055  1
  Ni  Ni7  1  0.15198529  0.18301802  0.06566945  1
  Ni  Ni8  1  0.87044523  0.52682929  0.25205031  1
  Ni  Ni9  1  0.62955477  0.02682929  0.24794969  1
  Ni  Ni10  1  0.13087579  0.47151471  0.74895254  1
  Ni  Ni11  1  0.36912421  0.97151471  0.75104746  1
  B  B12  1  0.05641742  0.87886499  0.24558113  1
  B  B13  1  0.44358258  0.37886499  0.25441887  1
  B  B14  1  0.94504325  0.12211340  0.75080340  1
  B  B15  1  0.55495675  0.62211340  0.74919660  1
