# generated using pymatgen
data_GaFeGe
_symmetry_space_group_name_H-M   'P 1'
_cell_length_a   5.07948384
_cell_length_b   5.03489819
_cell_length_c   8.37987437
_cell_angle_alpha   98.79386620
_cell_angle_beta   72.35753253
_cell_angle_gamma   120.29335938
_symmetry_Int_Tables_number   1
_chemical_formula_structural   GaFeGe
_chemical_formula_sum   'Ga4 Fe4 Ge4'
_cell_volume   176.34556357
_cell_formula_units_Z   4
loop_
 _symmetry_equiv_pos_site_id
 _symmetry_equiv_pos_as_xyz
  1  'x, y, z'
loop_
 _atom_site_type_symbol
 _atom_site_label
 _atom_site_symmetry_multiplicity
 _atom_site_fract_x
 _atom_site_fract_y
 _atom_site_fract_z
 _atom_site_occupancy
  Ga  Ga0  1  0.33532641  0.50000000  0.32934718  1
  Ga  Ga1  1  0.16467359  0.50000000  0.67065282  1
  Ga  Ga2  1  0.41467359  -0.00000000  0.17065282  1
  Ga  Ga3  1  0.58532641  0.00000000  0.82934718  1
  Fe  Fe4  1  0.62176420  0.50000000  0.75647160  1
  Fe  Fe5  1  0.87823580  0.50000000  0.24352840  1
  Fe  Fe6  1  0.12823580  -0.00000000  0.74352840  1
  Fe  Fe7  1  0.87176420  0.00000000  0.25647160  1
  Ge  Ge8  1  0.58770482  0.17540963  0.50000000  1
  Ge  Ge9  1  0.91229518  0.82459037  0.50000000  1
  Ge  Ge10  1  0.16229518  0.32459037  -0.00000000  1
  Ge  Ge11  1  0.83770482  0.67540963  -0.00000000  1
