# generated using pymatgen
data_Er2MnS4
_symmetry_space_group_name_H-M   'P 1'
_cell_length_a   3.75729025
_cell_length_b   6.43078842
_cell_length_c   12.77401965
_cell_angle_alpha   90.00000000
_cell_angle_beta   90.00000000
_cell_angle_gamma   73.01430041
_symmetry_Int_Tables_number   1
_chemical_formula_structural   Er2MnS4
_chemical_formula_sum   'Er4 Mn2 S8'
_cell_volume   295.18615718
_cell_formula_units_Z   2
loop_
 _symmetry_equiv_pos_site_id
 _symmetry_equiv_pos_as_xyz
  1  'x, y, z'
loop_
 _atom_site_type_symbol
 _atom_site_label
 _atom_site_symmetry_multiplicity
 _atom_site_fract_x
 _atom_site_fract_y
 _atom_site_fract_z
 _atom_site_occupancy
  Er  Er0  1  0.38116968  0.23766063  0.78426818  1
  Er  Er1  1  0.61883032  0.76233937  0.28426818  1
  Er  Er2  1  0.13769245  0.72461510  0.58191423  1
  Er  Er3  1  0.86230755  0.27538490  0.08191423  1
  Mn  Mn4  1  0.12612160  0.74775680  0.94551955  1
  Mn  Mn5  1  0.87387840  0.25224320  0.44551955  1
  S  S6  1  0.78984256  0.42031488  0.63550759  1
  S  S7  1  0.21015744  0.57968512  0.13550759  1
  S  S8  1  0.48956824  0.02086352  0.99655126  1
  S  S9  1  0.51043176  0.97913648  0.49655126  1
  S  S10  1  0.76159726  0.47680548  0.89532563  1
  S  S11  1  0.23840274  0.52319452  0.39532563  1
  S  S12  1  0.03767901  0.92464198  0.76891356  1
  S  S13  1  0.96232099  0.07535802  0.26891356  1
