# generated using pymatgen
data_Mo2H2O7
_symmetry_space_group_name_H-M   'P 1'
_cell_length_a   9.46779574
_cell_length_b   3.80801414
_cell_length_c   7.40245656
_cell_angle_alpha   90.00000000
_cell_angle_beta   104.39288827
_cell_angle_gamma   90.00000000
_symmetry_Int_Tables_number   1
_chemical_formula_structural   Mo2H2O7
_chemical_formula_sum   'Mo4 H4 O14'
_cell_volume   258.50803814
_cell_formula_units_Z   2
loop_
 _symmetry_equiv_pos_site_id
 _symmetry_equiv_pos_as_xyz
  1  'x, y, z'
loop_
 _atom_site_type_symbol
 _atom_site_label
 _atom_site_symmetry_multiplicity
 _atom_site_fract_x
 _atom_site_fract_y
 _atom_site_fract_z
 _atom_site_occupancy
  Mo  Mo0  1  0.97499482  0.25089535  0.18398090  1
  Mo  Mo1  1  0.02500518  0.75089535  0.81601910  1
  Mo  Mo2  1  0.44049091  0.71677547  0.16748053  1
  Mo  Mo3  1  0.55950909  0.21677547  0.83251947  1
  H  H4  1  0.71835718  0.94963305  0.31153907  1
  H  H5  1  0.28164282  0.44963305  0.68846093  1
  H  H6  1  0.29610983  0.85779810  0.40118855  1
  H  H7  1  0.70389017  0.35779810  0.59881145  1
  O  O8  1  0.64359054  0.76370633  0.28580028  1
  O  O9  1  0.35640946  0.26370633  0.71419972  1
  O  O10  1  0.87970606  0.22516292  0.35542161  1
  O  O11  1  0.12029394  0.72516292  0.64457839  1
  O  O12  1  0.96660187  0.75108988  0.10034036  1
  O  O13  1  0.03339813  0.25108988  0.89965964  1
  O  O14  1  0.15439798  0.24211674  0.31322403  1
  O  O15  1  0.84560202  0.74211674  0.68677597  1
  O  O16  1  0.46962722  0.24694386  0.11011225  1
  O  O17  1  0.53037278  0.74694386  0.88988775  1
  O  O18  1  0.73935528  0.26810075  0.97608359  1
  O  O19  1  0.26064472  0.76810075  0.02391641  1
  O  O20  1  0.39071889  0.75450654  0.39475353  1
  O  O21  1  0.60928111  0.25450654  0.60524647  1
