# generated using pymatgen
data_In23Se28
_symmetry_space_group_name_H-M   'P 1'
_cell_length_a   8.24733603
_cell_length_b   18.51710115
_cell_length_c   10.45237313
_cell_angle_alpha   105.37276930
_cell_angle_beta   113.23602778
_cell_angle_gamma   77.13262029
_symmetry_Int_Tables_number   1
_chemical_formula_structural   In23Se28
_chemical_formula_sum   'In23 Se28'
_cell_volume   1401.67502630
_cell_formula_units_Z   1
loop_
 _symmetry_equiv_pos_site_id
 _symmetry_equiv_pos_as_xyz
  1  'x, y, z'
loop_
 _atom_site_type_symbol
 _atom_site_label
 _atom_site_symmetry_multiplicity
 _atom_site_fract_x
 _atom_site_fract_y
 _atom_site_fract_z
 _atom_site_occupancy
  In  In0  1  0.19308516  0.53276177  0.66893210  1
  In  In1  1  0.69309444  0.53471594  0.67090481  1
  In  In2  1  0.30263480  0.46862452  0.32563794  1
  In  In3  1  0.80437862  0.46862452  0.32563794  1
  In  In4  1  0.41656484  0.39748692  0.98061661  1
  In  In5  1  0.91615032  0.39752171  0.97982236  1
  In  In6  1  0.08218291  0.60489152  0.01985691  1
  In  In7  1  0.58278248  0.60489152  0.01985691  1
  In  In8  1  0.80861445  0.81027188  0.17750079  1
  In  In9  1  0.30991170  0.81112594  0.18094934  1
  In  In10  1  0.69098737  0.18769285  0.81921456  1
  In  In11  1  0.19053434  0.18769285  0.81921456  1
  In  In12  1  0.28032993  0.04484301  0.35550287  1
  In  In13  1  0.77967550  0.04591392  0.35526491  1
  In  In14  1  0.22128999  0.95304452  0.64646314  1
  In  In15  1  0.72212863  0.95304452  0.64646314  1
  In  In16  1  0.15260128  0.87649413  0.93169669  1
  In  In17  1  0.65215966  0.87603253  0.93035186  1
  In  In18  1  0.34658777  0.12178506  0.06548972  1
  In  In19  1  0.84711689  0.12178506  0.06548972  1
  In  In20  1  0.02808916  0.72579084  0.53196915  1
  In  In21  1  0.97114737  0.27556671  0.46708723  1
  In  In22  1  0.47037314  0.27556671  0.46708723  1
  Se  Se23  1  0.53976863  0.00796013  0.83749739  1
  Se  Se24  1  0.03991937  0.00935082  0.83918956  1
  Se  Se25  1  0.95901320  0.99337110  0.16410154  1
  Se  Se26  1  0.46171724  0.99337110  0.16410154  1
  Se  Se27  1  0.16139353  0.17759742  0.25038449  1
  Se  Se28  1  0.66039537  0.17882039  0.24961113  1
  Se  Se29  1  0.33866062  0.82259529  0.75357390  1
  Se  Se30  1  0.84231799  0.82259529  0.75357390  1
  Se  Se31  1  0.36675527  0.27206275  0.75557329  1
  Se  Se32  1  0.86650972  0.27216201  0.75518145  1
  Se  Se33  1  0.13221003  0.72743791  0.24432225  1
  Se  Se34  1  0.63467431  0.72743791  0.24432225  1
  Se  Se35  1  0.89306462  0.90788446  0.44401370  1
  Se  Se36  1  0.39232323  0.90951065  0.44415712  1
  Se  Se37  1  0.60733207  0.09268418  0.55636479  1
  Se  Se38  1  0.10634854  0.09268418  0.55636479  1
  Se  Se39  1  0.94464780  0.53235492  0.17165053  1
  Se  Se40  1  0.44436910  0.53257938  0.17131757  1
  Se  Se41  1  0.55709674  0.46717405  0.83132179  1
  Se  Se42  1  0.05705100  0.46717405  0.83132179  1
  Se  Se43  1  0.23770395  0.65695664  0.88236454  1
  Se  Se44  1  0.73808607  0.65694563  0.88311776  1
  Se  Se45  1  0.26219722  0.34279245  0.11759911  1
  Se  Se46  1  0.76260945  0.34279245  0.11759911  1
  Se  Se47  1  0.15683162  0.40349115  0.46715438  1
  Se  Se48  1  0.65629777  0.40605917  0.46865472  1
  Se  Se49  1  0.34355896  0.59149280  0.53277756  1
  Se  Se50  1  0.84772579  0.59149280  0.53277756  1
