# generated using pymatgen
data_Fe7Ge4
_symmetry_space_group_name_H-M   'P 1'
_cell_length_a   4.06064745
_cell_length_b   4.06234208
_cell_length_c   9.95247239
_cell_angle_alpha   90.00000000
_cell_angle_beta   90.00000000
_cell_angle_gamma   59.98619385
_symmetry_Int_Tables_number   1
_chemical_formula_structural   Fe7Ge4
_chemical_formula_sum   'Fe7 Ge4'
_cell_volume   142.15853971
_cell_formula_units_Z   1
loop_
 _symmetry_equiv_pos_site_id
 _symmetry_equiv_pos_as_xyz
  1  'x, y, z'
loop_
 _atom_site_type_symbol
 _atom_site_label
 _atom_site_symmetry_multiplicity
 _atom_site_fract_x
 _atom_site_fract_y
 _atom_site_fract_z
 _atom_site_occupancy
  Fe  Fe0  1  0.99992460  0.00003770  0.24876824  1
  Fe  Fe1  1  0.00011348  0.99994326  0.74879048  1
  Fe  Fe2  1  0.99992460  0.00003770  0.00123176  1
  Fe  Fe3  1  0.00011348  0.99994326  0.50120952  1
  Fe  Fe4  1  0.33287904  0.33356048  0.62500000  1
  Fe  Fe5  1  0.66673841  0.66663079  0.36514122  1
  Fe  Fe6  1  0.66673841  0.66663079  0.88485878  1
  Ge  Ge7  1  0.33363122  0.33318439  0.37221934  1
  Ge  Ge8  1  0.33363122  0.33318439  0.87778066  1
  Ge  Ge9  1  0.66669095  0.66665452  0.12500000  1
  Ge  Ge10  1  0.66621458  0.66689271  0.62500000  1
