# generated using pymatgen
data_Er3S2OF3
_symmetry_space_group_name_H-M   'P 1'
_cell_length_a   5.37310731
_cell_length_b   9.85341696
_cell_length_c   5.36973090
_cell_angle_alpha   89.76345836
_cell_angle_beta   89.13241018
_cell_angle_gamma   74.17786693
_symmetry_Int_Tables_number   1
_chemical_formula_structural   Er3S2OF3
_chemical_formula_sum   'Er6 S4 O2 F6'
_cell_volume   273.48976110
_cell_formula_units_Z   2
loop_
 _symmetry_equiv_pos_site_id
 _symmetry_equiv_pos_as_xyz
  1  'x, y, z'
loop_
 _atom_site_type_symbol
 _atom_site_label
 _atom_site_symmetry_multiplicity
 _atom_site_fract_x
 _atom_site_fract_y
 _atom_site_fract_z
 _atom_site_occupancy
  Er  Er0  1  0.24602977  0.50107256  0.74636418  1
  Er  Er1  1  0.74710233  0.49892744  0.24636418  1
  Er  Er2  1  0.91880169  0.19621994  0.76792425  1
  Er  Er3  1  0.38803413  0.18737958  0.23189337  1
  Er  Er4  1  0.11502163  0.80378006  0.26792425  1
  Er  Er5  1  0.57541371  0.81262042  0.73189337  1
  S  S6  1  0.05034533  0.88996682  0.75880123  1
  S  S7  1  0.55866018  0.89117686  0.24119579  1
  S  S8  1  0.94031215  0.11003318  0.25880123  1
  S  S9  1  0.44983704  0.10882314  0.74119579  1
  O  O10  1  0.01268294  0.37055080  0.94629183  1
  O  O11  1  0.38323374  0.62944920  0.44629183  1
  F  F12  1  0.12342611  0.37340337  0.44232879  1
  F  F13  1  0.49682949  0.62659663  0.94232879  1
  F  F14  1  0.98796437  0.63377422  0.05698351  1
  F  F15  1  0.87840064  0.62776551  0.55821706  1
  F  F16  1  0.62173859  0.36622578  0.55698351  1
  F  F17  1  0.50616614  0.37223449  0.05821706  1
