# generated using pymatgen
data_CrFe3B2
_symmetry_space_group_name_H-M   'P 1'
_cell_length_a   4.18706266
_cell_length_b   4.14617586
_cell_length_c   4.14617586
_cell_angle_alpha   60.48659158
_cell_angle_beta   75.45092618
_cell_angle_gamma   104.54907382
_symmetry_Int_Tables_number   1
_chemical_formula_structural   CrFe3B2
_chemical_formula_sum   'Cr1 Fe3 B2'
_cell_volume   54.29185048
_cell_formula_units_Z   1
loop_
 _symmetry_equiv_pos_site_id
 _symmetry_equiv_pos_as_xyz
  1  'x, y, z'
loop_
 _atom_site_type_symbol
 _atom_site_label
 _atom_site_symmetry_multiplicity
 _atom_site_fract_x
 _atom_site_fract_y
 _atom_site_fract_z
 _atom_site_occupancy
  Cr  Cr0  1  0.50000000  0.34072780  0.84072780  1
  Fe  Fe1  1  0.50000000  0.66476764  0.16476764  1
  Fe  Fe2  1  0.16819190  0.83277282  0.66458092  1
  Fe  Fe3  1  0.83180810  0.16458092  0.33277282  1
  B  B4  1  -0.00000000  0.24857541  0.74857541  1
  B  B5  1  -0.00000000  0.74857541  0.24857541  1
