# generated using pymatgen
data_Cs12Sn2Bi6O
_symmetry_space_group_name_H-M   'P 1'
_cell_length_a   6.59217547
_cell_length_b   13.64174984
_cell_length_c   13.64488760
_cell_angle_alpha   60.00760882
_cell_angle_beta   90.00168439
_cell_angle_gamma   90.00000000
_symmetry_Int_Tables_number   1
_chemical_formula_structural   Cs12Sn2Bi6O
_chemical_formula_sum   'Cs12 Sn2 Bi6 O1'
_cell_volume   1062.75394804
_cell_formula_units_Z   1
loop_
 _symmetry_equiv_pos_site_id
 _symmetry_equiv_pos_as_xyz
  1  'x, y, z'
loop_
 _atom_site_type_symbol
 _atom_site_label
 _atom_site_symmetry_multiplicity
 _atom_site_fract_x
 _atom_site_fract_y
 _atom_site_fract_z
 _atom_site_occupancy
  Cs  Cs0  1  0.75054964  0.54885342  0.54885092  1
  Cs  Cs1  1  0.75055272  0.54885353  0.90229294  1
  Cs  Cs2  1  0.75054964  0.90229566  0.54885092  1
  Cs  Cs3  1  0.24945036  0.45114658  0.45114908  1
  Cs  Cs4  1  0.24944728  0.45114647  0.09770706  1
  Cs  Cs5  1  0.24945036  0.09770434  0.45114908  1
  Cs  Cs6  1  0.72342609  0.88887053  0.88886138  1
  Cs  Cs7  1  0.72342770  0.88886962  0.22226076  1
  Cs  Cs8  1  0.72342609  0.22226809  0.88886138  1
  Cs  Cs9  1  0.27657391  0.11112947  0.11113862  1
  Cs  Cs10  1  0.27657230  0.11113038  0.77773924  1
  Cs  Cs11  1  0.27657391  0.77773191  0.11113862  1
  Sn  Sn12  1  0.24920684  0.66661333  0.66677334  1
  Sn  Sn13  1  0.75079316  0.33338667  0.33322666  1
  Bi  Bi14  1  0.75091797  0.21149317  0.21150766  1
  Bi  Bi15  1  0.75091075  0.21145936  0.57708127  1
  Bi  Bi16  1  0.75091797  0.57699917  0.21150766  1
  Bi  Bi17  1  0.24908203  0.78850683  0.78849234  1
  Bi  Bi18  1  0.24908925  0.78854064  0.42291873  1
  Bi  Bi19  1  0.24908203  0.42300083  0.78849234  1
  O  O20  1  0.50000000  0.00000000  -0.00000000  1
