# generated using pymatgen
data_CoCu2GeSe4
_symmetry_space_group_name_H-M   'P 1'
_cell_length_a   5.59450864
_cell_length_b   6.84484240
_cell_length_c   5.60574343
_cell_angle_alpha   65.81541646
_cell_angle_beta   89.97324169
_cell_angle_gamma   65.86693182
_symmetry_Int_Tables_number   1
_chemical_formula_structural   CoCu2GeSe4
_chemical_formula_sum   'Co1 Cu2 Ge1 Se4'
_cell_volume   175.07351896
_cell_formula_units_Z   1
loop_
 _symmetry_equiv_pos_site_id
 _symmetry_equiv_pos_as_xyz
  1  'x, y, z'
loop_
 _atom_site_type_symbol
 _atom_site_label
 _atom_site_symmetry_multiplicity
 _atom_site_fract_x
 _atom_site_fract_y
 _atom_site_fract_z
 _atom_site_occupancy
  Co  Co0  1  0.50021425  0.99957150  0.50021425  1
  Cu  Cu1  1  0.99967289  0.00065422  0.99967289  1
  Cu  Cu2  1  0.24991492  0.50017017  0.74991492  1
  Ge  Ge3  1  0.74997405  0.50005191  0.24997405  1
  Se  Se4  1  0.62232732  0.24246069  0.62839854  1
  Se  Se5  1  0.87145002  0.75731541  0.37739561  1
  Se  Se6  1  0.13521199  0.24246069  0.12914077  1
  Se  Se7  1  0.37123457  0.75731541  0.86528898  1
