# generated using pymatgen
data_CeGaNi4
_symmetry_space_group_name_H-M   'P 1'
_cell_length_a   3.88575989
_cell_length_b   5.09033663
_cell_length_c   5.09042098
_cell_angle_alpha   120.01552333
_cell_angle_beta   90.00000000
_cell_angle_gamma   90.00000000
_symmetry_Int_Tables_number   1
_chemical_formula_structural   CeGaNi4
_chemical_formula_sum   'Ce1 Ga1 Ni4'
_cell_volume   87.18441183
_cell_formula_units_Z   1
loop_
 _symmetry_equiv_pos_site_id
 _symmetry_equiv_pos_as_xyz
  1  'x, y, z'
loop_
 _atom_site_type_symbol
 _atom_site_label
 _atom_site_symmetry_multiplicity
 _atom_site_fract_x
 _atom_site_fract_y
 _atom_site_fract_z
 _atom_site_occupancy
  Ce  Ce0  1  -0.00000000  0.99999384  0.00003112  1
  Ga  Ga1  1  -0.00000000  0.33332544  0.66671115  1
  Ni  Ni2  1  -0.00000000  0.66661627  0.33330902  1
  Ni  Ni3  1  0.50000000  0.50269416  0.00538687  1
  Ni  Ni4  1  0.50000000  0.50270011  0.49728656  1
  Ni  Ni5  1  0.50000000  0.99457018  0.49727528  1
