# generated using pymatgen
data_CaNdFeO4
_symmetry_space_group_name_H-M   'P 1'
_cell_length_a   5.46101372
_cell_length_b   5.66909579
_cell_length_c   6.59220709
_cell_angle_alpha   90.00000000
_cell_angle_beta   65.53090885
_cell_angle_gamma   90.00000000
_symmetry_Int_Tables_number   1
_chemical_formula_structural   CaNdFeO4
_chemical_formula_sum   'Ca2 Nd2 Fe2 O8'
_cell_volume   185.75799175
_cell_formula_units_Z   2
loop_
 _symmetry_equiv_pos_site_id
 _symmetry_equiv_pos_as_xyz
  1  'x, y, z'
loop_
 _atom_site_type_symbol
 _atom_site_label
 _atom_site_symmetry_multiplicity
 _atom_site_fract_x
 _atom_site_fract_y
 _atom_site_fract_z
 _atom_site_occupancy
  Ca  Ca0  1  0.85366706  0.48039543  0.29266589  1
  Ca  Ca1  1  0.64633294  0.98039543  0.70733411  1
  Nd  Nd2  1  0.13946729  0.51900849  0.72106542  1
  Nd  Nd3  1  0.36053271  0.01900849  0.27893458  1
  Fe  Fe4  1  0.50287243  0.50302971  0.99425514  1
  Fe  Fe5  1  0.99712757  0.00302971  0.00574486  1
  O  O6  1  0.67023581  0.56906429  0.65952837  1
  O  O7  1  0.32502746  0.42972033  0.34994508  1
  O  O8  1  0.82976419  0.06906429  0.34047163  1
  O  O9  1  0.17497254  0.92972033  0.65005492  1
  O  O10  1  0.77021380  0.24939088  0.95677330  1
  O  O11  1  0.72978620  0.74939088  0.04322670  1
  O  O12  1  0.22698711  0.74939088  0.04322670  1
  O  O13  1  0.27301289  0.24939088  0.95677330  1
