# generated using pymatgen
data_CaNdCrO4
_symmetry_space_group_name_H-M   'P 1'
_cell_length_a   5.46411173
_cell_length_b   5.59375615
_cell_length_c   6.57102573
_cell_angle_alpha   89.76219070
_cell_angle_beta   65.43198703
_cell_angle_gamma   90.00000000
_symmetry_Int_Tables_number   1
_chemical_formula_structural   CaNdCrO4
_chemical_formula_sum   'Ca2 Nd2 Cr2 O8'
_cell_volume   182.65827211
_cell_formula_units_Z   2
loop_
 _symmetry_equiv_pos_site_id
 _symmetry_equiv_pos_as_xyz
  1  'x, y, z'
loop_
 _atom_site_type_symbol
 _atom_site_label
 _atom_site_symmetry_multiplicity
 _atom_site_fract_x
 _atom_site_fract_y
 _atom_site_fract_z
 _atom_site_occupancy
  Ca  Ca0  1  0.14271215  0.51433871  0.71457570  1
  Ca  Ca1  1  0.85728785  0.48566129  0.28542430  1
  Nd  Nd2  1  0.35844630  0.02062609  0.28310741  1
  Nd  Nd3  1  0.64155370  0.97937391  0.71689259  1
  Cr  Cr4  1  0.50000000  0.50000000  -0.00000000  1
  Cr  Cr5  1  -0.00000000  -0.00000000  -0.00000000  1
  O  O6  1  0.33007704  0.43476325  0.33984591  1
  O  O7  1  0.66992296  0.56523675  0.66015409  1
  O  O8  1  0.17001280  0.94078157  0.65997441  1
  O  O9  1  0.82998720  0.05921843  0.34002559  1
  O  O10  1  0.76642033  0.24430594  0.95758489  1
  O  O11  1  0.72400523  0.75569406  0.04241511  1
  O  O12  1  0.23357967  0.75569406  0.04241511  1
  O  O13  1  0.27599477  0.24430594  0.95758489  1
