# generated using pymatgen
data_BaSrV4(CuO4)4
_symmetry_space_group_name_H-M   'P 1'
_cell_length_a   8.16653554
_cell_length_b   9.99592555
_cell_length_c   9.99592555
_cell_angle_alpha   99.60569481
_cell_angle_beta   114.11021912
_cell_angle_gamma   65.88978088
_symmetry_Int_Tables_number   1
_chemical_formula_structural   BaSrV4(CuO4)4
_chemical_formula_sum   'Ba2 Sr2 V8 Cu8 O32'
_cell_volume   679.82690933
_cell_formula_units_Z   2
loop_
 _symmetry_equiv_pos_site_id
 _symmetry_equiv_pos_as_xyz
  1  'x, y, z'
loop_
 _atom_site_type_symbol
 _atom_site_label
 _atom_site_symmetry_multiplicity
 _atom_site_fract_x
 _atom_site_fract_y
 _atom_site_fract_z
 _atom_site_occupancy
  Ba  Ba0  1  0.25000000  0.50000000  0.50000000  1
  Ba  Ba1  1  0.50000000  0.00000000  0.00000000  1
  Sr  Sr2  1  0.75000000  0.50000000  0.50000000  1
  Sr  Sr3  1  -0.00000000  0.00000000  0.00000000  1
  V  V4  1  0.87500000  0.80553796  0.30553796  1
  V  V5  1  0.37500000  0.19446204  0.69446204  1
  V  V6  1  0.43053796  0.69446204  0.80553796  1
  V  V7  1  0.31946204  0.30553796  0.19446204  1
  V  V8  1  0.87500000  0.34533454  0.84533454  1
  V  V9  1  0.37500000  0.65466546  0.15466546  1
  V  V10  1  0.97033454  0.15466546  0.34533454  1
  V  V11  1  0.77966546  0.84533454  0.65466546  1
  Cu  Cu12  1  0.66900470  0.16698567  0.51560167  1
  Cu  Cu13  1  0.42961130  0.98439833  0.33301433  1
  Cu  Cu14  1  0.32038870  0.83301433  0.48439833  1
  Cu  Cu15  1  0.08099530  0.01560167  0.66698567  1
  Cu  Cu16  1  0.84659697  0.48439833  0.16698567  1
  Cu  Cu17  1  0.58599037  0.33301433  0.01560167  1
  Cu  Cu18  1  0.16400963  0.51560167  0.83301433  1
  Cu  Cu19  1  0.90340303  0.66698567  0.98439833  1
  O  O20  1  0.56984625  0.18019241  0.86244625  1
  O  O21  1  0.86240759  0.63755375  0.31980759  1
  O  O22  1  0.88759241  0.81980759  0.13755375  1
  O  O23  1  0.18015375  0.36244625  0.68019241  1
  O  O24  1  0.29260000  0.13755375  0.18019241  1
  O  O25  1  0.50003866  0.31980759  0.36244625  1
  O  O26  1  0.24996134  0.86244625  0.81980759  1
  O  O27  1  0.45740000  0.68019241  0.63755375  1
  O  O28  1  0.38036626  0.64005032  0.32441532  1
  O  O29  1  0.05399874  0.17558468  0.85994968  1
  O  O30  1  0.69600126  0.35994968  0.67558468  1
  O  O31  1  0.36963374  0.82441532  0.14005032  1
  O  O32  1  0.94404905  0.67558468  0.64005032  1
  O  O33  1  0.77041658  0.85994968  0.82441532  1
  O  O34  1  0.97958342  0.32441532  0.35994968  1
  O  O35  1  0.80595095  0.14005032  0.17558468  1
  O  O36  1  0.37272715  0.54690112  0.81523429  1
  O  O37  1  0.64560603  0.68476571  0.95309888  1
  O  O38  1  0.10439397  0.45309888  0.18476571  1
  O  O39  1  0.37727285  0.31523429  0.04690112  1
  O  O40  1  0.44250715  0.18476571  0.54690112  1
  O  O41  1  0.66962827  0.95309888  0.31523429  1
  O  O42  1  0.08037173  0.81523429  0.45309888  1
  O  O43  1  0.30749285  0.04690112  0.68476571  1
  O  O44  1  0.84705018  0.99515722  0.65142261  1
  O  O45  1  0.55921521  0.84857739  0.50484278  1
  O  O46  1  0.19078479  0.00484278  0.34857739  1
  O  O47  1  0.90294982  0.15142261  0.49515722  1
  O  O48  1  0.80437243  0.34857739  0.99515722  1
  O  O49  1  0.59220740  0.50484278  0.15142261  1
  O  O50  1  0.15779260  0.65142261  0.00484278  1
  O  O51  1  0.94562757  0.49515722  0.84857739  1
