# generated using pymatgen
data_CeGaCu4
_symmetry_space_group_name_H-M   'P 1'
_cell_length_a   4.06024750
_cell_length_b   5.23846654
_cell_length_c   5.23845450
_cell_angle_alpha   59.99598671
_cell_angle_beta   90.00000000
_cell_angle_gamma   90.00000000
_symmetry_Int_Tables_number   1
_chemical_formula_structural   CeGaCu4
_chemical_formula_sum   'Ce1 Ga1 Cu4'
_cell_volume   96.48791586
_cell_formula_units_Z   1
loop_
 _symmetry_equiv_pos_site_id
 _symmetry_equiv_pos_as_xyz
  1  'x, y, z'
loop_
 _atom_site_type_symbol
 _atom_site_label
 _atom_site_symmetry_multiplicity
 _atom_site_fract_x
 _atom_site_fract_y
 _atom_site_fract_z
 _atom_site_occupancy
  Ce  Ce0  1  0.00000000  0.99997904  0.99999552  1
  Ga  Ga1  1  0.00000000  0.33332102  0.33341564  1
  Cu  Cu2  1  0.00000000  0.66663174  0.66669321  1
  Cu  Cu3  1  0.50000000  0.50175908  0.50175543  1
  Cu  Cu4  1  0.50000000  0.50174379  0.99648838  1
  Cu  Cu5  1  0.50000000  0.99646535  0.50175182  1
