# generated using pymatgen
data_Ce2ZrO6
_symmetry_space_group_name_H-M   'P 1'
_cell_length_a   3.80349303
_cell_length_b   5.36477375
_cell_length_c   6.55299272
_cell_angle_alpha   65.83677078
_cell_angle_beta   73.12935420
_cell_angle_gamma   90.00000000
_symmetry_Int_Tables_number   1
_chemical_formula_structural   Ce2ZrO6
_chemical_formula_sum   'Ce2 Zr1 O6'
_cell_volume   115.66136424
_cell_formula_units_Z   1
loop_
 _symmetry_equiv_pos_site_id
 _symmetry_equiv_pos_as_xyz
  1  'x, y, z'
loop_
 _atom_site_type_symbol
 _atom_site_label
 _atom_site_symmetry_multiplicity
 _atom_site_fract_x
 _atom_site_fract_y
 _atom_site_fract_z
 _atom_site_occupancy
  Ce  Ce0  1  0.33546976  0.33545823  0.32908253  1
  Ce  Ce1  1  0.66453024  0.66454177  0.67091747  1
  Zr  Zr2  1  -0.00000000  -0.00000000  0.00000000  1
  O  O3  1  0.16074399  0.40432446  0.67849021  1
  O  O4  1  0.50000000  0.76361992  1.00000000  1
  O  O5  1  0.83925601  0.08281367  0.32150979  1
  O  O6  1  0.50000000  0.23638008  0.00000000  1
  O  O7  1  0.83925601  0.59567554  0.32150979  1
  O  O8  1  0.16074399  0.91718633  0.67849021  1
