# generated using pymatgen
data_Er6Ge11
_symmetry_space_group_name_H-M   'P 1'
_cell_length_a   4.03855002
_cell_length_b   4.10829492
_cell_length_c   43.68352110
_cell_angle_alpha   92.69523626
_cell_angle_beta   90.12275563
_cell_angle_gamma   90.00000000
_symmetry_Int_Tables_number   1
_chemical_formula_structural   Er6Ge11
_chemical_formula_sum   'Er12 Ge22'
_cell_volume   723.97409972
_cell_formula_units_Z   2
loop_
 _symmetry_equiv_pos_site_id
 _symmetry_equiv_pos_as_xyz
  1  'x, y, z'
loop_
 _atom_site_type_symbol
 _atom_site_label
 _atom_site_symmetry_multiplicity
 _atom_site_fract_x
 _atom_site_fract_y
 _atom_site_fract_z
 _atom_site_occupancy
  Er  Er0  1  0.25519261  0.64645284  0.29290468  1
  Er  Er1  1  0.25497484  0.31320647  0.62641393  1
  Er  Er2  1  0.27794104  0.97967710  0.95935421  1
  Er  Er3  1  0.77793022  0.02035780  0.04071561  1
  Er  Er4  1  0.73762687  0.68789091  0.37578083  1
  Er  Er5  1  0.73825762  0.35460103  0.70920306  1
  Er  Er6  1  0.73827437  0.60930964  0.21862027  1
  Er  Er7  1  0.73772855  0.27605094  0.55210188  1
  Er  Er8  1  0.74210076  0.94191436  0.88382771  1
  Er  Er9  1  0.24131724  0.05821896  0.11643892  1
  Er  Er10  1  0.24326863  0.72402841  0.44805682  1
  Er  Er11  1  0.24421170  0.39057682  0.78115265  1
  Ge  Ge12  1  0.74109099  0.55392200  0.10784401  1
  Ge  Ge13  1  0.74341289  0.21679459  0.43358818  1
  Ge  Ge14  1  0.74494165  0.88289217  0.76578533  1
  Ge  Ge15  1  0.23885413  0.11649024  0.23297948  1
  Ge  Ge16  1  0.23753777  0.78268686  0.56537472  1
  Ge  Ge17  1  0.24093046  0.44592979  0.89185958  1
  Ge  Ge18  1  0.24779646  0.53447721  0.06895543  1
  Ge  Ge19  1  0.23945331  0.19674044  0.39348089  1
  Ge  Ge20  1  0.24074925  0.86309094  0.72618088  1
  Ge  Ge21  1  0.74851472  0.13553317  0.27106733  1
  Ge  Ge22  1  0.74553158  0.80203385  0.60406769  1
  Ge  Ge23  1  0.74909790  0.46547294  0.93094489  1
  Ge  Ge24  1  0.24358645  0.58350209  0.16700519  1
  Ge  Ge25  1  0.23604625  0.25004016  0.50008032  1
  Ge  Ge26  1  0.24175720  0.91652306  0.83304512  1
  Ge  Ge27  1  0.74474349  0.08349938  0.16699976  1
  Ge  Ge28  1  0.75011694  0.75006755  0.50013510  1
  Ge  Ge29  1  0.74998853  0.41651089  0.83302078  1
  Ge  Ge30  1  0.86425513  0.16395638  0.32791277  1
  Ge  Ge31  1  0.86563559  0.83060975  0.66121849  1
  Ge  Ge32  1  0.80281283  0.49290331  0.98580763  1
  Ge  Ge33  1  0.30432204  0.50710494  0.01420887  1
