# generated using pymatgen
data_Ca2Al2O5
_symmetry_space_group_name_H-M   'P 1'
_cell_length_a   5.38245004
_cell_length_b   5.41640898
_cell_length_c   8.23119320
_cell_angle_alpha   70.22850544
_cell_angle_beta   70.35050233
_cell_angle_gamma   88.37836100
_symmetry_Int_Tables_number   1
_chemical_formula_structural   Ca2Al2O5
_chemical_formula_sum   'Ca4 Al4 O10'
_cell_volume   211.68110831
_cell_formula_units_Z   2
loop_
 _symmetry_equiv_pos_site_id
 _symmetry_equiv_pos_as_xyz
  1  'x, y, z'
loop_
 _atom_site_type_symbol
 _atom_site_label
 _atom_site_symmetry_multiplicity
 _atom_site_fract_x
 _atom_site_fract_y
 _atom_site_fract_z
 _atom_site_occupancy
  Ca  Ca0  1  0.63194573  0.63216474  0.78652971  1
  Ca  Ca1  1  0.36805427  0.36783526  0.21347029  1
  Ca  Ca2  1  0.08152456  0.08130555  0.78652971  1
  Ca  Ca3  1  0.91847544  0.91869445  0.21347029  1
  Al  Al4  1  0.50000000  0.00000000  -0.00000000  1
  Al  Al5  1  -0.00000000  0.50000000  -0.00000000  1
  Al  Al6  1  0.67258678  0.32047525  0.50000000  1
  Al  Al7  1  0.32741322  0.67952475  0.50000000  1
  O  O8  1  0.26181052  0.26181052  0.97637897  1
  O  O9  1  0.24715505  0.74715505  0.00568990  1
  O  O10  1  0.75284495  0.25284495  0.99431010  1
  O  O11  1  0.73818948  0.73818948  0.02362103  1
  O  O12  1  0.66804757  0.10165094  0.71586460  1
  O  O13  1  0.33195243  0.89834906  0.28413540  1
  O  O14  1  0.11608782  0.68248446  0.71586460  1
  O  O15  1  0.88391218  0.31751554  0.28413540  1
  O  O16  1  0.66886300  0.65801370  0.50000000  1
  O  O17  1  0.33113700  0.34198630  0.50000000  1
