# generated using pymatgen
data_Ca11Si9As16
_symmetry_space_group_name_H-M   'P 1'
_cell_length_a   7.27461431
_cell_length_b   7.15782958
_cell_length_c   17.73458207
_cell_angle_alpha   90.03724102
_cell_angle_beta   90.00620997
_cell_angle_gamma   111.62956708
_symmetry_Int_Tables_number   1
_chemical_formula_structural   Ca11Si9As16
_chemical_formula_sum   'Ca11 Si9 As16'
_cell_volume   858.42413811
_cell_formula_units_Z   1
loop_
 _symmetry_equiv_pos_site_id
 _symmetry_equiv_pos_as_xyz
  1  'x, y, z'
loop_
 _atom_site_type_symbol
 _atom_site_label
 _atom_site_symmetry_multiplicity
 _atom_site_fract_x
 _atom_site_fract_y
 _atom_site_fract_z
 _atom_site_occupancy
  Ca  Ca0  1  0.73966249  0.99797322  0.43733554  1
  Ca  Ca1  1  0.26159108  0.50208818  0.94008920  1
  Ca  Ca2  1  0.26175019  0.00204212  0.56003673  1
  Ca  Ca3  1  0.73828522  0.49781394  0.06200531  1
  Ca  Ca4  1  0.25499766  0.50999684  0.43880658  1
  Ca  Ca5  1  0.74505562  0.98792853  0.94125931  1
  Ca  Ca6  1  0.74490635  0.48846764  0.55820842  1
  Ca  Ca7  1  0.25529752  0.01206575  0.06033152  1
  Ca  Ca8  1  0.78331106  0.48636232  0.81596571  1
  Ca  Ca9  1  0.78290859  0.98663186  0.68412058  1
  Ca  Ca10  1  0.21827420  0.51392737  0.18501326  1
  Si  Si11  1  0.21299038  0.03010159  0.87039379  1
  Si  Si12  1  0.78700999  0.46643484  0.36814859  1
  Si  Si13  1  0.78882925  0.97023301  0.13061914  1
  Si  Si14  1  0.21364904  0.53002874  0.62945946  1
  Si  Si15  1  0.68241785  0.07757188  0.24114508  1
  Si  Si16  1  0.31751494  0.42097060  0.74044509  1
  Si  Si17  1  0.31732995  0.92119063  0.75956848  1
  Si  Si18  1  0.67950697  0.57960997  0.25903764  1
  Si  Si19  1  0.20967407  0.01603882  0.32230588  1
  As  As20  1  0.96903789  0.78812098  0.19297745  1
  As  As21  1  0.03715964  0.72194647  0.68658468  1
  As  As22  1  0.03715171  0.22194341  0.81264798  1
  As  As23  1  0.97066415  0.27132689  0.31218165  1
  As  As24  1  0.00355771  0.76030973  0.43115397  1
  As  As25  1  0.00677706  0.74962617  0.93847816  1
  As  As26  1  0.00568087  0.25153528  0.56080341  1
  As  As27  1  0.99333206  0.25082141  0.06146799  1
  As  As28  1  0.48614251  0.77254812  0.30455265  1
  As  As29  1  0.50741671  0.73035912  0.80332643  1
  As  As30  1  0.50781785  0.23068654  0.69621281  1
  As  As31  1  0.48634094  0.26350589  0.20065693  1
  As  As32  1  0.49027108  0.24645334  0.42741211  1
  As  As33  1  0.50131901  0.24418400  0.93171095  1
  As  As34  1  0.50200380  0.74334977  0.56732087  1
  As  As35  1  0.50036460  0.75580503  0.06821664  1
