# generated using pymatgen
data_Ca3(CdGa2)2
_symmetry_space_group_name_H-M   'P 1'
_cell_length_a   4.98286576
_cell_length_b   5.86978095
_cell_length_c   16.46717661
_cell_angle_alpha   89.78449109
_cell_angle_beta   81.29790834
_cell_angle_gamma   115.11590215
_symmetry_Int_Tables_number   1
_chemical_formula_structural   Ca3(CdGa2)2
_chemical_formula_sum   'Ca6 Cd4 Ga8'
_cell_volume   429.83369568
_cell_formula_units_Z   2
loop_
 _symmetry_equiv_pos_site_id
 _symmetry_equiv_pos_as_xyz
  1  'x, y, z'
loop_
 _atom_site_type_symbol
 _atom_site_label
 _atom_site_symmetry_multiplicity
 _atom_site_fract_x
 _atom_site_fract_y
 _atom_site_fract_z
 _atom_site_occupancy
  Ca  Ca0  1  0.98766746  0.71612234  0.24078842  1
  Ca  Ca1  1  0.32164753  0.71393940  0.57064434  1
  Ca  Ca2  1  0.65638640  0.71238380  0.89961000  1
  Ca  Ca3  1  0.34310770  0.28467467  0.09846027  1
  Ca  Ca4  1  0.67633430  0.28227021  0.42960162  1
  Ca  Ca5  1  0.01153566  0.28524154  0.76216922  1
  Cd  Cd6  1  0.65007576  0.89916490  0.09901437  1
  Cd  Cd7  1  0.97742429  0.88597168  0.43112310  1
  Cd  Cd8  1  0.31374907  0.88968552  0.76218639  1
  Cd  Cd9  1  0.08924133  0.71026694  0.03178528  1
  Ga  Ga10  1  0.42517158  0.71717281  0.36682965  1
  Ga  Ga11  1  0.75844935  0.71492722  0.69802753  1
  Ga  Ga12  1  0.68658933  0.11960610  0.24642845  1
  Ga  Ga13  1  0.01998622  0.11782072  0.57784827  1
  Ga  Ga14  1  0.35789680  0.12517114  0.90937655  1
  Ga  Ga15  1  0.24371735  0.28062272  0.29318902  1
  Ga  Ga16  1  0.57752592  0.28123803  0.62618619  1
  Ga  Ga17  1  0.90349397  0.26372027  0.95673134  1
