# generated using pymatgen
data_Ca8Be5Al3(Si9O28)2
_symmetry_space_group_name_H-M   'P 1'
_cell_length_a   5.07421116
_cell_length_b   12.02620067
_cell_length_c   19.62197901
_cell_angle_alpha   90.02553319
_cell_angle_beta   90.12103063
_cell_angle_gamma   77.82109930
_symmetry_Int_Tables_number   1
_chemical_formula_structural   Ca8Be5Al3(Si9O28)2
_chemical_formula_sum   'Ca8 Be5 Al3 Si18 O56'
_cell_volume   1170.44972694
_cell_formula_units_Z   1
loop_
 _symmetry_equiv_pos_site_id
 _symmetry_equiv_pos_as_xyz
  1  'x, y, z'
loop_
 _atom_site_type_symbol
 _atom_site_label
 _atom_site_symmetry_multiplicity
 _atom_site_fract_x
 _atom_site_fract_y
 _atom_site_fract_z
 _atom_site_occupancy
  Ca  Ca0  1  0.66862379  0.17124964  0.64723042  1
  Ca  Ca1  1  0.16012657  0.17124964  0.35276958  1
  Ca  Ca2  1  0.67657078  0.16980573  0.84794400  1
  Ca  Ca3  1  0.15362350  0.16980573  0.15205600  1
  Ca  Ca4  1  0.32143973  0.83164506  0.34889434  1
  Ca  Ca5  1  0.84691522  0.83164506  0.65110566  1
  Ca  Ca6  1  0.32340417  0.83015413  0.15156133  1
  Ca  Ca7  1  0.84644170  0.83015413  0.84843867  1
  Be  Be8  1  0.40737048  0.18525904  0.50000000  1
  Be  Be9  1  0.05381447  0.25196373  0.74973991  1
  Be  Be10  1  0.69422180  0.25196373  0.25026009  1
  Be  Be11  1  0.94491853  0.74752031  0.25008989  1
  Be  Be12  1  0.30756116  0.74752031  0.74991011  1
  Al  Al13  1  0.40471577  0.19056845  -0.00000000  1
  Al  Al14  1  0.59499221  0.81001559  0.50000000  1
  Al  Al15  1  0.59530580  0.80938839  -0.00000000  1
  Si  Si16  1  0.92409244  0.42840669  0.64310781  1
  Si  Si17  1  0.64750087  0.42840669  0.35689219  1
  Si  Si18  1  0.92615454  0.42905794  0.85673096  1
  Si  Si19  1  0.64478753  0.42905794  0.14326904  1
  Si  Si20  1  0.07422319  0.57095070  0.35690387  1
  Si  Si21  1  0.35482612  0.57095070  0.64309613  1
  Si  Si22  1  0.07392431  0.57113335  0.14328514  1
  Si  Si23  1  0.35494235  0.57113335  0.85671486  1
  Si  Si24  1  0.28077911  0.00411586  0.60232667  1
  Si  Si25  1  0.71510503  0.00411586  0.39767333  1
  Si  Si26  1  0.27838217  -0.00004850  0.89438340  1
  Si  Si27  1  0.72166632  -0.00004850  0.10561660  1
  Si  Si28  1  0.22435725  0.00094441  0.74859157  1
  Si  Si29  1  0.77469834  0.00094441  0.25140843  1
  Si  Si30  1  0.83380426  0.33239147  0.50000000  1
  Si  Si31  1  0.83022257  0.33955487  -0.00000000  1
  Si  Si32  1  0.16951520  0.66096961  0.50000000  1
  Si  Si33  1  0.16982185  0.66035629  -0.00000000  1
  O  O34  1  0.20334203  0.46769998  0.66362035  1
  O  O35  1  0.32895799  0.46769998  0.33637965  1
  O  O36  1  0.20393074  0.46823859  0.83535426  1
  O  O37  1  0.32783067  0.46823859  0.16464574  1
  O  O38  1  0.79607005  0.53171447  0.33513006  1
  O  O39  1  0.67221548  0.53171447  0.66486994  1
  O  O40  1  0.79595966  0.53172759  0.16462270  1
  O  O41  1  0.67231275  0.53172759  0.83537730  1
  O  O42  1  0.99109201  0.11820997  0.74991276  1
  O  O43  1  0.89069802  0.11820997  0.25008724  1
  O  O44  1  0.00594606  0.88258806  0.25075644  1
  O  O45  1  0.11146588  0.88258806  0.74924356  1
  O  O46  1  0.63315550  0.25495513  0.53137907  1
  O  O47  1  0.11188937  0.25495513  0.46862093  1
  O  O48  1  0.63896416  0.26222297  0.96341382  1
  O  O49  1  0.09881287  0.26222297  0.03658618  1
  O  O50  1  0.36034025  0.73829964  0.46352915  1
  O  O51  1  0.90136010  0.73829964  0.53647085  1
  O  O52  1  0.36099379  0.73777354  0.03658093  1
  O  O53  1  0.90123268  0.73777354  0.96341907  1
  O  O54  1  0.91364780  0.30918324  0.68048669  1
  O  O55  1  0.77716896  0.30918324  0.31951331  1
  O  O56  1  0.91538354  0.30969849  0.81952978  1
  O  O57  1  0.77491797  0.30969849  0.18047022  1
  O  O58  1  0.08554703  0.69003169  0.31959437  1
  O  O59  1  0.22442128  0.69003169  0.68040563  1
  O  O60  1  0.08456067  0.69043876  0.18039552  1
  O  O61  1  0.22500058  0.69043876  0.81960448  1
  O  O62  1  0.42626560  0.00346841  0.68176331  1
  O  O63  1  0.57026599  0.00346841  0.31823669  1
  O  O64  1  0.42639176  0.99983163  0.81619625  1
  O  O65  1  0.57377661  0.99983163  0.18380375  1
  O  O66  1  0.96814915  0.00251539  0.61415198  1
  O  O67  1  0.02933546  0.00251539  0.38584802  1
  O  O68  1  0.96472381  0.99991017  0.88520638  1
  O  O69  1  0.03536602  0.99991017  0.11479362  1
  O  O70  1  0.91101633  0.41350145  0.56039659  1
  O  O71  1  0.67548223  0.41350145  0.43960341  1
  O  O72  1  0.92579692  0.41584593  0.94012709  1
  O  O73  1  0.65835716  0.41584593  0.05987291  1
  O  O74  1  0.07455451  0.58443858  0.44009159  1
  O  O75  1  0.34100691  0.58443858  0.55990841  1
  O  O76  1  0.07416360  0.58415798  0.05985742  1
  O  O77  1  0.34167842  0.58415798  0.94014258  1
  O  O78  1  0.34979294  0.11601524  0.56725920  1
  O  O79  1  0.53419182  0.11601524  0.43274080  1
  O  O80  1  0.34430195  0.11518096  0.92753163  1
  O  O81  1  0.54051709  0.11518096  0.07246837  1
  O  O82  1  0.65423635  0.88580046  0.42782077  1
  O  O83  1  0.45996319  0.88580046  0.57217923  1
  O  O84  1  0.65571145  0.88480772  0.07244040  1
  O  O85  1  0.45948083  0.88480772  0.92755960  1
  O  O86  1  0.38346125  0.22289493  0.74957176  1
  O  O87  1  0.39364382  0.22289493  0.25042824  1
  O  O88  1  0.61542775  0.77769815  0.25020392  1
  O  O89  1  0.60687410  0.77769815  0.74979608  1
