# generated using pymatgen
data_BaNd3(CoO3)4
_symmetry_space_group_name_H-M   'P 1'
_cell_length_a   5.47413262
_cell_length_b   5.49872364
_cell_length_c   7.88282160
_cell_angle_alpha   90.00000000
_cell_angle_beta   90.00000000
_cell_angle_gamma   90.80927754
_symmetry_Int_Tables_number   1
_chemical_formula_structural   BaNd3(CoO3)4
_chemical_formula_sum   'Ba1 Nd3 Co4 O12'
_cell_volume   237.25511409
_cell_formula_units_Z   1
loop_
 _symmetry_equiv_pos_site_id
 _symmetry_equiv_pos_as_xyz
  1  'x, y, z'
loop_
 _atom_site_type_symbol
 _atom_site_label
 _atom_site_symmetry_multiplicity
 _atom_site_fract_x
 _atom_site_fract_y
 _atom_site_fract_z
 _atom_site_occupancy
  Ba  Ba0  1  0.49932083  0.51370490  0.25000000  1
  Nd  Nd1  1  0.98754377  0.03506025  0.25000000  1
  Nd  Nd2  1  0.49354789  0.46434349  0.75000000  1
  Nd  Nd3  1  0.00399145  0.97300730  0.75000000  1
  Co  Co4  1  0.99742104  0.50322787  0.99771615  1
  Co  Co5  1  0.50235157  0.99682242  0.50296590  1
  Co  Co6  1  0.99742104  0.50322787  0.50228385  1
  Co  Co7  1  0.50235157  0.99682242  0.99703410  1
  O  O8  1  0.78165759  0.79615547  0.03063199  1
  O  O9  1  0.74652966  0.26161120  0.48268048  1
  O  O10  1  0.24030199  0.22085083  0.54716201  1
  O  O11  1  0.26847703  0.72477799  0.95226339  1
  O  O12  1  0.24030199  0.22085083  0.95283799  1
  O  O13  1  0.26847703  0.72477799  0.54773661  1
  O  O14  1  0.78165759  0.79615547  0.46936801  1
  O  O15  1  0.74652966  0.26161120  0.01731952  1
  O  O16  1  0.41880655  0.00214865  0.25000000  1
  O  O17  1  0.03033713  0.47491899  0.25000000  1
  O  O18  1  0.57016698  0.00709968  0.75000000  1
  O  O19  1  0.92280764  0.52282516  0.75000000  1
