# generated using pymatgen
data_Ba2Li3Y3(MoO4)8
_symmetry_space_group_name_H-M   'P 1'
_cell_length_a   5.29310567
_cell_length_b   7.00512534
_cell_length_c   19.32710537
_cell_angle_alpha   90.11384323
_cell_angle_beta   88.90205154
_cell_angle_gamma   67.46925463
_symmetry_Int_Tables_number   1
_chemical_formula_structural   Ba2Li3Y3(MoO4)8
_chemical_formula_sum   'Ba2 Li3 Y3 Mo8 O32'
_cell_volume   661.77464762
_cell_formula_units_Z   1
loop_
 _symmetry_equiv_pos_site_id
 _symmetry_equiv_pos_as_xyz
  1  'x, y, z'
loop_
 _atom_site_type_symbol
 _atom_site_label
 _atom_site_symmetry_multiplicity
 _atom_site_fract_x
 _atom_site_fract_y
 _atom_site_fract_z
 _atom_site_occupancy
  Ba  Ba0  1  0.02990633  0.94159110  0.26262187  1
  Ba  Ba1  1  0.97103142  0.05953822  0.73430717  1
  Li  Li2  1  0.32022025  0.37063825  0.25763757  1
  Li  Li3  1  0.67980811  0.62611234  0.74105194  1
  Li  Li4  1  0.85757346  0.29258659  0.53516149  1
  Y  Y5  1  0.84783683  0.29527321  0.96651068  1
  Y  Y6  1  0.14231460  0.70659636  0.47169572  1
  Y  Y7  1  0.15192485  0.70520618  0.03222637  1
  Mo  Mo8  1  0.74101337  0.52445763  0.34983244  1
  Mo  Mo9  1  0.74260066  0.52131013  0.15022469  1
  Mo  Mo10  1  0.25901825  0.47388865  0.64927600  1
  Mo  Mo11  1  0.25647826  0.47914717  0.84942299  1
  Mo  Mo12  1  0.45297408  0.11785453  0.41007033  1
  Mo  Mo13  1  0.42730693  0.12033659  0.09165062  1
  Mo  Mo14  1  0.54793858  0.88351765  0.59158984  1
  Mo  Mo15  1  0.57258932  0.87917822  0.90817745  1
  O  O16  1  0.92575259  0.59830807  0.28157976  1
  O  O17  1  0.46479747  0.60288257  0.21052318  1
  O  O18  1  0.07294420  0.40395794  0.71873568  1
  O  O19  1  0.53726869  0.39702273  0.79042748  1
  O  O20  1  0.78774751  0.90959846  0.39413949  1
  O  O21  1  0.31492755  0.91035945  0.10280909  1
  O  O22  1  0.22623670  0.09210134  0.60632560  1
  O  O23  1  0.68453620  0.08891672  0.89766015  1
  O  O24  1  0.38921545  0.70415542  0.36468167  1
  O  O25  1  0.90500232  0.70396015  0.13186831  1
  O  O26  1  0.60207384  0.29139056  0.63717587  1
  O  O27  1  0.09537640  0.29527099  0.86828057  1
  O  O28  1  0.92829513  0.48579106  0.42864683  1
  O  O29  1  0.59350445  0.48034151  0.06724813  1
  O  O30  1  0.07156738  0.52695368  0.56903447  1
  O  O31  1  0.40499149  0.51922818  0.93262254  1
  O  O32  1  0.23803613  0.02686077  0.46209914  1
  O  O33  1  0.74038163  0.03767328  0.03635088  1
  O  O34  1  0.77443388  0.95561740  0.53490069  1
  O  O35  1  0.26023902  0.96163994  0.96395465  1
  O  O36  1  0.47800112  0.34207731  0.45136567  1
  O  O37  1  0.17269928  0.33773983  0.04346426  1
  O  O38  1  0.49140758  0.67491110  0.54614808  1
  O  O39  1  0.82655399  0.66156368  0.95692440  1
  O  O40  1  0.29409909  0.16725674  0.32616120  1
  O  O41  1  0.53358109  0.17568972  0.17244994  1
  O  O42  1  0.71115435  0.83028292  0.67465988  1
  O  O43  1  0.46612397  0.82404706  0.82773382  1
  O  O44  1  0.70853446  0.29623019  0.31788823  1
  O  O45  1  0.99606019  0.28367795  0.17578187  1
  O  O46  1  0.30041290  0.69942087  0.68209406  1
  O  O47  1  0.00350863  0.71783960  0.82480721  1
