# generated using pymatgen
data_BaSiGe
_symmetry_space_group_name_H-M   'P 1'
_cell_length_a   6.89885674
_cell_length_b   6.89885674
_cell_length_c   6.89885674
_cell_angle_alpha   90.00000000
_cell_angle_beta   90.00000000
_cell_angle_gamma   90.00000000
_symmetry_Int_Tables_number   1
_chemical_formula_structural   BaSiGe
_chemical_formula_sum   'Ba4 Si4 Ge4'
_cell_volume   328.34573523
_cell_formula_units_Z   4
loop_
 _symmetry_equiv_pos_site_id
 _symmetry_equiv_pos_as_xyz
  1  'x, y, z'
loop_
 _atom_site_type_symbol
 _atom_site_label
 _atom_site_symmetry_multiplicity
 _atom_site_fract_x
 _atom_site_fract_y
 _atom_site_fract_z
 _atom_site_occupancy
  Ba  Ba0  1  0.87389750  0.62610250  0.37389750  1
  Ba  Ba1  1  0.37389750  0.87389750  0.62610250  1
  Ba  Ba2  1  0.62610250  0.37389750  0.87389750  1
  Ba  Ba3  1  0.12610250  0.12610250  0.12610250  1
  Si  Si4  1  0.57723578  0.92276422  0.07723578  1
  Si  Si5  1  0.92276422  0.07723578  0.57723578  1
  Si  Si6  1  0.07723578  0.57723578  0.92276422  1
  Si  Si7  1  0.42276422  0.42276422  0.42276422  1
  Ge  Ge8  1  0.17199777  0.32800223  0.67199777  1
  Ge  Ge9  1  0.67199777  0.17199777  0.32800223  1
  Ge  Ge10  1  0.32800223  0.67199777  0.17199777  1
  Ge  Ge11  1  0.82800223  0.82800223  0.82800223  1
