# generated using pymatgen
data_AsPtS
_symmetry_space_group_name_H-M   'P 1'
_cell_length_a   6.01847814
_cell_length_b   6.01847814
_cell_length_c   6.01847814
_cell_angle_alpha   90.00000000
_cell_angle_beta   90.00000000
_cell_angle_gamma   90.00000000
_symmetry_Int_Tables_number   1
_chemical_formula_structural   AsPtS
_chemical_formula_sum   'As4 Pt4 S4'
_cell_volume   218.00179138
_cell_formula_units_Z   4
loop_
 _symmetry_equiv_pos_site_id
 _symmetry_equiv_pos_as_xyz
  1  'x, y, z'
loop_
 _atom_site_type_symbol
 _atom_site_label
 _atom_site_symmetry_multiplicity
 _atom_site_fract_x
 _atom_site_fract_y
 _atom_site_fract_z
 _atom_site_occupancy
  As  As0  1  0.88534657  0.38534657  0.11465343  1
  As  As1  1  0.38534657  0.11465343  0.88534657  1
  As  As2  1  0.11465343  0.88534657  0.38534657  1
  As  As3  1  0.61465343  0.61465343  0.61465343  1
  Pt  Pt4  1  0.49843880  0.99843880  0.50156120  1
  Pt  Pt5  1  0.99843880  0.50156120  0.49843880  1
  Pt  Pt6  1  0.50156120  0.49843880  0.99843880  1
  Pt  Pt7  1  0.00156120  0.00156120  0.00156120  1
  S  S8  1  0.10941294  0.60941294  0.89058706  1
  S  S9  1  0.60941294  0.89058706  0.10941294  1
  S  S10  1  0.89058706  0.10941294  0.60941294  1
  S  S11  1  0.39058706  0.39058706  0.39058706  1
