# generated using pymatgen
data_Ba3Nd3(Co3O8)2
_symmetry_space_group_name_H-M   'P 1'
_cell_length_a   5.64510857
_cell_length_b   8.89672975
_cell_length_c   8.65926213
_cell_angle_alpha   114.10269118
_cell_angle_beta   70.97638508
_cell_angle_gamma   108.49714602
_symmetry_Int_Tables_number   1
_chemical_formula_structural   Ba3Nd3(Co3O8)2
_chemical_formula_sum   'Ba3 Nd3 Co6 O16'
_cell_volume   366.65274244
_cell_formula_units_Z   1
loop_
 _symmetry_equiv_pos_site_id
 _symmetry_equiv_pos_as_xyz
  1  'x, y, z'
loop_
 _atom_site_type_symbol
 _atom_site_label
 _atom_site_symmetry_multiplicity
 _atom_site_fract_x
 _atom_site_fract_y
 _atom_site_fract_z
 _atom_site_occupancy
  Ba  Ba0  1  -0.00000000  0.50000000  0.50000000  1
  Ba  Ba1  1  0.33566270  0.16719195  0.49586556  1
  Ba  Ba2  1  0.66433730  0.83280805  0.50413444  1
  Nd  Nd3  1  0.15851201  0.31634880  0.99932577  1
  Nd  Nd4  1  0.50000000  -0.00000000  -0.00000000  1
  Nd  Nd5  1  0.84148799  0.68365120  0.00067423  1
  Co  Co6  1  0.08124099  0.91976110  0.75727911  1
  Co  Co7  1  0.41326029  0.57859811  0.75207653  1
  Co  Co8  1  0.75087221  0.25843677  0.75669335  1
  Co  Co9  1  0.24912779  0.74156323  0.24330665  1
  Co  Co10  1  0.58673971  0.42140189  0.24792347  1
  Co  Co11  1  0.91875901  0.08023890  0.24272089  1
  O  O12  1  0.71880513  0.75634717  0.79643085  1
  O  O13  1  0.06473553  0.43460101  0.80295783  1
  O  O14  1  0.41908885  0.10581565  0.79079057  1
  O  O15  1  0.24111019  0.75634717  0.79643085  1
  O  O16  1  0.56690865  0.43460101  0.80295783  1
  O  O17  1  0.89593622  0.10581565  0.79079057  1
  O  O18  1  0.93526447  0.56539899  0.19704217  1
  O  O19  1  0.28119487  0.24365283  0.20356915  1
  O  O20  1  0.58091115  0.89418435  0.20920943  1
  O  O21  1  0.43309135  0.56539899  0.19704217  1
  O  O22  1  0.75888981  0.24365283  0.20356915  1
  O  O23  1  0.10406378  0.89418435  0.20920943  1
  O  O24  1  0.15745210  0.83652926  0.52162605  1
  O  O25  1  0.50000000  0.50000000  0.50000000  1
  O  O26  1  0.84254790  0.16347074  0.47837395  1
  O  O27  1  -0.00000000  -0.00000000  -0.00000000  1
