# generated using pymatgen
data_VFe2Sn
_symmetry_space_group_name_H-M   'P 1'
_cell_length_a   4.21753966
_cell_length_b   4.21829263
_cell_length_c   4.21735033
_cell_angle_alpha   59.99422847
_cell_angle_beta   59.99726958
_cell_angle_gamma   59.99631472
_symmetry_Int_Tables_number   1
_chemical_formula_structural   VFe2Sn
_chemical_formula_sum   'V1 Fe2 Sn1'
_cell_volume   53.04940971
_cell_formula_units_Z   1
loop_
 _symmetry_equiv_pos_site_id
 _symmetry_equiv_pos_as_xyz
  1  'x, y, z'
loop_
 _atom_site_type_symbol
 _atom_site_label
 _atom_site_symmetry_multiplicity
 _atom_site_fract_x
 _atom_site_fract_y
 _atom_site_fract_z
 _atom_site_occupancy
  V  V0  1  0.49999798  0.50000180  0.49999952  1
  Fe  Fe1  1  0.24996522  0.25002910  0.24997019  1
  Fe  Fe2  1  0.75003750  0.74996925  0.75002887  1
  Sn  Sn3  1  0.99999930  -0.00000016  0.00000142  1
