# generated using pymatgen
data_Al8BC5
_symmetry_space_group_name_H-M   'P 1'
_cell_length_a   3.38841324
_cell_length_b   3.38841321
_cell_length_c   16.94380013
_cell_angle_alpha   84.26142057
_cell_angle_beta   89.99999764
_cell_angle_gamma   119.99998980
_symmetry_Int_Tables_number   1
_chemical_formula_structural   Al8BC5
_chemical_formula_sum   'Al8 B1 C5'
_cell_volume   167.34782139
_cell_formula_units_Z   1
loop_
 _symmetry_equiv_pos_site_id
 _symmetry_equiv_pos_as_xyz
  1  'x, y, z'
loop_
 _atom_site_type_symbol
 _atom_site_label
 _atom_site_symmetry_multiplicity
 _atom_site_fract_x
 _atom_site_fract_y
 _atom_site_fract_z
 _atom_site_occupancy
  Al  Al0  1  0.64679334  0.29358669  0.05961997  1
  Al  Al1  1  0.14625040  0.29250080  0.56124880  1
  Al  Al2  1  0.85374960  0.70749920  0.43875120  1
  Al  Al3  1  0.35320666  0.70641331  0.94038003  1
  Al  Al4  1  0.56438047  0.12876095  0.30685858  1
  Al  Al5  1  0.06504188  0.13008375  0.80487437  1
  Al  Al6  1  0.93495812  0.86991625  0.19512563  1
  Al  Al7  1  0.43561953  0.87123905  0.69314142  1
  B  B8  1  0.50000000  -0.00000000  0.50000000  1
  C  C9  1  0.60856400  0.21712800  0.17430799  1
  C  C10  1  0.10741224  0.21482448  0.67776328  1
  C  C11  1  0.89258776  0.78517552  0.32223672  1
  C  C12  1  0.39143600  0.78287200  0.82569201  1
  C  C13  1  -0.00000000  -0.00000000  0.00000000  1
