# generated using pymatgen
data_U3Sn13Rh4
_symmetry_space_group_name_H-M   'P 1'
_cell_length_a   9.73658090
_cell_length_b   9.73658090
_cell_length_c   9.73658090
_cell_angle_alpha   90.00000000
_cell_angle_beta   90.00000000
_cell_angle_gamma   90.00000000
_symmetry_Int_Tables_number   1
_chemical_formula_structural   U3Sn13Rh4
_chemical_formula_sum   'U6 Sn26 Rh8'
_cell_volume   923.03768012
_cell_formula_units_Z   2
loop_
 _symmetry_equiv_pos_site_id
 _symmetry_equiv_pos_as_xyz
  1  'x, y, z'
loop_
 _atom_site_type_symbol
 _atom_site_label
 _atom_site_symmetry_multiplicity
 _atom_site_fract_x
 _atom_site_fract_y
 _atom_site_fract_z
 _atom_site_occupancy
  Rh  Rh0  1  0.25000000  0.25000000  0.25000000  1
  Rh  Rh1  1  0.75000000  0.25000000  0.25000000  1
  Rh  Rh2  1  0.25000000  0.25000000  0.75000000  1
  Rh  Rh3  1  0.25000000  0.75000000  0.25000000  1
  Rh  Rh4  1  0.75000000  0.75000000  0.75000000  1
  Rh  Rh5  1  0.25000000  0.75000000  0.75000000  1
  Rh  Rh6  1  0.75000000  0.75000000  0.25000000  1
  Rh  Rh7  1  0.75000000  0.25000000  0.75000000  1
  Sn  Sn8  1  0.50000000  0.34827110  0.18900114  1
  Sn  Sn9  1  0.81099886  0.50000000  0.34827110  1
  Sn  Sn10  1  0.18900114  0.50000000  0.34827110  1
  Sn  Sn11  1  0.65172890  0.18900114  0.50000000  1
  Sn  Sn12  1  0.34827110  0.18900114  0.50000000  1
  Sn  Sn13  1  0.50000000  0.65172890  0.81099886  1
  Sn  Sn14  1  0.00000000  0.00000000  0.00000000  1
  Sn  Sn15  1  0.50000000  0.50000000  0.50000000  1
  Sn  Sn16  1  0.00000000  0.31099886  0.15172890  1
  Sn  Sn17  1  0.50000000  0.34827110  0.81099886  1
  Sn  Sn18  1  0.50000000  0.65172890  0.18900114  1
  Sn  Sn19  1  0.65172890  0.81099886  0.50000000  1
  Sn  Sn20  1  0.34827110  0.81099886  0.50000000  1
  Sn  Sn21  1  0.18900114  0.50000000  0.65172890  1
  Sn  Sn22  1  0.81099886  0.50000000  0.65172890  1
  Sn  Sn23  1  0.15172890  0.00000000  0.31099886  1
  Sn  Sn24  1  0.31099886  0.15172890  0.00000000  1
  Sn  Sn25  1  0.68900114  0.84827110  0.00000000  1
  Sn  Sn26  1  0.15172890  0.00000000  0.68900114  1
  Sn  Sn27  1  0.68900114  0.15172890  0.00000000  1
  Sn  Sn28  1  0.84827110  0.00000000  0.31099886  1
  Sn  Sn29  1  0.84827110  0.00000000  0.68900114  1
  Sn  Sn30  1  0.31099886  0.84827110  0.00000000  1
  Sn  Sn31  1  0.00000000  0.68900114  0.84827110  1
  Sn  Sn32  1  0.00000000  0.31099886  0.84827110  1
  Sn  Sn33  1  0.00000000  0.68900114  0.15172890  1
  U  U34  1  0.00000000  0.25000000  0.50000000  1
  U  U35  1  0.00000000  0.75000000  0.50000000  1
  U  U36  1  0.50000000  0.00000000  0.75000000  1
  U  U37  1  0.50000000  0.00000000  0.25000000  1
  U  U38  1  0.75000000  0.50000000  0.00000000  1
  U  U39  1  0.25000000  0.50000000  0.00000000  1
