# generated using pymatgen
data_KAuC2(SN)2
_symmetry_space_group_name_H-M   'P 1'
_cell_length_a   6.10429869
_cell_length_b   7.34684360
_cell_length_c   17.20635292
_cell_angle_alpha   84.68194258
_cell_angle_beta   79.78252256
_cell_angle_gamma   65.45317218
_symmetry_Int_Tables_number   1
_chemical_formula_structural   KAuC2(SN)2
_chemical_formula_sum   'K4 Au4 C8 S8 N8'
_cell_volume   690.63117096
_cell_formula_units_Z   4
loop_
 _symmetry_equiv_pos_site_id
 _symmetry_equiv_pos_as_xyz
  1  'x, y, z'
loop_
 _atom_site_type_symbol
 _atom_site_label
 _atom_site_symmetry_multiplicity
 _atom_site_fract_x
 _atom_site_fract_y
 _atom_site_fract_z
 _atom_site_occupancy
  K  K0  1  0.19009000  0.71468291  0.94804574  1
  K  K1  1  0.80991000  0.28531709  0.05195426  1
  K  K2  1  0.14718135  0.21468291  0.44804574  1
  K  K3  1  0.85281865  0.78531709  0.55195426  1
  Au  Au4  1  0.82354687  0.75000000  0.25000000  1
  Au  Au5  1  0.67429282  0.25000000  0.75000000  1
  Au  Au6  1  0.32570718  0.75000000  0.25000000  1
  Au  Au7  1  0.17645313  0.25000000  0.75000000  1
  C  C8  1  0.71661358  0.09024193  0.36517053  1
  C  C9  1  0.82797396  0.59024193  0.86517053  1
  C  C10  1  0.28338642  0.90975807  0.63482947  1
  C  C11  1  0.44924257  0.38956663  0.58844144  1
  C  C12  1  0.57274936  0.88956663  0.08844144  1
  C  C13  1  0.17202604  0.40975807  0.13482947  1
  C  C14  1  0.55075743  0.61043337  0.41155856  1
  C  C15  1  0.42725064  0.11043337  0.91155856  1
  S  S16  1  0.70274625  0.36982877  0.61784197  1
  S  S17  1  0.30958302  0.86982877  0.11784197  1
  S  S18  1  0.99431952  0.40537751  0.21937126  1
  S  S19  1  0.29725375  0.63017123  0.38215803  1
  S  S20  1  0.69041698  0.13017123  0.88215803  1
  S  S21  1  0.38093171  0.90537751  0.71937126  1
  S  S22  1  0.61906829  0.09462249  0.28062874  1
  S  S23  1  0.00568048  0.59462249  0.78062874  1
  N  N24  1  0.72749313  0.59285800  0.43595880  1
  N  N25  1  0.29357508  0.40744541  0.07280277  1
  N  N26  1  0.70642492  0.59255459  0.92719723  1
  N  N27  1  0.77382326  0.09255459  0.42719723  1
  N  N28  1  0.75630993  0.90714200  0.06404120  1
  N  N29  1  0.27250687  0.40714200  0.56404120  1
  N  N30  1  0.22617674  0.90744541  0.57280277  1
  N  N31  1  0.24369007  0.09285800  0.93595880  1
