# generated using pymatgen
data_Ba2Ce2Ti2Fe(Si4O13)2
_symmetry_space_group_name_H-M   'P 1'
_cell_length_a   7.27385101
_cell_length_b   7.27385101
_cell_length_c   11.81045211
_cell_angle_alpha   75.99939504
_cell_angle_beta   75.99939504
_cell_angle_gamma   85.71102033
_symmetry_Int_Tables_number   1
_chemical_formula_structural   Ba2Ce2Ti2Fe(Si4O13)2
_chemical_formula_sum   'Ba2 Ce2 Ti2 Fe1 Si8 O26'
_cell_volume   588.21558650
_cell_formula_units_Z   1
loop_
 _symmetry_equiv_pos_site_id
 _symmetry_equiv_pos_as_xyz
  1  'x, y, z'
loop_
 _atom_site_type_symbol
 _atom_site_label
 _atom_site_symmetry_multiplicity
 _atom_site_fract_x
 _atom_site_fract_y
 _atom_site_fract_z
 _atom_site_occupancy
  Ba  Ba0  1  0.00219542  0.49943627  0.99879269  1
  Ba  Ba1  1  0.50056373  0.99780458  0.00120731  1
  Ce  Ce2  1  0.81800302  0.82357873  0.45387123  1
  Ce  Ce3  1  0.17642127  0.18199698  0.54612877  1
  Ti  Ti4  1  0.95509034  0.95114798  0.12765718  1
  Ti  Ti5  1  0.04885202  0.04490966  0.87234282  1
  Fe  Fe6  1  0.60598952  0.39401048  0.50000000  1
  Si  Si7  1  0.19469341  0.19897221  0.24434366  1
  Si  Si8  1  0.80102779  0.80530659  0.75565634  1
  Si  Si9  1  0.62657163  0.62175352  0.23868499  1
  Si  Si10  1  0.37824648  0.37342837  0.76131501  1
  Si  Si11  1  0.19389484  0.58829499  0.28580795  1
  Si  Si12  1  0.59671523  0.19861452  0.28337738  1
  Si  Si13  1  0.80138548  0.40328477  0.71662262  1
  Si  Si14  1  0.41170501  0.80610516  0.71419205  1
  O  O15  1  0.13239050  0.86760950  0.00000000  1
  O  O16  1  0.87035869  0.12964131  -0.00000000  1
  O  O17  1  0.09198556  0.09958646  0.38065018  1
  O  O18  1  0.90041354  0.90801444  0.61934982  1
  O  O19  1  0.76352654  0.76707967  0.13024463  1
  O  O20  1  0.23292033  0.23647346  0.86975537  1
  O  O21  1  0.17840798  0.47708650  0.42241761  1
  O  O22  1  0.51456994  0.20582588  0.42314390  1
  O  O23  1  0.79417412  0.48543006  0.57685610  1
  O  O24  1  0.52291350  0.82159202  0.57758239  1
  O  O25  1  0.16218905  0.43439553  0.20723588  1
  O  O26  1  0.42914951  0.15979959  0.21899418  1
  O  O27  1  0.84020041  0.57085049  0.78100582  1
  O  O28  1  0.56560447  0.83781095  0.79276412  1
  O  O29  1  0.68493640  0.40972524  0.20737458  1
  O  O30  1  0.40926280  0.67822408  0.21936851  1
  O  O31  1  0.32177592  0.59073720  0.78063149  1
  O  O32  1  0.59027476  0.31506360  0.79262542  1
  O  O33  1  0.04189139  0.76247936  0.26701639  1
  O  O34  1  0.76066515  0.03674716  0.26851952  1
  O  O35  1  0.96325284  0.23933485  0.73148048  1
  O  O36  1  0.23752064  0.95810861  0.73298361  1
  O  O37  1  0.65424840  0.62210885  0.36964444  1
  O  O38  1  0.37789115  0.34575160  0.63035556  1
  O  O39  1  0.13572604  0.13360483  0.13556830  1
  O  O40  1  0.86639517  0.86427396  0.86443170  1
