# generated using pymatgen
data_Ba10Y5Cu15O32
_symmetry_space_group_name_H-M   'P 1'
_cell_length_a   5.51743940
_cell_length_b   13.25258483
_cell_length_c   14.01781547
_cell_angle_alpha   114.07744757
_cell_angle_beta   100.45847053
_cell_angle_gamma   90.37252741
_symmetry_Int_Tables_number   1
_chemical_formula_structural   Ba10Y5Cu15O32
_chemical_formula_sum   'Ba10 Y5 Cu15 O32'
_cell_volume   916.54949069
_cell_formula_units_Z   1
loop_
 _symmetry_equiv_pos_site_id
 _symmetry_equiv_pos_as_xyz
  1  'x, y, z'
loop_
 _atom_site_type_symbol
 _atom_site_label
 _atom_site_symmetry_multiplicity
 _atom_site_fract_x
 _atom_site_fract_y
 _atom_site_fract_z
 _atom_site_occupancy
  Ba  Ba0  1  0.14432533  0.19143116  0.27351603  1
  Ba  Ba1  1  0.34713027  0.19052229  0.67424823  1
  Ba  Ba2  1  0.52909247  0.19037304  0.07807486  1
  Ba  Ba3  1  0.73216532  0.19117511  0.47960209  1
  Ba  Ba4  1  0.93950645  0.19776145  0.87907325  1
  Ba  Ba5  1  0.27090753  0.80962696  0.52192514  1
  Ba  Ba6  1  0.45286973  0.80947771  0.92575177  1
  Ba  Ba7  1  0.65567467  0.80856884  0.32648397  1
  Ba  Ba8  1  0.86049355  0.80223855  0.72092675  1
  Ba  Ba9  1  0.06783468  0.80882489  0.12039791  1
  Y  Y10  1  0.19984363  0.50019705  0.40027794  1
  Y  Y11  1  0.79988246  0.49863997  0.59935772  1
  Y  Y12  1  0.40000000  0.50000000  0.80000000  1
  Y  Y13  1  0.00011754  0.50136003  0.00064228  1
  Y  Y14  1  0.60015637  0.49980295  0.19972206  1
  Cu  Cu15  1  0.07063038  0.36270145  0.14489771  1
  Cu  Cu16  1  0.67401553  0.36211250  0.34523787  1
  Cu  Cu17  1  0.27070289  0.36203325  0.54422115  1
  Cu  Cu18  1  0.87440217  0.36261369  0.74536860  1
  Cu  Cu19  1  0.47244631  0.36245413  0.94501067  1
  Cu  Cu20  1  0.12598447  0.63788750  0.25476213  1
  Cu  Cu21  1  0.72936962  0.63729855  0.45510229  1
  Cu  Cu22  1  0.32755369  0.63754587  0.65498933  1
  Cu  Cu23  1  0.92559783  0.63738631  0.85463140  1
  Cu  Cu24  1  0.52929711  0.63796675  0.05577885  1
  Cu  Cu25  1  0.00983793  0.99996278  0.00313336  1
  Cu  Cu26  1  0.58968915  0.00004553  0.19644701  1
  Cu  Cu27  1  0.21031085  0.99995447  0.40355299  1
  Cu  Cu28  1  0.79016207  0.00003722  0.59686664  1
  Cu  Cu29  1  0.40000000  -0.00000000  0.80000000  1
  O  O30  1  0.37552895  0.37751029  0.25102209  1
  O  O31  1  0.97597718  0.38026592  0.45190782  1
  O  O32  1  0.57484629  0.37686507  0.65078872  1
  O  O33  1  0.17679222  0.38006911  0.85243974  1
  O  O34  1  0.77555575  0.37929278  0.05141193  1
  O  O35  1  0.42447105  0.62248971  0.34897791  1
  O  O36  1  0.02444425  0.62070722  0.54858807  1
  O  O37  1  0.62320778  0.61993089  0.74756026  1
  O  O38  1  0.22515371  0.62313493  0.94921128  1
  O  O39  1  0.82402282  0.61973408  0.14809218  1
  O  O40  1  0.87590331  0.38089385  0.25222160  1
  O  O41  1  0.47648581  0.38076651  0.45229469  1
  O  O42  1  0.07626600  0.38092191  0.65242616  1
  O  O43  1  0.67664212  0.38097407  0.85211664  1
  O  O44  1  0.27549912  0.38097811  0.05275252  1
  O  O45  1  0.92409669  0.61910615  0.34777840  1
  O  O46  1  0.52450088  0.61902189  0.54724748  1
  O  O47  1  0.12335788  0.61902593  0.74788336  1
  O  O48  1  0.72373400  0.61907809  0.94757384  1
  O  O49  1  0.32351419  0.61923349  0.14770531  1
  O  O50  1  0.00251990  0.15072526  0.05229092  1
  O  O51  1  0.65666845  0.15081964  0.26875752  1
  O  O52  1  0.20361131  0.15072234  0.45186440  1
  O  O53  1  0.85786826  0.15081968  0.66834170  1
  O  O54  1  0.42994437  0.14985048  0.85991136  1
  O  O55  1  0.14333155  0.84918036  0.33124248  1
  O  O56  1  0.79748010  0.84927474  0.54770908  1
  O  O57  1  0.37005563  0.85014952  0.74008864  1
  O  O58  1  0.94213174  0.84918032  0.93165830  1
  O  O59  1  0.59638869  0.84927766  0.14813560  1
  O  O60  1  0.29975617  0.99996596  0.09989833  1
  O  O61  1  0.50024383  0.00003404  0.50010167  1
