# generated using pymatgen
data_AsRhO4
_symmetry_space_group_name_H-M   'P 1'
_cell_length_a   3.05491460
_cell_length_b   4.53446397
_cell_length_c   4.53446397
_cell_angle_alpha   91.42273826
_cell_angle_beta   90.00000000
_cell_angle_gamma   90.00000000
_symmetry_Int_Tables_number   1
_chemical_formula_structural   AsRhO4
_chemical_formula_sum   'As1 Rh1 O4'
_cell_volume   62.79384517
_cell_formula_units_Z   1
loop_
 _symmetry_equiv_pos_site_id
 _symmetry_equiv_pos_as_xyz
  1  'x, y, z'
loop_
 _atom_site_type_symbol
 _atom_site_label
 _atom_site_symmetry_multiplicity
 _atom_site_fract_x
 _atom_site_fract_y
 _atom_site_fract_z
 _atom_site_occupancy
  As  As0  1  -0.00000000  -0.00000000  -0.00000000  1
  Rh  Rh1  1  0.50000000  0.50000000  0.50000000  1
  O  O2  1  0.50000000  0.18480175  0.81519825  1
  O  O3  1  0.50000000  0.81519825  0.18480175  1
  O  O4  1  -0.00000000  0.29166793  0.29166793  1
  O  O5  1  0.00000000  0.70833207  0.70833207  1
