# generated using pymatgen
data_Ba36Al9Sn23
_symmetry_space_group_name_H-M   'P 1'
_cell_length_a   13.10981752
_cell_length_b   14.10308829
_cell_length_c   14.10308829
_cell_angle_alpha   89.86283872
_cell_angle_beta   90.00000000
_cell_angle_gamma   90.00000000
_symmetry_Int_Tables_number   1
_chemical_formula_structural   Ba36Al9Sn23
_chemical_formula_sum   'Ba36 Al9 Sn23'
_cell_volume   2607.49720674
_cell_formula_units_Z   1
loop_
 _symmetry_equiv_pos_site_id
 _symmetry_equiv_pos_as_xyz
  1  'x, y, z'
loop_
 _atom_site_type_symbol
 _atom_site_label
 _atom_site_symmetry_multiplicity
 _atom_site_fract_x
 _atom_site_fract_y
 _atom_site_fract_z
 _atom_site_occupancy
  Ba  Ba0  1  0.75019034  0.72415046  0.57521673  1
  Ba  Ba1  1  0.74955296  0.27519632  0.42531863  1
  Ba  Ba2  1  0.74937571  0.77569976  0.07538214  1
  Ba  Ba3  1  0.74891860  0.22442764  0.92437430  1
  Ba  Ba4  1  0.74891860  0.57562570  0.27557236  1
  Ba  Ba5  1  0.74937571  0.42461786  0.72430024  1
  Ba  Ba6  1  0.74955296  0.07468137  0.22480368  1
  Ba  Ba7  1  0.75019034  0.92478327  0.77584954  1
  Ba  Ba8  1  0.25044704  0.27519632  0.42531863  1
  Ba  Ba9  1  0.24980966  0.72415046  0.57521673  1
  Ba  Ba10  1  0.25108140  0.22442764  0.92437430  1
  Ba  Ba11  1  0.25062429  0.77569976  0.07538214  1
  Ba  Ba12  1  0.25062429  0.42461786  0.72430024  1
  Ba  Ba13  1  0.25108140  0.57562570  0.27557236  1
  Ba  Ba14  1  0.24980966  0.92478327  0.77584954  1
  Ba  Ba15  1  0.25044704  0.07468137  0.22480368  1
  Ba  Ba16  1  0.00000000  0.60850786  0.70324492  1
  Ba  Ba17  1  0.00000000  0.39166767  0.29660899  1
  Ba  Ba18  1  0.00000000  0.89097326  0.20357861  1
  Ba  Ba19  1  0.00000000  0.10842659  0.79655183  1
  Ba  Ba20  1  0.00000000  0.70344817  0.39157341  1
  Ba  Ba21  1  0.00000000  0.29642139  0.60902674  1
  Ba  Ba22  1  0.00000000  0.20339101  0.10833233  1
  Ba  Ba23  1  0.00000000  0.79675508  0.89149214  1
  Ba  Ba24  1  0.50000000  0.59328274  0.71301929  1
  Ba  Ba25  1  0.50000000  0.40753847  0.28643198  1
  Ba  Ba26  1  0.50000000  0.90731755  0.21394137  1
  Ba  Ba27  1  0.50000000  0.09306551  0.78621425  1
  Ba  Ba28  1  0.50000000  0.71378575  0.40693449  1
  Ba  Ba29  1  0.50000000  0.28605863  0.59268245  1
  Ba  Ba30  1  0.50000000  0.21356802  0.09246153  1
  Ba  Ba31  1  0.50000000  0.78698071  0.90671726  1
  Ba  Ba32  1  0.64857052  0.99960512  0.50039488  1
  Ba  Ba33  1  0.64800210  0.50002604  0.99997396  1
  Ba  Ba34  1  0.35142948  0.99960512  0.50039488  1
  Ba  Ba35  1  0.35199790  0.50002604  0.99997396  1
  Al  Al36  1  0.89923026  0.06497536  0.56967412  1
  Al  Al37  1  0.89923026  0.93032588  0.43502464  1
  Al  Al38  1  0.89826084  0.43286444  0.06713556  1
  Al  Al39  1  0.89834618  0.56709813  0.93290187  1
  Al  Al40  1  0.10076974  0.93032588  0.43502464  1
  Al  Al41  1  0.10076974  0.06497536  0.56967412  1
  Al  Al42  1  0.10165382  0.56709813  0.93290187  1
  Al  Al43  1  0.10173916  0.43286444  0.06713556  1
  Al  Al44  1  0.00000000  0.88434181  0.61565819  1
  Sn  Sn45  1  0.75581065  0.16889811  0.66793121  1
  Sn  Sn46  1  0.75581065  0.83206879  0.33110189  1
  Sn  Sn47  1  0.75598835  0.33102810  0.16897190  1
  Sn  Sn48  1  0.75593559  0.66851707  0.83148293  1
  Sn  Sn49  1  0.24418935  0.83206879  0.33110189  1
  Sn  Sn50  1  0.24418935  0.16889811  0.66793121  1
  Sn  Sn51  1  0.24406441  0.66851707  0.83148293  1
  Sn  Sn52  1  0.24401165  0.33102810  0.16897190  1
  Sn  Sn53  1  0.50000000  0.65018063  0.15036783  1
  Sn  Sn54  1  0.50000000  0.34963217  0.84981937  1
  Sn  Sn55  1  0.50000000  0.84948661  0.65051339  1
  Sn  Sn56  1  0.50000000  0.15047669  0.34952331  1
  Sn  Sn57  1  0.62730892  0.50008331  0.49990159  1
  Sn  Sn58  1  0.62730892  0.00009841  0.99991669  1
  Sn  Sn59  1  0.37269108  0.50008331  0.49990159  1
  Sn  Sn60  1  0.37269108  0.00009841  0.99991669  1
  Sn  Sn61  1  0.87018247  0.49986461  0.49999919  1
  Sn  Sn62  1  0.87018247  0.00000081  0.00013539  1
  Sn  Sn63  1  0.12981753  0.49986461  0.49999919  1
  Sn  Sn64  1  0.12981753  0.00000081  0.00013539  1
  Sn  Sn65  1  0.00000000  0.12436341  0.37563659  1
  Sn  Sn66  1  0.00000000  0.62542985  0.12437273  1
  Sn  Sn67  1  0.00000000  0.37562727  0.87457015  1
