# generated using pymatgen
data_Ba5Y2CuMo2O15
_symmetry_space_group_name_H-M   'P 1'
_cell_length_a   6.02078064
_cell_length_b   8.47666057
_cell_length_c   15.89632767
_cell_angle_alpha   74.53657343
_cell_angle_beta   79.08360242
_cell_angle_gamma   90.00000000
_symmetry_Int_Tables_number   1
_chemical_formula_structural   Ba5Y2CuMo2O15
_chemical_formula_sum   'Ba10 Y4 Cu2 Mo4 O30'
_cell_volume   766.67615412
_cell_formula_units_Z   2
loop_
 _symmetry_equiv_pos_site_id
 _symmetry_equiv_pos_as_xyz
  1  'x, y, z'
loop_
 _atom_site_type_symbol
 _atom_site_label
 _atom_site_symmetry_multiplicity
 _atom_site_fract_x
 _atom_site_fract_y
 _atom_site_fract_z
 _atom_site_occupancy
  Ba  Ba0  1  0.70259879  0.44799378  0.59480242  1
  Ba  Ba1  1  0.10079833  0.84987447  0.79840334  1
  Ba  Ba2  1  0.50000000  0.26100778  0.00000000  1
  Ba  Ba3  1  0.89920167  0.64827780  0.20159666  1
  Ba  Ba4  1  0.29740121  0.04279620  0.40519758  1
  Ba  Ba5  1  0.70259879  0.95720380  0.59480242  1
  Ba  Ba6  1  0.10079833  0.35172220  0.79840334  1
  Ba  Ba7  1  0.50000000  0.73899222  1.00000000  1
  Ba  Ba8  1  0.89920167  0.15012553  0.20159666  1
  Ba  Ba9  1  0.29740121  0.55200622  0.40519758  1
  Y  Y10  1  -0.00000000  0.50000000  0.00000000  1
  Y  Y11  1  -0.00000000  -0.00000000  0.00000000  1
  Y  Y12  1  0.39744783  0.39744783  0.20510435  1
  Y  Y13  1  0.60255217  0.60255217  0.79489565  1
  Cu  Cu14  1  0.80028940  0.80028940  0.39942120  1
  Cu  Cu15  1  0.19971060  0.19971060  0.60057880  1
  Mo  Mo16  1  0.39743066  0.89743066  0.20513868  1
  Mo  Mo17  1  0.79746612  0.29746612  0.40506776  1
  Mo  Mo18  1  0.20253388  0.70253388  0.59493224  1
  Mo  Mo19  1  0.60256934  0.10256934  0.79486132  1
  O  O20  1  0.20105069  0.46699858  0.59789861  1
  O  O21  1  0.60261155  0.87255341  0.79477690  1
  O  O22  1  0.00000000  0.24570048  1.00000000  1
  O  O23  1  0.39738845  0.66733031  0.20522310  1
  O  O24  1  0.79894931  0.06489719  0.40210139  1
  O  O25  1  0.38490748  0.65659299  0.68681401  1
  O  O26  1  0.78322975  0.05505441  0.88989118  1
  O  O27  1  0.19873037  0.44692597  0.10614807  1
  O  O28  1  0.58599363  0.85265258  0.29469484  1
  O  O29  1  0.98477721  0.25205815  0.49588369  1
  O  O30  1  0.48066091  0.74794185  0.50411631  1
  O  O31  1  0.88068847  0.14734742  0.70530516  1
  O  O32  1  0.30487844  0.55307403  0.89385193  1
  O  O33  1  0.67312092  0.94494559  0.11010882  1
  O  O34  1  0.07172150  0.34340701  0.31318599  1
  O  O35  1  0.20105069  0.93510281  0.59789861  1
  O  O36  1  0.60261155  0.33266969  0.79477690  1
  O  O37  1  1.00000000  0.75429952  0.00000000  1
  O  O38  1  0.39738845  0.12744659  0.20522310  1
  O  O39  1  0.79894931  0.53300142  0.40210139  1
  O  O40  1  0.01522279  0.74794185  0.50411631  1
  O  O41  1  0.41400637  0.14734742  0.70530516  1
  O  O42  1  0.80126963  0.55307403  0.89385193  1
  O  O43  1  0.21677025  0.94494559  0.11010882  1
  O  O44  1  0.61509252  0.34340701  0.31318599  1
  O  O45  1  0.92827850  0.65659299  0.68681401  1
  O  O46  1  0.32687908  0.05505441  0.88989118  1
  O  O47  1  0.69512156  0.44692597  0.10614807  1
  O  O48  1  0.11931153  0.85265258  0.29469484  1
  O  O49  1  0.51933909  0.25205815  0.49588369  1
