# generated using pymatgen
data_Ba10Y5(Cu5O11)3
_symmetry_space_group_name_H-M   'P 1'
_cell_length_a   5.50592582
_cell_length_b   13.15661659
_cell_length_c   13.97057863
_cell_angle_alpha   114.20864761
_cell_angle_beta   100.05324493
_cell_angle_gamma   90.54419537
_symmetry_Int_Tables_number   1
_chemical_formula_structural   Ba10Y5(Cu5O11)3
_chemical_formula_sum   'Ba10 Y5 Cu15 O33'
_cell_volume   905.13717065
_cell_formula_units_Z   1
loop_
 _symmetry_equiv_pos_site_id
 _symmetry_equiv_pos_as_xyz
  1  'x, y, z'
loop_
 _atom_site_type_symbol
 _atom_site_label
 _atom_site_symmetry_multiplicity
 _atom_site_fract_x
 _atom_site_fract_y
 _atom_site_fract_z
 _atom_site_occupancy
  Ba  Ba0  1  0.14625731  0.19002187  0.27246746  1
  Ba  Ba1  1  0.34411150  0.19094087  0.67368526  1
  Ba  Ba2  1  0.53648583  0.18191699  0.07276407  1
  Ba  Ba3  1  0.73215210  0.19061889  0.47891376  1
  Ba  Ba4  1  0.92980535  0.19000619  0.87957784  1
  Ba  Ba5  1  0.26784790  0.80938111  0.52108624  1
  Ba  Ba6  1  0.46351417  0.81808301  0.92723593  1
  Ba  Ba7  1  0.65588850  0.80905913  0.32631474  1
  Ba  Ba8  1  0.85374269  0.80997813  0.72753254  1
  Ba  Ba9  1  0.07019465  0.80999381  0.12042216  1
  Y  Y10  1  0.19976851  0.49986248  0.40006232  1
  Y  Y11  1  0.80023149  0.50013752  0.59993768  1
  Y  Y12  1  0.40031739  0.50170967  0.80097503  1
  Y  Y13  1  0.00000000  0.50000000  -0.00000000  1
  Y  Y14  1  0.59968261  0.49829033  0.19902497  1
  Cu  Cu15  1  0.07149763  0.35726478  0.14279727  1
  Cu  Cu16  1  0.67376218  0.35968468  0.34390346  1
  Cu  Cu17  1  0.27035366  0.36022799  0.54361893  1
  Cu  Cu18  1  0.87377531  0.36042835  0.74493469  1
  Cu  Cu19  1  0.46995487  0.35947172  0.94360349  1
  Cu  Cu20  1  0.12622469  0.63957165  0.25506531  1
  Cu  Cu21  1  0.72964634  0.63977201  0.45638107  1
  Cu  Cu22  1  0.32623782  0.64031532  0.65609654  1
  Cu  Cu23  1  0.92850237  0.64273522  0.85720273  1
  Cu  Cu24  1  0.53004513  0.64052828  0.05639651  1
  Cu  Cu25  1  0.00000000  -0.00000000  -0.00000000  1
  Cu  Cu26  1  0.58162312  -0.00016667  0.19491063  1
  Cu  Cu27  1  0.21213252  -0.00002324  0.40445012  1
  Cu  Cu28  1  0.78786748  0.00002324  0.59554988  1
  Cu  Cu29  1  0.41837688  0.00016667  0.80508937  1
  O  O30  1  0.87681782  0.38075525  0.25217146  1
  O  O31  1  0.47673515  0.38014898  0.45212107  1
  O  O32  1  0.07594599  0.38011914  0.65201208  1
  O  O33  1  0.67555912  0.38020475  0.85214899  1
  O  O34  1  0.27531303  0.38077028  0.05234925  1
  O  O35  1  0.92405401  0.61988086  0.34798792  1
  O  O36  1  0.52326485  0.61985102  0.54787893  1
  O  O37  1  0.12318218  0.61924475  0.74782854  1
  O  O38  1  0.72468697  0.61922972  0.94765075  1
  O  O39  1  0.32444088  0.61979525  0.14785101  1
  O  O40  1  0.03205089  0.15904504  0.06363863  1
  O  O41  1  0.65412756  0.15237151  0.26831081  1
  O  O42  1  0.20487858  0.15213540  0.45317652  1
  O  O43  1  0.85573459  0.15199806  0.66843683  1
  O  O44  1  0.40705029  0.15230748  0.85365272  1
  O  O45  1  0.14426541  0.84800194  0.33156317  1
  O  O46  1  0.79512142  0.84786460  0.54682348  1
  O  O47  1  0.34587244  0.84762849  0.73168919  1
  O  O48  1  0.96794911  0.84095496  0.93636137  1
  O  O49  1  0.59294971  0.84769252  0.14634728  1
  O  O50  1  0.37677205  0.37809387  0.25180339  1
  O  O51  1  0.97610124  0.37943789  0.45179298  1
  O  O52  1  0.57540683  0.37679137  0.65083829  1
  O  O53  1  0.17615428  0.38003599  0.85185455  1
  O  O54  1  0.77402829  0.37720200  0.05037454  1
  O  O55  1  0.42459317  0.62320863  0.34916171  1
  O  O56  1  0.02389876  0.62056211  0.54820702  1
  O  O57  1  0.62322795  0.62190613  0.74819661  1
  O  O58  1  0.22597171  0.62279800  0.94962546  1
  O  O59  1  0.82384572  0.61996401  0.14814545  1
  O  O60  1  0.28857229  -0.00000492  0.09907799  1
  O  O61  1  0.50000000  -0.00000000  0.50000000  1
  O  O62  1  0.71142771  0.00000492  0.90092201  1
