# generated using pymatgen
data_Lu2PdO4
_symmetry_space_group_name_H-M   'P 1'
_cell_length_a   5.53462227
_cell_length_b   5.53087102
_cell_length_c   11.65331941
_cell_angle_alpha   90.00000000
_cell_angle_beta   90.00000000
_cell_angle_gamma   90.00000000
_symmetry_Int_Tables_number   1
_chemical_formula_structural   Lu2PdO4
_chemical_formula_sum   'Lu8 Pd4 O16'
_cell_volume   356.72304576
_cell_formula_units_Z   4
loop_
 _symmetry_equiv_pos_site_id
 _symmetry_equiv_pos_as_xyz
  1  'x, y, z'
loop_
 _atom_site_type_symbol
 _atom_site_label
 _atom_site_symmetry_multiplicity
 _atom_site_fract_x
 _atom_site_fract_y
 _atom_site_fract_z
 _atom_site_occupancy
  O  O0  1  0.75939034  0.25237479  0.24968179  1
  O  O1  1  0.25939034  0.24762521  0.75031821  1
  O  O2  1  0.24060966  0.75237479  0.25031821  1
  O  O3  1  0.74060966  0.74762521  0.74968179  1
  O  O4  1  0.24060966  0.74762521  0.75031821  1
  O  O5  1  0.74060966  0.75237479  0.24968179  1
  O  O6  1  0.75939034  0.24762521  0.74968179  1
  O  O7  1  0.25939034  0.25237479  0.25031821  1
  O  O8  1  0.66844258  0.33154302  0.49948030  1
  O  O9  1  0.16844258  0.16845698  0.50051970  1
  O  O10  1  0.33155742  0.83154302  0.00051970  1
  O  O11  1  0.83155742  0.66845698  0.99948030  1
  O  O12  1  0.16844258  0.33154302  0.00051970  1
  O  O13  1  0.66844258  0.16845698  0.99948030  1
  O  O14  1  0.83155742  0.83154302  0.49948030  1
  O  O15  1  0.33155742  0.66845698  0.50051970  1
  Pd  Pd16  1  0.50000000  0.00000000  0.50000000  1
  Pd  Pd17  1  0.00000000  0.50000000  0.50000000  1
  Pd  Pd18  1  0.50000000  0.50000000  0.00000000  1
  Pd  Pd19  1  0.00000000  0.00000000  0.00000000  1
  Lu  Lu20  1  0.49957971  0.00226120  0.16156694  1
  Lu  Lu21  1  0.99957971  0.49773880  0.83843306  1
  Lu  Lu22  1  0.50042029  0.50226120  0.33843306  1
  Lu  Lu23  1  0.00042029  0.99773880  0.66156694  1
  Lu  Lu24  1  0.50042029  0.99773880  0.83843306  1
  Lu  Lu25  1  0.00042029  0.50226120  0.16156694  1
  Lu  Lu26  1  0.49957971  0.49773880  0.66156694  1
  Lu  Lu27  1  0.99957971  0.00226120  0.33843306  1
