# generated using pymatgen
data_SrNb6O16
_symmetry_space_group_name_H-M   'P 1'
_cell_length_a   3.91688045
_cell_length_b   9.17951620
_cell_length_c   9.17951619
_cell_angle_alpha   109.91085206
_cell_angle_beta   90.00000000
_cell_angle_gamma   90.00000000
_symmetry_Int_Tables_number   1
_chemical_formula_structural   SrNb6O16
_chemical_formula_sum   'Sr1 Nb6 O16'
_cell_volume   310.32092982
_cell_formula_units_Z   1
loop_
 _symmetry_equiv_pos_site_id
 _symmetry_equiv_pos_as_xyz
  1  'x, y, z'
loop_
 _atom_site_type_symbol
 _atom_site_label
 _atom_site_symmetry_multiplicity
 _atom_site_fract_x
 _atom_site_fract_y
 _atom_site_fract_z
 _atom_site_occupancy
  O  O0  1  0.00000000  0.51160276  0.48839724  1
  O  O1  1  0.00000000  0.85730562  0.14269438  1
  O  O2  1  0.00000000  0.53390363  0.16708446  1
  O  O3  1  0.00000000  0.83291554  0.46609637  1
  O  O4  1  0.00000000  0.76184722  0.85442585  1
  O  O5  1  0.00000000  0.14557415  0.23815278  1
  O  O6  1  0.00000000  0.44322906  0.81314521  1
  O  O7  1  0.50000000  0.00336798  0.99663202  1
  O  O8  1  0.50000000  0.22476536  0.77523464  1
  O  O9  1  0.50000000  0.70791096  0.63310433  1
  O  O10  1  0.50000000  0.36689567  0.29208904  1
  O  O11  1  0.50000000  0.99546641  0.37308103  1
  O  O12  1  0.50000000  0.62691897  0.00453359  1
  O  O13  1  0.00000000  0.98638005  0.76428139  1
  O  O14  1  0.00000000  0.23571861  0.01361995  1
  O  O15  1  0.00000000  0.18685479  0.55677094  1
  Sr  Sr16  1  0.50000000  0.39846191  0.60153809  1
  Nb  Nb17  1  0.00000000  0.00205448  0.37246162  1
  Nb  Nb18  1  0.00000000  0.37984546  0.25812592  1
  Nb  Nb19  1  0.00000000  0.74187408  0.62015454  1
  Nb  Nb20  1  0.00000000  0.20628392  0.79371608  1
  Nb  Nb21  1  0.00000000  0.99328497  0.00671503  1
  Nb  Nb22  1  0.00000000  0.62753838  0.99794552  1
