# generated using pymatgen
data_KH3C2O3
_symmetry_space_group_name_H-M   'P 1'
_cell_length_a   3.87148992
_cell_length_b   5.70277508
_cell_length_c   10.03190867
_cell_angle_alpha   101.04270965
_cell_angle_beta   90.25248037
_cell_angle_gamma   92.48995527
_symmetry_Int_Tables_number   1
_chemical_formula_structural   KH3C2O3
_chemical_formula_sum   'K2 H6 C4 O6'
_cell_volume   217.16240789
_cell_formula_units_Z   2
loop_
 _symmetry_equiv_pos_site_id
 _symmetry_equiv_pos_as_xyz
  1  'x, y, z'
loop_
 _atom_site_type_symbol
 _atom_site_label
 _atom_site_symmetry_multiplicity
 _atom_site_fract_x
 _atom_site_fract_y
 _atom_site_fract_z
 _atom_site_occupancy
  K  K0  1  0.87560164  0.71075700  0.87552343  1
  K  K1  1  0.12439836  0.28924300  0.12447657  1
  H  H2  1  0.00917536  0.17452079  0.61084957  1
  H  H3  1  0.99082464  0.82547921  0.38915043  1
  H  H4  1  0.16903807  0.46312067  0.58633430  1
  H  H5  1  0.83096193  0.53687933  0.41366570  1
  H  H6  1  0.41960809  0.20456427  0.53300925  1
  H  H7  1  0.58039191  0.79543573  0.46699075  1
  C  C8  1  0.48913942  0.15640528  0.80371284  1
  C  C9  1  0.51086058  0.84359472  0.19628716  1
  C  C10  1  0.24117293  0.29151661  0.61002737  1
  C  C11  1  0.75882707  0.70848339  0.38997263  1
  O  O12  1  0.40575413  0.34983534  0.74233219  1
  O  O13  1  0.59424587  0.65016466  0.25766781  1
  O  O14  1  0.39304535  0.94859704  0.74602482  1
  O  O15  1  0.60695465  0.05140296  0.25397518  1
  O  O16  1  0.65812225  0.22410803  0.91421375  1
  O  O17  1  0.34187775  0.77589197  0.08578625  1
