# generated using pymatgen
data_GdGaO3
_symmetry_space_group_name_H-M   'P 1'
_cell_length_a   5.37317138
_cell_length_b   5.61965195
_cell_length_c   7.70335431
_cell_angle_alpha   90.00000000
_cell_angle_beta   90.00000000
_cell_angle_gamma   90.00000000
_symmetry_Int_Tables_number   1
_chemical_formula_structural   GdGaO3
_chemical_formula_sum   'Gd4 Ga4 O12'
_cell_volume   232.60550285
_cell_formula_units_Z   4
loop_
 _symmetry_equiv_pos_site_id
 _symmetry_equiv_pos_as_xyz
  1  'x, y, z'
loop_
 _atom_site_type_symbol
 _atom_site_label
 _atom_site_symmetry_multiplicity
 _atom_site_fract_x
 _atom_site_fract_y
 _atom_site_fract_z
 _atom_site_occupancy
  O  O0  1  0.69872162  0.30102450  0.44709091  1
  O  O1  1  0.19872162  0.19897550  0.55290909  1
  O  O2  1  0.80127838  0.80102450  0.05290909  1
  O  O3  1  0.30127838  0.69897550  0.94709091  1
  O  O4  1  0.30127838  0.69897550  0.55290909  1
  O  O5  1  0.80127838  0.80102450  0.44709091  1
  O  O6  1  0.19872162  0.19897550  0.94709091  1
  O  O7  1  0.69872162  0.30102450  0.05290909  1
  O  O8  1  0.10196758  0.46766763  0.25000000  1
  O  O9  1  0.60196758  0.03233237  0.75000000  1
  O  O10  1  0.39803242  0.96766763  0.25000000  1
  O  O11  1  0.89803242  0.53233237  0.75000000  1
  Ga  Ga12  1  0.00000000  0.50000000  0.50000000  1
  Ga  Ga13  1  0.50000000  0.00000000  0.50000000  1
  Ga  Ga14  1  0.50000000  0.00000000  0.00000000  1
  Ga  Ga15  1  0.00000000  0.50000000  0.00000000  1
  Gd  Gd16  1  0.01691727  0.93692392  0.75000000  1
  Gd  Gd17  1  0.51691727  0.56307608  0.25000000  1
  Gd  Gd18  1  0.48308273  0.43692392  0.75000000  1
  Gd  Gd19  1  0.98308273  0.06307608  0.25000000  1
