# generated using pymatgen
data_Sm3ReO7
_symmetry_space_group_name_H-M   'P 1'
_cell_length_a   6.57069415
_cell_length_b   6.57069415
_cell_length_c   7.57179657
_cell_angle_alpha   90.00000000
_cell_angle_beta   90.00000000
_cell_angle_gamma   110.81004753
_symmetry_Int_Tables_number   1
_chemical_formula_structural   Sm3ReO7
_chemical_formula_sum   'Sm6 Re2 O14'
_cell_volume   305.57874092
_cell_formula_units_Z   2
loop_
 _symmetry_equiv_pos_site_id
 _symmetry_equiv_pos_as_xyz
  1  'x, y, z'
loop_
 _atom_site_type_symbol
 _atom_site_label
 _atom_site_symmetry_multiplicity
 _atom_site_fract_x
 _atom_site_fract_y
 _atom_site_fract_z
 _atom_site_occupancy
  O  O0  1  0.34491849  0.60897969  0.75000000  1
  O  O1  1  0.65508151  0.39102031  0.25000000  1
  O  O2  1  0.60897969  0.34491849  0.75000000  1
  O  O3  1  0.39102031  0.65508151  0.25000000  1
  O  O4  1  0.06060469  0.31471355  0.03693340  1
  O  O5  1  0.93939531  0.68528645  0.53693340  1
  O  O6  1  0.31471355  0.06060469  0.46306660  1
  O  O7  1  0.68528645  0.93939531  0.96306660  1
  O  O8  1  0.91874300  0.91874300  0.25000000  1
  O  O9  1  0.08125700  0.08125700  0.75000000  1
  O  O10  1  0.31471355  0.06060469  0.03693340  1
  O  O11  1  0.68528645  0.93939531  0.53693340  1
  O  O12  1  0.06060469  0.31471355  0.46306660  1
  O  O13  1  0.93939531  0.68528645  0.96306660  1
  Sm  Sm14  1  0.57307319  0.02218689  0.25000000  1
  Sm  Sm15  1  0.42692681  0.97781311  0.75000000  1
  Sm  Sm16  1  0.50000000  0.50000000  0.50000000  1
  Sm  Sm17  1  0.50000000  0.50000000  0.00000000  1
  Sm  Sm18  1  0.97781311  0.42692681  0.75000000  1
  Sm  Sm19  1  0.02218689  0.57307319  0.25000000  1
  Re  Re20  1  0.00000000  0.00000000  0.00000000  1
  Re  Re21  1  0.00000000  0.00000000  0.50000000  1
