# generated using pymatgen
data_Yb4Si2S3O7
_symmetry_space_group_name_H-M   'P 1'
_cell_length_a   11.04273600
_cell_length_b   11.04273600
_cell_length_c   11.04273600
_cell_angle_alpha   96.56156188
_cell_angle_beta   116.28680046
_cell_angle_gamma   116.28680044
_symmetry_Int_Tables_number   1
_chemical_formula_structural   Yb4Si2S3O7
_chemical_formula_sum   'Yb16 Si8 S12 O28'
_cell_volume   998.51889400
_cell_formula_units_Z   4
loop_
 _symmetry_equiv_pos_site_id
 _symmetry_equiv_pos_as_xyz
  1  'x, y, z'
loop_
 _atom_site_type_symbol
 _atom_site_label
 _atom_site_symmetry_multiplicity
 _atom_site_fract_x
 _atom_site_fract_y
 _atom_site_fract_z
 _atom_site_occupancy
  O  O0  1  0.25000000  0.86213746  0.61213746  1
  O  O1  1  0.75000000  0.61213746  0.86213746  1
  O  O2  1  0.75000000  0.13786254  0.38786254  1
  O  O3  1  0.25000000  0.38786254  0.13786254  1
  O  O4  1  0.48533845  0.91167166  0.14307378  1
  O  O5  1  0.01466155  0.15773533  0.42633321  1
  O  O6  1  0.01466155  0.85692622  0.08832834  1
  O  O7  1  0.26859788  0.42633321  0.91167166  1
  O  O8  1  0.23140212  0.14307378  0.15773533  1
  O  O9  1  0.23140212  0.08832834  0.57366679  1
  O  O10  1  0.26859788  0.84226467  0.85692622  1
  O  O11  1  0.48533845  0.57366679  0.84226467  1
  O  O12  1  0.51466155  0.08832834  0.85692622  1
  O  O13  1  0.98533845  0.84226467  0.57366679  1
  O  O14  1  0.98533845  0.14307378  0.91167166  1
  O  O15  1  0.73140212  0.57366679  0.08832834  1
  O  O16  1  0.76859788  0.85692622  0.84226467  1
  O  O17  1  0.76859788  0.91167166  0.42633321  1
  O  O18  1  0.73140212  0.15773533  0.14307378  1
  O  O19  1  0.51466155  0.42633321  0.15773533  1
  O  O20  1  0.47868602  0.83299020  0.81167622  1
  O  O21  1  0.02131398  0.83299020  0.35430417  1
  O  O22  1  0.02131398  0.18832378  0.16700980  1
  O  O23  1  0.52131398  0.35430417  0.83299020  1
  O  O24  1  0.97868602  0.81167622  0.83299020  1
  O  O25  1  0.97868602  0.16700980  0.64569583  1
  O  O26  1  0.52131398  0.16700980  0.18832378  1
  O  O27  1  0.47868602  0.64569583  0.16700980  1
  Si  Si28  1  0.37879532  0.91142232  0.79021765  1
  Si  Si29  1  0.12120468  0.91142232  0.53262700  1
  Si  Si30  1  0.12120468  0.20978235  0.08857768  1
  Si  Si31  1  0.62120468  0.53262700  0.91142232  1
  Si  Si32  1  0.87879532  0.79021765  0.91142232  1
  Si  Si33  1  0.87879532  0.08857768  0.46737300  1
  Si  Si34  1  0.62120468  0.08857768  0.20978235  1
  Si  Si35  1  0.37879532  0.46737300  0.08857768  1
  S  S36  1  0.25000000  0.12500000  0.87500000  1
  S  S37  1  0.75000000  0.87500000  0.12500000  1
  S  S38  1  0.75000000  0.37500000  0.62500000  1
  S  S39  1  0.25000000  0.62500000  0.37500000  1
  S  S40  1  0.58651543  0.00000000  0.58651543  1
  S  S41  1  0.58651543  0.58651543  0.50000000  1
  S  S42  1  0.91348457  0.41348457  0.00000000  1
  S  S43  1  0.91348457  0.50000000  0.41348457  1
  S  S44  1  0.41348457  0.00000000  0.41348457  1
  S  S45  1  0.41348457  0.41348457  0.50000000  1
  S  S46  1  0.08651543  0.58651543  0.00000000  1
  S  S47  1  0.08651543  0.50000000  0.58651543  1
  Yb  Yb48  1  0.50361793  0.68524578  0.68886371  1
  Yb  Yb49  1  0.99638207  0.68524578  0.18162785  1
  Yb  Yb50  1  0.99638207  0.31113629  0.31475422  1
  Yb  Yb51  1  0.49638207  0.18162785  0.68524578  1
  Yb  Yb52  1  0.00361793  0.68886371  0.68524578  1
  Yb  Yb53  1  0.00361793  0.31475422  0.81837215  1
  Yb  Yb54  1  0.49638207  0.31475422  0.31113629  1
  Yb  Yb55  1  0.50361793  0.81837215  0.31475422  1
  Yb  Yb56  1  0.91640307  0.95820153  0.70820153  1
  Yb  Yb57  1  0.75000000  0.70820153  0.29179847  1
  Yb  Yb58  1  0.75000000  0.04179847  0.95820153  1
  Yb  Yb59  1  0.58359693  0.29179847  0.04179847  1
  Yb  Yb60  1  0.08359693  0.04179847  0.29179847  1
  Yb  Yb61  1  0.25000000  0.29179847  0.70820153  1
  Yb  Yb62  1  0.25000000  0.95820153  0.04179847  1
  Yb  Yb63  1  0.41640307  0.70820153  0.95820153  1
