# generated using pymatgen
data_TaPO5
_symmetry_space_group_name_H-M   'P 1'
_cell_length_a   4.04985942
_cell_length_b   6.51524510
_cell_length_c   6.51524510
_cell_angle_alpha   90.00000000
_cell_angle_beta   90.00000000
_cell_angle_gamma   90.00000000
_symmetry_Int_Tables_number   1
_chemical_formula_structural   TaPO5
_chemical_formula_sum   'Ta2 P2 O10'
_cell_volume   171.91012839
_cell_formula_units_Z   2
loop_
 _symmetry_equiv_pos_site_id
 _symmetry_equiv_pos_as_xyz
  1  'x, y, z'
loop_
 _atom_site_type_symbol
 _atom_site_label
 _atom_site_symmetry_multiplicity
 _atom_site_fract_x
 _atom_site_fract_y
 _atom_site_fract_z
 _atom_site_occupancy
  O  O0  1  0.28431588  0.75141372  0.44455610  1
  O  O1  1  0.28431588  0.05544390  0.75141372  1
  O  O2  1  0.21514385  0.25000000  0.25000000  1
  O  O3  1  0.78485615  0.75000000  0.75000000  1
  O  O4  1  0.28431588  0.44455610  0.74858628  1
  O  O5  1  0.28431588  0.74858628  0.05544390  1
  O  O6  1  0.71568412  0.25141372  0.94455610  1
  O  O7  1  0.71568412  0.55544390  0.25141372  1
  O  O8  1  0.71568412  0.94455610  0.24858628  1
  O  O9  1  0.71568412  0.24858628  0.55544390  1
  P  P10  1  0.50000000  0.75000000  0.25000000  1
  P  P11  1  0.50000000  0.25000000  0.75000000  1
  Ta  Ta12  1  0.23580757  0.75000000  0.75000000  1
  Ta  Ta13  1  0.76419243  0.25000000  0.25000000  1
