# generated using pymatgen
data_LiYMo3O8
_symmetry_space_group_name_H-M   'P 1'
_cell_length_a   6.28155543
_cell_length_b   6.28155542
_cell_length_c   4.96265644
_cell_angle_alpha   90.00000000
_cell_angle_beta   90.00000000
_cell_angle_gamma   120.00000000
_symmetry_Int_Tables_number   1
_chemical_formula_structural   LiYMo3O8
_chemical_formula_sum   'Li1 Y1 Mo3 O8'
_cell_volume   169.58179755
_cell_formula_units_Z   1
loop_
 _symmetry_equiv_pos_site_id
 _symmetry_equiv_pos_as_xyz
  1  'x, y, z'
loop_
 _atom_site_type_symbol
 _atom_site_label
 _atom_site_symmetry_multiplicity
 _atom_site_fract_x
 _atom_site_fract_y
 _atom_site_fract_z
 _atom_site_occupancy
  Li  Li0  1  0.66666607  0.33333312  0.68369537  1
  O  O1  1  0.66666607  0.33333312  0.04062707  1
  O  O2  1  0.67464106  0.83732136  0.04172532  1
  O  O3  1  0.16267900  0.32535801  0.04172532  1
  O  O4  1  0.16268030  0.83732136  0.04172532  1
  O  O5  1  0.00000000  0.00000000  0.46472523  1
  O  O6  1  0.97173469  0.48586757  0.48236983  1
  O  O7  1  0.51413262  0.02826622  0.48236983  1
  O  O8  1  0.51413360  0.48586757  0.48236983  1
  Y  Y9  1  0.33333312  0.66666625  0.74800792  1
  Mo  Mo10  1  0.83601605  0.67203308  0.24755437  1
  Mo  Mo11  1  0.32796709  0.16398413  0.24755437  1
  Mo  Mo12  1  0.83601777  0.16398413  0.24755437  1
