# generated using pymatgen
data_Nb5Ge4
_symmetry_space_group_name_H-M   'P 1'
_cell_length_a   6.77820939
_cell_length_b   6.84453001
_cell_length_c   13.24457441
_cell_angle_alpha   90.00000000
_cell_angle_beta   90.00000000
_cell_angle_gamma   90.00000000
_symmetry_Int_Tables_number   1
_chemical_formula_structural   Nb5Ge4
_chemical_formula_sum   'Nb20 Ge16'
_cell_volume   614.46425002
_cell_formula_units_Z   4
loop_
 _symmetry_equiv_pos_site_id
 _symmetry_equiv_pos_as_xyz
  1  'x, y, z'
loop_
 _atom_site_type_symbol
 _atom_site_label
 _atom_site_symmetry_multiplicity
 _atom_site_fract_x
 _atom_site_fract_y
 _atom_site_fract_z
 _atom_site_occupancy
  Ge  Ge0  1  0.68924856  0.53462251  0.04118536  1
  Ge  Ge1  1  0.18924856  0.96537749  0.45881464  1
  Ge  Ge2  1  0.81075144  0.03462251  0.95881464  1
  Ge  Ge3  1  0.31075144  0.46537749  0.54118536  1
  Ge  Ge4  1  0.31075144  0.46537749  0.95881464  1
  Ge  Ge5  1  0.81075144  0.03462251  0.54118536  1
  Ge  Ge6  1  0.18924856  0.96537749  0.04118536  1
  Ge  Ge7  1  0.68924856  0.53462251  0.45881464  1
  Ge  Ge8  1  0.31877793  0.33963602  0.25000000  1
  Ge  Ge9  1  0.81877793  0.16036398  0.25000000  1
  Ge  Ge10  1  0.18122207  0.83963602  0.75000000  1
  Ge  Ge11  1  0.68122207  0.66036398  0.75000000  1
  Ge  Ge12  1  0.04620767  0.60373904  0.25000000  1
  Ge  Ge13  1  0.54620767  0.89626096  0.25000000  1
  Ge  Ge14  1  0.45379233  0.10373904  0.75000000  1
  Ge  Ge15  1  0.95379233  0.39626096  0.75000000  1
  Nb  Nb16  1  0.01953184  0.32476838  0.08617389  1
  Nb  Nb17  1  0.51953184  0.17523162  0.41382611  1
  Nb  Nb18  1  0.48046816  0.82476838  0.91382611  1
  Nb  Nb19  1  0.98046816  0.67523162  0.58617389  1
  Nb  Nb20  1  0.01953184  0.32476838  0.41382611  1
  Nb  Nb21  1  0.51953184  0.17523162  0.08617389  1
  Nb  Nb22  1  0.48046816  0.82476838  0.58617389  1
  Nb  Nb23  1  0.98046816  0.67523162  0.91382611  1
  Nb  Nb24  1  0.84639443  0.83577476  0.12447302  1
  Nb  Nb25  1  0.34639443  0.66422524  0.37552698  1
  Nb  Nb26  1  0.65360557  0.33577476  0.87552698  1
  Nb  Nb27  1  0.15360557  0.16422524  0.62447302  1
  Nb  Nb28  1  0.15360557  0.16422524  0.87552698  1
  Nb  Nb29  1  0.65360557  0.33577476  0.62447302  1
  Nb  Nb30  1  0.34639443  0.66422524  0.12447302  1
  Nb  Nb31  1  0.84639443  0.83577476  0.37552698  1
  Nb  Nb32  1  0.17205653  0.99185246  0.25000000  1
  Nb  Nb33  1  0.67205653  0.50814754  0.25000000  1
  Nb  Nb34  1  0.32794347  0.49185246  0.75000000  1
  Nb  Nb35  1  0.82794347  0.00814754  0.75000000  1
