# generated using pymatgen
data_YbCrSb3
_symmetry_space_group_name_H-M   'P 1'
_cell_length_a   6.02671015
_cell_length_b   6.22352534
_cell_length_c   13.14951253
_cell_angle_alpha   90.00000000
_cell_angle_beta   90.00000000
_cell_angle_gamma   90.00000000
_symmetry_Int_Tables_number   1
_chemical_formula_structural   YbCrSb3
_chemical_formula_sum   'Yb4 Cr4 Sb12'
_cell_volume   493.20380714
_cell_formula_units_Z   4
loop_
 _symmetry_equiv_pos_site_id
 _symmetry_equiv_pos_as_xyz
  1  'x, y, z'
loop_
 _atom_site_type_symbol
 _atom_site_label
 _atom_site_symmetry_multiplicity
 _atom_site_fract_x
 _atom_site_fract_y
 _atom_site_fract_z
 _atom_site_occupancy
  Cr  Cr0  1  0.50000000  0.75000000  0.09596631  1
  Cr  Cr1  1  0.00000000  0.25000000  0.90403369  1
  Cr  Cr2  1  0.50000000  0.25000000  0.90403369  1
  Cr  Cr3  1  0.00000000  0.75000000  0.09596631  1
  Sb  Sb4  1  0.00000000  0.75000000  0.49796539  1
  Sb  Sb5  1  0.50000000  0.25000000  0.50203461  1
  Sb  Sb6  1  0.00000000  0.25000000  0.50203461  1
  Sb  Sb7  1  0.50000000  0.75000000  0.49796539  1
  Sb  Sb8  1  0.75000000  0.89275975  0.93615481  1
  Sb  Sb9  1  0.25000000  0.10724025  0.06384519  1
  Sb  Sb10  1  0.75000000  0.39275975  0.06384519  1
  Sb  Sb11  1  0.25000000  0.60724025  0.93615481  1
  Sb  Sb12  1  0.75000000  0.50404048  0.78409940  1
  Sb  Sb13  1  0.25000000  0.49595952  0.21590060  1
  Sb  Sb14  1  0.75000000  0.00404048  0.21590060  1
  Sb  Sb15  1  0.25000000  0.99595952  0.78409940  1
  Yb  Yb16  1  0.25000000  0.50176072  0.69157382  1
  Yb  Yb17  1  0.75000000  0.49823928  0.30842618  1
  Yb  Yb18  1  0.25000000  0.00176072  0.30842618  1
  Yb  Yb19  1  0.75000000  0.99823928  0.69157382  1
