# generated using pymatgen
data_LaRuO3
_symmetry_space_group_name_H-M   'P 1'
_cell_length_a   5.47649910
_cell_length_b   5.91310587
_cell_length_c   7.92461960
_cell_angle_alpha   90.00000000
_cell_angle_beta   90.00000000
_cell_angle_gamma   90.00000000
_symmetry_Int_Tables_number   1
_chemical_formula_structural   LaRuO3
_chemical_formula_sum   'La4 Ru4 O12'
_cell_volume   256.62389934
_cell_formula_units_Z   4
loop_
 _symmetry_equiv_pos_site_id
 _symmetry_equiv_pos_as_xyz
  1  'x, y, z'
loop_
 _atom_site_type_symbol
 _atom_site_label
 _atom_site_symmetry_multiplicity
 _atom_site_fract_x
 _atom_site_fract_y
 _atom_site_fract_z
 _atom_site_occupancy
  O  O0  1  0.90078287  0.53406853  0.75000000  1
  O  O1  1  0.40078287  0.96593147  0.25000000  1
  O  O2  1  0.59921713  0.03406853  0.75000000  1
  O  O3  1  0.09921713  0.46593147  0.25000000  1
  O  O4  1  0.69208466  0.29910645  0.45005851  1
  O  O5  1  0.19208466  0.20089355  0.54994149  1
  O  O6  1  0.80791534  0.79910645  0.04994149  1
  O  O7  1  0.30791534  0.70089355  0.95005851  1
  O  O8  1  0.69208466  0.29910645  0.04994149  1
  O  O9  1  0.19208466  0.20089355  0.95005851  1
  O  O10  1  0.80791534  0.79910645  0.45005851  1
  O  O11  1  0.30791534  0.70089355  0.54994149  1
  Ru  Ru12  1  0.50000000  0.00000000  0.50000000  1
  Ru  Ru13  1  0.00000000  0.50000000  0.50000000  1
  Ru  Ru14  1  0.00000000  0.50000000  0.00000000  1
  Ru  Ru15  1  0.50000000  0.00000000  0.00000000  1
  La  La16  1  0.02016872  0.93492913  0.75000000  1
  La  La17  1  0.52016872  0.56507087  0.25000000  1
  La  La18  1  0.47983128  0.43492913  0.75000000  1
  La  La19  1  0.97983128  0.06507087  0.25000000  1
