# generated using pymatgen
data_DyMnSi
_symmetry_space_group_name_H-M   'P 1'
_cell_length_a   4.11371715
_cell_length_b   7.00170796
_cell_length_c   7.55423661
_cell_angle_alpha   90.00000000
_cell_angle_beta   90.00000000
_cell_angle_gamma   90.00000000
_symmetry_Int_Tables_number   1
_chemical_formula_structural   DyMnSi
_chemical_formula_sum   'Dy4 Mn4 Si4'
_cell_volume   217.58502544
_cell_formula_units_Z   4
loop_
 _symmetry_equiv_pos_site_id
 _symmetry_equiv_pos_as_xyz
  1  'x, y, z'
loop_
 _atom_site_type_symbol
 _atom_site_label
 _atom_site_symmetry_multiplicity
 _atom_site_fract_x
 _atom_site_fract_y
 _atom_site_fract_z
 _atom_site_occupancy
  Si  Si0  1  0.25000000  0.28899704  0.89002642  1
  Si  Si1  1  0.75000000  0.71100296  0.10997358  1
  Si  Si2  1  0.25000000  0.78899704  0.60997358  1
  Si  Si3  1  0.75000000  0.21100296  0.39002642  1
  Mn  Mn4  1  0.75000000  0.86212553  0.44153629  1
  Mn  Mn5  1  0.25000000  0.13787447  0.55846371  1
  Mn  Mn6  1  0.75000000  0.36212553  0.05846371  1
  Mn  Mn7  1  0.25000000  0.63787447  0.94153629  1
  Dy  Dy8  1  0.25000000  0.00767013  0.18581720  1
  Dy  Dy9  1  0.75000000  0.99232987  0.81418280  1
  Dy  Dy10  1  0.25000000  0.50767013  0.31418280  1
  Dy  Dy11  1  0.75000000  0.49232987  0.68581720  1
