# generated using pymatgen
data_ZnAg2C4(SN)4
_symmetry_space_group_name_H-M   'P 1'
_cell_length_a   7.80249100
_cell_length_b   7.93791550
_cell_length_c   10.70457520
_cell_angle_alpha   96.03149317
_cell_angle_beta   111.37352969
_cell_angle_gamma   90.00000069
_symmetry_Int_Tables_number   1
_chemical_formula_structural   ZnAg2C4(SN)4
_chemical_formula_sum   'Zn2 Ag4 C8 S8 N8'
_cell_volume   613.45264879
_cell_formula_units_Z   2
loop_
 _symmetry_equiv_pos_site_id
 _symmetry_equiv_pos_as_xyz
  1  'x, y, z'
loop_
 _atom_site_type_symbol
 _atom_site_label
 _atom_site_symmetry_multiplicity
 _atom_site_fract_x
 _atom_site_fract_y
 _atom_site_fract_z
 _atom_site_occupancy
  Zn  Zn0  1  0.54073684  0.51296997  0.41014702  1
  Zn  Zn1  1  0.86941018  0.01296997  0.41014702  1
  Ag  Ag2  1  0.50829736  0.02716083  0.81953724  1
  Ag  Ag3  1  0.90818988  0.49955929  0.00000817  1
  Ag  Ag4  1  0.31123988  0.52716083  0.81953724  1
  Ag  Ag5  1  0.09181829  0.99955929  0.00000817  1
  C  C6  1  0.54160863  0.09594002  0.15323281  1
  C  C7  1  0.79555301  0.91480068  0.66161941  1
  C  C8  1  0.86606640  0.41480068  0.66161941  1
  C  C9  1  0.06053616  0.79740671  0.24533954  1
  C  C10  1  0.18480338  0.29740671  0.24533954  1
  C  C11  1  0.23132012  0.22313654  0.57187188  1
  C  C12  1  0.61162419  0.59594002  0.15323281  1
  C  C13  1  0.34055176  0.72313654  0.57187188  1
  S  S14  1  0.79293098  0.87225877  0.80769225  1
  S  S15  1  0.97619456  0.23350737  0.14442357  1
  S  S16  1  0.43859855  0.28733379  0.67510334  1
  S  S17  1  0.23650480  0.78733379  0.67510334  1
  S  S18  1  0.61177863  0.64542847  0.00796424  1
  S  S19  1  0.39618561  0.14542847  0.00796424  1
  S  S20  1  0.01476127  0.37225877  0.80769225  1
  S  S21  1  0.16822900  0.73350737  0.14442357  1
  N  N22  1  0.98323537  0.84249368  0.31822232  1
  N  N23  1  0.08038071  0.18060050  0.49827638  1
  N  N24  1  0.61305338  0.56910612  0.25959178  1
  N  N25  1  0.33498694  0.34249368  0.31822232  1
  N  N26  1  0.75670527  0.43979726  0.55637004  1
  N  N27  1  0.41789567  0.68060050  0.49827638  1
  N  N28  1  0.64653840  0.06910612  0.25959178  1
  N  N29  1  0.79966477  0.93979726  0.55637004  1
