# generated using pymatgen
data_BaLa2CoS5
_symmetry_space_group_name_H-M   'P 1'
_cell_length_a   7.98881663
_cell_length_b   7.98881662
_cell_length_c   8.80880911
_cell_angle_alpha   116.96564154
_cell_angle_beta   116.96564157
_cell_angle_gamma   89.99999999
_symmetry_Int_Tables_number   1
_chemical_formula_structural   BaLa2CoS5
_chemical_formula_sum   'Ba2 La4 Co2 S10'
_cell_volume   431.36951442
_cell_formula_units_Z   2
loop_
 _symmetry_equiv_pos_site_id
 _symmetry_equiv_pos_as_xyz
  1  'x, y, z'
loop_
 _atom_site_type_symbol
 _atom_site_label
 _atom_site_symmetry_multiplicity
 _atom_site_fract_x
 _atom_site_fract_y
 _atom_site_fract_z
 _atom_site_occupancy
  S  S0  1  0.49159164  0.99159164  0.27520945  1
  S  S1  1  0.21638219  0.71638219  0.72479055  1
  S  S2  1  0.50840836  0.00840836  0.72479055  1
  S  S3  1  0.71638219  0.50840836  0.72479055  1
  S  S4  1  0.00840836  0.21638219  0.72479055  1
  S  S5  1  0.28361781  0.49159164  0.27520945  1
  S  S6  1  0.99159164  0.78361781  0.27520945  1
  S  S7  1  0.78361781  0.28361781  0.27520945  1
  S  S8  1  0.00000000  0.00000000  0.00000000  1
  S  S9  1  0.50000000  0.50000000  0.00000000  1
  Co  Co10  1  0.75000000  0.25000000  0.50000000  1
  Co  Co11  1  0.25000000  0.75000000  0.50000000  1
  Ba  Ba12  1  0.75000000  0.75000000  0.50000000  1
  Ba  Ba13  1  0.25000000  0.25000000  0.50000000  1
  La  La14  1  0.66427435  0.83572565  0.00000000  1
  La  La15  1  0.16427435  0.66427435  0.00000000  1
  La  La16  1  0.83572565  0.33572565  0.00000000  1
  La  La17  1  0.33572565  0.16427435  0.00000000  1
