# generated using pymatgen
data_AgBiO3
_symmetry_space_group_name_H-M   'P 1'
_cell_length_a   6.30321648
_cell_length_b   6.30321650
_cell_length_c   6.30321635
_cell_angle_alpha   54.56052851
_cell_angle_beta   54.56052843
_cell_angle_gamma   54.56053172
_symmetry_Int_Tables_number   1
_chemical_formula_structural   AgBiO3
_chemical_formula_sum   'Ag2 Bi2 O6'
_cell_volume   154.63006227
_cell_formula_units_Z   2
loop_
 _symmetry_equiv_pos_site_id
 _symmetry_equiv_pos_as_xyz
  1  'x, y, z'
loop_
 _atom_site_type_symbol
 _atom_site_label
 _atom_site_symmetry_multiplicity
 _atom_site_fract_x
 _atom_site_fract_y
 _atom_site_fract_z
 _atom_site_occupancy
  Ag  Ag0  1  0.13161032  0.13161032  0.13161032  1
  Ag  Ag1  1  0.86838968  0.86838968  0.86838968  1
  Bi  Bi2  1  0.34199218  0.34199218  0.34199218  1
  Bi  Bi3  1  0.65800782  0.65800782  0.65800782  1
  O  O4  1  0.70826452  0.45811377  0.06003275  1
  O  O5  1  0.29173548  0.54188623  0.93996725  1
  O  O6  1  0.93996725  0.29173548  0.54188623  1
  O  O7  1  0.54188623  0.93996725  0.29173548  1
  O  O8  1  0.45811377  0.06003275  0.70826452  1
  O  O9  1  0.06003275  0.70826452  0.45811377  1
