# generated using pymatgen
data_H7Se2NO6
_symmetry_space_group_name_H-M   'P 1'
_cell_length_a   5.91613713
_cell_length_b   6.50508676
_cell_length_c   17.95076529
_cell_angle_alpha   90.00000000
_cell_angle_beta   90.00000000
_cell_angle_gamma   90.00000000
_symmetry_Int_Tables_number   1
_chemical_formula_structural   H7Se2NO6
_chemical_formula_sum   'H28 Se8 N4 O24'
_cell_volume   690.83493857
_cell_formula_units_Z   4
loop_
 _symmetry_equiv_pos_site_id
 _symmetry_equiv_pos_as_xyz
  1  'x, y, z'
loop_
 _atom_site_type_symbol
 _atom_site_label
 _atom_site_symmetry_multiplicity
 _atom_site_fract_x
 _atom_site_fract_y
 _atom_site_fract_z
 _atom_site_occupancy
  H  H0  1  0.35425600  0.83544486  0.43080085  1
  H  H1  1  0.85425600  0.16455514  0.06919915  1
  H  H2  1  0.14574400  0.33544486  0.56919915  1
  H  H3  1  0.64574400  0.66455514  0.93080085  1
  H  H4  1  0.13107999  0.77797755  0.37407924  1
  H  H5  1  0.63107999  0.22202245  0.12592076  1
  H  H6  1  0.36892001  0.27797755  0.62592076  1
  H  H7  1  0.86892001  0.72202245  0.87407924  1
  H  H8  1  0.13862932  0.68825782  0.46346563  1
  H  H9  1  0.63862932  0.31174218  0.03653437  1
  H  H10  1  0.36137068  0.18825782  0.53653437  1
  H  H11  1  0.86137068  0.81174218  0.96346563  1
  H  H12  1  0.31813705  0.59394852  0.39879642  1
  H  H13  1  0.81813705  0.40605148  0.10120358  1
  H  H14  1  0.18186295  0.09394852  0.60120358  1
  H  H15  1  0.68186295  0.90605148  0.89879642  1
  H  H16  1  0.59907922  0.78711742  0.11414164  1
  H  H17  1  0.09907922  0.21288258  0.38585836  1
  H  H18  1  0.90092078  0.28711742  0.88585836  1
  H  H19  1  0.40092078  0.71288258  0.61414164  1
  H  H20  1  0.48548221  0.94336995  0.24822626  1
  H  H21  1  0.98548221  0.05663005  0.25177374  1
  H  H22  1  0.01451779  0.44336995  0.75177374  1
  H  H23  1  0.51451779  0.55663005  0.74822626  1
  H  H24  1  0.26544724  0.51550538  0.03045818  1
  H  H25  1  0.76544724  0.48449462  0.46954182  1
  H  H26  1  0.23455276  0.01550538  0.96954182  1
  H  H27  1  0.73455276  0.98449462  0.53045818  1
  N  N28  1  0.23533556  0.72448120  0.41713241  1
  N  N29  1  0.73533556  0.27551880  0.08286759  1
  N  N30  1  0.26466444  0.22448120  0.58286759  1
  N  N31  1  0.76466444  0.77551880  0.91713241  1
  O  O32  1  0.95066994  0.84936960  0.29458620  1
  O  O33  1  0.45066994  0.15063040  0.20541380  1
  O  O34  1  0.54933006  0.34936960  0.70541380  1
  O  O35  1  0.04933006  0.65063040  0.79458620  1
  O  O36  1  0.07424100  0.94210924  0.03722633  1
  O  O37  1  0.57424100  0.05789076  0.46277367  1
  O  O38  1  0.42575900  0.44210924  0.96277367  1
  O  O39  1  0.92575900  0.55789076  0.53722633  1
  O  O40  1  0.78755786  0.69694853  0.16451369  1
  O  O41  1  0.28755786  0.30305147  0.33548631  1
  O  O42  1  0.71244214  0.19694853  0.83548631  1
  O  O43  1  0.21244214  0.80305147  0.66451369  1
  O  O44  1  0.48932332  0.84030521  0.07345370  1
  O  O45  1  0.98932332  0.15969479  0.42654630  1
  O  O46  1  0.01067668  0.34030521  0.92654630  1
  O  O47  1  0.51067668  0.65969479  0.57345370  1
  O  O48  1  0.49392310  0.80277178  0.27498039  1
  O  O49  1  0.99392310  0.19722822  0.22501961  1
  O  O50  1  0.00607690  0.30277178  0.72501961  1
  O  O51  1  0.50607690  0.69722822  0.77498039  1
  O  O52  1  0.17140348  0.54520817  0.07708031  1
  O  O53  1  0.67140348  0.45479183  0.42291969  1
  O  O54  1  0.32859652  0.04520817  0.92291969  1
  O  O55  1  0.82859652  0.95479183  0.57708031  1
  Se  Se56  1  0.76041334  0.67786441  0.25926514  1
  Se  Se57  1  0.26041334  0.32213559  0.24073486  1
  Se  Se58  1  0.73958666  0.17786441  0.74073486  1
  Se  Se59  1  0.23958666  0.82213559  0.75926514  1
  Se  Se60  1  0.20519532  0.80720845  0.10527502  1
  Se  Se61  1  0.70519532  0.19279155  0.39472498  1
  Se  Se62  1  0.29480468  0.30720845  0.89472498  1
  Se  Se63  1  0.79480468  0.69279155  0.60527502  1
