# generated using pymatgen
data_Os3C9Se2O9
_symmetry_space_group_name_H-M   'P 1'
_cell_length_a   6.90574091
_cell_length_b   9.75660199
_cell_length_c   13.70200630
_cell_angle_alpha   94.23801204
_cell_angle_beta   95.72287514
_cell_angle_gamma   110.42375829
_symmetry_Int_Tables_number   1
_chemical_formula_structural   Os3C9Se2O9
_chemical_formula_sum   'Os6 C18 Se4 O18'
_cell_volume   854.97882096
_cell_formula_units_Z   2
loop_
 _symmetry_equiv_pos_site_id
 _symmetry_equiv_pos_as_xyz
  1  'x, y, z'
loop_
 _atom_site_type_symbol
 _atom_site_label
 _atom_site_symmetry_multiplicity
 _atom_site_fract_x
 _atom_site_fract_y
 _atom_site_fract_z
 _atom_site_occupancy
  Os  Os0  1  0.28234184  0.69351888  0.34335753  1
  Os  Os1  1  0.56808925  0.23397574  0.84436991  1
  Os  Os2  1  0.10793209  0.39330286  0.24155872  1
  Os  Os3  1  0.43191075  0.76602426  0.15563009  1
  Os  Os4  1  0.71765816  0.30648112  0.65664247  1
  Os  Os5  1  0.89206791  0.60669714  0.75844128  1
  C  C6  1  0.27661144  0.11701634  0.81649413  1
  C  C7  1  0.17649311  0.69167095  0.73434921  1
  C  C8  1  0.18837525  0.26707190  0.32540959  1
  C  C9  1  0.07243946  0.27480839  0.12156296  1
  C  C10  1  0.71408097  0.41195289  0.54487940  1
  C  C11  1  0.36322715  0.93266183  0.12119071  1
  C  C12  1  0.55880785  0.30643287  0.97457201  1
  C  C13  1  0.91795887  0.22939776  0.61404806  1
  C  C14  1  0.44119215  0.69356713  0.02542799  1
  C  C15  1  0.82350689  0.30832905  0.26565079  1
  C  C16  1  0.28591903  0.58804711  0.45512060  1
  C  C17  1  0.81162475  0.73292810  0.67459041  1
  C  C18  1  0.51023496  0.87384326  0.38809796  1
  C  C19  1  0.72338856  0.88298366  0.18350587  1
  C  C20  1  0.92756054  0.72519161  0.87843704  1
  C  C21  1  0.48976504  0.12615674  0.61190204  1
  C  C22  1  0.63677285  0.06733817  0.87880929  1
  C  C23  1  0.08204113  0.77060224  0.38595194  1
  Se  Se24  1  0.51002225  0.43721711  0.75124287  1
  Se  Se25  1  0.94465762  0.38423137  0.82681579  1
  Se  Se26  1  0.05534238  0.61576863  0.17318421  1
  Se  Se27  1  0.48997775  0.56278289  0.24875713  1
  O  O28  1  0.95863279  0.81620689  0.41146635  1
  O  O29  1  0.76229891  0.80795135  0.62357364  1
  O  O30  1  0.23770109  0.19204865  0.37642636  1
  O  O31  1  0.65210591  0.25255100  0.28023727  1
  O  O32  1  0.64710880  0.98271724  0.41837982  1
  O  O33  1  0.55984938  0.35502335  0.05494194  1
  O  O34  1  0.44015062  0.64497665  0.94505806  1
  O  O35  1  0.29154929  0.52639637  0.52447194  1
  O  O36  1  0.90052718  0.95348810  0.20056515  1
  O  O37  1  0.04136721  0.18379311  0.58853365  1
  O  O38  1  0.70845071  0.47360363  0.47552806  1
  O  O39  1  0.34789409  0.74744900  0.71976273  1
  O  O40  1  0.09947282  0.04651190  0.79943485  1
  O  O41  1  0.32878656  0.03545215  0.09965862  1
  O  O42  1  0.04772980  0.20652375  0.04510972  1
  O  O43  1  0.95227020  0.79347625  0.95489028  1
  O  O44  1  0.35289120  0.01728276  0.58162018  1
  O  O45  1  0.67121344  0.96454785  0.90034138  1
