# generated using pymatgen
data_BaH3C3O7
_symmetry_space_group_name_H-M   'P 1'
_cell_length_a   5.76005441
_cell_length_b   6.77684534
_cell_length_c   18.31064297
_cell_angle_alpha   90.00000000
_cell_angle_beta   90.00000000
_cell_angle_gamma   98.23617151
_symmetry_Int_Tables_number   1
_chemical_formula_structural   BaH3C3O7
_chemical_formula_sum   'Ba4 H12 C12 O28'
_cell_volume   707.38391088
_cell_formula_units_Z   4
loop_
 _symmetry_equiv_pos_site_id
 _symmetry_equiv_pos_as_xyz
  1  'x, y, z'
loop_
 _atom_site_type_symbol
 _atom_site_label
 _atom_site_symmetry_multiplicity
 _atom_site_fract_x
 _atom_site_fract_y
 _atom_site_fract_z
 _atom_site_occupancy
  H  H0  1  0.19397946  0.34589072  0.89559669  1
  H  H1  1  0.50918326  0.85150852  0.74990079  1
  H  H2  1  0.99081674  0.64849148  0.24990079  1
  H  H3  1  0.49081674  0.14849148  0.25009921  1
  H  H4  1  0.00918326  0.35150852  0.75009921  1
  H  H5  1  0.30602054  0.15410928  0.39559669  1
  H  H6  1  0.80602054  0.65410928  0.10440331  1
  H  H7  1  0.69397946  0.84589072  0.60440331  1
  H  H8  1  0.53011784  0.28623999  0.43382043  1
  H  H9  1  0.46988216  0.71376001  0.56617957  1
  H  H10  1  0.03011784  0.78623999  0.06617957  1
  H  H11  1  0.96988216  0.21376001  0.93382043  1
  C  C12  1  0.40239634  0.91818866  0.01561404  1
  C  C13  1  0.92720132  0.85197630  0.73506779  1
  C  C14  1  0.57279868  0.64802370  0.23506779  1
  C  C15  1  0.07279868  0.14802370  0.26493221  1
  C  C16  1  0.42720132  0.35197630  0.76493221  1
  C  C17  1  0.09760366  0.58181134  0.51561404  1
  C  C18  1  0.59760366  0.08181134  0.98438596  1
  C  C19  1  0.90239634  0.41818866  0.48438596  1
  C  C20  1  0.66808552  0.33556907  0.72765382  1
  C  C21  1  0.83191448  0.16443093  0.22765382  1
  C  C22  1  0.33191448  0.66443093  0.27234618  1
  C  C23  1  0.16808552  0.83556907  0.77234618  1
  O  O24  1  0.07793167  0.34438155  0.93559621  1
  O  O25  1  0.42206833  0.15561845  0.43559621  1
  O  O26  1  0.92206833  0.65561845  0.06440379  1
  O  O27  1  0.57793167  0.84438155  0.56440379  1
  O  O28  1  0.73849444  0.47988242  0.44833332  1
  O  O29  1  0.34747616  0.87382461  0.72707071  1
  O  O30  1  0.15252384  0.62617539  0.22707071  1
  O  O31  1  0.65252384  0.12617539  0.27292929  1
  O  O32  1  0.84747616  0.37382461  0.77292929  1
  O  O33  1  0.92761990  0.89269615  0.66812073  1
  O  O34  1  0.57238010  0.60730385  0.16812073  1
  O  O35  1  0.07238010  0.10730385  0.33187927  1
  O  O36  1  0.24959638  0.31908414  0.72288669  1
  O  O37  1  0.25040362  0.18091586  0.22288669  1
  O  O38  1  0.75040362  0.68091586  0.27711331  1
  O  O39  1  0.74959638  0.81908414  0.77711331  1
  O  O40  1  0.41971707  0.73704436  0.00278470  1
  O  O41  1  0.08028293  0.76295564  0.50278470  1
  O  O42  1  0.58028293  0.26295564  0.99721530  1
  O  O43  1  0.91971707  0.23704436  0.49721530  1
  O  O44  1  0.42761990  0.39269615  0.83187927  1
  O  O45  1  0.23849444  0.97988242  0.05166668  1
  O  O46  1  0.26150556  0.52011758  0.55166668  1
  O  O47  1  0.76150556  0.02011758  0.94833332  1
  O  O48  1  0.68139780  0.28882272  0.66295391  1
  O  O49  1  0.81860220  0.21117728  0.16295391  1
  O  O50  1  0.31860220  0.71117728  0.33704609  1
  O  O51  1  0.18139780  0.78882272  0.83704609  1
  Ba  Ba52  1  0.26885259  0.12269104  0.58409343  1
  Ba  Ba53  1  0.23114741  0.37730896  0.08409343  1
  Ba  Ba54  1  0.73114741  0.87730896  0.41590657  1
  Ba  Ba55  1  0.76885259  0.62269104  0.91590657  1
