# generated using pymatgen
data_K2H12Ru(SO7)2
_symmetry_space_group_name_H-M   'P 1'
_cell_length_a   6.22444842
_cell_length_b   8.98158791
_cell_length_c   12.45810679
_cell_angle_alpha   90.00000000
_cell_angle_beta   90.00000000
_cell_angle_gamma   104.92440930
_symmetry_Int_Tables_number   1
_chemical_formula_structural   K2H12Ru(SO7)2
_chemical_formula_sum   'K4 H24 Ru2 S4 O28'
_cell_volume   672.98122170
_cell_formula_units_Z   2
loop_
 _symmetry_equiv_pos_site_id
 _symmetry_equiv_pos_as_xyz
  1  'x, y, z'
loop_
 _atom_site_type_symbol
 _atom_site_label
 _atom_site_symmetry_multiplicity
 _atom_site_fract_x
 _atom_site_fract_y
 _atom_site_fract_z
 _atom_site_occupancy
  H  H0  1  0.65283267  0.59733393  0.55968874  1
  H  H1  1  0.34716733  0.90266607  0.05968874  1
  H  H2  1  0.99647471  0.63733938  0.30910640  1
  H  H3  1  0.00352529  0.86266062  0.80910640  1
  H  H4  1  0.00352529  0.36266062  0.69089360  1
  H  H5  1  0.99647471  0.13733938  0.19089360  1
  H  H6  1  0.09087101  0.75394337  0.62374995  1
  H  H7  1  0.90912899  0.74605663  0.12374995  1
  H  H8  1  0.90912899  0.24605663  0.37625005  1
  H  H9  1  0.09087101  0.25394337  0.87625005  1
  H  H10  1  0.32267829  0.72093766  0.58862113  1
  H  H11  1  0.67732171  0.77906234  0.08862113  1
  H  H12  1  0.67732171  0.27906234  0.41137887  1
  H  H13  1  0.32267829  0.22093766  0.91137887  1
  H  H14  1  0.34716733  0.40266607  0.44031126  1
  H  H15  1  0.65283267  0.09733393  0.94031126  1
  H  H16  1  0.67067209  0.47286608  0.64668926  1
  H  H17  1  0.32932791  0.02713392  0.14668926  1
  H  H18  1  0.93253889  0.73032332  0.89681410  1
  H  H19  1  0.06746111  0.76967668  0.39681410  1
  H  H20  1  0.67067209  0.97286608  0.85331074  1
  H  H21  1  0.32932791  0.52713392  0.35331074  1
  H  H22  1  0.93253889  0.23032332  0.60318590  1
  H  H23  1  0.06746111  0.26967668  0.10318590  1
  O  O24  1  0.38255457  0.71650166  0.06378839  1
  O  O25  1  0.38255457  0.21650166  0.43621161  1
  O  O26  1  0.58420589  0.91385929  0.73105770  1
  O  O27  1  0.41579411  0.58614071  0.23105770  1
  O  O28  1  0.41579411  0.08614071  0.26894230  1
  O  O29  1  0.58420589  0.41385929  0.76894230  1
  O  O30  1  0.76298858  0.06054441  0.57586731  1
  O  O31  1  0.61744543  0.78349834  0.56378839  1
  O  O32  1  0.23701142  0.93945559  0.42413269  1
  O  O33  1  0.76298858  0.56054441  0.92413269  1
  O  O34  1  0.95104241  0.39211180  0.82738906  1
  O  O35  1  0.04895759  0.10788820  0.32738906  1
  O  O36  1  0.04895759  0.60788820  0.17261094  1
  O  O37  1  0.95104241  0.89211180  0.67261094  1
  O  O38  1  0.68564821  0.49552840  0.56817465  1
  O  O39  1  0.31435179  0.00447160  0.06817465  1
  O  O40  1  0.31435179  0.50447160  0.43182535  1
  O  O41  1  0.68564821  0.99552840  0.93182535  1
  O  O42  1  0.95934427  0.66762638  0.38236335  1
  O  O43  1  0.04065573  0.83237362  0.88236335  1
  O  O44  1  0.04065573  0.33237362  0.61763665  1
  O  O45  1  0.95934427  0.16762638  0.11763665  1
  O  O46  1  0.23701142  0.43945559  0.07586731  1
  O  O47  1  0.83116974  0.82862960  0.11338003  1
  O  O48  1  0.83116974  0.32862960  0.38661997  1
  O  O49  1  0.16883026  0.17137040  0.88661997  1
  O  O50  1  0.61744543  0.28349834  0.93621161  1
  O  O51  1  0.16883026  0.67137040  0.61338003  1
  S  S52  1  0.26908928  0.08666251  0.36405040  1
  S  S53  1  0.73091072  0.91333749  0.63594960  1
  S  S54  1  0.26908928  0.58666251  0.13594960  1
  S  S55  1  0.73091072  0.41333749  0.86405040  1
  K  K56  1  0.64661561  0.35830306  0.15272987  1
  K  K57  1  0.35338439  0.14169694  0.65272987  1
  K  K58  1  0.35338439  0.64169694  0.84727013  1
  K  K59  1  0.64661561  0.85830306  0.34727013  1
  Ru  Ru60  1  0.00000000  0.50000000  0.50000000  1
  Ru  Ru61  1  0.00000000  0.00000000  0.00000000  1
