# generated using pymatgen
data_IO3
_symmetry_space_group_name_H-M   'P 1'
_cell_length_a   5.33328947
_cell_length_b   6.85147536
_cell_length_c   6.90529778
_cell_angle_alpha   98.05288917
_cell_angle_beta   95.82031718
_cell_angle_gamma   104.65703775
_symmetry_Int_Tables_number   1
_chemical_formula_structural   IO3
_chemical_formula_sum   'I4 O12'
_cell_volume   239.22789662
_cell_formula_units_Z   4
loop_
 _symmetry_equiv_pos_site_id
 _symmetry_equiv_pos_as_xyz
  1  'x, y, z'
loop_
 _atom_site_type_symbol
 _atom_site_label
 _atom_site_symmetry_multiplicity
 _atom_site_fract_x
 _atom_site_fract_y
 _atom_site_fract_z
 _atom_site_occupancy
  O  O0  1  0.21217096  0.98104018  0.58292313  1
  O  O1  1  0.78782904  0.01895982  0.41707687  1
  O  O2  1  0.80274701  0.95661220  0.80003784  1
  O  O3  1  0.19725299  0.04338780  0.19996216  1
  O  O4  1  0.84781505  0.29981939  0.15115653  1
  O  O5  1  0.15218495  0.70018061  0.84884347  1
  O  O6  1  0.79477110  0.63531254  0.48091718  1
  O  O7  1  0.20522890  0.36468746  0.51908282  1
  O  O8  1  0.25054372  0.28838398  0.89057004  1
  O  O9  1  0.74945628  0.71161602  0.10942996  1
  O  O10  1  0.24280932  0.68501001  0.29536130  1
  O  O11  1  0.75719068  0.31498999  0.70463870  1
  I  I12  1  0.00295104  0.17106293  0.67133165  1
  I  I13  1  0.99704896  0.82893707  0.32866835  1
  I  I14  1  0.81451631  0.66301922  0.77714794  1
  I  I15  1  0.18548369  0.33698078  0.22285206  1
