# generated using pymatgen
data_K(BH)3
_symmetry_space_group_name_H-M   'P 1'
_cell_length_a   6.29314635
_cell_length_b   6.29314635
_cell_length_c   6.29314635
_cell_angle_alpha   59.99999997
_cell_angle_beta   59.99999997
_cell_angle_gamma   59.99999998
_symmetry_Int_Tables_number   1
_chemical_formula_structural   K(BH)3
_chemical_formula_sum   'K2 B6 H6'
_cell_volume   176.23351249
_cell_formula_units_Z   2
loop_
 _symmetry_equiv_pos_site_id
 _symmetry_equiv_pos_as_xyz
  1  'x, y, z'
loop_
 _atom_site_type_symbol
 _atom_site_label
 _atom_site_symmetry_multiplicity
 _atom_site_fract_x
 _atom_site_fract_y
 _atom_site_fract_z
 _atom_site_occupancy
  H  H0  1  0.27313712  0.72686288  0.72686288  1
  H  H1  1  0.27313712  0.72686288  0.27313712  1
  H  H2  1  0.72686288  0.72686288  0.27313712  1
  H  H3  1  0.72686288  0.27313712  0.27313712  1
  H  H4  1  0.72686288  0.27313712  0.72686288  1
  H  H5  1  0.27313712  0.27313712  0.72686288  1
  B  B6  1  0.13744226  0.86255774  0.13744226  1
  B  B7  1  0.13744226  0.86255774  0.86255774  1
  B  B8  1  0.86255774  0.86255774  0.13744226  1
  B  B9  1  0.86255774  0.13744226  0.13744226  1
  B  B10  1  0.86255774  0.13744226  0.86255774  1
  B  B11  1  0.13744226  0.13744226  0.86255774  1
  K  K12  1  0.75000000  0.75000000  0.75000000  1
  K  K13  1  0.25000000  0.25000000  0.25000000  1
