# generated using pymatgen
data_Er2O3
_symmetry_space_group_name_H-M   'P 1'
_cell_length_a   3.46044464
_cell_length_b   7.18515976
_cell_length_c   8.56523450
_cell_angle_alpha   100.07007797
_cell_angle_beta   90.00000000
_cell_angle_gamma   103.93405634
_symmetry_Int_Tables_number   1
_chemical_formula_structural   Er2O3
_chemical_formula_sum   'Er6 O9'
_cell_volume   203.31598526
_cell_formula_units_Z   3
loop_
 _symmetry_equiv_pos_site_id
 _symmetry_equiv_pos_as_xyz
  1  'x, y, z'
loop_
 _atom_site_type_symbol
 _atom_site_label
 _atom_site_symmetry_multiplicity
 _atom_site_fract_x
 _atom_site_fract_y
 _atom_site_fract_z
 _atom_site_occupancy
  O  O0  1  0.70695213  0.41390427  0.62260542  1
  O  O1  1  0.29304787  0.58609573  0.37739458  1
  O  O2  1  0.97033745  0.94067490  0.34291624  1
  O  O3  1  0.02966255  0.05932510  0.65708376  1
  O  O4  1  0.67455327  0.34910653  0.96902243  1
  O  O5  1  0.32544673  0.65089347  0.03097757  1
  O  O6  1  0.00000000  0.00000000  0.00000000  1
  O  O7  1  0.37238737  0.74477473  0.71849774  1
  O  O8  1  0.62761263  0.25522527  0.28150226  1
  Er  Er9  1  0.53208855  0.06417710  0.81403201  1
  Er  Er10  1  0.46791145  0.93582290  0.18596799  1
  Er  Er11  1  0.80860361  0.61720721  0.86282708  1
  Er  Er12  1  0.19139639  0.38279279  0.13717292  1
  Er  Er13  1  0.86485233  0.72970466  0.51236834  1
  Er  Er14  1  0.13514767  0.27029534  0.48763166  1
