# generated using pymatgen
data_NaFeO2
_symmetry_space_group_name_H-M   'P 1'
_cell_length_a   5.46720758
_cell_length_b   5.80526307
_cell_length_c   7.23056461
_cell_angle_alpha   90.00000000
_cell_angle_beta   90.00000000
_cell_angle_gamma   90.00000000
_symmetry_Int_Tables_number   1
_chemical_formula_structural   NaFeO2
_chemical_formula_sum   'Na4 Fe4 O8'
_cell_volume   229.48784074
_cell_formula_units_Z   4
loop_
 _symmetry_equiv_pos_site_id
 _symmetry_equiv_pos_as_xyz
  1  'x, y, z'
loop_
 _atom_site_type_symbol
 _atom_site_label
 _atom_site_symmetry_multiplicity
 _atom_site_fract_x
 _atom_site_fract_y
 _atom_site_fract_z
 _atom_site_occupancy
  O  O0  1  0.91888358  0.88877726  0.34016156  1
  O  O1  1  0.41888385  0.11122184  0.65983808  1
  O  O2  1  0.41888385  0.61122226  0.84016207  1
  O  O3  1  0.91888358  0.38877857  0.15983896  1
  O  O4  1  0.34649975  0.54500851  0.40873812  1
  O  O5  1  0.84649949  0.45499060  0.59126291  1
  O  O6  1  0.84649949  0.95499101  0.90873724  1
  O  O7  1  0.34649975  0.04500982  0.09126240  1
  Na  Na8  1  0.48927976  0.92154616  0.37744629  1
  Na  Na9  1  0.98927950  0.07845295  0.62255474  1
  Na  Na10  1  0.98927950  0.57845336  0.87744541  1
  Na  Na11  1  0.48927976  0.42154574  0.12255422  1
  Fe  Fe12  1  0.00033707  0.56926852  0.37320267  1
  Fe  Fe13  1  0.50033551  0.43073059  0.62679697  1
  Fe  Fe14  1  0.50033551  0.93073100  0.87320318  1
  Fe  Fe15  1  0.00033707  0.06926983  0.12679785  1
