# generated using pymatgen
data_LiCuPO4
_symmetry_space_group_name_H-M   'P 1'
_cell_length_a   5.01813378
_cell_length_b   9.71432850
_cell_length_c   6.90568474
_cell_angle_alpha   90.00000000
_cell_angle_beta   89.96522505
_cell_angle_gamma   90.00000000
_symmetry_Int_Tables_number   1
_chemical_formula_structural   LiCuPO4
_chemical_formula_sum   'Li4 Cu4 P4 O16'
_cell_volume   336.63687644
_cell_formula_units_Z   4
loop_
 _symmetry_equiv_pos_site_id
 _symmetry_equiv_pos_as_xyz
  1  'x, y, z'
loop_
 _atom_site_type_symbol
 _atom_site_label
 _atom_site_symmetry_multiplicity
 _atom_site_fract_x
 _atom_site_fract_y
 _atom_site_fract_z
 _atom_site_occupancy
  Li  Li0  1  0.70244703  0.33021005  0.48440212  1
  Li  Li1  1  0.29755297  0.66978995  0.51559788  1
  Li  Li2  1  0.20244703  0.16978995  0.98440212  1
  Li  Li3  1  0.79755297  0.83021005  0.01559788  1
  Cu  Cu4  1  0.23214622  0.13025096  0.48893589  1
  Cu  Cu5  1  0.73214622  0.36974904  0.98893589  1
  Cu  Cu6  1  0.76785378  0.86974904  0.51106411  1
  Cu  Cu7  1  0.26785378  0.63025096  0.01106411  1
  P  P8  1  0.30134719  0.90547166  0.24675484  1
  P  P9  1  0.69865281  0.09452834  0.75324516  1
  P  P10  1  0.19865281  0.40547166  0.25324516  1
  P  P11  1  0.80134719  0.59452834  0.74675484  1
  O  O12  1  0.32190753  0.32643107  0.42589865  1
  O  O13  1  0.10818484  0.62221837  0.75236974  1
  O  O14  1  0.89181516  0.37778163  0.24763026  1
  O  O15  1  0.74088387  0.43818861  0.72083319  1
  O  O16  1  0.82190753  0.17356893  0.92589865  1
  O  O17  1  0.75911613  0.93818861  0.77916681  1
  O  O18  1  0.25911613  0.56181139  0.27916681  1
  O  O19  1  0.68305363  0.63653946  0.94721229  1
  O  O20  1  0.18305363  0.86346054  0.44721229  1
  O  O21  1  0.31694637  0.36346054  0.05278771  1
  O  O22  1  0.39181516  0.12221837  0.74763026  1
  O  O23  1  0.17809247  0.82643107  0.07410135  1
  O  O24  1  0.24088387  0.06181139  0.22083319  1
  O  O25  1  0.81694637  0.13653946  0.55278771  1
  O  O26  1  0.60818484  0.87778163  0.25236974  1
  O  O27  1  0.67809247  0.67356893  0.57410135  1
