# generated using pymatgen
data_LiVPCO7
_symmetry_space_group_name_H-M   'P 1'
_cell_length_a   5.38450828
_cell_length_b   6.24462775
_cell_length_c   8.74155187
_cell_angle_alpha   90.00000000
_cell_angle_beta   86.80073253
_cell_angle_gamma   90.00000000
_symmetry_Int_Tables_number   1
_chemical_formula_structural   LiVPCO7
_chemical_formula_sum   'Li2 V2 P2 C2 O14'
_cell_volume   293.47003057
_cell_formula_units_Z   2
loop_
 _symmetry_equiv_pos_site_id
 _symmetry_equiv_pos_as_xyz
  1  'x, y, z'
loop_
 _atom_site_type_symbol
 _atom_site_label
 _atom_site_symmetry_multiplicity
 _atom_site_fract_x
 _atom_site_fract_y
 _atom_site_fract_z
 _atom_site_occupancy
  Li  Li0  1  0.23991584  0.94483759  0.18426976  1
  Li  Li1  1  0.76008297  0.44483759  0.81573017  1
  C  C2  1  0.73264678  0.75231769  0.05931160  1
  C  C3  1  0.26735388  0.25231768  0.94068830  1
  O  O4  1  0.78820238  0.45620075  0.33894836  1
  O  O5  1  0.95195290  0.76678498  0.12376025  1
  O  O6  1  0.45104838  0.27405879  0.83169935  1
  O  O7  1  0.54895221  0.77405879  0.16830171  1
  O  O8  1  0.20199819  0.56221845  0.65903972  1
  O  O9  1  0.13185546  0.76849544  0.41187618  1
  O  O10  1  0.21179828  0.95620075  0.66105154  1
  O  O11  1  0.04804776  0.26678498  0.87623964  1
  O  O12  1  0.79800247  0.06221845  0.34096017  1
  O  O13  1  0.44006998  0.25656027  0.48183073  1
  O  O14  1  0.70355831  0.71412214  0.92354229  1
  O  O15  1  0.29644235  0.21412213  0.07645761  1
  O  O16  1  0.55993068  0.75656027  0.51816917  1
  O  O17  1  0.86814520  0.26849543  0.58812372  1
  P  P18  1  0.72184931  0.25618918  0.44184148  1
  P  P19  1  0.27814950  0.75618918  0.55815845  1
  V  V20  1  0.78902860  0.75141570  0.33230814  1
  V  V21  1  0.21097199  0.25141570  0.66769291  1
