# generated using pymatgen
data_K2PdC4(SN)4
_symmetry_space_group_name_H-M   'P 1'
_cell_length_a   4.36429453
_cell_length_b   11.20516397
_cell_length_c   13.22270462
_cell_angle_alpha   90.00000000
_cell_angle_beta   90.00000000
_cell_angle_gamma   98.15965449
_symmetry_Int_Tables_number   1
_chemical_formula_structural   K2PdC4(SN)4
_chemical_formula_sum   'K4 Pd2 C8 S8 N8'
_cell_volume   640.07894720
_cell_formula_units_Z   2
loop_
 _symmetry_equiv_pos_site_id
 _symmetry_equiv_pos_as_xyz
  1  'x, y, z'
loop_
 _atom_site_type_symbol
 _atom_site_label
 _atom_site_symmetry_multiplicity
 _atom_site_fract_x
 _atom_site_fract_y
 _atom_site_fract_z
 _atom_site_occupancy
  K  K0  1  0.69070967  0.03004181  0.35467391  1
  K  K1  1  0.69070967  0.53004181  0.14532609  1
  K  K2  1  0.30929033  0.46995819  0.85467391  1
  K  K3  1  0.30929033  0.96995819  0.64532609  1
  Pd  Pd4  1  0.00000000  0.00000000  0.00000000  1
  Pd  Pd5  1  0.00000000  0.50000000  0.50000000  1
  C  C6  1  0.78806124  0.20468054  0.84556530  1
  C  C7  1  0.97099120  0.72745341  0.92463430  1
  C  C8  1  0.97099120  0.22745341  0.57536570  1
  C  C9  1  0.78806124  0.70468054  0.65443470  1
  C  C10  1  0.21193876  0.29531946  0.34556530  1
  C  C11  1  0.02900880  0.27254659  0.07536570  1
  C  C12  1  0.21193876  0.79531946  0.15443470  1
  C  C13  1  0.02900880  0.77254659  0.42463430  1
  S  S14  1  0.12556363  0.43398215  0.33520702  1
  S  S15  1  0.22556493  0.35004910  0.59181633  1
  S  S16  1  0.22556493  0.85004910  0.90818367  1
  S  S17  1  0.77443507  0.64995090  0.40818367  1
  S  S18  1  0.87443637  0.06601785  0.83520702  1
  S  S19  1  0.77443507  0.14995090  0.09181633  1
  S  S20  1  0.12556363  0.93398215  0.16479298  1
  S  S21  1  0.87443637  0.56601785  0.66479298  1
  N  N22  1  0.80079075  0.13596635  0.56466901  1
  N  N23  1  0.72609431  0.80372437  0.65176725  1
  N  N24  1  0.27390569  0.19627563  0.34823275  1
  N  N25  1  0.80079075  0.63596635  0.93533099  1
  N  N26  1  0.27390569  0.69627563  0.15176725  1
  N  N27  1  0.72609431  0.30372437  0.84823275  1
  N  N28  1  0.19920925  0.36403365  0.06466901  1
  N  N29  1  0.19920925  0.86403365  0.43533099  1
