# generated using pymatgen
data_Li2MnPO4F
_symmetry_space_group_name_H-M   'P 1'
_cell_length_a   5.44126456
_cell_length_b   5.44815386
_cell_length_c   7.55912816
_cell_angle_alpha   72.10745924
_cell_angle_beta   72.20461464
_cell_angle_gamma   94.46916597
_symmetry_Int_Tables_number   1
_chemical_formula_structural   Li2MnPO4F
_chemical_formula_sum   'Li4 Mn2 P2 O8 F2'
_cell_volume   199.36384973
_cell_formula_units_Z   2
loop_
 _symmetry_equiv_pos_site_id
 _symmetry_equiv_pos_as_xyz
  1  'x, y, z'
loop_
 _atom_site_type_symbol
 _atom_site_label
 _atom_site_symmetry_multiplicity
 _atom_site_fract_x
 _atom_site_fract_y
 _atom_site_fract_z
 _atom_site_occupancy
  Li  Li0  1  0.81505449  0.44950747  0.13168761  1
  Li  Li1  1  0.48893279  0.84577877  0.85750950  1
  Li  Li2  1  0.51432560  0.03684603  0.47799660  1
  Li  Li3  1  0.22291869  0.54730052  0.71241563  1
  O  O4  1  0.28575836  0.75184966  0.42103642  1
  O  O5  1  0.72402227  0.20349691  0.63475654  1
  O  O6  1  0.67397062  0.67212475  0.65519218  1
  O  O7  1  0.85236352  0.35326394  0.88345993  1
  O  O8  1  0.13453847  0.66228555  0.15312932  1
  O  O9  1  0.36368041  0.27122585  0.90285332  1
  O  O10  1  0.34343075  0.32703706  0.35647063  1
  O  O11  1  0.61680687  0.74754027  0.09273304  1
  F  F12  1  0.18974418  0.89091105  0.74447861  1
  F  F13  1  0.84572996  0.10624243  0.27421449  1
  P  P14  1  0.34032876  0.62185814  0.25932932  1
  P  P15  1  0.65568636  0.37449597  0.76813536  1
  Mn  Mn16  1  0.99095561  0.00215664  0.01567374  1
  Mn  Mn17  1  0.01387117  0.00444498  0.50033724  1
