# generated using pymatgen
data_K3Co(NO2)6
_symmetry_space_group_name_H-M   'P 1'
_cell_length_a   7.55750559
_cell_length_b   7.55750457
_cell_length_c   7.55750604
_cell_angle_alpha   59.99991450
_cell_angle_beta   59.99990131
_cell_angle_gamma   59.99990567
_symmetry_Int_Tables_number   1
_chemical_formula_structural   K3Co(NO2)6
_chemical_formula_sum   'K3 Co1 N6 O12'
_cell_volume   305.22456726
_cell_formula_units_Z   1
loop_
 _symmetry_equiv_pos_site_id
 _symmetry_equiv_pos_as_xyz
  1  'x, y, z'
loop_
 _atom_site_type_symbol
 _atom_site_label
 _atom_site_symmetry_multiplicity
 _atom_site_fract_x
 _atom_site_fract_y
 _atom_site_fract_z
 _atom_site_occupancy
  K  K0  1  0.74999900  0.75000000  0.75000000  1
  K  K1  1  0.25000100  0.25000000  0.25000000  1
  K  K2  1  0.50000000  0.50000000  0.50000000  1
  Co  Co3  1  0.00000000  0.00000000  0.00000000  1
  N  N4  1  0.18401747  0.81598253  0.81598153  1
  N  N5  1  0.18401747  0.18401747  0.81598253  1
  N  N6  1  0.81598253  0.18401747  0.18401747  1
  N  N7  1  0.81598253  0.18401847  0.81598153  1
  N  N8  1  0.18401747  0.81598153  0.18401847  1
  N  N9  1  0.81598353  0.81598153  0.18401647  1
  O  O10  1  0.65596458  0.85837314  0.34403542  1
  O  O11  1  0.34403442  0.65596558  0.85837314  1
  O  O12  1  0.34403542  0.14162686  0.65596458  1
  O  O13  1  0.14162686  0.65596558  0.34403442  1
  O  O14  1  0.85837414  0.65596558  0.14162586  1
  O  O15  1  0.34403442  0.85837414  0.14162586  1
  O  O16  1  0.65596558  0.14162586  0.85837414  1
  O  O17  1  0.14162586  0.85837414  0.65596558  1
  O  O18  1  0.85837314  0.34403442  0.65596558  1
  O  O19  1  0.85837414  0.14162586  0.34403542  1
  O  O20  1  0.65596558  0.34403542  0.14162686  1
  O  O21  1  0.14162586  0.34403442  0.85837414  1
