# generated using pymatgen
data_LiNb2(PO4)3
_symmetry_space_group_name_H-M   'P 1'
_cell_length_a   8.86614297
_cell_length_b   8.97965686
_cell_length_c   12.39199927
_cell_angle_alpha   90.00000000
_cell_angle_beta   90.87305269
_cell_angle_gamma   90.00000000
_symmetry_Int_Tables_number   1
_chemical_formula_structural   LiNb2(PO4)3
_chemical_formula_sum   'Li4 Nb8 P12 O48'
_cell_volume   986.47351583
_cell_formula_units_Z   4
loop_
 _symmetry_equiv_pos_site_id
 _symmetry_equiv_pos_as_xyz
  1  'x, y, z'
loop_
 _atom_site_type_symbol
 _atom_site_label
 _atom_site_symmetry_multiplicity
 _atom_site_fract_x
 _atom_site_fract_y
 _atom_site_fract_z
 _atom_site_occupancy
  Li  Li0  1  0.70735471  0.77518191  0.67658356  1
  Li  Li1  1  0.29264529  0.22481809  0.32341644  1
  Li  Li2  1  0.79264529  0.27518191  0.82341644  1
  Li  Li3  1  0.20735471  0.72481809  0.17658356  1
  Nb  Nb4  1  0.24963463  0.97057891  0.61972588  1
  Nb  Nb5  1  0.75517341  0.45691104  0.61261141  1
  Nb  Nb6  1  0.74482659  0.95691104  0.88738859  1
  Nb  Nb7  1  0.75036537  0.02942109  0.38027412  1
  Nb  Nb8  1  0.74963463  0.52942109  0.11972588  1
  Nb  Nb9  1  0.24482659  0.54308896  0.38738859  1
  Nb  Nb10  1  0.25517341  0.04308896  0.11261141  1
  Nb  Nb11  1  0.25036537  0.47057891  0.88027412  1
  P  P12  1  0.11234065  0.39887058  0.14457547  1
  P  P13  1  0.90043983  0.88060483  0.14642912  1
  P  P14  1  0.96504761  0.74960615  0.50874092  1
  P  P15  1  0.53495239  0.24960615  0.99125908  1
  P  P16  1  0.38765935  0.89887058  0.35542453  1
  P  P17  1  0.88765935  0.60112942  0.85542453  1
  P  P18  1  0.40043983  0.61939517  0.64642912  1
  P  P19  1  0.03495239  0.25039385  0.49125908  1
  P  P20  1  0.61234065  0.10112942  0.64457547  1
  P  P21  1  0.46504761  0.75039385  0.00874092  1
  P  P22  1  0.59956017  0.38060483  0.35357088  1
  P  P23  1  0.09956017  0.11939517  0.85357088  1
  O  O24  1  0.83223919  0.48001852  0.77316557  1
  O  O25  1  0.42725271  0.33143961  0.91240052  1
  O  O26  1  0.81774089  0.97794167  0.22935982  1
  O  O27  1  0.12075269  0.14235854  0.56595462  1
  O  O28  1  0.43952570  0.10428587  0.64178729  1
  O  O29  1  0.07274729  0.83143961  0.58759948  1
  O  O30  1  0.34683950  0.83240797  0.07779730  1
  O  O31  1  0.32329452  0.74530704  0.31975252  1
  O  O32  1  0.56047430  0.89571413  0.35821271  1
  O  O33  1  0.55240099  0.86157200  0.93843844  1
  O  O34  1  0.82303262  0.55723118  0.96556010  1
  O  O35  1  0.66776081  0.98001852  0.72683443  1
  O  O36  1  0.31774089  0.52205833  0.72935982  1
  O  O37  1  0.67670548  0.25469296  0.68024748  1
  O  O38  1  0.84741392  0.92614445  0.03244131  1
  O  O39  1  0.37924731  0.64235854  0.93404538  1
  O  O40  1  0.05240099  0.63842800  0.43843844  1
  O  O41  1  0.37290589  0.78728942  0.66661218  1
  O  O42  1  0.92725271  0.16856039  0.41240052  1
  O  O43  1  0.33223919  0.01998148  0.27316557  1
  O  O44  1  0.17696738  0.44276882  0.03443990  1
  O  O45  1  0.68225911  0.47794167  0.27064018  1
  O  O46  1  0.32303262  0.94276882  0.46556010  1
  O  O47  1  0.07314940  0.90490168  0.15764309  1
  O  O48  1  0.15258608  0.07385555  0.96755869  1
  O  O49  1  0.62075269  0.35764146  0.06595462  1
  O  O50  1  0.44759901  0.13842800  0.06156156  1
  O  O51  1  0.12709411  0.28728942  0.83338782  1
  O  O52  1  0.65316050  0.16759203  0.92220270  1
  O  O53  1  0.16776081  0.51998148  0.22683443  1
  O  O54  1  0.84683950  0.66759203  0.57779730  1
  O  O55  1  0.17670548  0.24530704  0.18024748  1
  O  O56  1  0.87290589  0.71271058  0.16661218  1
  O  O57  1  0.06047430  0.60428587  0.85821271  1
  O  O58  1  0.93952570  0.39571413  0.14178729  1
  O  O59  1  0.92685060  0.09509832  0.84235691  1
  O  O60  1  0.67696738  0.05723118  0.53443990  1
  O  O61  1  0.15316050  0.33240797  0.42220270  1
  O  O62  1  0.34741392  0.57385555  0.53244131  1
  O  O63  1  0.57314940  0.59509832  0.65764309  1
  O  O64  1  0.94759901  0.36157200  0.56156156  1
  O  O65  1  0.42685060  0.40490168  0.34235691  1
  O  O66  1  0.18225911  0.02205833  0.77064018  1
  O  O67  1  0.62709411  0.21271058  0.33338782  1
  O  O68  1  0.82329452  0.75469296  0.81975252  1
  O  O69  1  0.65258608  0.42614445  0.46755869  1
  O  O70  1  0.57274729  0.66856039  0.08759948  1
  O  O71  1  0.87924731  0.85764146  0.43404538  1
