# generated using pymatgen
data_LiCuPO4
_symmetry_space_group_name_H-M   'P 1'
_cell_length_a   8.54455599
_cell_length_b   8.54455599
_cell_length_c   8.54455598
_cell_angle_alpha   107.73492572
_cell_angle_beta   107.73492568
_cell_angle_gamma   107.73492568
_symmetry_Int_Tables_number   1
_chemical_formula_structural   LiCuPO4
_chemical_formula_sum   'Li6 Cu6 P6 O24'
_cell_volume   508.75943192
_cell_formula_units_Z   6
loop_
 _symmetry_equiv_pos_site_id
 _symmetry_equiv_pos_as_xyz
  1  'x, y, z'
loop_
 _atom_site_type_symbol
 _atom_site_label
 _atom_site_symmetry_multiplicity
 _atom_site_fract_x
 _atom_site_fract_y
 _atom_site_fract_z
 _atom_site_occupancy
  Li  Li0  1  0.12427760  0.89883248  0.72719303  1
  Li  Li1  1  0.89883248  0.72719303  0.12427760  1
  Li  Li2  1  0.61154362  0.19892021  0.42049174  1
  Li  Li3  1  0.72719303  0.12427760  0.89883248  1
  Li  Li4  1  0.42049174  0.61154362  0.19892021  1
  Li  Li5  1  0.19892021  0.42049174  0.61154362  1
  O  O6  1  0.59839835  0.90486470  0.65599787  1
  O  O7  1  0.90486470  0.65599787  0.59839835  1
  O  O8  1  0.98630228  0.28956340  0.99234234  1
  O  O9  1  0.99234234  0.98630228  0.28956340  1
  O  O10  1  0.77313252  0.07423167  0.39835853  1
  O  O11  1  0.91684232  0.60421937  0.29546512  1
  O  O12  1  0.28956340  0.99234234  0.98630228  1
  O  O13  1  0.07423167  0.39835853  0.77313252  1
  O  O14  1  0.02007126  0.07785104  0.73723638  1
  O  O15  1  0.00506514  0.30100569  0.35691156  1
  O  O16  1  0.29546512  0.91684232  0.60421937  1
  O  O17  1  0.65451864  0.36856284  0.30880986  1
  O  O18  1  0.34853744  0.67343853  0.68154706  1
  O  O19  1  0.30880986  0.65451864  0.36856284  1
  O  O20  1  0.36856284  0.30880986  0.65451864  1
  O  O21  1  0.07785104  0.73723638  0.02007126  1
  O  O22  1  0.39835853  0.77313252  0.07423167  1
  O  O23  1  0.65599787  0.59839835  0.90486470  1
  O  O24  1  0.30100569  0.35691156  0.00506514  1
  O  O25  1  0.60421937  0.29546512  0.91684232  1
  O  O26  1  0.35691156  0.00506514  0.30100569  1
  O  O27  1  0.67343853  0.68154706  0.34853744  1
  O  O28  1  0.68154706  0.34853744  0.67343853  1
  O  O29  1  0.73723638  0.02007126  0.07785104  1
  P  P30  1  0.09556110  0.27906036  0.87673689  1
  P  P31  1  0.38868359  0.78571674  0.57304653  1
  P  P32  1  0.27906036  0.87673689  0.09556110  1
  P  P33  1  0.57304653  0.38868359  0.78571674  1
  P  P34  1  0.78571674  0.57304653  0.38868359  1
  P  P35  1  0.87673689  0.09556110  0.27906036  1
  Cu  Cu36  1  0.93187815  0.53585544  0.76487873  1
  Cu  Cu37  1  0.46072840  0.23358528  0.04214946  1
  Cu  Cu38  1  0.76487873  0.93187815  0.53585544  1
  Cu  Cu39  1  0.23358528  0.04214946  0.46072840  1
  Cu  Cu40  1  0.53585544  0.76487873  0.93187815  1
  Cu  Cu41  1  0.04214946  0.46072840  0.23358528  1
