# generated using pymatgen
data_LiCuPO4F
_symmetry_space_group_name_H-M   'P 1'
_cell_length_a   5.25454689
_cell_length_b   5.23700139
_cell_length_c   7.25386286
_cell_angle_alpha   108.90847144
_cell_angle_beta   105.06757008
_cell_angle_gamma   98.11191179
_symmetry_Int_Tables_number   1
_chemical_formula_structural   LiCuPO4F
_chemical_formula_sum   'Li2 Cu2 P2 O8 F2'
_cell_volume   176.71308770
_cell_formula_units_Z   2
loop_
 _symmetry_equiv_pos_site_id
 _symmetry_equiv_pos_as_xyz
  1  'x, y, z'
loop_
 _atom_site_type_symbol
 _atom_site_label
 _atom_site_symmetry_multiplicity
 _atom_site_fract_x
 _atom_site_fract_y
 _atom_site_fract_z
 _atom_site_occupancy
  Li  Li0  1  0.92335741  0.56701727  0.19117084  1
  Li  Li1  1  0.07664259  0.43298273  0.80882916  1
  Cu  Cu2  1  0.00000000  0.00000000  0.00000000  1
  Cu  Cu3  1  0.50000000  0.50000000  0.50000000  1
  P  P4  1  0.44817895  0.11638377  0.75891017  1
  P  P5  1  0.55182105  0.88361623  0.24108983  1
  O  O6  1  0.71308009  0.82908391  0.08590894  1
  O  O7  1  0.64535093  0.67746959  0.34619071  1
  O  O8  1  0.35464907  0.32253041  0.65380929  1
  O  O9  1  0.64791732  0.18727735  0.39619300  1
  O  O10  1  0.28691991  0.17091609  0.91409106  1
  O  O11  1  0.35208268  0.81272265  0.60380700  1
  O  O12  1  0.24066458  0.78243205  0.12291640  1
  O  O13  1  0.75933542  0.21756795  0.87708360  1
  F  F14  1  0.12128845  0.32077511  0.25289726  1
  F  F15  1  0.87871155  0.67922489  0.74710274  1
