# generated using pymatgen
data_Tb3ReO7
_symmetry_space_group_name_H-M   'P 1'
_cell_length_a   6.48227995
_cell_length_b   6.48227995
_cell_length_c   7.46541035
_cell_angle_alpha   90.00000000
_cell_angle_beta   90.00000000
_cell_angle_gamma   109.91978994
_symmetry_Int_Tables_number   1
_chemical_formula_structural   Tb3ReO7
_chemical_formula_sum   'Tb6 Re2 O14'
_cell_volume   294.92790952
_cell_formula_units_Z   2
loop_
 _symmetry_equiv_pos_site_id
 _symmetry_equiv_pos_as_xyz
  1  'x, y, z'
loop_
 _atom_site_type_symbol
 _atom_site_label
 _atom_site_symmetry_multiplicity
 _atom_site_fract_x
 _atom_site_fract_y
 _atom_site_fract_z
 _atom_site_occupancy
  O  O0  1  0.34523460  0.61222809  0.75000000  1
  O  O1  1  0.65476540  0.38777191  0.25000000  1
  O  O2  1  0.61222809  0.34523460  0.75000000  1
  O  O3  1  0.38777191  0.65476540  0.25000000  1
  O  O4  1  0.06958757  0.32313155  0.02892701  1
  O  O5  1  0.93041243  0.67686845  0.52892701  1
  O  O6  1  0.32313155  0.06958757  0.47107299  1
  O  O7  1  0.67686845  0.93041243  0.97107299  1
  O  O8  1  0.95017746  0.95017746  0.25000000  1
  O  O9  1  0.04982254  0.04982254  0.75000000  1
  O  O10  1  0.32313155  0.06958757  0.02892701  1
  O  O11  1  0.67686845  0.93041243  0.52892701  1
  O  O12  1  0.06958757  0.32313155  0.47107299  1
  O  O13  1  0.93041243  0.67686845  0.97107299  1
  Tb  Tb14  1  0.50000000  0.50000000  0.00000000  1
  Tb  Tb15  1  0.50000000  0.50000000  0.50000000  1
  Tb  Tb16  1  0.98050051  0.44510847  0.75000000  1
  Tb  Tb17  1  0.01949949  0.55489153  0.25000000  1
  Tb  Tb18  1  0.44510847  0.98050051  0.75000000  1
  Tb  Tb19  1  0.55489153  0.01949949  0.25000000  1
  Re  Re20  1  0.00000000  0.00000000  0.00000000  1
  Re  Re21  1  0.00000000  0.00000000  0.50000000  1
