# generated using pymatgen
data_Li2CuPO4
_symmetry_space_group_name_H-M   'P 1'
_cell_length_a   10.85905508
_cell_length_b   6.20359424
_cell_length_c   5.13219539
_cell_angle_alpha   90.00000000
_cell_angle_beta   89.36063447
_cell_angle_gamma   90.00000000
_symmetry_Int_Tables_number   1
_chemical_formula_structural   Li2CuPO4
_chemical_formula_sum   'Li8 Cu4 P4 O16'
_cell_volume   345.70969722
_cell_formula_units_Z   4
loop_
 _symmetry_equiv_pos_site_id
 _symmetry_equiv_pos_as_xyz
  1  'x, y, z'
loop_
 _atom_site_type_symbol
 _atom_site_label
 _atom_site_symmetry_multiplicity
 _atom_site_fract_x
 _atom_site_fract_y
 _atom_site_fract_z
 _atom_site_occupancy
  Li  Li0  1  0.66143948  0.99712671  0.79633873  1
  Li  Li1  1  0.66143948  0.50287329  0.79633873  1
  Li  Li2  1  0.57262863  0.25000000  0.19558999  1
  Li  Li3  1  0.34186241  0.49869535  0.19766272  1
  Li  Li4  1  0.07666438  0.25000000  0.30443052  1
  Li  Li5  1  0.16236702  0.50606349  0.69679329  1
  Li  Li6  1  0.16236702  0.99393651  0.69679329  1
  Li  Li7  1  0.34186241  0.00130465  0.19766272  1
  O  O8  1  0.84028151  0.05092575  0.71594693  1
  O  O9  1  0.84028151  0.44907425  0.71594693  1
  O  O10  1  0.92166344  0.25000000  0.11407823  1
  O  O11  1  0.34204988  0.05026221  0.79752969  1
  O  O12  1  0.04876754  0.25000000  0.69368214  1
  O  O13  1  0.64869776  0.95875855  0.19394693  1
  O  O14  1  0.17168102  0.54207203  0.30260100  1
  O  O15  1  0.17168102  0.95792797  0.30260100  1
  O  O16  1  0.10148727  0.75000000  0.90169343  1
  O  O17  1  0.34204988  0.44973779  0.79752969  1
  O  O18  1  0.41441000  0.25000000  0.38665375  1
  O  O19  1  0.44862907  0.75000000  0.22995542  1
  O  O20  1  0.54836739  0.25000000  0.79315991  1
  O  O21  1  0.59588428  0.75000000  0.61042794  1
  O  O22  1  0.64869776  0.54124145  0.19394693  1
  O  O23  1  0.97438489  0.75000000  0.32885001  1
  P  P24  1  0.10632015  0.75000000  0.20363188  1
  P  P25  1  0.41499976  0.25000000  0.68927653  1
  P  P26  1  0.58550735  0.75000000  0.30867014  1
  P  P27  1  0.91659763  0.25000000  0.81003850  1
  Cu  Cu28  1  0.88054451  0.75000000  0.77479949  1
  Cu  Cu29  1  0.83170778  0.55341506  0.25082253  1
  Cu  Cu30  1  0.83170778  0.94658494  0.25082253  1
  Cu  Cu31  1  0.39296994  0.75000000  0.75177848  1
