# generated using pymatgen
data_LiCr2P3O11
_symmetry_space_group_name_H-M   'P 1'
_cell_length_a   7.18892268
_cell_length_b   7.18892268
_cell_length_c   8.74460704
_cell_angle_alpha   70.15619098
_cell_angle_beta   109.84380903
_cell_angle_gamma   105.91312391
_symmetry_Int_Tables_number   1
_chemical_formula_structural   LiCr2P3O11
_chemical_formula_sum   'Li2 Cr4 P6 O22'
_cell_volume   393.34527050
_cell_formula_units_Z   2
loop_
 _symmetry_equiv_pos_site_id
 _symmetry_equiv_pos_as_xyz
  1  'x, y, z'
loop_
 _atom_site_type_symbol
 _atom_site_label
 _atom_site_symmetry_multiplicity
 _atom_site_fract_x
 _atom_site_fract_y
 _atom_site_fract_z
 _atom_site_occupancy
  Li  Li0  1  0.48359815  0.99168870  0.01376246  1
  Li  Li1  1  0.99168838  0.48359757  0.48623691  1
  O  O2  1  0.04549700  0.25956389  0.75736940  1
  O  O3  1  0.76168914  0.38120152  0.19789509  1
  O  O4  1  0.25956434  0.04549671  0.74263098  1
  O  O5  1  0.98437897  0.11808110  0.08921206  1
  O  O6  1  0.01744455  0.88058444  0.91117512  1
  O  O7  1  0.11808128  0.98437845  0.41078743  1
  O  O8  1  0.24101431  0.61890359  0.80830392  1
  O  O9  1  0.47037008  0.85148838  0.62539990  1
  O  O10  1  0.61503375  0.72511939  0.94253524  1
  O  O11  1  0.88058420  0.01744540  0.58882475  1
  O  O12  1  0.38120192  0.76168894  0.30210552  1
  O  O13  1  0.49074575  0.49074558  0.75000014  1
  O  O14  1  0.38747538  0.27103449  0.05813577  1
  O  O15  1  0.27103391  0.38747422  0.44186483  1
  O  O16  1  0.73972145  0.95429681  0.25745904  1
  O  O17  1  0.52800922  0.14698054  0.37520524  1
  O  O18  1  0.72511902  0.61503416  0.55746472  1
  O  O19  1  0.85148921  0.47037089  0.87460029  1
  O  O20  1  0.50681038  0.50681046  0.24999963  1
  O  O21  1  0.61890360  0.24101322  0.69169656  1
  O  O22  1  0.95429665  0.73972025  0.24254054  1
  O  O23  1  0.14698036  0.52800847  0.12479421  1
  P  P24  1  0.04308598  0.04308515  0.75000032  1
  P  P25  1  0.32030386  0.54860820  0.28633929  1
  P  P26  1  0.67785310  0.45141883  0.71239351  1
  P  P27  1  0.95646667  0.95646638  0.24999973  1
  P  P28  1  0.45141888  0.67785385  0.78760533  1
  P  P29  1  0.54860789  0.32030378  0.21366109  1
  Cr  Cr30  1  0.88421776  0.63684589  0.04475430  1
  Cr  Cr31  1  0.36234172  0.11515834  0.54555294  1
  Cr  Cr32  1  0.63684635  0.88421779  0.45524512  1
  Cr  Cr33  1  0.11515828  0.36234201  0.95444714  1
