# generated using pymatgen
data_K(IrO2)4
_symmetry_space_group_name_H-M   'P 1'
_cell_length_a   3.20869734
_cell_length_b   7.50733768
_cell_length_c   7.29659780
_cell_angle_alpha   90.41502096
_cell_angle_beta   77.29823448
_cell_angle_gamma   77.66049054
_symmetry_Int_Tables_number   1
_chemical_formula_structural   K(IrO2)4
_chemical_formula_sum   'K1 Ir4 O8'
_cell_volume   167.23216608
_cell_formula_units_Z   1
loop_
 _symmetry_equiv_pos_site_id
 _symmetry_equiv_pos_as_xyz
  1  'x, y, z'
loop_
 _atom_site_type_symbol
 _atom_site_label
 _atom_site_symmetry_multiplicity
 _atom_site_fract_x
 _atom_site_fract_y
 _atom_site_fract_z
 _atom_site_occupancy
  O  O0  1  0.84951398  0.93767035  0.36330170  1
  O  O1  1  0.54530433  0.59981038  0.30958096  1
  O  O2  1  0.45469567  0.40018962  0.69041904  1
  O  O3  1  0.17650390  0.27907220  0.36792000  1
  O  O4  1  0.79973573  0.36026154  0.04026700  1
  O  O5  1  0.20026427  0.63973846  0.95973300  1
  O  O6  1  0.15048602  0.06232965  0.63669830  1
  O  O7  1  0.82349610  0.72092780  0.63208000  1
  K  K8  1  0.00000000  0.00000000  0.00000000  1
  Ir  Ir9  1  0.65200812  0.18637132  0.50961244  1
  Ir  Ir10  1  0.34799188  0.81362868  0.49038756  1
  Ir  Ir11  1  0.16773942  0.47724037  0.18728080  1
  Ir  Ir12  1  0.83226058  0.52275963  0.81271920  1
