# generated using pymatgen
data_Ce(SmS2)2
_symmetry_space_group_name_H-M   'P 1'
_cell_length_a   7.38714958
_cell_length_b   7.38715024
_cell_length_c   7.38714987
_cell_angle_alpha   109.54758022
_cell_angle_beta   109.54758195
_cell_angle_gamma   109.31860943
_symmetry_Int_Tables_number   1
_chemical_formula_structural   Ce(SmS2)2
_chemical_formula_sum   'Ce2 Sm4 S8'
_cell_volume   310.31768248
_cell_formula_units_Z   2
loop_
 _symmetry_equiv_pos_site_id
 _symmetry_equiv_pos_as_xyz
  1  'x, y, z'
loop_
 _atom_site_type_symbol
 _atom_site_label
 _atom_site_symmetry_multiplicity
 _atom_site_fract_x
 _atom_site_fract_y
 _atom_site_fract_z
 _atom_site_occupancy
  Ce  Ce0  1  0.62500000  0.37500000  0.25000000  1
  Ce  Ce1  1  0.87500000  0.12500000  0.75000000  1
  Sm  Sm2  1  0.12847685  0.75000000  0.87847685  1
  Sm  Sm3  1  0.25000000  0.62847685  0.37847685  1
  Sm  Sm4  1  0.37152315  0.25000000  0.62152315  1
  Sm  Sm5  1  0.75000000  0.87152315  0.12152315  1
  S  S6  1  0.00188197  0.85155882  0.49981586  1
  S  S7  1  0.00206611  0.35174296  0.50018414  1
  S  S8  1  0.49793389  0.99811803  0.34967685  1
  S  S9  1  0.14844118  0.14825704  0.15032315  1
  S  S10  1  0.35155882  0.50188197  -0.00018414  1
  S  S11  1  0.64825704  0.64844118  0.65032315  1
  S  S12  1  0.49811803  0.99793389  0.84967685  1
  S  S13  1  0.85174296  0.50206611  0.00018414  1
