# generated using pymatgen
data_Mn(PO3)4
_symmetry_space_group_name_H-M   'P 1'
_cell_length_a   8.30935577
_cell_length_b   8.30935578
_cell_length_c   7.68531657
_cell_angle_alpha   82.18559201
_cell_angle_beta   97.81440796
_cell_angle_gamma   71.70469769
_symmetry_Int_Tables_number   1
_chemical_formula_structural   Mn(PO3)4
_chemical_formula_sum   'Mn2 P8 O24'
_cell_volume   490.04961898
_cell_formula_units_Z   2
loop_
 _symmetry_equiv_pos_site_id
 _symmetry_equiv_pos_as_xyz
  1  'x, y, z'
loop_
 _atom_site_type_symbol
 _atom_site_label
 _atom_site_symmetry_multiplicity
 _atom_site_fract_x
 _atom_site_fract_y
 _atom_site_fract_z
 _atom_site_occupancy
  O  O0  1  0.61065445  0.61065429  0.25000024  1
  O  O1  1  0.86991224  0.86991198  0.74999939  1
  O  O2  1  0.13008756  0.13008783  0.25000018  1
  O  O3  1  0.11093538  0.34649123  0.81539520  1
  O  O4  1  0.99501282  0.74052743  0.49249038  1
  O  O5  1  0.14857226  0.63131045  0.81285798  1
  O  O6  1  0.34649140  0.11093568  0.68460480  1
  O  O7  1  0.07931938  0.86135837  0.16225135  1
  O  O8  1  0.13864236  0.92068061  0.66225058  1
  O  O9  1  0.32840897  0.39151165  0.06863006  1
  O  O10  1  0.38934536  0.38934552  0.74999933  1
  O  O11  1  0.39151125  0.32840971  0.43137022  1
  O  O12  1  0.25947377  0.00498684  0.99248971  1
  O  O13  1  0.36868995  0.85142792  0.31285888  1
  O  O14  1  0.63131110  0.14857187  0.68714216  1
  O  O15  1  0.00498658  0.25947365  0.50751028  1
  O  O16  1  0.60848859  0.67159007  0.56863066  1
  O  O17  1  0.88906446  0.65350855  0.18460569  1
  O  O18  1  0.67159084  0.60848816  0.93136951  1
  O  O19  1  0.86135745  0.07931919  0.33774899  1
  O  O20  1  0.92068002  0.13864270  0.83774931  1
  O  O21  1  0.65350841  0.88906413  0.31539477  1
  O  O22  1  0.85142877  0.36868937  0.18714175  1
  O  O23  1  0.74052726  0.99501298  0.00751002  1
  P  P24  1  0.57464973  0.74957820  0.37960995  1
  P  P25  1  0.74957825  0.57464940  0.12039054  1
  P  P26  1  0.04018020  0.79436117  0.66877515  1
  P  P27  1  0.25042158  0.42535038  0.87961035  1
  P  P28  1  0.42535130  0.25042162  0.62038978  1
  P  P29  1  0.20563946  0.95981938  0.16877485  1
  P  P30  1  0.79436035  0.04018043  0.83122472  1
  P  P31  1  0.95981917  0.20563993  0.33122419  1
  Mn  Mn32  1  0.86864678  0.86864747  0.25000013  1
  Mn  Mn33  1  0.13135303  0.13135234  0.74999944  1
