# generated using pymatgen
data_Al2FeO4
_symmetry_space_group_name_H-M   'P 1'
_cell_length_a   5.81678008
_cell_length_b   5.82145223
_cell_length_c   17.52956691
_cell_angle_alpha   60.01937809
_cell_angle_beta   60.05202023
_cell_angle_gamma   60.13182367
_symmetry_Int_Tables_number   1
_chemical_formula_structural   Al2FeO4
_chemical_formula_sum   'Al12 Fe6 O24'
_cell_volume   420.37366554
_cell_formula_units_Z   6
loop_
 _symmetry_equiv_pos_site_id
 _symmetry_equiv_pos_as_xyz
  1  'x, y, z'
loop_
 _atom_site_type_symbol
 _atom_site_label
 _atom_site_symmetry_multiplicity
 _atom_site_fract_x
 _atom_site_fract_y
 _atom_site_fract_z
 _atom_site_occupancy
  Al  Al0  1  0.49772706  0.49669317  0.16788299  1
  Al  Al1  1  0.49914237  0.49910501  0.33346514  1
  Al  Al2  1  0.49702456  0.00240103  0.16911929  1
  Al  Al3  1  0.00312717  0.49548623  0.16951072  1
  Al  Al4  1  0.49757186  0.50129844  0.49938680  1
  Al  Al5  1  0.50156107  0.50146023  0.66455593  1
  Al  Al6  1  0.49815227  0.00205678  0.49911287  1
  Al  Al7  1  0.50041643  0.49795327  0.83193727  1
  Al  Al8  1  -0.00037794  0.50220708  0.49850856  1
  Al  Al9  1  0.50169239  0.00510491  0.83146197  1
  Al  Al10  1  0.00715948  0.49900742  0.83169256  1
  Al  Al11  1  0.87863589  0.87732024  0.95537296  1
  Fe  Fe12  1  0.12810530  0.12733054  0.04265324  1
  Fe  Fe13  1  0.12101256  0.12330543  0.37728135  1
  Fe  Fe14  1  0.12709091  0.12524949  0.70727503  1
  Fe  Fe15  1  0.87933682  0.87912570  0.28751532  1
  Fe  Fe16  1  0.87121756  0.87238892  0.62651063  1
  Fe  Fe17  1  0.49832418  0.49722900  0.00254009  1
  O  O18  1  0.24347779  0.24373761  0.10186787  1
  O  O19  1  0.26374940  0.26125819  0.23859974  1
  O  O20  1  0.24756013  0.70839195  0.09826322  1
  O  O21  1  0.71019069  0.24579385  0.09905513  1
  O  O22  1  0.30375583  0.73184868  0.24441230  1
  O  O23  1  0.26284505  0.26591592  0.42278566  1
  O  O24  1  0.73215538  0.30335510  0.24474265  1
  O  O25  1  0.26107475  0.26715001  0.56781264  1
  O  O26  1  0.26544224  0.70234587  0.42153980  1
  O  O27  1  0.74916403  0.74908536  0.08399675  1
  O  O28  1  0.69972306  0.26624867  0.42291056  1
  O  O29  1  0.73215991  0.73103290  0.24520204  1
  O  O30  1  0.29293914  0.73412048  0.57855847  1
  O  O31  1  0.26947638  0.26693032  0.75357493  1
  O  O32  1  0.73257395  0.29563494  0.57810711  1
  O  O33  1  0.73262157  0.73559584  0.43133076  1
  O  O34  1  0.26671227  0.26333152  0.90100319  1
  O  O35  1  0.27126078  0.70218456  0.75320062  1
  O  O36  1  0.70398329  0.27040406  0.75235933  1
  O  O37  1  0.73581222  0.73777541  0.57669895  1
  O  O38  1  0.26308569  0.75952796  0.90623689  1
  O  O39  1  0.75913302  0.26246978  0.90693159  1
  O  O40  1  0.73191550  0.72937629  0.77004872  1
  O  O41  1  0.76226801  0.76176182  0.90497836  1
