# generated using pymatgen
data_Zn(FeO2)2
_symmetry_space_group_name_H-M   'P 1'
_cell_length_a   6.04040978
_cell_length_b   6.04041004
_cell_length_c   6.00982534
_cell_angle_alpha   60.16735332
_cell_angle_beta   60.16735194
_cell_angle_gamma   59.63145370
_symmetry_Int_Tables_number   1
_chemical_formula_structural   Zn(FeO2)2
_chemical_formula_sum   'Zn2 Fe4 O8'
_cell_volume   155.00415273
_cell_formula_units_Z   2
loop_
 _symmetry_equiv_pos_site_id
 _symmetry_equiv_pos_as_xyz
  1  'x, y, z'
loop_
 _atom_site_type_symbol
 _atom_site_label
 _atom_site_symmetry_multiplicity
 _atom_site_fract_x
 _atom_site_fract_y
 _atom_site_fract_z
 _atom_site_occupancy
  Zn  Zn0  1  0.12500000  0.62500000  0.62500000  1
  Zn  Zn1  1  0.62500000  0.12500000  0.62500000  1
  Fe  Fe2  1  0.99472455  0.99472455  0.00527545  1
  Fe  Fe3  1  0.25527545  0.25527545  0.24472455  1
  Fe  Fe4  1  0.62500000  0.62500000  0.12500000  1
  Fe  Fe5  1  0.62500000  0.62500000  0.62500000  1
  O  O6  1  0.38843392  0.38843392  0.36738640  1
  O  O7  1  0.38843392  0.38843392  0.85574575  1
  O  O8  1  0.39192337  0.86158798  0.37324433  1
  O  O9  1  0.86158798  0.39192337  0.37324433  1
  O  O10  1  0.38841202  0.85807663  0.87675567  1
  O  O11  1  0.85807663  0.38841202  0.87675567  1
  O  O12  1  0.86156608  0.86156608  0.39425425  1
  O  O13  1  0.86156608  0.86156608  0.88261360  1
