# generated using pymatgen
data_Li3Fe(PO3)8
_symmetry_space_group_name_H-M   'P 1'
_cell_length_a   7.32200689
_cell_length_b   7.32200689
_cell_length_c   9.84362171
_cell_angle_alpha   70.22106138
_cell_angle_beta   81.38036847
_cell_angle_gamma   110.09517466
_symmetry_Int_Tables_number   1
_chemical_formula_structural   Li3Fe(PO3)8
_chemical_formula_sum   'Li3 Fe1 P8 O24'
_cell_volume   444.71761985
_cell_formula_units_Z   1
loop_
 _symmetry_equiv_pos_site_id
 _symmetry_equiv_pos_as_xyz
  1  'x, y, z'
loop_
 _atom_site_type_symbol
 _atom_site_label
 _atom_site_symmetry_multiplicity
 _atom_site_fract_x
 _atom_site_fract_y
 _atom_site_fract_z
 _atom_site_occupancy
  Li  Li0  1  0.00913287  0.99306041  0.98713254  1
  Li  Li1  1  0.48019212  0.99626416  0.51286824  1
  Li  Li2  1  0.05490033  0.80490005  0.74999987  1
  O  O3  1  0.09448692  0.24833685  0.39887237  1
  O  O4  1  0.19485237  0.87084840  0.91879292  1
  O  O5  1  0.34992896  0.96909679  0.34987891  1
  O  O6  1  0.27144146  0.69333630  0.67772408  1
  O  O7  1  0.28949037  0.80679485  0.16585321  1
  O  O8  1  0.49452982  0.77643976  0.95295989  1
  O  O9  1  0.14720965  0.49335819  0.10112746  1
  O  O10  1  0.22939996  0.44749058  0.54703938  1
  O  O11  1  0.18935116  0.30361243  0.83270657  1
  O  O12  1  0.73444082  0.90379673  0.41073289  1
  O  O13  1  0.91120848  0.74430892  0.59548852  1
  O  O14  1  0.87105960  0.94916494  0.82227658  1
  O  O15  1  0.53496878  0.54512242  0.64370730  1
  O  O16  1  0.47264697  0.45534371  0.33414648  1
  O  O17  1  0.63631803  0.02205699  0.66729332  1
  O  O18  1  0.81452950  0.14517327  0.08926715  1
  O  O19  1  0.28964045  0.11364457  0.58120692  1
  O  O20  1  0.81897478  0.69980672  0.15012100  1
  O  O21  1  0.77981049  0.56303638  0.43254218  1
  O  O22  1  0.83979752  0.50669637  0.90451217  1
  O  O23  1  0.49557750  0.21235169  0.06745755  1
  O  O24  1  0.68883007  0.17867593  0.85629308  1
  O  O25  1  0.73835407  0.30486746  0.31655078  1
  O  O26  1  0.12141858  0.05490488  0.18344906  1
  P  P27  1  0.72593175  0.26947214  0.98164944  1
  P  P28  1  0.68001324  0.98063793  0.81601491  1
  P  P29  1  0.26311580  0.73313317  0.02952783  1
  P  P30  1  0.29665383  0.49602848  0.68398413  1
  P  P31  1  0.26266108  0.29264367  0.47047232  1
  P  P32  1  0.75112220  0.70758120  0.51835086  1
  P  P33  1  0.71230442  0.50878439  0.29678027  1
  P  P34  1  0.30556469  0.00908486  0.20321913  1
  Fe  Fe35  1  0.95014374  0.20014477  0.24999985  1
