# generated using pymatgen
data_Li3Fe3(PO4)4
_symmetry_space_group_name_H-M   'P 1'
_cell_length_a   8.79254671
_cell_length_b   11.29709289
_cell_length_c   6.11251290
_cell_angle_alpha   90.00000000
_cell_angle_beta   100.55717822
_cell_angle_gamma   90.00000000
_symmetry_Int_Tables_number   1
_chemical_formula_structural   Li3Fe3(PO4)4
_chemical_formula_sum   'Li6 Fe6 P8 O32'
_cell_volume   596.87961234
_cell_formula_units_Z   2
loop_
 _symmetry_equiv_pos_site_id
 _symmetry_equiv_pos_as_xyz
  1  'x, y, z'
loop_
 _atom_site_type_symbol
 _atom_site_label
 _atom_site_symmetry_multiplicity
 _atom_site_fract_x
 _atom_site_fract_y
 _atom_site_fract_z
 _atom_site_occupancy
  Li  Li0  1  0.07553896  0.60629485  0.58495620  1
  Li  Li1  1  0.93779859  0.38684421  0.39617540  1
  Li  Li2  1  0.92446068  0.10629432  0.91504370  1
  Li  Li3  1  0.65188943  0.80915397  0.85596340  1
  Li  Li4  1  0.34811021  0.30915344  0.64403650  1
  Li  Li5  1  0.06220080  0.88684385  0.10382328  1
  O  O6  1  0.14161282  0.44446370  0.09002955  1
  O  O7  1  0.85838772  0.94446335  0.40997107  1
  O  O8  1  0.91524367  0.93347002  0.83408523  1
  O  O9  1  0.92461918  0.31049420  0.89558409  1
  O  O10  1  0.91528017  0.56030916  0.32791850  1
  O  O11  1  0.94479095  0.19222595  0.40942244  1
  O  O12  1  0.07538162  0.81049384  0.60441612  1
  O  O13  1  0.08475598  0.43347037  0.66591467  1
  O  O14  1  0.05520843  0.69222560  0.09057787  1
  O  O15  1  0.08472037  0.06030862  0.17208212  1
  O  O16  1  0.15686267  0.05831736  0.60254719  1
  O  O17  1  0.20411552  0.26274145  0.89142563  1
  O  O18  1  0.51078212  0.96628102  0.76990400  1
  O  O19  1  0.27460685  0.89367934  0.98591098  1
  O  O20  1  0.22828147  0.22793025  0.37650747  1
  O  O21  1  0.32295129  0.62468164  0.86995091  1
  O  O22  1  0.84313698  0.55831700  0.89745270  1
  O  O23  1  0.30144769  0.87155794  0.38598043  1
  O  O24  1  0.47120192  0.18593116  0.85403048  1
  O  O25  1  0.48921753  0.46628049  0.73009590  1
  O  O26  1  0.77171791  0.72793078  0.12349284  1
  O  O27  1  0.44545753  0.04371686  0.23475156  1
  O  O28  1  0.46860768  0.32969571  0.28780581  1
  O  O29  1  0.52879887  0.68593080  0.64596972  1
  O  O30  1  0.53139285  0.82969536  0.21219481  1
  O  O31  1  0.55454301  0.54371651  0.26524906  1
  O  O32  1  0.67704950  0.12468199  0.63004929  1
  O  O33  1  0.72539280  0.39367881  0.51408891  1
  O  O34  1  0.69855285  0.37155741  0.11402019  1
  O  O35  1  0.71645534  0.08623798  0.03847567  1
  O  O36  1  0.79588412  0.76274109  0.60857427  1
  O  O37  1  0.28354519  0.58623851  0.46152495  1
  P  P38  1  0.10317445  0.13170436  0.38641967  1
  P  P39  1  0.41079399  0.58874873  0.67859773  1
  P  P40  1  0.39120651  0.91224952  0.20583587  1
  P  P41  1  0.58920681  0.08874909  0.82140247  1
  P  P42  1  0.60879287  0.41224988  0.29416280  1
  P  P43  1  0.91583102  0.86555069  0.62041947  1
  P  P44  1  0.08416863  0.36555016  0.87958043  1
  P  P45  1  0.89682494  0.63170489  0.11358065  1
  Fe  Fe46  1  0.75775814  0.09098944  0.36165716  1
  Fe  Fe47  1  0.73019055  0.41681776  0.82678835  1
  Fe  Fe48  1  0.64664958  0.69991627  0.37060871  1
  Fe  Fe49  1  0.35335096  0.19991574  0.12939027  1
  Fe  Fe50  1  0.24224239  0.59098909  0.13834346  1
  Fe  Fe51  1  0.26980910  0.91681829  0.67321154  1
