# generated using pymatgen
data_LiAlSiH2O5
_symmetry_space_group_name_H-M   'P 1'
_cell_length_a   5.33287968
_cell_length_b   8.18193848
_cell_length_c   11.65892452
_cell_angle_alpha   90.00000000
_cell_angle_beta   90.00000000
_cell_angle_gamma   90.00000000
_symmetry_Int_Tables_number   1
_chemical_formula_structural   LiAlSiH2O5
_chemical_formula_sum   'Li4 Al4 Si4 H8 O20'
_cell_volume   508.71727504
_cell_formula_units_Z   4
loop_
 _symmetry_equiv_pos_site_id
 _symmetry_equiv_pos_as_xyz
  1  'x, y, z'
loop_
 _atom_site_type_symbol
 _atom_site_label
 _atom_site_symmetry_multiplicity
 _atom_site_fract_x
 _atom_site_fract_y
 _atom_site_fract_z
 _atom_site_occupancy
  Li  Li0  1  0.33620196  0.97711066  0.59126293  1
  Li  Li1  1  0.83620196  0.47711066  0.90873707  1
  Li  Li2  1  0.83620196  0.02288934  0.40873707  1
  Li  Li3  1  0.33620196  0.52288934  0.09126293  1
  Al  Al4  1  0.62013833  0.65690761  0.28730644  1
  Al  Al5  1  0.12013833  0.15690761  0.21269356  1
  Al  Al6  1  0.62013833  0.84309239  0.78730644  1
  Al  Al7  1  0.12013833  0.34309239  0.71269356  1
  Si  Si8  1  0.09890290  0.43524109  0.29297204  1
  Si  Si9  1  0.59890290  0.93524109  0.20702796  1
  Si  Si10  1  0.59890290  0.56475891  0.70702796  1
  Si  Si11  1  0.09890290  0.06475891  0.79297204  1
  H  H12  1  0.78402178  0.13655428  0.59382954  1
  H  H13  1  0.28402178  0.63655428  0.90617046  1
  H  H14  1  0.28402178  0.86344572  0.40617046  1
  H  H15  1  0.56426891  0.23679121  0.53369253  1
  H  H16  1  0.06426891  0.76320879  0.46630747  1
  H  H17  1  0.06426891  0.73679121  0.96630747  1
  H  H18  1  0.78402178  0.36344572  0.09382954  1
  H  H19  1  0.56426891  0.26320879  0.03369253  1
  O  O20  1  0.37550244  0.44976069  0.65832923  1
  O  O21  1  0.87550244  0.94976069  0.84167077  1
  O  O22  1  0.63267622  0.37418297  0.04124622  1
  O  O23  1  0.05402317  0.13822502  0.65751499  1
  O  O24  1  0.85326610  0.04043076  0.22087508  1
  O  O25  1  0.85326610  0.45956924  0.72087508  1
  O  O26  1  0.64029818  0.74556996  0.64748471  1
  O  O27  1  0.64029818  0.75443004  0.14748471  1
  O  O28  1  0.35326610  0.54043076  0.27912492  1
  O  O29  1  0.35326610  0.95956924  0.77912492  1
  O  O30  1  0.13267622  0.62581703  0.95875378  1
  O  O31  1  0.63267622  0.12581703  0.54124622  1
  O  O32  1  0.13267622  0.87418297  0.45875378  1
  O  O33  1  0.14029818  0.24556996  0.85251529  1
  O  O34  1  0.87550244  0.55023931  0.34167077  1
  O  O35  1  0.05402317  0.36177498  0.15751499  1
  O  O36  1  0.55402317  0.86177498  0.34248501  1
  O  O37  1  0.14029818  0.25443004  0.35251529  1
  O  O38  1  0.37550244  0.05023931  0.15832923  1
  O  O39  1  0.55402317  0.63822502  0.84248501  1
