# generated using pymatgen
data_MnSbSe2Br
_symmetry_space_group_name_H-M   'P 1'
_cell_length_a   3.93760185
_cell_length_b   10.72351621
_cell_length_c   27.55305009
_cell_angle_alpha   90.06891152
_cell_angle_beta   89.99254352
_cell_angle_gamma   89.99909814
_symmetry_Int_Tables_number   1
_chemical_formula_structural   MnSbSe2Br
_chemical_formula_sum   'Mn8 Sb8 Se16 Br8'
_cell_volume   1163.42495990
_cell_formula_units_Z   8
loop_
 _symmetry_equiv_pos_site_id
 _symmetry_equiv_pos_as_xyz
  1  'x, y, z'
loop_
 _atom_site_type_symbol
 _atom_site_label
 _atom_site_symmetry_multiplicity
 _atom_site_fract_x
 _atom_site_fract_y
 _atom_site_fract_z
 _atom_site_occupancy
  Mn  Mn0  1  0.99994367  0.99944401  0.50003431  1
  Mn  Mn1  1  0.99993448  0.06915224  0.24378690  1
  Mn  Mn2  1  0.00013313  0.56817379  0.25633680  1
  Mn  Mn3  1  0.00012164  0.43110007  0.74343687  1
  Mn  Mn4  1  0.99990648  0.00269247  0.00015206  1
  Mn  Mn5  1  0.00023323  0.93388520  0.75669809  1
  Mn  Mn6  1  0.99905544  0.49791681  0.50067079  1
  Mn  Mn7  1  0.00000785  0.49941304  0.99992629  1
  Sb  Sb8  1  0.99997130  0.64746201  0.14431273  1
  Sb  Sb9  1  0.50004576  0.82308856  0.39693736  1
  Sb  Sb10  1  0.99989137  0.85251490  0.64461153  1
  Sb  Sb11  1  0.49992647  0.17727104  0.60291145  1
  Sb  Sb12  1  0.50009921  0.67604812  0.89696775  1
  Sb  Sb13  1  0.99997109  0.14734116  0.35578215  1
  Sb  Sb14  1  0.49994704  0.32319604  0.10317261  1
  Sb  Sb15  1  0.00006076  0.35215605  0.85547892  1
  Se  Se16  1  0.00003988  0.26536559  0.03461302  1
  Se  Se17  1  0.50010113  0.28041188  0.78963465  1
  Se  Se18  1  0.49966125  0.78053883  0.71004839  1
  Se  Se19  1  0.99984231  0.76579689  0.46521634  1
  Se  Se20  1  0.99986821  0.23582253  0.53460596  1
  Se  Se21  1  0.00008228  0.58075325  0.81946442  1
  Se  Se22  1  0.49995735  0.05206189  0.43391270  1
  Se  Se23  1  0.49990938  0.94808453  0.56617943  1
  Se  Se24  1  0.99993459  0.41851580  0.18017168  1
  Se  Se25  1  0.50002179  0.44704439  0.93367953  1
  Se  Se26  1  0.00005145  0.73375898  0.96521936  1
  Se  Se27  1  0.50004017  0.21924822  0.28997122  1
  Se  Se28  1  0.99987081  0.08179841  0.68033582  1
  Se  Se29  1  0.00000968  0.91869357  0.31953092  1
  Se  Se30  1  0.49984517  0.71902843  0.21007733  1
  Se  Se31  1  0.49999032  0.55173841  0.06609768  1
  Br  Br32  1  0.00037491  0.58360612  0.58004827  1
  Br  Br33  1  0.49992540  0.05587506  0.18180409  1
  Br  Br34  1  0.50024535  0.94462013  0.81838422  1
  Br  Br35  1  0.00035261  0.41752879  0.42036134  1
  Br  Br36  1  0.50016983  0.44367306  0.68167915  1
  Br  Br37  1  0.00013310  0.91724624  0.07960681  1
  Br  Br38  1  0.00017544  0.08230485  0.92006208  1
  Br  Br39  1  0.50014865  0.55562864  0.31807897  1
