# generated using pymatgen
data_TlV3Cu5O13
_symmetry_space_group_name_H-M   'P 1'
_cell_length_a   6.20380213
_cell_length_b   8.32024625
_cell_length_c   10.92776734
_cell_angle_alpha   97.56220601
_cell_angle_beta   92.73746441
_cell_angle_gamma   90.68546249
_symmetry_Int_Tables_number   1
_chemical_formula_structural   TlV3Cu5O13
_chemical_formula_sum   'Tl2 V6 Cu10 O26'
_cell_volume   558.42151888
_cell_formula_units_Z   2
loop_
 _symmetry_equiv_pos_site_id
 _symmetry_equiv_pos_as_xyz
  1  'x, y, z'
loop_
 _atom_site_type_symbol
 _atom_site_label
 _atom_site_symmetry_multiplicity
 _atom_site_fract_x
 _atom_site_fract_y
 _atom_site_fract_z
 _atom_site_occupancy
  O  O0  1  0.54567688  0.75531611  0.51998011  1
  O  O1  1  0.45432312  0.24468389  0.48001889  1
  O  O2  1  0.00498894  0.22594482  0.46469076  1
  O  O3  1  0.99501106  0.77405418  0.53530924  1
  O  O4  1  0.02112992  0.11790216  0.18646799  1
  O  O5  1  0.97887008  0.88209784  0.81353101  1
  O  O6  1  0.72742684  0.91187458  0.03222095  1
  O  O7  1  0.27257316  0.08812542  0.96777905  1
  O  O8  1  0.74527563  0.04027804  0.61778645  1
  O  O9  1  0.25472437  0.95972196  0.38221355  1
  O  O10  1  0.76102150  0.61852026  0.88424849  1
  O  O11  1  0.23897750  0.38147974  0.11575051  1
  O  O12  1  0.76734793  0.15715957  0.88034369  1
  O  O13  1  0.23265207  0.84284043  0.11965531  1
  O  O14  1  0.73143436  0.38301431  0.07417501  1
  O  O15  1  0.26856564  0.61698569  0.92582499  1
  O  O16  1  0.47757885  0.34328747  0.78321687  1
  O  O17  1  0.52242115  0.65671253  0.21678313  1
  O  O18  1  0.75689223  0.94918237  0.34106009  1
  O  O19  1  0.24310777  0.05081763  0.65893991  1
  O  O20  1  0.25260137  0.57902254  0.66705416  1
  O  O21  1  0.74739863  0.42097646  0.33294584  1
  O  O22  1  0.51237945  0.13126425  0.20145501  1
  O  O23  1  0.02345004  0.34170649  0.78138719  1
  O  O24  1  0.48762055  0.86873475  0.79854499  1
  O  O25  1  0.97654996  0.65829451  0.21861281  1
  V  V26  1  0.25990478  0.17945260  0.12051531  1
  V  V27  1  0.74009522  0.82054740  0.87948369  1
  V  V28  1  0.76047652  0.87952782  0.50556479  1
  V  V29  1  0.23952348  0.12047218  0.49443521  1
  V  V30  1  0.74334606  0.52816435  0.20846028  1
  V  V31  1  0.25665394  0.47183465  0.79153972  1
  Cu  Cu32  1  0.25540028  0.80862014  0.64819925  1
  Cu  Cu33  1  0.74459972  0.19137886  0.35180075  1
  Cu  Cu34  1  0.50508831  0.10593474  0.77014265  1
  Cu  Cu35  1  0.26614537  0.85437532  0.94113080  1
  Cu  Cu36  1  0.00280895  0.10375923  0.77281908  1
  Cu  Cu37  1  0.99719105  0.89624077  0.22718092  1
  Cu  Cu38  1  0.77027204  0.39464677  0.89362231  1
  Cu  Cu39  1  0.22972796  0.60535323  0.10637769  1
  Cu  Cu40  1  0.73385463  0.14562468  0.05886920  1
  Cu  Cu41  1  0.49491169  0.89406526  0.22985735  1
  Tl  Tl42  1  0.75065612  0.47927500  0.59413637  1
  Tl  Tl43  1  0.24934388  0.52072500  0.40586363  1
