# generated using pymatgen
data_BaIrO3
_symmetry_space_group_name_H-M   'P 1'
_cell_length_a   5.79428196
_cell_length_b   5.79428196
_cell_length_c   14.62414134
_cell_angle_alpha   90.94936713
_cell_angle_beta   90.94936711
_cell_angle_gamma   119.71561067
_symmetry_Int_Tables_number   1
_chemical_formula_structural   BaIrO3
_chemical_formula_sum   'Ba6 Ir6 O18'
_cell_volume   426.18793332
_cell_formula_units_Z   6
loop_
 _symmetry_equiv_pos_site_id
 _symmetry_equiv_pos_as_xyz
  1  'x, y, z'
loop_
 _atom_site_type_symbol
 _atom_site_label
 _atom_site_symmetry_multiplicity
 _atom_site_fract_x
 _atom_site_fract_y
 _atom_site_fract_z
 _atom_site_occupancy
  O  O0  1  0.11008650  0.28959578  0.40679419  1
  O  O1  1  0.71040422  0.88991350  0.09320581  1
  O  O2  1  0.88991350  0.71040422  0.59320581  1
  O  O3  1  0.28959578  0.11008650  0.90679419  1
  O  O4  1  0.20223373  0.90041037  0.09243519  1
  O  O5  1  0.09958963  0.79776627  0.40756481  1
  O  O6  1  0.79776627  0.09958963  0.90756481  1
  O  O7  1  0.90041037  0.20223373  0.59243519  1
  O  O8  1  0.62052757  0.81342376  0.44710937  1
  O  O9  1  0.18657624  0.37947243  0.05289063  1
  O  O10  1  0.37947243  0.18657624  0.55289063  1
  O  O11  1  0.81342376  0.62052757  0.94710937  1
  O  O12  1  0.51474405  0.48525595  0.75000000  1
  O  O13  1  0.48525595  0.51474405  0.25000000  1
  O  O14  1  0.51326579  0.04400145  0.74161588  1
  O  O15  1  0.95599855  0.48673421  0.75838412  1
  O  O16  1  0.48673421  0.95599855  0.25838412  1
  O  O17  1  0.04400145  0.51326579  0.24161588  1
  Ba  Ba18  1  0.99611068  0.00388932  0.75000000  1
  Ba  Ba19  1  0.00388932  0.99611068  0.25000000  1
  Ba  Ba20  1  0.32345810  0.65678005  0.90445682  1
  Ba  Ba21  1  0.34321995  0.67654190  0.59554318  1
  Ba  Ba22  1  0.67654190  0.34321995  0.09554318  1
  Ba  Ba23  1  0.65678005  0.32345810  0.40445682  1
  Ir  Ir24  1  0.00000000  0.00000000  0.00000000  1
  Ir  Ir25  1  0.00000000  0.00000000  0.50000000  1
  Ir  Ir26  1  0.34593594  0.67555267  0.15325542  1
  Ir  Ir27  1  0.32444733  0.65406406  0.34674458  1
  Ir  Ir28  1  0.65406406  0.32444733  0.84674458  1
  Ir  Ir29  1  0.67555267  0.34593594  0.65325542  1
