# generated using pymatgen
data_Ce6P17Pd6
_symmetry_space_group_name_H-M   'P 1'
_cell_length_a   8.93858427
_cell_length_b   8.93858437
_cell_length_c   8.93858483
_cell_angle_alpha   109.47121946
_cell_angle_beta   109.47121968
_cell_angle_gamma   109.47122137
_symmetry_Int_Tables_number   1
_chemical_formula_structural   Ce6P17Pd6
_chemical_formula_sum   'Ce6 P17 Pd6'
_cell_volume   549.77421307
_cell_formula_units_Z   1
loop_
 _symmetry_equiv_pos_site_id
 _symmetry_equiv_pos_as_xyz
  1  'x, y, z'
loop_
 _atom_site_type_symbol
 _atom_site_label
 _atom_site_symmetry_multiplicity
 _atom_site_fract_x
 _atom_site_fract_y
 _atom_site_fract_z
 _atom_site_occupancy
  Ce  Ce0  1  1.00000000  0.28315693  0.28315693  1
  Ce  Ce1  1  0.71684307  0.00000000  0.71684307  1
  Ce  Ce2  1  0.28315693  1.00000000  0.28315693  1
  Ce  Ce3  1  0.28315693  0.28315693  0.00000000  1
  Ce  Ce4  1  0.71684307  0.71684307  1.00000000  1
  Ce  Ce5  1  0.00000000  0.71684307  0.71684307  1
  Pd  Pd6  1  0.50000000  0.25000000  0.75000000  1
  Pd  Pd7  1  0.75000000  0.50000000  0.25000000  1
  Pd  Pd8  1  0.25000000  0.50000000  0.75000000  1
  Pd  Pd9  1  0.75000000  0.25000000  0.50000000  1
  Pd  Pd10  1  0.25000000  0.75000000  0.50000000  1
  Pd  Pd11  1  0.50000000  0.75000000  0.25000000  1
  P  P12  1  0.63939660  0.63939660  0.42563497  1
  P  P13  1  0.36060340  0.78623838  1.00000000  1
  P  P14  1  0.78623838  0.36060340  1.00000000  1
  P  P15  1  1.00000000  0.78623838  0.36060340  1
  P  P16  1  0.57436503  0.21376162  0.21376162  1
  P  P17  1  0.21376162  0.57436503  0.21376162  1
  P  P18  1  0.78623838  1.00000000  0.36060340  1
  P  P19  1  0.36060340  0.00000000  0.78623838  1
  P  P20  1  0.00000000  0.36060340  0.78623838  1
  P  P21  1  0.42563497  0.63939660  0.63939660  1
  P  P22  1  0.63939660  0.42563497  0.63939660  1
  P  P23  1  0.21376162  0.21376162  0.57436503  1
  P  P24  1  0.42239673  0.42239673  0.42239673  1
  P  P25  1  0.57760327  0.00000000  0.00000000  1
  P  P26  1  0.00000000  0.57760327  0.00000000  1
  P  P27  1  0.00000000  0.00000000  0.57760327  1
  P  P28  1  0.00000000  0.00000000  0.00000000  1
