# generated using pymatgen
data_NbFeO4
_symmetry_space_group_name_H-M   'P 1'
_cell_length_a   4.71376588
_cell_length_b   10.16067166
_cell_length_c   5.69343473
_cell_angle_alpha   90.00000000
_cell_angle_beta   90.00000000
_cell_angle_gamma   89.73698390
_symmetry_Int_Tables_number   1
_chemical_formula_structural   NbFeO4
_chemical_formula_sum   'Nb4 Fe4 O16'
_cell_volume   272.68433933
_cell_formula_units_Z   4
loop_
 _symmetry_equiv_pos_site_id
 _symmetry_equiv_pos_as_xyz
  1  'x, y, z'
loop_
 _atom_site_type_symbol
 _atom_site_label
 _atom_site_symmetry_multiplicity
 _atom_site_fract_x
 _atom_site_fract_y
 _atom_site_fract_z
 _atom_site_occupancy
  Nb  Nb0  1  0.00511852  0.11979859  0.16868505  1
  Nb  Nb1  1  0.50000000  0.37500000  0.34089777  1
  Nb  Nb2  1  0.00000000  0.87500000  0.81124075  1
  Nb  Nb3  1  0.99488148  0.63020141  0.16868505  1
  Fe  Fe4  1  0.50000000  0.87500000  0.34067019  1
  Fe  Fe5  1  0.50228006  0.62041524  0.67437299  1
  Fe  Fe6  1  0.49771994  0.12958476  0.67437299  1
  Fe  Fe7  1  0.00000000  0.37500000  0.82682851  1
  O  O8  1  0.22724880  0.95972500  0.11426553  1
  O  O9  1  0.22639728  0.71331553  0.88417807  1
  O  O10  1  0.23333591  0.46069947  0.12061137  1
  O  O11  1  0.21724900  0.20725032  0.88945831  1
  O  O12  1  0.27044214  0.95942272  0.61516808  1
  O  O13  1  0.27076443  0.70883393  0.37806379  1
  O  O14  1  0.27823475  0.45854550  0.61097180  1
  O  O15  1  0.26661397  0.20913254  0.38440641  1
  O  O16  1  0.72955786  0.79057728  0.61516808  1
  O  O17  1  0.73338603  0.54086746  0.38440641  1
  O  O18  1  0.72176525  0.29145450  0.61097180  1
  O  O19  1  0.72923557  0.04116607  0.37806379  1
  O  O20  1  0.77275120  0.79027500  0.11426553  1
  O  O21  1  0.78275100  0.54274968  0.88945831  1
  O  O22  1  0.76666409  0.28930053  0.12061137  1
  O  O23  1  0.77360272  0.03668447  0.88417807  1
