# generated using pymatgen
data_Li7Ti12O24
_symmetry_space_group_name_H-M   'P 1'
_cell_length_a   3.99850715
_cell_length_b   4.01907990
_cell_length_c   31.18492441
_cell_angle_alpha   112.69731664
_cell_angle_beta   112.55861995
_cell_angle_gamma   90.01295305
_symmetry_Int_Tables_number   1
_chemical_formula_structural   Li7Ti12O24
_chemical_formula_sum   'Li7 Ti12 O24'
_cell_volume   420.45167442
_cell_formula_units_Z   1
loop_
 _symmetry_equiv_pos_site_id
 _symmetry_equiv_pos_as_xyz
  1  'x, y, z'
loop_
 _atom_site_type_symbol
 _atom_site_label
 _atom_site_symmetry_multiplicity
 _atom_site_fract_x
 _atom_site_fract_y
 _atom_site_fract_z
 _atom_site_occupancy
  Li  Li0  1  0.37159476  0.62095959  0.95706418  1
  Li  Li1  1  0.61720642  0.36724277  0.87221269  1
  Li  Li2  1  0.61523376  0.36432356  0.70510562  1
  Li  Li3  1  0.62005160  0.37178881  0.54025283  1
  Li  Li4  1  0.36549500  0.61497693  0.28843271  1
  Li  Li5  1  0.63164066  0.38139962  0.37730118  1
  Li  Li6  1  0.35997017  0.60922401  0.11997585  1
  O  O7  1  0.11381688  0.36372303  0.87109318  1
  O  O8  1  0.35249567  0.10203382  0.95072874  1
  O  O9  1  0.10245500  0.35108144  0.70083432  1
  O  O10  1  0.36857969  0.11865616  0.78942946  1
  O  O11  1  0.64580329  0.89563761  0.88173892  1
  O  O12  1  0.88669889  0.63613488  0.96211935  1
  O  O13  1  0.10847623  0.35765645  0.53638396  1
  O  O14  1  0.35175829  0.09974096  0.61739781  1
  O  O15  1  0.64155142  0.89103450  0.71381261  1
  O  O16  1  0.88104712  0.63126113  0.79352822  1
  O  O17  1  0.10224383  0.35200558  0.36748699  1
  O  O18  1  0.36813779  0.11767111  0.45622894  1
  O  O19  1  0.64313825  0.89029701  0.54786759  1
  O  O20  1  0.89955610  0.64013306  0.63329849  1
  O  O21  1  0.11627854  0.36562687  0.20539132  1
  O  O22  1  0.36148257  0.11098332  0.28711782  1
  O  O23  1  0.63651392  0.88640243  0.37892826  1
  O  O24  1  0.88213856  0.63184005  0.46088195  1
  O  O25  1  0.11544501  0.36489630  0.03849710  1
  O  O26  1  0.35353294  0.10299473  0.11788982  1
  O  O27  1  0.63128423  0.88054667  0.21035106  1
  O  O28  1  0.89650332  0.64607646  0.29878990  1
  O  O29  1  0.64345733  0.89298279  0.04784844  1
  O  O30  1  0.88967520  0.63905524  0.12988712  1
  Ti  Ti31  1  0.10793272  0.85783394  0.86907015  1
  Ti  Ti32  1  0.13857449  0.88920028  0.71278439  1
  Ti  Ti33  1  0.89167830  0.14117308  0.96379918  1
  Ti  Ti34  1  0.11432856  0.86389864  0.53825356  1
  Ti  Ti35  1  0.87507654  0.12592619  0.79159313  1
  Ti  Ti36  1  0.13994187  0.88960707  0.38005765  1
  Ti  Ti37  1  0.87256051  0.15039815  0.62436076  1
  Ti  Ti38  1  0.12223621  0.87144551  0.20733139  1
  Ti  Ti39  1  0.87471594  0.12416940  0.45843041  1
  Ti  Ti40  1  0.12002761  0.86899077  0.03985284  1
  Ti  Ti41  1  0.85848270  0.10813838  0.28613179  1
  Ti  Ti42  1  0.88618209  0.13583170  0.12879132  1
