# generated using pymatgen
data_LiVCuO4
_symmetry_space_group_name_H-M   'P 1'
_cell_length_a   5.71531091
_cell_length_b   5.81640864
_cell_length_c   6.07701553
_cell_angle_alpha   118.59251094
_cell_angle_beta   118.04987314
_cell_angle_gamma   90.00000002
_symmetry_Int_Tables_number   1
_chemical_formula_structural   LiVCuO4
_chemical_formula_sum   'Li2 V2 Cu2 O8'
_cell_volume   149.79683399
_cell_formula_units_Z   2
loop_
 _symmetry_equiv_pos_site_id
 _symmetry_equiv_pos_as_xyz
  1  'x, y, z'
loop_
 _atom_site_type_symbol
 _atom_site_label
 _atom_site_symmetry_multiplicity
 _atom_site_fract_x
 _atom_site_fract_y
 _atom_site_fract_z
 _atom_site_occupancy
  Li  Li0  1  0.00000000  0.00000000  0.50000000  1
  Li  Li1  1  0.50000000  0.00000000  0.50000000  1
  O  O2  1  0.23449392  0.74976858  0.99953733  1
  O  O3  1  0.23495660  0.25023142  0.00046267  1
  O  O4  1  0.76550608  0.25023142  0.00046267  1
  O  O5  1  0.76504340  0.74976858  0.99953733  1
  O  O6  1  0.27567734  0.28777492  0.55135467  1
  O  O7  1  0.72432266  0.71222508  0.44864533  1
  O  O8  1  0.72431989  0.23641919  0.44863978  1
  O  O9  1  0.27568011  0.76358081  0.55136022  1
  V  V10  1  0.38508985  0.63509697  0.77017971  1
  V  V11  1  0.61491015  0.36490303  0.22982029  1
  Cu  Cu12  1  0.00000000  0.00000000  0.00000000  1
  Cu  Cu13  1  0.00000000  0.50000000  0.00000000  1
