# generated using pymatgen
data_Hg7(Sb2Br3)2
_symmetry_space_group_name_H-M   'P 1'
_cell_length_a   13.27304672
_cell_length_b   13.30816992
_cell_length_c   26.56652858
_cell_angle_alpha   89.42591368
_cell_angle_beta   90.00000000
_cell_angle_gamma   90.00000000
_symmetry_Int_Tables_number   1
_chemical_formula_structural   Hg7(Sb2Br3)2
_chemical_formula_sum   'Hg56 Sb32 Br48'
_cell_volume   4692.47501581
_cell_formula_units_Z   8
loop_
 _symmetry_equiv_pos_site_id
 _symmetry_equiv_pos_as_xyz
  1  'x, y, z'
loop_
 _atom_site_type_symbol
 _atom_site_label
 _atom_site_symmetry_multiplicity
 _atom_site_fract_x
 _atom_site_fract_y
 _atom_site_fract_z
 _atom_site_occupancy
  Br  Br0  1  0.04698790  0.96182291  0.39749530  1
  Br  Br1  1  0.04498027  0.95911797  0.89451292  1
  Br  Br2  1  0.05756262  0.54516031  0.12798664  1
  Br  Br3  1  0.04556900  0.54122314  0.64583450  1
  Br  Br4  1  0.04085098  0.27698275  0.22248273  1
  Br  Br5  1  0.04111686  0.29081241  0.72677058  1
  Br  Br6  1  0.04233704  0.21213044  0.47775979  1
  Br  Br7  1  0.03901552  0.20685650  0.97615720  1
  Br  Br8  1  0.21048547  0.95617543  0.52124165  1
  Br  Br9  1  0.22612188  0.55387770  0.27269641  1
  Br  Br10  1  0.20544503  0.95036670  0.01892326  1
  Br  Br11  1  0.20833567  0.54547094  0.76994270  1
  Br  Br12  1  0.27387812  0.05387770  0.27269641  1
  Br  Br13  1  0.29166433  0.04547094  0.76994270  1
  Br  Br14  1  0.29455497  0.45036670  0.01892326  1
  Br  Br15  1  0.28951453  0.45617543  0.52124165  1
  Br  Br16  1  0.45914902  0.77698275  0.22248273  1
  Br  Br17  1  0.45766296  0.71213044  0.47775979  1
  Br  Br18  1  0.45888314  0.79081241  0.72677058  1
  Br  Br19  1  0.46098448  0.70685650  0.97615720  1
  Br  Br20  1  0.44243738  0.04516031  0.12798664  1
  Br  Br21  1  0.45443100  0.04122314  0.64583450  1
  Br  Br22  1  0.45301210  0.46182291  0.39749530  1
  Br  Br23  1  0.45501973  0.45911797  0.89451292  1
  Br  Br24  1  0.54698790  0.53817709  0.10250470  1
  Br  Br25  1  0.54498027  0.54088203  0.60548708  1
  Br  Br26  1  0.55756262  0.95483969  0.37201336  1
  Br  Br27  1  0.54556900  0.95877686  0.85416550  1
  Br  Br28  1  0.54085098  0.22301725  0.27751727  1
  Br  Br29  1  0.54233704  0.28786956  0.02224021  1
  Br  Br30  1  0.54111686  0.20918759  0.77322942  1
  Br  Br31  1  0.53901552  0.29314350  0.52384280  1
  Br  Br32  1  0.70544503  0.54963330  0.48107674  1
  Br  Br33  1  0.71048547  0.54382457  0.97875835  1
  Br  Br34  1  0.72612188  0.94612230  0.22730359  1
  Br  Br35  1  0.70833567  0.95452906  0.73005730  1
  Br  Br36  1  0.79455497  0.04963330  0.48107674  1
  Br  Br37  1  0.77387812  0.44612230  0.22730359  1
  Br  Br38  1  0.78951453  0.04382457  0.97875835  1
  Br  Br39  1  0.79166433  0.45452906  0.73005730  1
  Br  Br40  1  0.95914902  0.72301725  0.27751727  1
  Br  Br41  1  0.96098448  0.79314350  0.52384280  1
  Br  Br42  1  0.95766296  0.78786956  0.02224021  1
  Br  Br43  1  0.95888314  0.70918759  0.77322942  1
  Br  Br44  1  0.94243738  0.45483969  0.37201336  1
  Br  Br45  1  0.95301210  0.03817709  0.10250470  1
  Br  Br46  1  0.95443100  0.45877686  0.85416550  1
  Br  Br47  1  0.95501973  0.04088203  0.60548708  1
  Hg  Hg48  1  0.99777315  0.99665441  -0.00051357  1
  Hg  Hg49  1  0.00000000  0.00000000  0.25000000  1
  Hg  Hg50  1  0.00222685  0.00334559  0.50051357  1
  Hg  Hg51  1  0.00000000  0.50000000  0.75000000  1
  Hg  Hg52  1  0.04307819  0.33549566  0.11833178  1
  Hg  Hg53  1  0.04080160  0.31941361  0.61110334  1
  Hg  Hg54  1  0.04147666  0.17940967  0.36171997  1
  Hg  Hg55  1  0.04140291  0.18157942  0.86177983  1
  Hg  Hg56  1  0.17785525  0.71915537  0.02277140  1
  Hg  Hg57  1  0.17914995  0.72810648  0.52035396  1
  Hg  Hg58  1  0.16892792  0.76369918  0.27026354  1
  Hg  Hg59  1  0.18055040  0.77450561  0.77106184  1
  Hg  Hg60  1  0.22102164  0.46312416  0.40762082  1
  Hg  Hg61  1  0.22612880  0.45607619  0.91024353  1
  Hg  Hg62  1  0.23390807  0.04486902  0.16826101  1
  Hg  Hg63  1  0.22343694  0.04018143  0.65851852  1
  Hg  Hg64  1  0.27897836  0.96312416  0.40762082  1
  Hg  Hg65  1  0.26609193  0.54486902  0.16826101  1
  Hg  Hg66  1  0.27387120  0.95607619  0.91024353  1
  Hg  Hg67  1  0.27656306  0.54018143  0.65851852  1
  Hg  Hg68  1  0.33107208  0.26369918  0.27026354  1
  Hg  Hg69  1  0.31944960  0.27450561  0.77106184  1
  Hg  Hg70  1  0.32214475  0.21915537  0.02277140  1
  Hg  Hg71  1  0.32085005  0.22810648  0.52035396  1
  Hg  Hg72  1  0.45852334  0.67940967  0.36171997  1
  Hg  Hg73  1  0.45859709  0.68157942  0.86177983  1
  Hg  Hg74  1  0.45919840  0.81941361  0.61110334  1
  Hg  Hg75  1  0.45692181  0.83549566  0.11833178  1
  Hg  Hg76  1  0.50000000  0.50000000  0.25000000  1
  Hg  Hg77  1  0.50222685  0.49665441  -0.00051357  1
  Hg  Hg78  1  0.50000000  0.00000000  0.75000000  1
  Hg  Hg79  1  0.49777315  0.50334559  0.50051357  1
  Hg  Hg80  1  0.54080160  0.18058639  0.88889666  1
  Hg  Hg81  1  0.54307819  0.16450434  0.38166822  1
  Hg  Hg82  1  0.54147666  0.32059033  0.13828003  1
  Hg  Hg83  1  0.54140291  0.31842058  0.63822017  1
  Hg  Hg84  1  0.67785525  0.78084463  0.47722860  1
  Hg  Hg85  1  0.67914995  0.77189352  0.97964604  1
  Hg  Hg86  1  0.66892792  0.73630082  0.22973646  1
  Hg  Hg87  1  0.68055040  0.72549439  0.72893816  1
  Hg  Hg88  1  0.73390807  0.45513098  0.33173899  1
  Hg  Hg89  1  0.72102164  0.03687584  0.09237918  1
  Hg  Hg90  1  0.72343694  0.45981857  0.84148148  1
  Hg  Hg91  1  0.72612880  0.04392381  0.58975647  1
  Hg  Hg92  1  0.76609193  0.95513098  0.33173899  1
  Hg  Hg93  1  0.77656306  0.95981857  0.84148148  1
  Hg  Hg94  1  0.77897836  0.53687584  0.09237918  1
  Hg  Hg95  1  0.77387120  0.54392381  0.58975647  1
  Hg  Hg96  1  0.83107208  0.23630082  0.22973646  1
  Hg  Hg97  1  0.81944960  0.22549439  0.72893816  1
  Hg  Hg98  1  0.82214475  0.28084463  0.47722860  1
  Hg  Hg99  1  0.82085005  0.27189352  0.97964604  1
  Hg  Hg100  1  0.95852334  0.82059033  0.13828003  1
  Hg  Hg101  1  0.95692181  0.66450434  0.38166822  1
  Hg  Hg102  1  0.95919840  0.68058639  0.88889666  1
  Hg  Hg103  1  0.95859709  0.81842058  0.63822017  1
  Sb  Sb104  1  0.15013758  0.65591668  0.42418479  1
  Sb  Sb105  1  0.15026143  0.64635953  0.92615231  1
  Sb  Sb106  1  0.15245242  0.85065679  0.17478455  1
  Sb  Sb107  1  0.15059430  0.84861025  0.67484428  1
  Sb  Sb108  1  0.22372468  0.22551310  0.11454259  1
  Sb  Sb109  1  0.22693052  0.22740579  0.61320352  1
  Sb  Sb110  1  0.22654911  0.27671367  0.36158423  1
  Sb  Sb111  1  0.22838028  0.27107133  0.86436451  1
  Sb  Sb112  1  0.27345089  0.77671367  0.36158423  1
  Sb  Sb113  1  0.27161972  0.77107133  0.86436451  1
  Sb  Sb114  1  0.27627532  0.72551310  0.11454259  1
  Sb  Sb115  1  0.27306948  0.72740579  0.61320352  1
  Sb  Sb116  1  0.34754758  0.35065679  0.17478455  1
  Sb  Sb117  1  0.34986242  0.15591668  0.42418479  1
  Sb  Sb118  1  0.34940570  0.34861025  0.67484428  1
  Sb  Sb119  1  0.34973857  0.14635953  0.92615231  1
  Sb  Sb120  1  0.65245242  0.64934321  0.32521545  1
  Sb  Sb121  1  0.65013758  0.84408332  0.07581521  1
  Sb  Sb122  1  0.65059430  0.65138975  0.82515572  1
  Sb  Sb123  1  0.65026143  0.85364047  0.57384769  1
  Sb  Sb124  1  0.72372468  0.27448690  0.38545741  1
  Sb  Sb125  1  0.72693052  0.27259421  0.88679648  1
  Sb  Sb126  1  0.72654911  0.22328633  0.13841577  1
  Sb  Sb127  1  0.72838028  0.22892867  0.63563549  1
  Sb  Sb128  1  0.77345089  0.72328633  0.13841577  1
  Sb  Sb129  1  0.77161972  0.72892867  0.63563549  1
  Sb  Sb130  1  0.77627532  0.77448690  0.38545741  1
  Sb  Sb131  1  0.77306948  0.77259421  0.88679648  1
  Sb  Sb132  1  0.84754758  0.14934321  0.32521545  1
  Sb  Sb133  1  0.84940570  0.15138975  0.82515572  1
  Sb  Sb134  1  0.84986242  0.34408332  0.07581521  1
  Sb  Sb135  1  0.84973857  0.35364047  0.57384769  1
