# generated using pymatgen
data_MgSiO3
_symmetry_space_group_name_H-M   'P 1'
_cell_length_a   5.46994077
_cell_length_b   8.32923382
_cell_length_c   19.66139698
_cell_angle_alpha   90.00000000
_cell_angle_beta   90.00000000
_cell_angle_gamma   90.00000000
_symmetry_Int_Tables_number   1
_chemical_formula_structural   MgSiO3
_chemical_formula_sum   'Mg16 Si16 O48'
_cell_volume   895.78141876
_cell_formula_units_Z   16
loop_
 _symmetry_equiv_pos_site_id
 _symmetry_equiv_pos_as_xyz
  1  'x, y, z'
loop_
 _atom_site_type_symbol
 _atom_site_label
 _atom_site_symmetry_multiplicity
 _atom_site_fract_x
 _atom_site_fract_y
 _atom_site_fract_z
 _atom_site_occupancy
  Mg  Mg0  1  0.94093292  0.56044022  0.11706580  1
  Mg  Mg1  1  0.94017227  0.06527772  0.13112706  1
  Mg  Mg2  1  0.55982773  0.56527772  0.86887294  1
  Mg  Mg3  1  0.05982773  0.43472228  0.63112706  1
  Mg  Mg4  1  0.44017227  0.43472228  0.13112706  1
  Mg  Mg5  1  0.55906708  0.06044022  0.88293420  1
  Mg  Mg6  1  0.94017227  0.56527772  0.36887294  1
  Mg  Mg7  1  0.94093292  0.06044022  0.38293420  1
  Mg  Mg8  1  0.55982773  0.06527772  0.63112706  1
  Mg  Mg9  1  0.44093292  0.93955978  0.11706580  1
  Mg  Mg10  1  0.55906708  0.56044022  0.61706580  1
  Mg  Mg11  1  0.05906708  0.93955978  0.61706580  1
  Mg  Mg12  1  0.05982773  0.93472228  0.86887294  1
  Mg  Mg13  1  0.05906708  0.43955978  0.88293420  1
  Mg  Mg14  1  0.44093292  0.43955978  0.38293420  1
  Mg  Mg15  1  0.44017227  0.93472228  0.36887294  1
  Si  Si16  1  0.27485302  0.14887717  0.74213912  1
  Si  Si17  1  0.22514698  0.14887717  0.24213912  1
  Si  Si18  1  0.24985894  0.65083929  0.50872892  1
  Si  Si19  1  0.25014106  0.15083929  0.49127108  1
  Si  Si20  1  0.77485302  0.35112283  0.74213912  1
  Si  Si21  1  0.72514698  0.85112283  0.25786088  1
  Si  Si22  1  0.75014106  0.84916071  0.00872892  1
  Si  Si23  1  0.75014106  0.34916071  0.49127108  1
  Si  Si24  1  0.74985894  0.84916071  0.50872892  1
  Si  Si25  1  0.25014106  0.65083929  0.00872892  1
  Si  Si26  1  0.74985894  0.34916071  0.99127108  1
  Si  Si27  1  0.27485302  0.64887717  0.75786088  1
  Si  Si28  1  0.77485302  0.85112283  0.75786088  1
  Si  Si29  1  0.24985894  0.15083929  0.99127108  1
  Si  Si30  1  0.22514698  0.64887717  0.25786088  1
  Si  Si31  1  0.72514698  0.35112283  0.24213912  1
  O  O32  1  0.26403355  0.62396911  0.92779461  1
  O  O33  1  0.23596645  0.62396911  0.42779461  1
  O  O34  1  0.00414834  0.75217382  0.53911036  1
  O  O35  1  0.71687199  0.50947637  0.19387507  1
  O  O36  1  0.73596645  0.87603089  0.42779461  1
  O  O37  1  0.27412598  0.61585507  0.67735130  1
  O  O38  1  0.27412598  0.11585507  0.82264870  1
  O  O39  1  0.21687199  0.49052363  0.30612493  1
  O  O40  1  0.46296150  0.76046558  0.28638561  1
  O  O41  1  0.22587402  0.61585507  0.17735130  1
  O  O42  1  0.77412598  0.88414493  0.67735130  1
  O  O43  1  0.23596645  0.12396911  0.07220539  1
  O  O44  1  0.22587402  0.11585507  0.32264870  1
  O  O45  1  0.53703850  0.23953442  0.71361439  1
  O  O46  1  0.72703912  0.51207921  0.44647782  1
  O  O47  1  0.26403355  0.12396911  0.57220539  1
  O  O48  1  0.49585166  0.75217382  0.03911036  1
  O  O49  1  0.50414834  0.24782618  0.96088964  1
  O  O50  1  0.03703850  0.26046558  0.71361439  1
  O  O51  1  0.53703850  0.73953442  0.78638561  1
  O  O52  1  0.96296150  0.73953442  0.28638561  1
  O  O53  1  0.03703850  0.76046558  0.78638561  1
  O  O54  1  0.99585166  0.24782618  0.46088964  1
  O  O55  1  0.77296088  0.51207921  0.94647782  1
  O  O56  1  0.46296150  0.26046558  0.21361439  1
  O  O57  1  0.76403355  0.37603089  0.57220539  1
  O  O58  1  0.00414834  0.25217382  0.96088964  1
  O  O59  1  0.28312801  0.99052363  0.69387507  1
  O  O60  1  0.78312801  0.00947637  0.80612493  1
  O  O61  1  0.50414834  0.74782618  0.53911036  1
  O  O62  1  0.72587402  0.88414493  0.17735130  1
  O  O63  1  0.22703912  0.98792079  0.44647782  1
  O  O64  1  0.27296088  0.48792079  0.55352218  1
  O  O65  1  0.73596645  0.37603089  0.07220539  1
  O  O66  1  0.22703912  0.48792079  0.05352218  1
  O  O67  1  0.27296088  0.98792079  0.94647782  1
  O  O68  1  0.78312801  0.50947637  0.69387507  1
  O  O69  1  0.99585166  0.74782618  0.03911036  1
  O  O70  1  0.76403355  0.87603089  0.92779461  1
  O  O71  1  0.21687199  0.99052363  0.19387507  1
  O  O72  1  0.49585166  0.25217382  0.46088964  1
  O  O73  1  0.77296088  0.01207921  0.55352218  1
  O  O74  1  0.28312801  0.49052363  0.80612493  1
  O  O75  1  0.72587402  0.38414493  0.32264870  1
  O  O76  1  0.71687199  0.00947637  0.30612493  1
  O  O77  1  0.72703912  0.01207921  0.05352218  1
  O  O78  1  0.96296150  0.23953442  0.21361439  1
  O  O79  1  0.77412598  0.38414493  0.82264870  1
