# generated using pymatgen
data_Li4MoP2O9
_symmetry_space_group_name_H-M   'P 1'
_cell_length_a   7.03771887
_cell_length_b   8.04057813
_cell_length_c   7.18525020
_cell_angle_alpha   89.82645634
_cell_angle_beta   90.00000000
_cell_angle_gamma   64.04675545
_symmetry_Int_Tables_number   1
_chemical_formula_structural   Li4MoP2O9
_chemical_formula_sum   'Li8 Mo2 P4 O18'
_cell_volume   365.58762148
_cell_formula_units_Z   2
loop_
 _symmetry_equiv_pos_site_id
 _symmetry_equiv_pos_as_xyz
  1  'x, y, z'
loop_
 _atom_site_type_symbol
 _atom_site_label
 _atom_site_symmetry_multiplicity
 _atom_site_fract_x
 _atom_site_fract_y
 _atom_site_fract_z
 _atom_site_occupancy
  Li  Li0  1  0.10024531  0.79951039  0.24009732  1
  Li  Li1  1  0.63121272  0.73757456  0.69101357  1
  Li  Li2  1  0.00000000  0.50000000  0.50000000  1
  Li  Li3  1  0.50000000  0.50000000  0.50000000  1
  Li  Li4  1  0.36878728  0.26242544  0.30898643  1
  Li  Li5  1  0.89975469  0.20048961  0.75990268  1
  Li  Li6  1  0.23110709  1.00000000  1.00000000  1
  Li  Li7  1  0.76889291  0.00000000  0.00000000  1
  Mo  Mo8  1  0.00000000  0.50000000  0.00000000  1
  Mo  Mo9  1  0.50000000  0.50000000  0.00000000  1
  O  O10  1  0.50714555  0.98570889  0.75175386  1
  O  O11  1  0.03361330  0.93277239  0.81809130  1
  O  O12  1  0.11735899  0.76528103  0.48942681  1
  O  O13  1  0.44250542  0.75172884  0.12041906  1
  O  O14  1  0.80576575  0.75172884  0.12041906  1
  O  O15  1  0.65332067  0.69335967  0.42428865  1
  O  O16  1  0.36458360  0.63967850  0.75106880  1
  O  O17  1  0.99573790  0.63967850  0.75106880  1
  O  O18  1  0.24041698  0.51916605  0.12978667  1
  O  O19  1  0.75958302  0.48083395  0.87021333  1
  O  O20  1  0.00426210  0.36032150  0.24893120  1
  O  O21  1  0.63541640  0.36032150  0.24893120  1
  O  O22  1  0.34667933  0.30664033  0.57571135  1
  O  O23  1  0.19423425  0.24827116  0.87958094  1
  O  O24  1  0.55749458  0.24827116  0.87958094  1
  O  O25  1  0.88264101  0.23471897  0.51057319  1
  O  O26  1  0.96638670  0.06722761  0.18190870  1
  O  O27  1  0.49285445  0.01429111  0.24824614  1
  P  P28  1  0.59712914  0.80574173  0.24340338  1
  P  P29  1  0.12229824  0.75540252  0.69939348  1
  P  P30  1  0.87770176  0.24459748  0.30060652  1
  P  P31  1  0.40287086  0.19425827  0.75659662  1
