# generated using pymatgen
data_KMo5O13
_symmetry_space_group_name_H-M   'P 1'
_cell_length_a   5.71129871
_cell_length_b   5.71129868
_cell_length_c   16.94906449
_cell_angle_alpha   90.00000000
_cell_angle_beta   90.00000000
_cell_angle_gamma   106.72962506
_symmetry_Int_Tables_number   1
_chemical_formula_structural   KMo5O13
_chemical_formula_sum   'K2 Mo10 O26'
_cell_volume   529.45990808
_cell_formula_units_Z   2
loop_
 _symmetry_equiv_pos_site_id
 _symmetry_equiv_pos_as_xyz
  1  'x, y, z'
loop_
 _atom_site_type_symbol
 _atom_site_label
 _atom_site_symmetry_multiplicity
 _atom_site_fract_x
 _atom_site_fract_y
 _atom_site_fract_z
 _atom_site_occupancy
  Mo  Mo0  1  0.00000000  0.00000000  0.50000000  1
  Mo  Mo1  1  0.00000000  0.00000000  0.00000000  1
  Mo  Mo2  1  0.22789459  0.77210541  0.63749425  1
  Mo  Mo3  1  0.77210541  0.22789459  0.13749425  1
  Mo  Mo4  1  0.77210541  0.22789459  0.36250575  1
  Mo  Mo5  1  0.22789459  0.77210541  0.86250575  1
  Mo  Mo6  1  0.38181619  0.61818381  0.42787557  1
  Mo  Mo7  1  0.61818381  0.38181619  0.92787557  1
  Mo  Mo8  1  0.61818381  0.38181619  0.57212443  1
  Mo  Mo9  1  0.38181619  0.61818381  0.07212443  1
  K  K10  1  0.13937893  0.86062107  0.25000000  1
  K  K11  1  0.86062107  0.13937893  0.75000000  1
  O  O12  1  0.18482260  0.81517740  0.75000000  1
  O  O13  1  0.81517740  0.18482260  0.25000000  1
  O  O14  1  0.50787939  0.90895947  0.36974632  1
  O  O15  1  0.49212061  0.09104053  0.86974632  1
  O  O16  1  0.90895947  0.50787939  0.63025368  1
  O  O17  1  0.09104053  0.49212061  0.13025368  1
  O  O18  1  0.49212061  0.09104053  0.63025368  1
  O  O19  1  0.50787939  0.90895947  0.13025368  1
  O  O20  1  0.09104053  0.49212061  0.36974632  1
  O  O21  1  0.90895947  0.50787939  0.86974632  1
  O  O22  1  0.69229348  0.69229348  0.50000000  1
  O  O23  1  0.30770652  0.30770652  0.00000000  1
  O  O24  1  0.30770652  0.30770652  0.50000000  1
  O  O25  1  0.69229348  0.69229348  0.00000000  1
  O  O26  1  0.22361552  0.77638448  0.50995460  1
  O  O27  1  0.77638448  0.22361552  0.00995460  1
  O  O28  1  0.77638448  0.22361552  0.49004540  1
  O  O29  1  0.22361552  0.77638448  0.99004540  1
  O  O30  1  0.57270739  0.42729261  0.36165316  1
  O  O31  1  0.42729261  0.57270739  0.86165316  1
  O  O32  1  0.42729261  0.57270739  0.63834684  1
  O  O33  1  0.57270739  0.42729261  0.13834684  1
  O  O34  1  0.00830661  0.99169339  0.61079466  1
  O  O35  1  0.99169339  0.00830661  0.11079466  1
  O  O36  1  0.99169339  0.00830661  0.38920534  1
  O  O37  1  0.00830661  0.99169339  0.88920534  1
