# generated using pymatgen
data_Bi3Se4
_symmetry_space_group_name_H-M   'P 1'
_cell_length_a   13.56567349
_cell_length_b   13.56567344
_cell_length_c   13.56567256
_cell_angle_alpha   18.35715475
_cell_angle_beta   18.35715542
_cell_angle_gamma   18.35715423
_symmetry_Int_Tables_number   1
_chemical_formula_structural   Bi3Se4
_chemical_formula_sum   'Bi3 Se4'
_cell_volume   216.27543984
_cell_formula_units_Z   1
loop_
 _symmetry_equiv_pos_site_id
 _symmetry_equiv_pos_as_xyz
  1  'x, y, z'
loop_
 _atom_site_type_symbol
 _atom_site_label
 _atom_site_symmetry_multiplicity
 _atom_site_fract_x
 _atom_site_fract_y
 _atom_site_fract_z
 _atom_site_occupancy
  Bi  Bi0  1  0.00000000  0.00000000  0.00000000  1
  Bi  Bi1  1  0.42608880  0.42608880  0.42608880  1
  Bi  Bi2  1  0.57391120  0.57391120  0.57391120  1
  Se  Se3  1  0.12803462  0.12803462  0.12803462  1
  Se  Se4  1  0.87196538  0.87196538  0.87196538  1
  Se  Se5  1  0.29151744  0.29151744  0.29151744  1
  Se  Se6  1  0.70848256  0.70848256  0.70848256  1
