# generated using pymatgen
data_LiMn2P3O11
_symmetry_space_group_name_H-M   'P 1'
_cell_length_a   7.31179501
_cell_length_b   7.31179558
_cell_length_c   8.61072486
_cell_angle_alpha   72.04201336
_cell_angle_beta   107.95798812
_cell_angle_gamma   108.11611565
_symmetry_Int_Tables_number   1
_chemical_formula_structural   LiMn2P3O11
_chemical_formula_sum   'Li2 Mn4 P6 O22'
_cell_volume   404.56042296
_cell_formula_units_Z   2
loop_
 _symmetry_equiv_pos_site_id
 _symmetry_equiv_pos_as_xyz
  1  'x, y, z'
loop_
 _atom_site_type_symbol
 _atom_site_label
 _atom_site_symmetry_multiplicity
 _atom_site_fract_x
 _atom_site_fract_y
 _atom_site_fract_z
 _atom_site_occupancy
  Li  Li0  1  0.98566497  0.48307898  0.48847614  1
  Li  Li1  1  0.48307898  0.98566497  0.01152386  1
  Mn  Mn2  1  0.87839966  0.63713816  0.04324692  1
  Mn  Mn3  1  0.12025840  0.36346546  0.95577622  1
  Mn  Mn4  1  0.63713816  0.87839966  0.45675308  1
  Mn  Mn5  1  0.36346546  0.12025840  0.54422378  1
  P  P6  1  0.67432665  0.44912745  0.71711227  1
  P  P7  1  0.55053554  0.32372233  0.21789767  1
  P  P8  1  0.32372233  0.55053554  0.28210233  1
  P  P9  1  0.44912745  0.67432665  0.78288773  1
  P  P10  1  0.96342151  0.96342151  0.25000000  1
  P  P11  1  0.03724693  0.03724693  0.75000000  1
  O  O12  1  0.87542698  0.01243668  0.59086957  1
  O  O13  1  0.60128187  0.73521314  0.93494919  1
  O  O14  1  0.60769571  0.23531734  0.69811469  1
  O  O15  1  0.40069017  0.26170740  0.06579592  1
  O  O16  1  0.39317388  0.76682825  0.29677392  1
  O  O17  1  0.73521314  0.60128187  0.56505081  1
  O  O18  1  0.83590547  0.46829594  0.88177464  1
  O  O19  1  0.01243668  0.87542698  0.90913043  1
  O  O20  1  0.75322131  0.95657777  0.26683292  1
  O  O21  1  0.95657777  0.75322131  0.23316708  1
  O  O22  1  0.16237009  0.53157792  0.11757196  1
  O  O23  1  0.26170740  0.40069017  0.43420408  1
  O  O24  1  0.12503316  0.98947633  0.40867814  1
  O  O25  1  0.51233460  0.51233460  0.25000000  1
  O  O26  1  0.46829594  0.83590547  0.61822536  1
  O  O27  1  0.23531734  0.60769571  0.80188531  1
  O  O28  1  0.48516196  0.48516196  0.75000000  1
  O  O29  1  0.24734121  0.04357778  0.73382791  1
  O  O30  1  0.76682825  0.39317388  0.20322608  1
  O  O31  1  0.04357778  0.24734121  0.76617209  1
  O  O32  1  0.98947633  0.12503316  0.09132186  1
  O  O33  1  0.53157792  0.16237009  0.38242804  1
