# generated using pymatgen
data_GdP2H9O10
_symmetry_space_group_name_H-M   'P 1'
_cell_length_a   7.29204213
_cell_length_b   10.00373240
_cell_length_c   11.72081084
_cell_angle_alpha   90.00000000
_cell_angle_beta   90.00000000
_cell_angle_gamma   90.00000000
_symmetry_Int_Tables_number   1
_chemical_formula_structural   GdP2H9O10
_chemical_formula_sum   'Gd4 P8 H36 O40'
_cell_volume   855.00546761
_cell_formula_units_Z   4
loop_
 _symmetry_equiv_pos_site_id
 _symmetry_equiv_pos_as_xyz
  1  'x, y, z'
loop_
 _atom_site_type_symbol
 _atom_site_label
 _atom_site_symmetry_multiplicity
 _atom_site_fract_x
 _atom_site_fract_y
 _atom_site_fract_z
 _atom_site_occupancy
  Gd  Gd0  1  0.25000000  0.74244360  0.25000000  1
  Gd  Gd1  1  0.25000000  0.75755640  0.75000000  1
  Gd  Gd2  1  0.75000000  0.25755640  0.75000000  1
  Gd  Gd3  1  0.75000000  0.24244360  0.25000000  1
  P  P4  1  0.41469072  0.03010328  0.07284916  1
  P  P5  1  0.41469072  0.46989672  0.92715084  1
  P  P6  1  0.08530928  0.03010328  0.42715084  1
  P  P7  1  0.08530928  0.46989672  0.57284916  1
  P  P8  1  0.58530928  0.96989672  0.92715084  1
  P  P9  1  0.58530928  0.53010328  0.07284916  1
  P  P10  1  0.91469072  0.96989672  0.57284916  1
  P  P11  1  0.91469072  0.53010328  0.42715084  1
  H  H12  1  0.05627560  0.44205218  0.24223560  1
  H  H13  1  0.05627560  0.05794782  0.75776440  1
  H  H14  1  0.44372440  0.44205218  0.25776440  1
  H  H15  1  0.44372440  0.05794782  0.74223560  1
  H  H16  1  0.94372440  0.55794782  0.75776440  1
  H  H17  1  0.94372440  0.94205218  0.24223560  1
  H  H18  1  0.55627560  0.55794782  0.74223560  1
  H  H19  1  0.55627560  0.94205218  0.25776440  1
  H  H20  1  0.29956269  0.25000000  0.00000000  1
  H  H21  1  0.20043731  0.25000000  0.50000000  1
  H  H22  1  0.70043731  0.75000000  0.00000000  1
  H  H23  1  0.79956269  0.75000000  0.50000000  1
  H  H24  1  0.03605260  0.12857762  0.07366742  1
  H  H25  1  0.03605260  0.37142238  0.92633258  1
  H  H26  1  0.46394740  0.12857762  0.42633258  1
  H  H27  1  0.46394740  0.37142238  0.57366742  1
  H  H28  1  0.96394740  0.87142238  0.92633258  1
  H  H29  1  0.96394740  0.62857762  0.07366742  1
  H  H30  1  0.53605260  0.87142238  0.57366742  1
  H  H31  1  0.53605260  0.62857762  0.42633258  1
  H  H32  1  0.16132804  0.87744344  0.98534621  1
  H  H33  1  0.16132804  0.62255656  0.01465379  1
  H  H34  1  0.33867196  0.87744344  0.51465379  1
  H  H35  1  0.33867196  0.62255656  0.48534621  1
  H  H36  1  0.83867196  0.12255656  0.01465379  1
  H  H37  1  0.83867196  0.37744344  0.98534621  1
  H  H38  1  0.66132804  0.12255656  0.48534621  1
  H  H39  1  0.66132804  0.37744344  0.51465379  1
  H  H40  1  0.11657042  0.35183237  0.13933369  1
  H  H41  1  0.11657042  0.14816763  0.86066631  1
  H  H42  1  0.38342958  0.35183237  0.36066631  1
  H  H43  1  0.38342958  0.14816763  0.63933369  1
  H  H44  1  0.88342958  0.64816763  0.86066631  1
  H  H45  1  0.88342958  0.85183237  0.13933369  1
  H  H46  1  0.61657042  0.64816763  0.63933369  1
  H  H47  1  0.61657042  0.85183237  0.36066631  1
  O  O48  1  0.96058503  0.08498557  0.33300070  1
  O  O49  1  0.96058503  0.41501443  0.66699930  1
  O  O50  1  0.53941497  0.08498557  0.16699930  1
  O  O51  1  0.53941497  0.41501443  0.83300070  1
  O  O52  1  0.03941497  0.91501443  0.66699930  1
  O  O53  1  0.03941497  0.58498557  0.33300070  1
  O  O54  1  0.46058503  0.91501443  0.83300070  1
  O  O55  1  0.46058503  0.58498557  0.16699930  1
  O  O56  1  0.22600303  0.13518302  0.47326142  1
  O  O57  1  0.22600303  0.36481698  0.52673858  1
  O  O58  1  0.27399697  0.13518302  0.02673858  1
  O  O59  1  0.27399697  0.36481698  0.97326142  1
  O  O60  1  0.77399697  0.86481698  0.52673858  1
  O  O61  1  0.77399697  0.63518302  0.47326142  1
  O  O62  1  0.72600303  0.86481698  0.97326142  1
  O  O63  1  0.72600303  0.63518302  0.02673858  1
  O  O64  1  0.04681705  0.35055557  0.21036400  1
  O  O65  1  0.04681705  0.14944443  0.78963600  1
  O  O66  1  0.45318295  0.35055557  0.28963600  1
  O  O67  1  0.45318295  0.14944443  0.71036400  1
  O  O68  1  0.95318295  0.64944443  0.78963600  1
  O  O69  1  0.95318295  0.85055557  0.21036400  1
  O  O70  1  0.54681705  0.64944443  0.71036400  1
  O  O71  1  0.54681705  0.85055557  0.28963600  1
  O  O72  1  0.69133648  0.40333315  0.10686639  1
  O  O73  1  0.69133648  0.09666685  0.89313361  1
  O  O74  1  0.80866352  0.40333315  0.39313361  1
  O  O75  1  0.80866352  0.09666685  0.60686639  1
  O  O76  1  0.30866352  0.59666685  0.89313361  1
  O  O77  1  0.30866352  0.90333315  0.10686639  1
  O  O78  1  0.19133648  0.59666685  0.60686639  1
  O  O79  1  0.19133648  0.90333315  0.39313361  1
  O  O80  1  0.90276667  0.13244143  0.08887757  1
  O  O81  1  0.90276667  0.36755857  0.91112243  1
  O  O82  1  0.59723333  0.13244143  0.41112243  1
  O  O83  1  0.59723333  0.36755857  0.58887757  1
  O  O84  1  0.09723333  0.86755857  0.91112243  1
  O  O85  1  0.09723333  0.63244143  0.08887757  1
  O  O86  1  0.40276667  0.86755857  0.58887757  1
  O  O87  1  0.40276667  0.63244143  0.41112243  1
