# generated using pymatgen
data_Mn3(P2O7)2
_symmetry_space_group_name_H-M   'P 1'
_cell_length_a   5.88689268
_cell_length_b   6.74632828
_cell_length_c   7.56444305
_cell_angle_alpha   78.95026116
_cell_angle_beta   75.84312859
_cell_angle_gamma   73.63817794
_symmetry_Int_Tables_number   1
_chemical_formula_structural   Mn3(P2O7)2
_chemical_formula_sum   'Mn3 P4 O14'
_cell_volume   277.05639709
_cell_formula_units_Z   1
loop_
 _symmetry_equiv_pos_site_id
 _symmetry_equiv_pos_as_xyz
  1  'x, y, z'
loop_
 _atom_site_type_symbol
 _atom_site_label
 _atom_site_symmetry_multiplicity
 _atom_site_fract_x
 _atom_site_fract_y
 _atom_site_fract_z
 _atom_site_occupancy
  Mn  Mn0  1  0.75994151  0.51556000  0.66613720  1
  Mn  Mn1  1  0.24005849  0.48444000  0.33386280  1
  Mn  Mn2  1  0.00000000  -0.00000000  -0.00000000  1
  P  P3  1  0.35736418  0.31203401  0.93377527  1
  P  P4  1  0.64263582  0.68796599  0.06622473  1
  P  P5  1  0.79142790  0.28828261  0.32187872  1
  P  P6  1  0.20857210  0.71171739  0.67812128  1
  O  O7  1  0.93361259  0.36378050  0.43788152  1
  O  O8  1  0.54080386  0.29471326  0.43454459  1
  O  O9  1  0.22264108  0.17092531  0.88466259  1
  O  O10  1  0.77735892  0.82907469  0.11533741  1
  O  O11  1  0.21800242  0.54686639  0.86332311  1
  O  O12  1  0.45919614  0.70528674  0.56545541  1
  O  O13  1  0.06248585  0.91384094  0.75537070  1
  O  O14  1  0.67364416  0.69607751  0.86091982  1
  O  O15  1  0.37632262  0.72389553  0.16564515  1
  O  O16  1  0.32635584  0.30392249  0.13908018  1
  O  O17  1  0.06638741  0.63621950  0.56211848  1
  O  O18  1  0.93751415  0.08615906  0.24462930  1
  O  O19  1  0.62367738  0.27610447  0.83435485  1
  O  O20  1  0.78199758  0.45313361  0.13667689  1
