# generated using pymatgen
data_CaV4(CuO4)3
_symmetry_space_group_name_H-M   'P 1'
_cell_length_a   6.40870910
_cell_length_b   6.41363928
_cell_length_c   6.41131455
_cell_angle_alpha   109.43904813
_cell_angle_beta   109.36666027
_cell_angle_gamma   109.42638863
_symmetry_Int_Tables_number   1
_chemical_formula_structural   CaV4(CuO4)3
_chemical_formula_sum   'Ca1 V4 Cu3 O12'
_cell_volume   203.31502742
_cell_formula_units_Z   1
loop_
 _symmetry_equiv_pos_site_id
 _symmetry_equiv_pos_as_xyz
  1  'x, y, z'
loop_
 _atom_site_type_symbol
 _atom_site_label
 _atom_site_symmetry_multiplicity
 _atom_site_fract_x
 _atom_site_fract_y
 _atom_site_fract_z
 _atom_site_occupancy
  Ca  Ca0  1  0.99999860  0.99999961  0.99999914  1
  V  V1  1  0.00000336  0.00000256  0.49999875  1
  V  V2  1  0.00000630  0.50000678  0.00001197  1
  V  V3  1  0.50000501  0.50000535  0.50000341  1
  V  V4  1  0.49999752  -0.00000092  -0.00000383  1
  Cu  Cu5  1  0.49999675  0.50000118  0.99999694  1
  Cu  Cu6  1  0.00000053  0.50000062  0.50000195  1
  Cu  Cu7  1  0.50000144  -0.00000410  0.49999750  1
  O  O8  1  0.51813911  0.82069396  0.69805721  1
  O  O9  1  0.12281205  0.82406027  0.30479020  1
  O  O10  1  0.87718630  0.17593833  0.69520917  1
  O  O11  1  0.18183532  0.30286781  0.48059100  1
  O  O12  1  0.29800924  0.48024184  0.17824573  1
  O  O13  1  0.70198894  0.51975649  0.82175394  1
  O  O14  1  0.82195315  0.30177559  0.12243218  1
  O  O15  1  0.69676692  0.87550915  0.17694067  1
  O  O16  1  0.48185925  0.17930502  0.30194244  1
  O  O17  1  0.17804483  0.69822256  0.87756760  1
  O  O18  1  0.81816266  0.69713076  0.51940915  1
  O  O19  1  0.30323271  0.12449114  0.82305988  1
