# generated using pymatgen
data_MgAs2S2(OF3)4
_symmetry_space_group_name_H-M   'P 1'
_cell_length_a   10.38397022
_cell_length_b   10.68822808
_cell_length_c   12.62628892
_cell_angle_alpha   90.00000000
_cell_angle_beta   91.20148704
_cell_angle_gamma   90.00000000
_symmetry_Int_Tables_number   1
_chemical_formula_structural   MgAs2S2(OF3)4
_chemical_formula_sum   'Mg4 As8 S8 O16 F48'
_cell_volume   1401.03625896
_cell_formula_units_Z   4
loop_
 _symmetry_equiv_pos_site_id
 _symmetry_equiv_pos_as_xyz
  1  'x, y, z'
loop_
 _atom_site_type_symbol
 _atom_site_label
 _atom_site_symmetry_multiplicity
 _atom_site_fract_x
 _atom_site_fract_y
 _atom_site_fract_z
 _atom_site_occupancy
  Mg  Mg0  1  0.75613845  0.76998839  0.25388614  1
  Mg  Mg1  1  0.74386155  0.26998839  0.24611386  1
  Mg  Mg2  1  0.24386155  0.23001161  0.74611386  1
  Mg  Mg3  1  0.25613845  0.73001161  0.75388614  1
  As  As4  1  0.00859973  0.48714282  0.69089210  1
  As  As5  1  0.99140027  0.51285718  0.30910790  1
  As  As6  1  0.51330171  0.47543271  0.74234736  1
  As  As7  1  0.98669829  0.97543271  0.75765264  1
  As  As8  1  0.50859973  0.01285718  0.19089210  1
  As  As9  1  0.49140027  0.98714282  0.80910790  1
  As  As10  1  0.48669829  0.52456729  0.25765264  1
  As  As11  1  0.01330171  0.02456729  0.24234736  1
  S  S12  1  0.30105661  0.22743897  0.47589575  1
  S  S13  1  0.73354602  0.19072804  0.50920984  1
  S  S14  1  0.23354602  0.30927196  0.00920984  1
  S  S15  1  0.26645398  0.80927196  0.49079016  1
  S  S16  1  0.80105661  0.27256103  0.97589575  1
  S  S17  1  0.69894339  0.77256103  0.52410425  1
  S  S18  1  0.19894339  0.72743897  0.02410425  1
  S  S19  1  0.76645398  0.69072804  0.99079016  1
  O  O20  1  0.76340347  0.77024644  0.42216926  1
  O  O21  1  0.73659653  0.27024644  0.07783074  1
  O  O22  1  0.22202393  0.44213159  0.99239986  1
  O  O23  1  0.24613843  0.23174655  0.91433203  1
  O  O24  1  0.43975667  0.22625177  0.47908124  1
  O  O25  1  0.23659653  0.22975356  0.57783074  1
  O  O26  1  0.06024333  0.72625177  0.02091876  1
  O  O27  1  0.56024333  0.77374823  0.52091876  1
  O  O28  1  0.25386157  0.73174655  0.58566797  1
  O  O29  1  0.93975667  0.27374823  0.97908124  1
  O  O30  1  0.27797607  0.94213159  0.50760014  1
  O  O31  1  0.74613843  0.26825345  0.41433203  1
  O  O32  1  0.77797607  0.55786841  0.00760014  1
  O  O33  1  0.72202393  0.05786841  0.49239986  1
  O  O34  1  0.26340347  0.72975356  0.92216926  1
  O  O35  1  0.75386157  0.76825345  0.08566797  1
  F  F36  1  0.51716749  0.51122260  0.39353848  1
  F  F37  1  0.91698136  0.48937578  0.80514374  1
  F  F38  1  0.91098453  0.37339033  0.63107898  1
  F  F39  1  0.39469376  0.86176228  0.74522551  1
  F  F40  1  0.61869620  0.01615922  0.08817045  1
  F  F41  1  0.41698136  0.01062422  0.30514374  1
  F  F42  1  0.36910205  0.40794498  0.25860524  1
  F  F43  1  0.88082242  0.40288530  0.23989757  1
  F  F44  1  0.12147342  0.86305497  0.75441001  1
  F  F45  1  0.92540016  0.61371168  0.63556265  1
  F  F46  1  0.89469376  0.63823772  0.24522551  1
  F  F47  1  0.01716749  0.98877740  0.89353848  1
  F  F48  1  0.11869620  0.48384078  0.58817045  1
  F  F49  1  0.42540016  0.88628832  0.13556265  1
  F  F50  1  0.62101636  0.35246852  0.72515352  1
  F  F51  1  0.63089795  0.59205502  0.74139476  1
  F  F52  1  0.52199184  0.46225678  0.88040318  1
  F  F53  1  0.11073153  0.09620074  0.73907174  1
  F  F54  1  0.58301864  0.98937578  0.69485626  1
  F  F55  1  0.88130380  0.51615922  0.41182955  1
  F  F56  1  0.58901547  0.87339033  0.86892102  1
  F  F57  1  0.87852658  0.13694503  0.24558999  1
  F  F58  1  0.38082242  0.09711470  0.73989757  1
  F  F59  1  0.11917758  0.59711470  0.76010243  1
  F  F60  1  0.88926847  0.90379926  0.26092826  1
  F  F61  1  0.10530624  0.36176228  0.75477449  1
  F  F62  1  0.37898364  0.64753148  0.27484648  1
  F  F63  1  0.47800816  0.53774322  0.11959682  1
  F  F64  1  0.87898364  0.85246852  0.77484648  1
  F  F65  1  0.61917758  0.90288530  0.26010243  1
  F  F66  1  0.02199184  0.03774322  0.38040318  1
  F  F67  1  0.38926847  0.59620074  0.76092826  1
  F  F68  1  0.38130380  0.98384078  0.91182955  1
  F  F69  1  0.41098453  0.12660967  0.13107898  1
  F  F70  1  0.12101636  0.14753148  0.22515352  1
  F  F71  1  0.62147342  0.63694503  0.25441001  1
  F  F72  1  0.98283251  0.01122260  0.10646152  1
  F  F73  1  0.61073153  0.40379926  0.23907174  1
  F  F74  1  0.48283251  0.48877740  0.60646152  1
  F  F75  1  0.13089795  0.90794498  0.24139476  1
  F  F76  1  0.07459984  0.38628832  0.36443735  1
  F  F77  1  0.57459984  0.11371168  0.86443735  1
  F  F78  1  0.08301864  0.51062422  0.19485626  1
  F  F79  1  0.60530624  0.13823772  0.25477449  1
  F  F80  1  0.37852658  0.36305497  0.74558999  1
  F  F81  1  0.86910205  0.09205502  0.75860524  1
  F  F82  1  0.97800816  0.96225678  0.61959682  1
  F  F83  1  0.08901547  0.62660967  0.36892102  1
