# generated using pymatgen
data_PH6CNO3
_symmetry_space_group_name_H-M   'P 1'
_cell_length_a   7.32624965
_cell_length_b   12.30022996
_cell_length_c   15.56384464
_cell_angle_alpha   90.00000000
_cell_angle_beta   90.00000000
_cell_angle_gamma   97.32042346
_symmetry_Int_Tables_number   1
_chemical_formula_structural   PH6CNO3
_chemical_formula_sum   'P12 H72 C12 N12 O36'
_cell_volume   1391.09704867
_cell_formula_units_Z   12
loop_
 _symmetry_equiv_pos_site_id
 _symmetry_equiv_pos_as_xyz
  1  'x, y, z'
loop_
 _atom_site_type_symbol
 _atom_site_label
 _atom_site_symmetry_multiplicity
 _atom_site_fract_x
 _atom_site_fract_y
 _atom_site_fract_z
 _atom_site_occupancy
  P  P0  1  0.19760320  0.86880364  0.30979380  1
  P  P1  1  0.69760320  0.36880364  0.19020620  1
  P  P2  1  0.30239680  0.63119636  0.80979380  1
  P  P3  1  0.29534768  0.72638235  0.98190661  1
  P  P4  1  0.82855651  0.15551495  0.16399238  1
  P  P5  1  0.32855651  0.65551495  0.33600762  1
  P  P6  1  0.17144349  0.84448505  0.83600762  1
  P  P7  1  0.70465232  0.27361765  0.01809339  1
  P  P8  1  0.20465232  0.77361765  0.48190661  1
  P  P9  1  0.80239680  0.13119636  0.69020620  1
  P  P10  1  0.67144349  0.34448505  0.66399238  1
  P  P11  1  0.79534768  0.22638235  0.51809339  1
  H  H12  1  0.34356894  0.45370755  0.52869954  1
  H  H13  1  0.62719057  0.43751653  0.39374732  1
  H  H14  1  0.92757532  0.72199326  0.70236665  1
  H  H15  1  0.36652138  0.26554948  0.42806867  1
  H  H16  1  0.29563691  0.38302367  0.67155738  1
  H  H17  1  0.20436309  0.11697633  0.17155738  1
  H  H18  1  0.36647737  0.03289106  0.19129503  1
  H  H19  1  0.26145373  0.34495893  0.87097282  1
  H  H20  1  0.60164432  0.74692368  0.68499819  1
  H  H21  1  0.13352263  0.46710894  0.69129503  1
  H  H22  1  0.63347862  0.73445052  0.57193133  1
  H  H23  1  0.84188558  0.93797244  0.47209632  1
  H  H24  1  0.22820857  0.56633983  0.12401048  1
  H  H25  1  0.73854627  0.65504107  0.12902718  1
  H  H26  1  0.65811442  0.56202756  0.97209632  1
  H  H27  1  0.16826049  0.03013531  0.68083873  1
  H  H28  1  0.70597021  0.82887130  0.41673982  1
  H  H29  1  0.13347862  0.23445052  0.92806867  1
  H  H30  1  0.43733860  0.19470241  0.90546770  1
  H  H31  1  0.30386505  0.10851802  0.84050694  1
  H  H32  1  0.23854627  0.15504107  0.37097282  1
  H  H33  1  0.89835568  0.75307632  0.18499819  1
  H  H34  1  0.76145373  0.84495893  0.62902718  1
  H  H35  1  0.90361042  0.57189257  0.97473222  1
  H  H36  1  0.66511097  0.03758214  0.95574436  1
  H  H37  1  0.86652138  0.76554948  0.07193133  1
  H  H38  1  0.86647737  0.53289106  0.30870497  1
  H  H39  1  0.63352263  0.96710894  0.80870497  1
  H  H40  1  0.09381523  0.36625787  0.61462170  1
  H  H41  1  0.10164432  0.24692368  0.81500181  1
  H  H42  1  0.12719057  0.93751653  0.10625268  1
  H  H43  1  0.83488903  0.46241786  0.45574436  1
  H  H44  1  0.19613495  0.39148198  0.34050694  1
  H  H45  1  0.15811442  0.06202756  0.52790368  1
  H  H46  1  0.59638958  0.92810743  0.47473222  1
  H  H47  1  0.09785712  0.46460095  0.17813955  1
  H  H48  1  0.42757532  0.22199326  0.79763335  1
  H  H49  1  0.39835568  0.25307632  0.31500181  1
  H  H50  1  0.37280943  0.56248347  0.60625268  1
  H  H51  1  0.90214288  0.53539905  0.82186045  1
  H  H52  1  0.06266140  0.30529759  0.40546770  1
  H  H53  1  0.09638958  0.42810743  0.02526778  1
  H  H54  1  0.27179143  0.93366017  0.62401048  1
  H  H55  1  0.69613495  0.89148198  0.15949306  1
  H  H56  1  0.84356894  0.95370755  0.97130046  1
  H  H57  1  0.66826049  0.53013531  0.81916127  1
  H  H58  1  0.29402979  0.17112870  0.58326018  1
  H  H59  1  0.56266140  0.80529759  0.09453230  1
  H  H60  1  0.72820857  0.06633983  0.37598952  1
  H  H61  1  0.33173951  0.46986469  0.18083873  1
  H  H62  1  0.59785712  0.96460095  0.32186045  1
  H  H63  1  0.79402979  0.67112870  0.91673982  1
  H  H64  1  0.65643106  0.54629245  0.47130046  1
  H  H65  1  0.80386505  0.60851802  0.65949306  1
  H  H66  1  0.87280943  0.06248347  0.89374732  1
  H  H67  1  0.93733860  0.69470241  0.59453230  1
  H  H68  1  0.15643106  0.04629245  0.02869954  1
  H  H69  1  0.33488903  0.96241786  0.04425564  1
  H  H70  1  0.90618477  0.63374213  0.38537830  1
  H  H71  1  0.83173951  0.96986469  0.31916127  1
  H  H72  1  0.40361042  0.07189257  0.52526778  1
  H  H73  1  0.77179143  0.43366017  0.87598952  1
  H  H74  1  0.07242468  0.27800674  0.29763335  1
  H  H75  1  0.34188558  0.43797244  0.02790368  1
  H  H76  1  0.57242468  0.77800674  0.20236665  1
  H  H77  1  0.20597021  0.32887130  0.08326018  1
  H  H78  1  0.59381523  0.86625787  0.88537830  1
  H  H79  1  0.40618477  0.13374213  0.11462170  1
  H  H80  1  0.79563691  0.88302367  0.82844262  1
  H  H81  1  0.40214288  0.03539905  0.67813955  1
  H  H82  1  0.16511097  0.53758214  0.54425564  1
  H  H83  1  0.70436309  0.61697633  0.32844262  1
  C  C84  1  0.70166193  0.75882868  0.63270637  1
  C  C85  1  0.27413219  0.49971705  0.57613762  1
  C  C86  1  0.28451726  0.08498415  0.56456753  1
  C  C87  1  0.79833807  0.74117132  0.13270637  1
  C  C88  1  0.78451726  0.58498415  0.93543247  1
  C  C89  1  0.22586781  0.00028295  0.07613762  1
  C  C90  1  0.21548274  0.41501585  0.06456753  1
  C  C91  1  0.77413219  0.99971705  0.92386238  1
  C  C92  1  0.71548274  0.91501585  0.43543247  1
  C  C93  1  0.72586781  0.50028295  0.42386238  1
  C  C94  1  0.20166193  0.25882868  0.86729363  1
  C  C95  1  0.29833807  0.24117132  0.36729363  1
  N  N96  1  0.85247571  0.69098335  0.64890240  1
  N  N97  1  0.19207704  0.42313877  0.64348325  1
  N  N98  1  0.71948742  0.98391574  0.35705018  1
  N  N99  1  0.64752429  0.80901665  0.14890240  1
  N  N100  1  0.21948742  0.48391574  0.14294982  1
  N  N101  1  0.30792296  0.07686123  0.14348325  1
  N  N102  1  0.78051258  0.51608426  0.85705018  1
  N  N103  1  0.80792296  0.57686123  0.35651675  1
  N  N104  1  0.28051258  0.01608426  0.64294982  1
  N  N105  1  0.14752429  0.30901665  0.35109760  1
  N  N106  1  0.69207704  0.92313877  0.85651675  1
  N  N107  1  0.35247571  0.19098335  0.85109760  1
  O  O108  1  0.51590774  0.20784150  0.01638843  1
  O  O109  1  0.85002405  0.20247763  0.06513914  1
  O  O110  1  0.28837494  0.81684711  0.56441126  1
  O  O111  1  0.48409226  0.79215850  0.98361157  1
  O  O112  1  0.98461719  0.82026694  0.79471474  1
  O  O113  1  0.35002405  0.70247763  0.43486086  1
  O  O114  1  0.87638226  0.42716075  0.22440459  1
  O  O115  1  0.51999874  0.40120213  0.22169054  1
  O  O116  1  0.48461719  0.32026694  0.70528526  1
  O  O117  1  0.98409226  0.29215850  0.51638843  1
  O  O118  1  0.12361774  0.57283925  0.77559541  1
  O  O119  1  0.51538281  0.67973306  0.29471474  1
  O  O120  1  0.71162506  0.18315289  0.43558874  1
  O  O121  1  0.27194050  0.95787012  0.83582949  1
  O  O122  1  0.68956433  0.23619853  0.20483311  1
  O  O123  1  0.14997595  0.79752237  0.93486086  1
  O  O124  1  0.01999874  0.90120213  0.27830946  1
  O  O125  1  0.29438998  0.62392964  0.91494679  1
  O  O126  1  0.77194050  0.45787012  0.66417051  1
  O  O127  1  0.48000126  0.59879787  0.77830946  1
  O  O128  1  0.62361774  0.07283925  0.72440459  1
  O  O129  1  0.01590774  0.70784150  0.48361157  1
  O  O130  1  0.22805950  0.54212988  0.33582949  1
  O  O131  1  0.20561002  0.87607036  0.41494679  1
  O  O132  1  0.21162506  0.68315289  0.06441126  1
  O  O133  1  0.01538281  0.17973306  0.20528526  1
  O  O134  1  0.79438998  0.12392964  0.58505321  1
  O  O135  1  0.72805950  0.04212988  0.16417051  1
  O  O136  1  0.70561002  0.37607036  0.08505321  1
  O  O137  1  0.78837494  0.31684711  0.93558874  1
  O  O138  1  0.18956433  0.73619853  0.29516689  1
  O  O139  1  0.64997595  0.29752237  0.56513914  1
  O  O140  1  0.31043567  0.76380147  0.79516689  1
  O  O141  1  0.37638226  0.92716075  0.27559541  1
  O  O142  1  0.98000126  0.09879787  0.72169054  1
  O  O143  1  0.81043567  0.26380147  0.70483311  1
