# generated using pymatgen
data_H3CS
_symmetry_space_group_name_H-M   'P 1'
_cell_length_a   6.65319514
_cell_length_b   8.74644263
_cell_length_c   9.00590913
_cell_angle_alpha   94.14540903
_cell_angle_beta   90.00000000
_cell_angle_gamma   90.00000000
_symmetry_Int_Tables_number   1
_chemical_formula_structural   H3CS
_chemical_formula_sum   'H24 C8 S8'
_cell_volume   522.69890005
_cell_formula_units_Z   8
loop_
 _symmetry_equiv_pos_site_id
 _symmetry_equiv_pos_as_xyz
  1  'x, y, z'
loop_
 _atom_site_type_symbol
 _atom_site_label
 _atom_site_symmetry_multiplicity
 _atom_site_fract_x
 _atom_site_fract_y
 _atom_site_fract_z
 _atom_site_occupancy
  H  H0  1  0.83067114  0.10494581  0.58304620  1
  H  H1  1  0.27131785  0.90296610  0.97165896  1
  H  H2  1  0.13585868  0.85656213  0.80025323  1
  H  H3  1  0.40879817  0.64900565  0.60908175  1
  H  H4  1  0.93888592  0.26157000  0.49245178  1
  H  H5  1  0.72868215  0.09703390  0.02834104  1
  H  H6  1  0.36789424  0.54768503  0.88502014  1
  H  H7  1  0.66932886  0.60494581  0.58304620  1
  H  H8  1  0.86414132  0.14343787  0.19974677  1
  H  H9  1  0.16932886  0.89505419  0.41695380  1
  H  H10  1  0.36414132  0.35656213  0.80025323  1
  H  H11  1  0.22868215  0.40296610  0.97165896  1
  H  H12  1  0.56111408  0.76157000  0.49245178  1
  H  H13  1  0.77131785  0.59703390  0.02834104  1
  H  H14  1  0.13210576  0.04768503  0.88502014  1
  H  H15  1  0.09120183  0.14900565  0.60908175  1
  H  H16  1  0.33067114  0.39505419  0.41695380  1
  H  H17  1  0.63210576  0.45231497  0.11497986  1
  H  H18  1  0.90879817  0.85099435  0.39091825  1
  H  H19  1  0.43888592  0.23843000  0.50754822  1
  H  H20  1  0.59120183  0.35099435  0.39091825  1
  H  H21  1  0.63585868  0.64343787  0.19974677  1
  H  H22  1  0.06111408  0.73843000  0.50754822  1
  H  H23  1  0.86789424  0.95231497  0.11497986  1
  C  C24  1  0.94180018  0.19832833  0.59321645  1
  C  C25  1  0.27558512  0.44383817  0.86473394  1
  C  C26  1  0.55819982  0.69832833  0.59321645  1
  C  C27  1  0.05819982  0.80167167  0.40678355  1
  C  C28  1  0.44180018  0.30167167  0.40678355  1
  C  C29  1  0.77558512  0.05616183  0.13526606  1
  C  C30  1  0.72441488  0.55616183  0.13526606  1
  C  C31  1  0.22441488  0.94383817  0.86473394  1
  S  S32  1  0.44201359  0.00268491  0.76104494  1
  S  S33  1  0.63459033  0.82090234  0.75480576  1
  S  S34  1  0.05798641  0.50268491  0.76104494  1
  S  S35  1  0.94201359  0.49731509  0.23895506  1
  S  S36  1  0.13459033  0.67909766  0.24519424  1
  S  S37  1  0.36540967  0.17909766  0.24519424  1
  S  S38  1  0.86540967  0.32090234  0.75480576  1
  S  S39  1  0.55798641  0.99731509  0.23895506  1
