# generated using pymatgen
data_K3Sb2N2O6F7
_symmetry_space_group_name_H-M   'P 1'
_cell_length_a   5.76673650
_cell_length_b   7.30705079
_cell_length_c   8.18467569
_cell_angle_alpha   91.46867795
_cell_angle_beta   110.62736424
_cell_angle_gamma   90.00000288
_symmetry_Int_Tables_number   1
_chemical_formula_structural   K3Sb2N2O6F7
_chemical_formula_sum   'K3 Sb2 N2 O6 F7'
_cell_volume   322.65339546
_cell_formula_units_Z   1
loop_
 _symmetry_equiv_pos_site_id
 _symmetry_equiv_pos_as_xyz
  1  'x, y, z'
loop_
 _atom_site_type_symbol
 _atom_site_label
 _atom_site_symmetry_multiplicity
 _atom_site_fract_x
 _atom_site_fract_y
 _atom_site_fract_z
 _atom_site_occupancy
  K  K0  1  0.78280379  0.25918121  0.56560759  1
  K  K1  1  0.21719621  0.74081879  0.43439241  1
  K  K2  1  0.50000000  0.50000000  0.00000000  1
  Sb  Sb3  1  0.09659706  0.25076989  0.19319412  1
  Sb  Sb4  1  0.90340294  0.74923011  0.80680588  1
  N  N5  1  0.40856537  0.07910438  0.81713074  1
  N  N6  1  0.59143463  0.92089562  0.18286926  1
  O  O7  1  0.39208933  0.90706121  0.78417866  1
  O  O8  1  0.77320603  0.83631864  0.16532605  1
  O  O9  1  0.22679397  0.16368136  0.83467395  1
  O  O10  1  0.60787998  0.16368136  0.83467395  1
  O  O11  1  0.39212002  0.83631864  0.16532605  1
  O  O12  1  0.60791067  0.09293879  0.21582134  1
  F  F13  1  0.08559377  0.58380394  0.70052093  1
  F  F14  1  0.38507284  0.41619606  0.29947907  1
  F  F15  1  0.61492716  0.58380394  0.70052093  1
  F  F16  1  0.78752704  0.87059738  0.57505408  1
  F  F17  1  0.91440623  0.41619606  0.29947907  1
  F  F18  1  0.21247296  0.12940262  0.42494592  1
  F  F19  1  0.00000000  0.50000000  0.00000000  1
