# generated using pymatgen
data_ZnGa3N3O
_symmetry_space_group_name_H-M   'P 1'
_cell_length_a   6.48468963
_cell_length_b   6.48467416
_cell_length_c   10.52516182
_cell_angle_alpha   89.85427644
_cell_angle_beta   90.17314688
_cell_angle_gamma   120.01005306
_symmetry_Int_Tables_number   1
_chemical_formula_structural   ZnGa3N3O
_chemical_formula_sum   'Zn4 Ga12 N12 O4'
_cell_volume   383.25733180
_cell_formula_units_Z   4
loop_
 _symmetry_equiv_pos_site_id
 _symmetry_equiv_pos_as_xyz
  1  'x, y, z'
loop_
 _atom_site_type_symbol
 _atom_site_label
 _atom_site_symmetry_multiplicity
 _atom_site_fract_x
 _atom_site_fract_y
 _atom_site_fract_z
 _atom_site_occupancy
  Zn  Zn0  1  0.83919909  0.66083119  0.73781204  1
  Zn  Zn1  1  0.67165314  0.32766865  0.99282205  1
  Zn  Zn2  1  0.66583442  0.83275048  0.49454318  1
  Zn  Zn3  1  0.33351315  0.16671920  0.73657884  1
  Ga  Ga4  1  0.83764255  0.17682917  0.74670081  1
  Ga  Ga5  1  0.32247566  0.66309050  0.74513235  1
  Ga  Ga6  1  0.16017532  0.33498942  0.00054347  1
  Ga  Ga7  1  0.66451869  0.84041299  0.00076943  1
  Ga  Ga8  1  0.16578936  0.33629086  0.50029037  1
  Ga  Ga9  1  0.83855444  0.67675316  0.25684907  1
  Ga  Ga10  1  0.66958737  0.33347054  0.50170533  1
  Ga  Ga11  1  0.33278321  0.66567182  0.25515520  1
  Ga  Ga12  1  0.32292659  0.16202403  0.25504490  1
  Ga  Ga13  1  0.83931161  0.16196146  0.25651401  1
  Ga  Ga14  1  0.17045305  0.83041413  0.00178401  1
  Ga  Ga15  1  0.16706143  0.82979565  0.50203751  1
  N  N16  1  0.66917849  0.32657554  0.68649249  1
  N  N17  1  0.17300293  0.83143440  0.68631337  1
  N  N18  1  0.83953795  0.16060963  0.93546075  1
  N  N19  1  0.83766812  0.17504548  0.43652317  1
  N  N20  1  0.32528063  0.66240567  0.43665124  1
  N  N21  1  0.83773930  0.66191555  0.43731576  1
  N  N22  1  0.16724730  0.83323151  0.18646441  1
  N  N23  1  0.33326857  0.16695106  0.43757406  1
  N  N24  1  0.16331972  0.33731947  0.68679980  1
  N  N25  1  0.33386032  0.66595875  0.93724422  1
  N  N26  1  0.66563062  0.83288700  0.18720029  1
  N  N27  1  0.16730506  0.33421965  0.18636514  1
  O  O28  1  0.66495830  0.33330875  0.19356018  1
  O  O29  1  0.32080254  0.16059240  0.95023905  1
  O  O30  1  0.83932709  0.67975689  0.94888757  1
  O  O31  1  0.66039396  0.83811503  0.69860994  1
