# generated using pymatgen
data_Cs2LiF3
_symmetry_space_group_name_H-M   'P 1'
_cell_length_a   3.86838669
_cell_length_b   6.19181485
_cell_length_c   11.04901731
_cell_angle_alpha   90.00000000
_cell_angle_beta   100.08189324
_cell_angle_gamma   90.00000000
_symmetry_Int_Tables_number   1
_chemical_formula_structural   Cs2LiF3
_chemical_formula_sum   'Cs4 Li2 F6'
_cell_volume   260.56317889
_cell_formula_units_Z   2
loop_
 _symmetry_equiv_pos_site_id
 _symmetry_equiv_pos_as_xyz
  1  'x, y, z'
loop_
 _atom_site_type_symbol
 _atom_site_label
 _atom_site_symmetry_multiplicity
 _atom_site_fract_x
 _atom_site_fract_y
 _atom_site_fract_z
 _atom_site_occupancy
  Cs  Cs0  1  0.20160449  0.10320125  0.40320898  1
  Cs  Cs1  1  0.79839551  0.60320125  0.59679102  1
  Cs  Cs2  1  0.58421696  0.60328474  0.16843392  1
  Cs  Cs3  1  0.41578304  0.10328474  0.83156608  1
  Li  Li4  1  0.04718955  0.10329314  0.09437910  1
  Li  Li5  1  0.95281045  0.60329314  0.90562090  1
  F  F6  1  0.40884124  0.60330697  0.81768248  1
  F  F7  1  0.00001297  0.85326764  0.00002594  1
  F  F8  1  0.80233466  0.10324627  0.60466933  1
  F  F9  1  0.59115876  0.10330697  0.18231752  1
  F  F10  1  0.99998703  0.35326764  0.99997406  1
  F  F11  1  0.19766534  0.60324627  0.39533067  1
