# generated using pymatgen
data_BiTeIO3
_symmetry_space_group_name_H-M   'P 1'
_cell_length_a   3.98117929
_cell_length_b   3.98118026
_cell_length_c   28.97097015
_cell_angle_alpha   90.00004836
_cell_angle_beta   90.00002549
_cell_angle_gamma   90.00000547
_symmetry_Int_Tables_number   1
_chemical_formula_structural   BiTeIO3
_chemical_formula_sum   'Bi4 Te4 I4 O12'
_cell_volume   459.18386253
_cell_formula_units_Z   4
loop_
 _symmetry_equiv_pos_site_id
 _symmetry_equiv_pos_as_xyz
  1  'x, y, z'
loop_
 _atom_site_type_symbol
 _atom_site_label
 _atom_site_symmetry_multiplicity
 _atom_site_fract_x
 _atom_site_fract_y
 _atom_site_fract_z
 _atom_site_occupancy
  Bi  Bi0  1  0.24999364  0.24998986  0.28902681  1
  Bi  Bi1  1  0.75000020  0.74999967  0.04338044  1
  Bi  Bi2  1  0.75000229  0.75000637  0.71097336  1
  Bi  Bi3  1  0.25000026  0.24999935  0.95661522  1
  Te  Te4  1  0.24999968  0.25000004  0.78861132  1
  Te  Te5  1  0.74999904  0.74999758  0.37529359  1
  Te  Te6  1  0.25000016  0.24999930  0.62470966  1
  Te  Te7  1  0.74999991  0.75000017  0.21137701  1
  I  I8  1  0.25000023  0.25000107  0.44531036  1
  I  I9  1  0.24999985  0.25000043  0.10867840  1
  I  I10  1  0.75000005  0.75000039  0.55469224  1
  I  I11  1  0.75000021  0.74999971  0.89131756  1
  O  O12  1  0.75000270  0.75000528  0.28031696  1
  O  O13  1  0.25000002  0.75000020  0.65521648  1
  O  O14  1  0.25000021  0.75000081  0.34478187  1
  O  O15  1  0.75000043  0.24999898  0.77295489  1
  O  O16  1  0.24999995  0.74999894  0.77295485  1
  O  O17  1  0.24999922  0.24999703  0.71969829  1
  O  O18  1  0.75000015  0.24999956  0.65521655  1
  O  O19  1  0.75000013  0.25000146  0.34478190  1
  O  O20  1  0.75000021  0.24999963  0.99999551  1
  O  O21  1  0.25000050  0.75000143  0.22705060  1
  O  O22  1  0.25000019  0.74999983  0.99999549  1
  O  O23  1  0.75000079  0.25000291  0.22705064  1
