# generated using pymatgen
data_ZnCu3H6(ClO3)2
_symmetry_space_group_name_H-M   'P 1'
_cell_length_a   6.35584159
_cell_length_b   6.35584158
_cell_length_c   5.74483436
_cell_angle_alpha   90.00000000
_cell_angle_beta   90.00000000
_cell_angle_gamma   120.00000008
_symmetry_Int_Tables_number   1
_chemical_formula_structural   ZnCu3H6(ClO3)2
_chemical_formula_sum   'Zn1 Cu3 H6 Cl2 O6'
_cell_volume   200.98066147
_cell_formula_units_Z   1
loop_
 _symmetry_equiv_pos_site_id
 _symmetry_equiv_pos_as_xyz
  1  'x, y, z'
loop_
 _atom_site_type_symbol
 _atom_site_label
 _atom_site_symmetry_multiplicity
 _atom_site_fract_x
 _atom_site_fract_y
 _atom_site_fract_z
 _atom_site_occupancy
  Zn  Zn0  1  0.00000000  0.00000000  0.50000000  1
  Cu  Cu1  1  0.00000000  0.50000000  0.50000000  1
  Cu  Cu2  1  0.50000000  0.00000000  0.50000000  1
  Cu  Cu3  1  0.50000000  0.50000000  0.50000000  1
  H  H4  1  0.19927772  0.80072228  0.82146156  1
  H  H5  1  0.80072228  0.19927772  0.17853844  1
  H  H6  1  0.39855544  0.19927772  0.17853844  1
  H  H7  1  0.60144456  0.80072228  0.82146156  1
  H  H8  1  0.19927772  0.39855544  0.82146156  1
  H  H9  1  0.80072228  0.60144456  0.17853844  1
  Cl  Cl10  1  0.33333300  0.66666700  0.12234575  1
  Cl  Cl11  1  0.66666700  0.33333300  0.87765425  1
  O  O12  1  0.64533603  0.82266801  0.65465640  1
  O  O13  1  0.82266801  0.17733199  0.34534360  1
  O  O14  1  0.35466397  0.17733199  0.34534360  1
  O  O15  1  0.17733199  0.82266801  0.65465640  1
  O  O16  1  0.82266801  0.64533603  0.34534360  1
  O  O17  1  0.17733199  0.35466397  0.65465640  1
