# generated using pymatgen
data_P4S(NF)6
_symmetry_space_group_name_H-M   'P 1'
_cell_length_a   9.62541635
_cell_length_b   11.86889164
_cell_length_c   20.69857408
_cell_angle_alpha   90.00000000
_cell_angle_beta   103.22507169
_cell_angle_gamma   90.00000000
_symmetry_Int_Tables_number   1
_chemical_formula_structural   P4S(NF)6
_chemical_formula_sum   'P32 S8 N48 F48'
_cell_volume   2301.95406956
_cell_formula_units_Z   8
loop_
 _symmetry_equiv_pos_site_id
 _symmetry_equiv_pos_as_xyz
  1  'x, y, z'
loop_
 _atom_site_type_symbol
 _atom_site_label
 _atom_site_symmetry_multiplicity
 _atom_site_fract_x
 _atom_site_fract_y
 _atom_site_fract_z
 _atom_site_occupancy
  P  P0  1  0.60593486  0.96893501  0.14162502  1
  P  P1  1  0.19982302  0.29656171  0.36043272  1
  P  P2  1  0.19982302  0.20343829  0.86043272  1
  P  P3  1  0.71471920  0.78954985  0.36671892  1
  P  P4  1  0.67126339  0.12862346  0.34996411  1
  P  P5  1  0.18951241  0.63852365  0.36855417  1
  P  P6  1  0.52055228  0.45591332  0.12830200  1
  P  P7  1  0.32873661  0.87137654  0.65003589  1
  P  P8  1  0.89030551  0.97585288  0.34997919  1
  P  P9  1  0.39406514  0.03106499  0.85837498  1
  P  P10  1  0.81048759  0.13852365  0.13144583  1
  P  P11  1  0.97883580  0.45097852  0.37391577  1
  P  P12  1  0.80017698  0.70343829  0.63956728  1
  P  P13  1  0.02116420  0.95097852  0.12608423  1
  P  P14  1  0.10969449  0.47585288  0.15002081  1
  P  P15  1  0.28528080  0.21045015  0.63328108  1
  P  P16  1  0.39406514  0.46893501  0.35837498  1
  P  P17  1  0.89030551  0.52414712  0.84997919  1
  P  P18  1  0.32873661  0.62862346  0.15003589  1
  P  P19  1  0.47944772  0.95591332  0.37169800  1
  P  P20  1  0.28528080  0.28954985  0.13328108  1
  P  P21  1  0.67126339  0.37137654  0.84996411  1
  P  P22  1  0.10969449  0.02414712  0.65002081  1
  P  P23  1  0.71471920  0.71045015  0.86671892  1
  P  P24  1  0.02116420  0.54902148  0.62608423  1
  P  P25  1  0.80017698  0.79656171  0.13956728  1
  P  P26  1  0.52055228  0.04408668  0.62830200  1
  P  P27  1  0.47944772  0.54408668  0.87169800  1
  P  P28  1  0.97883580  0.04902148  0.87391577  1
  P  P29  1  0.18951241  0.86147635  0.86855417  1
  P  P30  1  0.60593486  0.53106499  0.64162502  1
  P  P31  1  0.81048759  0.36147635  0.63144583  1
  S  S32  1  0.92506022  0.14241701  0.45013900  1
  S  S33  1  0.45087440  0.30908038  0.46230224  1
  S  S34  1  0.54912560  0.69091962  0.53769776  1
  S  S35  1  0.92506022  0.35758299  0.95013900  1
  S  S36  1  0.07493978  0.85758299  0.54986100  1
  S  S37  1  0.07493978  0.64241701  0.04986100  1
  S  S38  1  0.54912560  0.80908038  0.03769776  1
  S  S39  1  0.45087440  0.19091962  0.96230224  1
  N  N40  1  0.49547983  0.41539648  0.42850126  1
  N  N41  1  0.22807790  0.68449250  0.08061513  1
  N  N42  1  0.27923517  0.11947544  0.82146235  1
  N  N43  1  0.22807790  0.81550750  0.58061513  1
  N  N44  1  0.58066911  0.85246445  0.37797425  1
  N  N45  1  0.76203335  0.05227527  0.31210237  1
  N  N46  1  0.94958883  0.66829683  0.62584913  1
  N  N47  1  0.72076483  0.61947544  0.67853765  1
  N  N48  1  0.69383101  0.75186779  0.06850073  1
  N  N49  1  0.30616899  0.25186779  0.43149927  1
  N  N50  1  0.47057000  0.91950799  0.63451103  1
  N  N51  1  0.34365006  0.59100423  0.37307285  1
  N  N52  1  0.01602494  0.96031216  0.58151002  1
  N  N53  1  0.94017954  0.06361298  0.12702618  1
  N  N54  1  0.52943000  0.08049201  0.36548897  1
  N  N55  1  0.05041117  0.33170317  0.37415087  1
  N  N56  1  0.47057000  0.58049201  0.13451103  1
  N  N57  1  0.76203335  0.44772473  0.81210237  1
  N  N58  1  0.86002034  0.84987556  0.36726670  1
  N  N59  1  0.41933089  0.14753555  0.62202575  1
  N  N60  1  0.34365006  0.90899577  0.87307285  1
  N  N61  1  0.58066911  0.64753555  0.87797425  1
  N  N62  1  0.94017954  0.43638702  0.62702618  1
  N  N63  1  0.30616899  0.24813221  0.93149927  1
  N  N64  1  0.41933089  0.35246445  0.12202575  1
  N  N65  1  0.27923517  0.38052456  0.32146235  1
  N  N66  1  0.05982046  0.56361298  0.37297382  1
  N  N67  1  0.05041117  0.16829683  0.87415087  1
  N  N68  1  0.13997966  0.15012444  0.63273330  1
  N  N69  1  0.65634994  0.09100423  0.12692715  1
  N  N70  1  0.65634994  0.40899577  0.62692715  1
  N  N71  1  0.77192210  0.31550750  0.91938487  1
  N  N72  1  0.86002034  0.65012444  0.86726670  1
  N  N73  1  0.49547983  0.08460352  0.92850126  1
  N  N74  1  0.50452017  0.91539648  0.07149874  1
  N  N75  1  0.77192210  0.18449250  0.41938487  1
  N  N76  1  0.72076483  0.88052456  0.17853765  1
  N  N77  1  0.98397506  0.46031216  0.91848998  1
  N  N78  1  0.50452017  0.58460352  0.57149874  1
  N  N79  1  0.23796665  0.94772473  0.68789763  1
  N  N80  1  0.13997966  0.34987556  0.13273330  1
  N  N81  1  0.52943000  0.41950799  0.86548897  1
  N  N82  1  0.98397506  0.03968784  0.41848998  1
  N  N83  1  0.23796665  0.55227527  0.18789763  1
  N  N84  1  0.94958883  0.83170317  0.12584913  1
  N  N85  1  0.69383101  0.74813221  0.56850073  1
  N  N86  1  0.01602494  0.53968784  0.08151002  1
  N  N87  1  0.05982046  0.93638702  0.87297382  1
  F  F88  1  0.32848963  0.28617937  0.69639165  1
  F  F89  1  0.00185815  0.96925264  0.30590195  1
  F  F90  1  0.85411382  0.21557198  0.19390522  1
  F  F91  1  0.34417386  0.56660828  0.81534066  1
  F  F92  1  0.34417386  0.93339172  0.31534066  1
  F  F93  1  0.40857294  0.95244624  0.43250933  1
  F  F94  1  0.59142706  0.45244624  0.06749067  1
  F  F95  1  0.25007189  0.30547667  0.57963002  1
  F  F96  1  0.84090196  0.45347281  0.31715656  1
  F  F97  1  0.99814185  0.46925264  0.19409805  1
  F  F98  1  0.09187379  0.54724904  0.56523034  1
  F  F99  1  0.40857294  0.54755376  0.93250933  1
  F  F100  1  0.17039516  0.31451972  0.81917797  1
  F  F101  1  0.62454974  0.26415228  0.80659440  1
  F  F102  1  0.82960484  0.68548028  0.18082203  1
  F  F103  1  0.15909804  0.95347281  0.18284344  1
  F  F104  1  0.79442109  0.26904866  0.57636668  1
  F  F105  1  0.09187379  0.95275096  0.06523034  1
  F  F106  1  0.67151037  0.78617937  0.80360835  1
  F  F107  1  0.82960484  0.81451972  0.68082203  1
  F  F108  1  0.17039516  0.18548028  0.31917797  1
  F  F109  1  0.99814185  0.03074736  0.69409805  1
  F  F110  1  0.50609938  0.48533790  0.31520466  1
  F  F111  1  0.49390062  0.98533790  0.18479534  1
  F  F112  1  0.85411382  0.28442802  0.69390522  1
  F  F113  1  0.65582614  0.06660828  0.68465934  1
  F  F114  1  0.14588618  0.78442802  0.80609478  1
  F  F115  1  0.84090196  0.04652719  0.81715656  1
  F  F116  1  0.90812621  0.45275096  0.43476966  1
  F  F117  1  0.50609938  0.01466210  0.81520466  1
  F  F118  1  0.00185815  0.53074736  0.80590195  1
  F  F119  1  0.74992811  0.80547667  0.92036998  1
  F  F120  1  0.59142706  0.04755376  0.56749067  1
  F  F121  1  0.15909804  0.54652719  0.68284344  1
  F  F122  1  0.14588618  0.71557198  0.30609478  1
  F  F123  1  0.62454974  0.23584772  0.30659440  1
  F  F124  1  0.25007189  0.19452333  0.07963002  1
  F  F125  1  0.37545026  0.76415228  0.69340560  1
  F  F126  1  0.90812621  0.04724904  0.93476966  1
  F  F127  1  0.49390062  0.51466210  0.68479534  1
  F  F128  1  0.20557891  0.73095134  0.42363332  1
  F  F129  1  0.32848963  0.21382063  0.19639165  1
  F  F130  1  0.74992811  0.69452333  0.42036998  1
  F  F131  1  0.67151037  0.71382063  0.30360835  1
  F  F132  1  0.79442109  0.23095134  0.07636668  1
  F  F133  1  0.20557891  0.76904866  0.92363332  1
  F  F134  1  0.37545026  0.73584772  0.19340560  1
  F  F135  1  0.65582614  0.43339172  0.18465934  1
