# generated using pymatgen
data_H5CNO2
_symmetry_space_group_name_H-M   'P 1'
_cell_length_a   3.90791020
_cell_length_b   4.72617690
_cell_length_c   9.21811729
_cell_angle_alpha   90.00000000
_cell_angle_beta   93.16623512
_cell_angle_gamma   90.00000000
_symmetry_Int_Tables_number   1
_chemical_formula_structural   H5CNO2
_chemical_formula_sum   'H10 C2 N2 O4'
_cell_volume   169.99389143
_cell_formula_units_Z   2
loop_
 _symmetry_equiv_pos_site_id
 _symmetry_equiv_pos_as_xyz
  1  'x, y, z'
loop_
 _atom_site_type_symbol
 _atom_site_label
 _atom_site_symmetry_multiplicity
 _atom_site_fract_x
 _atom_site_fract_y
 _atom_site_fract_z
 _atom_site_occupancy
  H  H0  1  0.90497088  0.53459982  0.07607031  1
  H  H1  1  0.90497088  0.46540018  0.57607031  1
  H  H2  1  0.23443043  0.40920472  0.98953241  1
  H  H3  1  0.23443043  0.59079528  0.48953241  1
  H  H4  1  0.21228106  0.76453650  0.01884789  1
  H  H5  1  0.21228106  0.23546350  0.51884789  1
  H  H6  1  0.92614444  0.60962182  0.89416978  1
  H  H7  1  0.92614444  0.39037818  0.39416978  1
  H  H8  1  0.55964838  0.04054178  0.76218043  1
  H  H9  1  0.55964838  0.95945822  0.26218043  1
  C  C10  1  0.57008075  0.86655979  0.68133642  1
  C  C11  1  0.57008075  0.13344021  0.18133642  1
  N  N12  1  0.06907821  0.58212979  0.99342964  1
  N  N13  1  0.06907821  0.41787021  0.49342964  1
  O  O14  1  0.70163578  0.63321947  0.72515984  1
  O  O15  1  0.70163578  0.36678053  0.22515984  1
  O  O16  1  0.44853008  0.91679544  0.55328328  1
  O  O17  1  0.44853008  0.08320456  0.05328328  1
