# generated using pymatgen
data_Cu5Bi2(B2O7)2
_symmetry_space_group_name_H-M   'P 1'
_cell_length_a   3.60080384
_cell_length_b   9.24700549
_cell_length_c   10.22192774
_cell_angle_alpha   67.35610236
_cell_angle_beta   81.93561437
_cell_angle_gamma   82.68487337
_symmetry_Int_Tables_number   1
_chemical_formula_structural   Cu5Bi2(B2O7)2
_chemical_formula_sum   'Cu5 Bi2 B4 O14'
_cell_volume   310.01083266
_cell_formula_units_Z   1
loop_
 _symmetry_equiv_pos_site_id
 _symmetry_equiv_pos_as_xyz
  1  'x, y, z'
loop_
 _atom_site_type_symbol
 _atom_site_label
 _atom_site_symmetry_multiplicity
 _atom_site_fract_x
 _atom_site_fract_y
 _atom_site_fract_z
 _atom_site_occupancy
  Cu  Cu0  1  0.04326291  0.42245296  0.00477334  1
  Cu  Cu1  1  0.10055525  0.60232785  0.65800542  1
  Cu  Cu2  1  0.54781552  0.42192694  0.50497502  1
  Cu  Cu3  1  0.98489024  0.24083534  0.35274660  1
  Cu  Cu4  1  0.05086945  0.92172140  0.50610586  1
  Bi  Bi5  1  0.56072956  0.77817791  0.83303828  1
  Bi  Bi6  1  0.52673618  0.06692300  0.17726266  1
  B  B7  1  0.90935509  0.12580272  0.67701222  1
  B  B8  1  0.55183514  0.28596993  0.81454630  1
  B  B9  1  0.19189920  0.71938458  0.33427108  1
  B  B10  1  0.54419811  0.55983100  0.19541000  1
  O  O11  1  0.39213507  0.07925014  0.38819404  1
  O  O12  1  0.98089726  0.22516830  0.16959947  1
  O  O13  1  0.17477636  0.59737392  0.46383238  1
  O  O14  1  0.46426876  0.29034666  0.94755296  1
  O  O15  1  0.69985142  0.76713532  0.62173756  1
  O  O16  1  0.62433546  0.55533891  0.06224907  1
  O  O17  1  0.43947651  0.40879892  0.69632849  1
  O  O18  1  0.03612076  0.97392209  0.68944839  1
  O  O19  1  0.34748333  0.69638679  0.20915689  1
  O  O20  1  0.06237360  0.87058185  0.32305872  1
  O  O21  1  0.10815403  0.61966228  0.84029233  1
  O  O22  1  0.75937976  0.15093350  0.80168141  1
  O  O23  1  0.92215732  0.24664119  0.54661605  1
  O  O24  1  0.65334570  0.43580751  0.31330545  1
