# generated using pymatgen
data_Nd14Cl32O
_symmetry_space_group_name_H-M   'P 1'
_cell_length_a   12.37294047
_cell_length_b   12.37294047
_cell_length_c   12.37294034
_cell_angle_alpha   57.29128980
_cell_angle_beta   57.29128977
_cell_angle_gamma   57.29129168
_symmetry_Int_Tables_number   1
_chemical_formula_structural   Nd14Cl32O
_chemical_formula_sum   'Nd14 Cl32 O1'
_cell_volume   1255.84876227
_cell_formula_units_Z   1
loop_
 _symmetry_equiv_pos_site_id
 _symmetry_equiv_pos_as_xyz
  1  'x, y, z'
loop_
 _atom_site_type_symbol
 _atom_site_label
 _atom_site_symmetry_multiplicity
 _atom_site_fract_x
 _atom_site_fract_y
 _atom_site_fract_z
 _atom_site_occupancy
  Nd  Nd0  1  0.54576828  0.33454937  0.81173241  1
  Nd  Nd1  1  0.33454937  0.81173241  0.54576828  1
  Nd  Nd2  1  0.81173241  0.54576828  0.33454937  1
  Nd  Nd3  1  0.45423172  0.66545063  0.18826759  1
  Nd  Nd4  1  0.66545063  0.18826759  0.45423172  1
  Nd  Nd5  1  0.18826759  0.45423172  0.66545063  1
  Nd  Nd6  1  0.73582414  0.73582414  0.73582414  1
  Nd  Nd7  1  0.26417586  0.26417586  0.26417586  1
  Nd  Nd8  1  0.01591313  0.88147569  0.23231600  1
  Nd  Nd9  1  0.88147569  0.23231600  0.01591313  1
  Nd  Nd10  1  0.23231600  0.01591313  0.88147569  1
  Nd  Nd11  1  0.98408687  0.11852431  0.76768400  1
  Nd  Nd12  1  0.11852431  0.76768400  0.98408687  1
  Nd  Nd13  1  0.76768400  0.98408687  0.11852431  1
  Cl  Cl14  1  0.46633439  0.23645616  0.71033285  1
  Cl  Cl15  1  0.23645616  0.71033285  0.46633439  1
  Cl  Cl16  1  0.71033285  0.46633439  0.23645616  1
  Cl  Cl17  1  0.53366561  0.76354384  0.28966715  1
  Cl  Cl18  1  0.76354384  0.28966715  0.53366561  1
  Cl  Cl19  1  0.28966715  0.53366561  0.76354384  1
  Cl  Cl20  1  0.85112855  0.93702876  0.57885108  1
  Cl  Cl21  1  0.93702876  0.57885108  0.85112855  1
  Cl  Cl22  1  0.57885108  0.85112855  0.93702876  1
  Cl  Cl23  1  0.14887145  0.06297124  0.42114892  1
  Cl  Cl24  1  0.06297124  0.42114892  0.14887145  1
  Cl  Cl25  1  0.42114892  0.14887145  0.06297124  1
  Cl  Cl26  1  0.01541643  0.39297075  0.44660880  1
  Cl  Cl27  1  0.39297075  0.44660880  0.01541643  1
  Cl  Cl28  1  0.44660880  0.01541643  0.39297075  1
  Cl  Cl29  1  0.98458357  0.60702925  0.55339120  1
  Cl  Cl30  1  0.60702925  0.55339120  0.98458357  1
  Cl  Cl31  1  0.55339120  0.98458357  0.60702925  1
  Cl  Cl32  1  0.78170978  0.37513379  0.78653518  1
  Cl  Cl33  1  0.37513379  0.78653518  0.78170978  1
  Cl  Cl34  1  0.78653518  0.78170978  0.37513379  1
  Cl  Cl35  1  0.21829022  0.62486621  0.21346482  1
  Cl  Cl36  1  0.62486621  0.21346482  0.21829022  1
  Cl  Cl37  1  0.21346482  0.21829022  0.62486621  1
  Cl  Cl38  1  0.74270796  0.07213034  0.86510515  1
  Cl  Cl39  1  0.07213034  0.86510515  0.74270796  1
  Cl  Cl40  1  0.86510515  0.74270796  0.07213034  1
  Cl  Cl41  1  0.25729204  0.92786966  0.13489485  1
  Cl  Cl42  1  0.92786966  0.13489485  0.25729204  1
  Cl  Cl43  1  0.13489485  0.25729204  0.92786966  1
  Cl  Cl44  1  0.58885802  0.58885802  0.58885802  1
  Cl  Cl45  1  0.41114198  0.41114198  0.41114198  1
  O  O46  1  -0.00000000  -0.00000000  0.00000000  1
