# generated using pymatgen
data_KSbN(OF)3
_symmetry_space_group_name_H-M   'P 1'
_cell_length_a   8.01511183
_cell_length_b   8.07937699
_cell_length_c   18.42166754
_cell_angle_alpha   90.00000000
_cell_angle_beta   90.00000000
_cell_angle_gamma   90.00000000
_symmetry_Int_Tables_number   1
_chemical_formula_structural   KSbN(OF)3
_chemical_formula_sum   'K8 Sb8 N8 O24 F24'
_cell_volume   1192.93395296
_cell_formula_units_Z   8
loop_
 _symmetry_equiv_pos_site_id
 _symmetry_equiv_pos_as_xyz
  1  'x, y, z'
loop_
 _atom_site_type_symbol
 _atom_site_label
 _atom_site_symmetry_multiplicity
 _atom_site_fract_x
 _atom_site_fract_y
 _atom_site_fract_z
 _atom_site_occupancy
  K  K0  1  0.42720202  0.07557580  0.81597083  1
  K  K1  1  0.92720202  0.92442420  0.68402917  1
  K  K2  1  0.57279798  0.42442420  0.31597083  1
  K  K3  1  0.07279798  0.07557580  0.31597083  1
  K  K4  1  0.07279798  0.57557580  0.18402917  1
  K  K5  1  0.57279798  0.92442420  0.18402917  1
  K  K6  1  0.92720202  0.42442420  0.81597083  1
  K  K7  1  0.42720202  0.57557580  0.68402917  1
  Sb  Sb8  1  0.57250851  0.44593749  0.10774146  1
  Sb  Sb9  1  0.92749149  0.44593749  0.60774146  1
  Sb  Sb10  1  0.92749149  0.94593749  0.89225854  1
  Sb  Sb11  1  0.57250851  0.94593749  0.39225854  1
  Sb  Sb12  1  0.07250851  0.05406251  0.10774146  1
  Sb  Sb13  1  0.42749149  0.05406251  0.60774146  1
  Sb  Sb14  1  0.42749149  0.55406251  0.89225854  1
  Sb  Sb15  1  0.07250851  0.55406251  0.39225854  1
  N  N16  1  0.86784048  0.84987931  0.50330854  1
  N  N17  1  0.36784048  0.15012069  0.99669146  1
  N  N18  1  0.13215952  0.65012069  0.00330854  1
  N  N19  1  0.86784048  0.34987931  0.99669146  1
  N  N20  1  0.13215952  0.15012069  0.49669146  1
  N  N21  1  0.63215952  0.34987931  0.49669146  1
  N  N22  1  0.36784048  0.65012069  0.50330854  1
  N  N23  1  0.63215952  0.84987931  0.00330854  1
  O  O24  1  0.02890912  0.23592798  0.46136261  1
  O  O25  1  0.71112530  0.46658652  0.46786515  1
  O  O26  1  0.47109088  0.23592798  0.96136261  1
  O  O27  1  0.47109088  0.73592798  0.53863739  1
  O  O28  1  0.28887470  0.53341348  0.53213485  1
  O  O29  1  0.97109088  0.26407202  0.96136261  1
  O  O30  1  0.52890912  0.76407202  0.03863739  1
  O  O31  1  0.65502259  0.31755382  0.56497153  1
  O  O32  1  0.21112530  0.53341348  0.03213485  1
  O  O33  1  0.97109088  0.76407202  0.53863739  1
  O  O34  1  0.84497741  0.31755382  0.06497153  1
  O  O35  1  0.52890912  0.26407202  0.46136261  1
  O  O36  1  0.15502259  0.18244618  0.56497153  1
  O  O37  1  0.15502259  0.68244618  0.93502847  1
  O  O38  1  0.34497741  0.68244618  0.43502847  1
  O  O39  1  0.02890912  0.73592798  0.03863739  1
  O  O40  1  0.84497741  0.81755382  0.43502847  1
  O  O41  1  0.78887470  0.96658652  0.53213485  1
  O  O42  1  0.65502259  0.81755382  0.93502847  1
  O  O43  1  0.78887470  0.46658652  0.96786515  1
  O  O44  1  0.71112530  0.96658652  0.03213485  1
  O  O45  1  0.21112530  0.03341348  0.46786515  1
  O  O46  1  0.34497741  0.18244618  0.06497153  1
  O  O47  1  0.28887470  0.03341348  0.96786515  1
  F  F48  1  0.73504853  0.58891987  0.15924708  1
  F  F49  1  0.23504853  0.91108013  0.15924708  1
  F  F50  1  0.88553508  0.26967211  0.68007748  1
  F  F51  1  0.26495147  0.91108013  0.65924708  1
  F  F52  1  0.58818016  0.96403804  0.68162203  1
  F  F53  1  0.61446492  0.76967211  0.31992252  1
  F  F54  1  0.11446492  0.73032789  0.31992252  1
  F  F55  1  0.38553508  0.23032789  0.68007748  1
  F  F56  1  0.11446492  0.23032789  0.18007748  1
  F  F57  1  0.61446492  0.26967211  0.18007748  1
  F  F58  1  0.73504853  0.08891987  0.34075292  1
  F  F59  1  0.76495147  0.08891987  0.84075292  1
  F  F60  1  0.08818016  0.53596196  0.68162203  1
  F  F61  1  0.88553508  0.76967211  0.81992252  1
  F  F62  1  0.91181984  0.46403804  0.31837797  1
  F  F63  1  0.38553508  0.73032789  0.81992252  1
  F  F64  1  0.76495147  0.58891987  0.65924708  1
  F  F65  1  0.26495147  0.41108013  0.84075292  1
  F  F66  1  0.08818016  0.03596196  0.81837797  1
  F  F67  1  0.91181984  0.96403804  0.18162203  1
  F  F68  1  0.41181984  0.03596196  0.31837797  1
  F  F69  1  0.23504853  0.41108013  0.34075292  1
  F  F70  1  0.41181984  0.53596196  0.18162203  1
  F  F71  1  0.58818016  0.46403804  0.81837797  1
