# generated using pymatgen
data_IN2O4F5
_symmetry_space_group_name_H-M   'P 1'
_cell_length_a   4.99416675
_cell_length_b   8.05037408
_cell_length_c   9.95787016
_cell_angle_alpha   69.62255803
_cell_angle_beta   82.24071111
_cell_angle_gamma   90.44747746
_symmetry_Int_Tables_number   1
_chemical_formula_structural   IN2O4F5
_chemical_formula_sum   'I2 N4 O8 F10'
_cell_volume   371.21619473
_cell_formula_units_Z   2
loop_
 _symmetry_equiv_pos_site_id
 _symmetry_equiv_pos_as_xyz
  1  'x, y, z'
loop_
 _atom_site_type_symbol
 _atom_site_label
 _atom_site_symmetry_multiplicity
 _atom_site_fract_x
 _atom_site_fract_y
 _atom_site_fract_z
 _atom_site_occupancy
  I  I0  1  0.03321298  0.18265996  0.19928728  1
  I  I1  1  0.96678702  0.81734004  0.80071272  1
  N  N2  1  0.42276644  0.61166256  0.33279205  1
  N  N3  1  0.88181277  0.71147146  0.48631951  1
  N  N4  1  0.57723356  0.38833744  0.66720795  1
  N  N5  1  0.11818723  0.28852854  0.51368049  1
  O  O6  1  0.06312196  0.82599429  0.47342459  1
  O  O7  1  0.93687804  0.17400571  0.52657541  1
  O  O8  1  0.53106078  0.33853053  0.78830748  1
  O  O9  1  0.46893922  0.66146947  0.21169252  1
  O  O10  1  0.86562498  0.64573632  0.38963390  1
  O  O11  1  0.13437502  0.35426368  0.61036610  1
  O  O12  1  0.70712712  0.65980602  0.60346198  1
  O  O13  1  0.29287288  0.34019398  0.39653802  1
  F  F14  1  0.89472610  0.24887479  0.02464557  1
  F  F15  1  0.67528569  0.65318633  0.91883185  1
  F  F16  1  0.84157448  0.38313180  0.21601813  1
  F  F17  1  0.30808543  0.95949497  0.73160590  1
  F  F18  1  0.18961856  0.00525284  0.12803356  1
  F  F19  1  0.69191457  0.04050503  0.26839410  1
  F  F20  1  0.81038144  0.99474716  0.87196644  1
  F  F21  1  0.32471431  0.34681367  0.08116815  1
  F  F22  1  0.10527390  0.75112521  0.97535443  1
  F  F23  1  0.15842552  0.61686820  0.78398187  1
