# generated using pymatgen
data_K3Hg3S2Br5O6
_symmetry_space_group_name_H-M   'P 1'
_cell_length_a   6.31507417
_cell_length_b   12.91027969
_cell_length_c   23.01724249
_cell_angle_alpha   90.00000000
_cell_angle_beta   90.00000000
_cell_angle_gamma   90.00000000
_symmetry_Int_Tables_number   1
_chemical_formula_structural   K3Hg3S2Br5O6
_chemical_formula_sum   'K12 Hg12 S8 Br20 O24'
_cell_volume   1876.58136676
_cell_formula_units_Z   4
loop_
 _symmetry_equiv_pos_site_id
 _symmetry_equiv_pos_as_xyz
  1  'x, y, z'
loop_
 _atom_site_type_symbol
 _atom_site_label
 _atom_site_symmetry_multiplicity
 _atom_site_fract_x
 _atom_site_fract_y
 _atom_site_fract_z
 _atom_site_occupancy
  K  K0  1  0.75000000  0.63235477  0.88246497  1
  K  K1  1  0.25000000  0.12673155  0.99513020  1
  K  K2  1  0.25000000  0.37326845  0.49513020  1
  K  K3  1  0.75000000  0.13362263  0.49017062  1
  K  K4  1  0.25000000  0.86637737  0.50982938  1
  K  K5  1  0.25000000  0.63362263  0.00982938  1
  K  K6  1  0.25000000  0.36764523  0.11753503  1
  K  K7  1  0.75000000  0.62673155  0.50486980  1
  K  K8  1  0.75000000  0.86764523  0.38246497  1
  K  K9  1  0.75000000  0.36637737  0.99017062  1
  K  K10  1  0.25000000  0.13235477  0.61753503  1
  K  K11  1  0.75000000  0.87326845  0.00486980  1
  Hg  Hg12  1  0.75000000  0.85387938  0.68160648  1
  Hg  Hg13  1  0.25000000  0.62061113  0.68967349  1
  Hg  Hg14  1  0.25000000  0.62072632  0.30979845  1
  Hg  Hg15  1  0.25000000  0.87938887  0.18967349  1
  Hg  Hg16  1  0.75000000  0.12061113  0.81032651  1
  Hg  Hg17  1  0.75000000  0.64612062  0.18160648  1
  Hg  Hg18  1  0.25000000  0.87927368  0.80979845  1
  Hg  Hg19  1  0.75000000  0.37927368  0.69020155  1
  Hg  Hg20  1  0.75000000  0.12072632  0.19020155  1
  Hg  Hg21  1  0.25000000  0.35387938  0.81839352  1
  Hg  Hg22  1  0.75000000  0.37938887  0.31032651  1
  Hg  Hg23  1  0.25000000  0.14612062  0.31839352  1
  S  S24  1  0.25000000  0.42104373  0.92018644  1
  S  S25  1  0.25000000  0.07895627  0.42018644  1
  S  S26  1  0.75000000  0.15948039  0.08500231  1
  S  S27  1  0.25000000  0.65948039  0.41499769  1
  S  S28  1  0.75000000  0.57895627  0.07981356  1
  S  S29  1  0.75000000  0.34051961  0.58500231  1
  S  S30  1  0.25000000  0.84051961  0.91499769  1
  S  S31  1  0.75000000  0.92104373  0.57981356  1
  Br  Br32  1  0.25000000  0.12879478  0.81368050  1
  Br  Br33  1  0.75000000  0.12429079  0.70082106  1
  Br  Br34  1  0.25000000  0.87741162  0.08048219  1
  Br  Br35  1  0.75000000  0.11260665  0.30358243  1
  Br  Br36  1  0.25000000  0.13392814  0.20277978  1
  Br  Br37  1  0.75000000  0.62879478  0.68631950  1
  Br  Br38  1  0.25000000  0.62429079  0.79917894  1
  Br  Br39  1  0.75000000  0.37741162  0.41951781  1
  Br  Br40  1  0.75000000  0.63392814  0.29722022  1
  Br  Br41  1  0.25000000  0.36607186  0.70277978  1
  Br  Br42  1  0.25000000  0.37120522  0.31368050  1
  Br  Br43  1  0.75000000  0.87120522  0.18631950  1
  Br  Br44  1  0.25000000  0.61260665  0.19641757  1
  Br  Br45  1  0.25000000  0.87570921  0.29917894  1
  Br  Br46  1  0.25000000  0.88739335  0.69641757  1
  Br  Br47  1  0.75000000  0.37570921  0.20082106  1
  Br  Br48  1  0.75000000  0.38739335  0.80358243  1
  Br  Br49  1  0.75000000  0.12258838  0.91951781  1
  Br  Br50  1  0.75000000  0.86607186  0.79722022  1
  Br  Br51  1  0.25000000  0.62258838  0.58048219  1
  O  O52  1  0.75000000  0.66810291  0.03880362  1
  O  O53  1  0.05572062  0.72138055  0.42756743  1
  O  O54  1  0.94472041  0.98518348  0.57233973  1
  O  O55  1  0.05527959  0.48518348  0.92766027  1
  O  O56  1  0.55572062  0.22138055  0.07243257  1
  O  O57  1  0.94427938  0.22138055  0.07243257  1
  O  O58  1  0.75000000  0.44003830  0.55354132  1
  O  O59  1  0.25000000  0.55996170  0.44645868  1
  O  O60  1  0.05572062  0.77861945  0.92756743  1
  O  O61  1  0.44472041  0.01481652  0.42766027  1
  O  O62  1  0.05527959  0.01481652  0.42766027  1
  O  O63  1  0.25000000  0.94003830  0.94645868  1
  O  O64  1  0.94472041  0.51481652  0.07233973  1
  O  O65  1  0.75000000  0.05996170  0.05354132  1
  O  O66  1  0.75000000  0.83189709  0.53880362  1
  O  O67  1  0.55572062  0.27861945  0.57243257  1
  O  O68  1  0.44427938  0.77861945  0.92756743  1
  O  O69  1  0.25000000  0.33189709  0.96119638  1
  O  O70  1  0.25000000  0.16810291  0.46119638  1
  O  O71  1  0.44427938  0.72138055  0.42756743  1
  O  O72  1  0.94427938  0.27861945  0.57243257  1
  O  O73  1  0.44472041  0.48518348  0.92766027  1
  O  O74  1  0.55527959  0.98518348  0.57233973  1
  O  O75  1  0.55527959  0.51481652  0.07233973  1
