# generated using pymatgen
data_Tl4CrI6
_symmetry_space_group_name_H-M   'P 1'
_cell_length_a   9.32967072
_cell_length_b   9.32967072
_cell_length_c   9.94190389
_cell_angle_alpha   90.00000000
_cell_angle_beta   90.00000000
_cell_angle_gamma   90.00000000
_symmetry_Int_Tables_number   1
_chemical_formula_structural   Tl4CrI6
_chemical_formula_sum   'Tl8 Cr2 I12'
_cell_volume   865.37071192
_cell_formula_units_Z   2
loop_
 _symmetry_equiv_pos_site_id
 _symmetry_equiv_pos_as_xyz
  1  'x, y, z'
loop_
 _atom_site_type_symbol
 _atom_site_label
 _atom_site_symmetry_multiplicity
 _atom_site_fract_x
 _atom_site_fract_y
 _atom_site_fract_z
 _atom_site_occupancy
  Tl  Tl0  1  0.35128669  0.14871331  0.25000000  1
  Tl  Tl1  1  0.14871331  0.64871331  0.75000000  1
  Tl  Tl2  1  0.64871331  0.85128669  0.75000000  1
  Tl  Tl3  1  0.85128669  0.35128669  0.75000000  1
  Tl  Tl4  1  0.35128669  0.14871331  0.75000000  1
  Tl  Tl5  1  0.14871331  0.64871331  0.25000000  1
  Tl  Tl6  1  0.85128669  0.35128669  0.25000000  1
  Tl  Tl7  1  0.64871331  0.85128669  0.25000000  1
  Cr  Cr8  1  0.50000000  0.50000000  0.00000000  1
  Cr  Cr9  1  0.00000000  0.00000000  0.50000000  1
  I  I10  1  0.29358939  0.86432938  0.50000000  1
  I  I11  1  0.79358939  0.63567062  0.00000000  1
  I  I12  1  0.63567062  0.20641061  0.00000000  1
  I  I13  1  0.13567062  0.29358939  0.50000000  1
  I  I14  1  0.00000000  0.00000000  0.22411659  1
  I  I15  1  0.50000000  0.50000000  0.27588341  1
  I  I16  1  0.36432938  0.79358939  0.00000000  1
  I  I17  1  0.00000000  0.00000000  0.77588341  1
  I  I18  1  0.20641061  0.36432938  0.00000000  1
  I  I19  1  0.50000000  0.50000000  0.72411659  1
  I  I20  1  0.86432938  0.70641061  0.50000000  1
  I  I21  1  0.70641061  0.13567062  0.50000000  1
