# generated using pymatgen
data_SrMg4
_symmetry_space_group_name_H-M   'P 1'
_cell_length_a   10.46322067
_cell_length_b   10.46322066
_cell_length_c   27.91652218
_cell_angle_alpha   90.00000000
_cell_angle_beta   90.00000000
_cell_angle_gamma   120.00000007
_symmetry_Int_Tables_number   1
_chemical_formula_structural   SrMg4
_chemical_formula_sum   'Sr18 Mg72'
_cell_volume   2646.80967583
_cell_formula_units_Z   18
loop_
 _symmetry_equiv_pos_site_id
 _symmetry_equiv_pos_as_xyz
  1  'x, y, z'
loop_
 _atom_site_type_symbol
 _atom_site_label
 _atom_site_symmetry_multiplicity
 _atom_site_fract_x
 _atom_site_fract_y
 _atom_site_fract_z
 _atom_site_occupancy
  Sr  Sr0  1  0.13565897  0.86434103  0.06159656  1
  Sr  Sr1  1  0.86434103  0.13565897  0.93840344  1
  Sr  Sr2  1  0.94035275  0.47017637  0.25000000  1
  Sr  Sr3  1  0.13565897  0.27131794  0.06159656  1
  Sr  Sr4  1  0.47017637  0.52982363  0.75000000  1
  Sr  Sr5  1  0.86434103  0.72868206  0.93840344  1
  Sr  Sr6  1  0.86434103  0.72868206  0.56159656  1
  Sr  Sr7  1  0.52982363  0.47017637  0.25000000  1
  Sr  Sr8  1  0.72868206  0.86434103  0.06159656  1
  Sr  Sr9  1  0.13565897  0.27131794  0.43840344  1
  Sr  Sr10  1  0.27131794  0.13565897  0.93840344  1
  Sr  Sr11  1  0.72868206  0.86434103  0.43840344  1
  Sr  Sr12  1  0.13565897  0.86434103  0.43840344  1
  Sr  Sr13  1  0.52982363  0.05964725  0.25000000  1
  Sr  Sr14  1  0.86434103  0.13565897  0.56159656  1
  Sr  Sr15  1  0.27131794  0.13565897  0.56159656  1
  Sr  Sr16  1  0.47017637  0.94035275  0.75000000  1
  Sr  Sr17  1  0.05964725  0.52982363  0.75000000  1
  Mg  Mg18  1  0.00000000  0.00000000  0.34155114  1
  Mg  Mg19  1  0.83226681  0.66453362  0.34660818  1
  Mg  Mg20  1  0.23387269  0.76612731  0.94540243  1
  Mg  Mg21  1  0.83226681  0.66453362  0.15339182  1
  Mg  Mg22  1  0.64778804  0.82389402  0.18807753  1
  Mg  Mg23  1  0.33333300  0.66666700  0.85158459  1
  Mg  Mg24  1  0.66666700  0.33333300  0.35158459  1
  Mg  Mg25  1  0.17610598  0.82389402  0.18807753  1
  Mg  Mg26  1  0.00000000  0.00000000  0.65844886  1
  Mg  Mg27  1  0.83226681  0.16773319  0.34660818  1
  Mg  Mg28  1  0.76612731  0.23387269  0.44540243  1
  Mg  Mg29  1  0.51151828  0.48848172  0.88140372  1
  Mg  Mg30  1  0.53225462  0.76612731  0.55459757  1
  Mg  Mg31  1  0.82389402  0.17610598  0.68807753  1
  Mg  Mg32  1  0.76612731  0.53225462  0.05459757  1
  Mg  Mg33  1  0.16773319  0.33546638  0.65339182  1
  Mg  Mg34  1  0.16773319  0.33546638  0.84660818  1
  Mg  Mg35  1  0.33546638  0.16773319  0.15339182  1
  Mg  Mg36  1  0.02303656  0.51151828  0.38140372  1
  Mg  Mg37  1  0.17610598  0.35221196  0.31192247  1
  Mg  Mg38  1  0.53225462  0.76612731  0.94540243  1
  Mg  Mg39  1  0.33333300  0.66666700  0.64841541  1
  Mg  Mg40  1  0.33333300  0.66666700  0.04596651  1
  Mg  Mg41  1  0.00000000  0.00000000  0.84155114  1
  Mg  Mg42  1  0.50000000  0.00000000  0.50000000  1
  Mg  Mg43  1  0.90100506  0.80201012  0.25000000  1
  Mg  Mg44  1  0.33546638  0.16773319  0.34660818  1
  Mg  Mg45  1  0.51151828  0.02303656  0.61859628  1
  Mg  Mg46  1  0.76612731  0.53225462  0.44540243  1
  Mg  Mg47  1  0.51151828  0.48848172  0.61859628  1
  Mg  Mg48  1  0.23387269  0.76612731  0.55459757  1
  Mg  Mg49  1  0.66666700  0.33333300  0.14841541  1
  Mg  Mg50  1  0.76612731  0.23387269  0.05459757  1
  Mg  Mg51  1  0.23387269  0.46774538  0.94540243  1
  Mg  Mg52  1  0.35221196  0.17610598  0.68807753  1
  Mg  Mg53  1  0.00000000  0.00000000  0.15844886  1
  Mg  Mg54  1  0.00000000  0.50000000  0.50000000  1
  Mg  Mg55  1  0.80201012  0.90100506  0.75000000  1
  Mg  Mg56  1  0.66666700  0.33333300  0.95403349  1
  Mg  Mg57  1  0.97696344  0.48848172  0.88140372  1
  Mg  Mg58  1  0.46774538  0.23387269  0.05459757  1
  Mg  Mg59  1  0.97696344  0.48848172  0.61859628  1
  Mg  Mg60  1  0.48848172  0.97696344  0.38140372  1
  Mg  Mg61  1  0.16773319  0.83226681  0.84660818  1
  Mg  Mg62  1  0.48848172  0.51151828  0.11859628  1
  Mg  Mg63  1  0.82389402  0.17610598  0.81192247  1
  Mg  Mg64  1  0.82389402  0.64778804  0.68807753  1
  Mg  Mg65  1  0.17610598  0.35221196  0.18807753  1
  Mg  Mg66  1  0.50000000  0.50000000  0.50000000  1
  Mg  Mg67  1  0.66453362  0.83226681  0.84660818  1
  Mg  Mg68  1  0.48848172  0.97696344  0.11859628  1
  Mg  Mg69  1  0.00000000  0.50000000  0.00000000  1
  Mg  Mg70  1  0.50000000  0.50000000  0.00000000  1
  Mg  Mg71  1  0.09899494  0.90100506  0.75000000  1
  Mg  Mg72  1  0.33333300  0.66666700  0.45403349  1
  Mg  Mg73  1  0.66453362  0.83226681  0.65339182  1
  Mg  Mg74  1  0.19798988  0.09899494  0.25000000  1
  Mg  Mg75  1  0.90100506  0.09899494  0.25000000  1
  Mg  Mg76  1  0.02303656  0.51151828  0.11859628  1
  Mg  Mg77  1  0.82389402  0.64778804  0.81192247  1
  Mg  Mg78  1  0.16773319  0.83226681  0.65339182  1
  Mg  Mg79  1  0.83226681  0.16773319  0.15339182  1
  Mg  Mg80  1  0.64778804  0.82389402  0.31192247  1
  Mg  Mg81  1  0.50000000  0.00000000  0.00000000  1
  Mg  Mg82  1  0.09899494  0.19798988  0.75000000  1
  Mg  Mg83  1  0.51151828  0.02303656  0.88140372  1
  Mg  Mg84  1  0.17610598  0.82389402  0.31192247  1
  Mg  Mg85  1  0.66666700  0.33333300  0.54596651  1
  Mg  Mg86  1  0.46774538  0.23387269  0.44540243  1
  Mg  Mg87  1  0.48848172  0.51151828  0.38140372  1
  Mg  Mg88  1  0.35221196  0.17610598  0.81192247  1
  Mg  Mg89  1  0.23387269  0.46774538  0.55459757  1
