# generated using pymatgen
data_Sn3WO6
_symmetry_space_group_name_H-M   'P 1'
_cell_length_a   7.78587412
_cell_length_b   7.78304180
_cell_length_c   13.75646393
_cell_angle_alpha   95.10037239
_cell_angle_beta   103.10203492
_cell_angle_gamma   116.14525784
_symmetry_Int_Tables_number   1
_chemical_formula_structural   Sn3WO6
_chemical_formula_sum   'Sn12 W4 O24'
_cell_volume   711.64174223
_cell_formula_units_Z   4
loop_
 _symmetry_equiv_pos_site_id
 _symmetry_equiv_pos_as_xyz
  1  'x, y, z'
loop_
 _atom_site_type_symbol
 _atom_site_label
 _atom_site_symmetry_multiplicity
 _atom_site_fract_x
 _atom_site_fract_y
 _atom_site_fract_z
 _atom_site_occupancy
  Sn  Sn0  1  0.87420189  0.32032778  0.88473161  1
  Sn  Sn1  1  0.40955833  0.95521663  0.61427095  1
  Sn  Sn2  1  0.12579811  0.67967222  0.11526839  1
  Sn  Sn3  1  0.93453567  0.98876360  0.61506165  1
  Sn  Sn4  1  0.65369343  0.59394143  0.37796486  1
  Sn  Sn5  1  0.06546433  0.01123640  0.38493835  1
  Sn  Sn6  1  0.28443913  0.72499688  0.87806799  1
  Sn  Sn7  1  0.59044167  0.04478337  0.38572905  1
  Sn  Sn8  1  0.84171308  0.79615352  0.88578234  1
  Sn  Sn9  1  0.15828692  0.20384648  0.11421766  1
  Sn  Sn10  1  0.71556087  0.27500312  0.12193201  1
  Sn  Sn11  1  0.34630657  0.40605857  0.62203514  1
  W  W12  1  0.35517443  0.29278108  0.91108811  1
  W  W13  1  0.88143590  0.44385817  0.58892046  1
  W  W14  1  0.64482557  0.70721892  0.08891189  1
  W  W15  1  0.11856410  0.55614183  0.41107954  1
  O  O16  1  0.26045920  0.42421285  0.46571963  1
  O  O17  1  0.71165533  0.82580100  0.21999578  1
  O  O18  1  0.14188339  0.10289403  0.95650967  1
  O  O19  1  0.73954080  0.57578715  0.53428037  1
  O  O20  1  0.10619157  0.49202635  0.27996795  1
  O  O21  1  0.01695584  0.64874119  0.94165599  1
  O  O22  1  0.13396291  0.64424579  0.57684096  1
  O  O23  1  0.45879627  0.79500463  0.03422301  1
  O  O24  1  0.96198691  0.70517274  0.38204740  1
  O  O25  1  0.89380843  0.50797365  0.72003205  1
  O  O26  1  0.85811661  0.89710597  0.04349033  1
  O  O27  1  0.20668362  0.07493817  0.55836599  1
  O  O28  1  0.03801309  0.29482726  0.61795260  1
  O  O29  1  0.98304416  0.35125881  0.05834401  1
  O  O30  1  0.28834467  0.17419900  0.78000422  1
  O  O31  1  0.17732633  0.42058826  0.88205450  1
  O  O32  1  0.86603709  0.35575421  0.42315904  1
  O  O33  1  0.56765200  0.55721730  0.92312879  1
  O  O34  1  0.82267367  0.57941174  0.11794550  1
  O  O35  1  0.54120373  0.20499537  0.96577699  1
  O  O36  1  0.35367936  0.81461452  0.45648213  1
  O  O37  1  0.64632064  0.18538548  0.54351787  1
  O  O38  1  0.43234800  0.44278270  0.07687121  1
  O  O39  1  0.79331638  0.92506183  0.44163401  1
