# generated using pymatgen
data_Bi5(PO4)6
_symmetry_space_group_name_H-M   'P 1'
_cell_length_a   9.05002580
_cell_length_b   8.94290286
_cell_length_c   8.96373590
_cell_angle_alpha   108.73757482
_cell_angle_beta   109.41615858
_cell_angle_gamma   110.59220075
_symmetry_Int_Tables_number   1
_chemical_formula_structural   Bi5(PO4)6
_chemical_formula_sum   'Bi5 P6 O24'
_cell_volume   556.05057290
_cell_formula_units_Z   1
loop_
 _symmetry_equiv_pos_site_id
 _symmetry_equiv_pos_as_xyz
  1  'x, y, z'
loop_
 _atom_site_type_symbol
 _atom_site_label
 _atom_site_symmetry_multiplicity
 _atom_site_fract_x
 _atom_site_fract_y
 _atom_site_fract_z
 _atom_site_occupancy
  Bi  Bi0  1  0.49680316  0.97699680  0.33898097  1
  Bi  Bi1  1  0.82821257  0.52668308  0.99845910  1
  Bi  Bi2  1  0.02918093  0.35724299  0.52951781  1
  Bi  Bi3  1  0.47608219  0.98331449  0.82222527  1
  Bi  Bi4  1  0.16487381  0.16544407  0.16099585  1
  P  P5  1  0.13450508  0.74392640  0.88146480  1
  P  P6  1  0.74874517  0.89471123  0.12497839  1
  P  P7  1  0.87113657  0.12553225  0.75157324  1
  P  P8  1  0.37702661  0.24733556  0.61856160  1
  P  P9  1  0.23976177  0.62124157  0.35810619  1
  P  P10  1  0.62344317  0.36426785  0.24408093  1
  O  O11  1  0.06302405  0.62865432  0.30443965  1
  O  O12  1  0.27731420  0.91012961  0.08401684  1
  O  O13  1  0.35078265  0.08000978  0.64553693  1
  O  O14  1  0.38348020  0.75380230  0.56379154  1
  O  O15  1  0.16059224  0.57643347  0.83658862  1
  O  O16  1  0.66069367  0.23440864  0.31136306  1
  O  O17  1  0.84686761  0.93338949  0.69548528  1
  O  O18  1  0.92676779  0.09089171  0.26097781  1
  O  O19  1  0.94472571  0.68957355  0.86465526  1
  O  O20  1  0.72828608  0.15197868  0.79769960  1
  O  O21  1  0.85370349  0.17329233  0.59555916  1
  O  O22  1  0.67252272  0.87243177  0.93352694  1
  O  O23  1  0.65195222  0.32714500  0.07469159  1
  O  O24  1  0.06591119  0.24607223  0.92124915  1
  O  O25  1  0.81057929  0.75614319  0.13988265  1
  O  O26  1  0.42755469  0.32903355  0.18080185  1
  O  O27  1  0.34551441  0.18343798  0.41951458  1
  O  O28  1  0.18991119  0.42290347  0.33320558  1
  O  O29  1  0.60271979  0.86568730  0.18169511  1
  O  O30  1  0.23918804  0.30185371  0.64256491  1
  O  O31  1  0.75364888  0.56618537  0.39839767  1
  O  O32  1  0.16559305  0.82485028  0.75821791  1
  O  O33  1  0.57121842  0.41536494  0.75088977  1
  O  O34  1  0.32526039  0.66701604  0.24497738  1
