# generated using pymatgen
data_Sb2MoO6
_symmetry_space_group_name_H-M   'P 1'
_cell_length_a   10.27486160
_cell_length_b   11.42338615
_cell_length_c   18.46753273
_cell_angle_alpha   95.95584602
_cell_angle_beta   90.25218284
_cell_angle_gamma   90.25678776
_symmetry_Int_Tables_number   1
_chemical_formula_structural   Sb2MoO6
_chemical_formula_sum   'Sb32 Mo16 O96'
_cell_volume   2155.85501536
_cell_formula_units_Z   16
loop_
 _symmetry_equiv_pos_site_id
 _symmetry_equiv_pos_as_xyz
  1  'x, y, z'
loop_
 _atom_site_type_symbol
 _atom_site_label
 _atom_site_symmetry_multiplicity
 _atom_site_fract_x
 _atom_site_fract_y
 _atom_site_fract_z
 _atom_site_occupancy
  Sb  Sb0  1  0.96569142  0.92772593  0.33675481  1
  Sb  Sb1  1  0.02716782  0.06539902  0.16828815  1
  Sb  Sb2  1  0.72776013  0.31980900  0.16910658  1
  Sb  Sb3  1  0.71232263  0.32051927  0.66440138  1
  Sb  Sb4  1  0.47211508  0.93477560  0.33148719  1
  Sb  Sb5  1  0.03379912  0.57238818  0.16297519  1
  Sb  Sb6  1  0.22760884  0.81984265  0.16923962  1
  Sb  Sb7  1  0.46609534  0.92764533  0.83711161  1
  Sb  Sb8  1  0.02779540  0.56530674  0.66851981  1
  Sb  Sb9  1  0.52729879  0.56535437  0.16829046  1
  Sb  Sb10  1  0.96620088  0.42761182  0.83702481  1
  Sb  Sb11  1  0.21192961  0.32030919  0.16463154  1
  Sb  Sb12  1  0.97220460  0.43469326  0.33148019  1
  Sb  Sb13  1  0.46581346  0.42750424  0.33673179  1
  Sb  Sb14  1  0.27168700  0.18006655  0.33100867  1
  Sb  Sb15  1  0.78807039  0.67969081  0.83536846  1
  Sb  Sb16  1  0.97283218  0.93460098  0.83171185  1
  Sb  Sb17  1  0.72831300  0.81993345  0.66899133  1
  Sb  Sb18  1  0.03430858  0.07227407  0.66324519  1
  Sb  Sb19  1  0.21262934  0.82038877  0.66447129  1
  Sb  Sb20  1  0.77177083  0.68004835  0.33108967  1
  Sb  Sb21  1  0.53418654  0.57249576  0.66326821  1
  Sb  Sb22  1  0.78737066  0.17961123  0.33552871  1
  Sb  Sb23  1  0.28767737  0.67948073  0.33559862  1
  Sb  Sb24  1  0.52788492  0.06522440  0.66851281  1
  Sb  Sb25  1  0.71212240  0.82032025  0.16472411  1
  Sb  Sb26  1  0.77239116  0.18015735  0.83076038  1
  Sb  Sb27  1  0.28787760  0.17967975  0.83527589  1
  Sb  Sb28  1  0.53390466  0.07235467  0.16288839  1
  Sb  Sb29  1  0.47270121  0.43464563  0.83170954  1
  Sb  Sb30  1  0.22822917  0.31995165  0.66891033  1
  Sb  Sb31  1  0.27223987  0.68019100  0.83089342  1
  Mo  Mo32  1  0.25269387  0.97717883  0.00095215  1
  Mo  Mo33  1  0.97656448  0.75654553  0.00708981  1
  Mo  Mo34  1  0.75263573  0.47713466  0.00082924  1
  Mo  Mo35  1  0.97655178  0.25649319  0.50707710  1
  Mo  Mo36  1  0.02344822  0.74350681  0.49292290  1
  Mo  Mo37  1  0.47655793  0.25653759  0.00703886  1
  Mo  Mo38  1  0.47667854  0.75649779  0.50708518  1
  Mo  Mo39  1  0.74741491  0.52289125  0.49921908  1
  Mo  Mo40  1  0.25258509  0.47710875  0.50078092  1
  Mo  Mo41  1  0.52344207  0.74346241  0.99296114  1
  Mo  Mo42  1  0.74730613  0.02282117  0.99904785  1
  Mo  Mo43  1  0.75269827  0.97714332  0.50083000  1
  Mo  Mo44  1  0.02343552  0.24345447  0.99291019  1
  Mo  Mo45  1  0.52332146  0.24350221  0.49291482  1
  Mo  Mo46  1  0.24736427  0.52286534  0.99917076  1
  Mo  Mo47  1  0.24730173  0.02285668  0.49917000  1
  O  O48  1  0.92263261  0.24719556  0.90585557  1
  O  O49  1  0.34802998  0.81740422  0.27849758  1
  O  O50  1  0.82036750  0.50203936  0.90525360  1
  O  O51  1  0.43911753  0.74443781  0.40505132  1
  O  O52  1  0.33461818  0.82130122  0.78112137  1
  O  O53  1  0.85721404  0.14133735  0.02902943  1
  O  O54  1  0.10932027  0.10848524  0.96820282  1
  O  O55  1  0.15091804  0.18265061  0.22166302  1
  O  O56  1  0.41276040  0.06674233  0.78042524  1
  O  O57  1  0.59689940  0.92891520  0.72103442  1
  O  O58  1  0.60935549  0.10852750  0.46830274  1
  O  O59  1  0.11129750  0.10483844  0.47117246  1
  O  O60  1  0.83372454  0.82130594  0.28123913  1
  O  O61  1  0.42237984  0.24672358  0.40583868  1
  O  O62  1  0.67956873  0.49780421  0.59473344  1
  O  O63  1  0.36103773  0.64754787  0.52949227  1
  O  O64  1  0.65120611  0.68252427  0.22162142  1
  O  O65  1  0.89067973  0.89151476  0.03179718  1
  O  O66  1  0.57762016  0.75327642  0.59416132  1
  O  O67  1  0.09666605  0.42881863  0.72093013  1
  O  O68  1  0.39073551  0.39151414  0.03187817  1
  O  O69  1  0.41214841  0.56666396  0.28027248  1
  O  O70  1  0.08815668  0.93326531  0.71974469  1
  O  O71  1  0.91184332  0.06673469  0.28025531  1
  O  O72  1  0.86074683  0.64758718  0.02934965  1
  O  O73  1  0.90439558  0.07122991  0.77915388  1
  O  O74  1  0.89053248  0.39145759  0.53177354  1
  O  O75  1  0.91282574  0.56676675  0.78039721  1
  O  O76  1  0.06116450  0.75558978  0.59492054  1
  O  O77  1  0.61150398  0.60498607  0.47119347  1
  O  O78  1  0.16518960  0.67874715  0.21899350  1
  O  O79  1  0.40310060  0.07108480  0.27896558  1
  O  O80  1  0.67966044  0.99797840  0.09463417  1
  O  O81  1  0.14258866  0.35873430  0.47065470  1
  O  O82  1  0.57764525  0.25273607  0.09399630  1
  O  O83  1  0.38849602  0.39501393  0.52880653  1
  O  O84  1  0.83481040  0.32125285  0.78100650  1
  O  O85  1  0.11139701  0.60476848  0.97108934  1
  O  O86  1  0.63896227  0.35245213  0.47050773  1
  O  O87  1  0.40426120  0.57134962  0.77925455  1
  O  O88  1  0.08717426  0.43323325  0.21960279  1
  O  O89  1  0.60926449  0.60848586  0.96812183  1
  O  O90  1  0.84908196  0.81734939  0.77833698  1
  O  O91  1  0.93883550  0.24441022  0.40507946  1
  O  O92  1  0.81850550  0.98666924  0.90562905  1
  O  O93  1  0.17963250  0.49796064  0.09474640  1
  O  O94  1  0.15203929  0.68252450  0.72150784  1
  O  O95  1  0.32043127  0.50219579  0.40526656  1
  O  O96  1  0.65197002  0.18259578  0.72150242  1
  O  O97  1  0.64268676  0.35867162  0.97078440  1
  O  O98  1  0.13925317  0.35241282  0.97065035  1
  O  O99  1  0.32033956  0.00202160  0.90536583  1
  O  O100  1  0.09560442  0.92877009  0.22084612  1
  O  O101  1  0.82027856  0.00232738  0.40530187  1
  O  O102  1  0.42235475  0.74726393  0.90600370  1
  O  O103  1  0.17972144  0.99767262  0.59469813  1
  O  O104  1  0.93933723  0.74461186  0.90503896  1
  O  O105  1  0.56088247  0.25556219  0.59494868  1
  O  O106  1  0.13908986  0.85241692  0.47044255  1
  O  O107  1  0.63918159  0.85239035  0.97056588  1
  O  O108  1  0.34879389  0.31747573  0.77837858  1
  O  O109  1  0.88860299  0.39523152  0.02891066  1
  O  O110  1  0.64276648  0.85868759  0.47074365  1
  O  O111  1  0.58723960  0.93325767  0.21957476  1
  O  O112  1  0.07736739  0.75280444  0.09414443  1
  O  O113  1  0.39064451  0.89147250  0.53169726  1
  O  O114  1  0.16627546  0.17869406  0.71876087  1
  O  O115  1  0.38870893  0.89532827  0.02908335  1
  O  O116  1  0.35723352  0.14131241  0.52925635  1
  O  O117  1  0.31821425  0.98698184  0.40567666  1
  O  O118  1  0.56096068  0.75536501  0.09494513  1
  O  O119  1  0.18169200  0.51301560  0.59426520  1
  O  O120  1  0.43903932  0.24463499  0.90505487  1
  O  O121  1  0.66619034  0.67876004  0.71884906  1
  O  O122  1  0.85741134  0.64126570  0.52934530  1
  O  O123  1  0.33380966  0.32123996  0.28115094  1
  O  O124  1  0.81830800  0.48698440  0.40573480  1
  O  O125  1  0.14278596  0.85866265  0.97097057  1
  O  O126  1  0.61129107  0.10467173  0.97091665  1
  O  O127  1  0.35731324  0.64132838  0.02921560  1
  O  O128  1  0.07768515  0.25323910  0.59406606  1
  O  O129  1  0.59573880  0.42865038  0.22074545  1
  O  O130  1  0.36081841  0.14760965  0.02943412  1
  O  O131  1  0.10946752  0.60854241  0.46822646  1
  O  O132  1  0.90333395  0.57118137  0.27906987  1
  O  O133  1  0.66538182  0.17869878  0.21887863  1
  O  O134  1  0.06066277  0.25538814  0.09496104  1
  O  O135  1  0.68178575  0.01301816  0.59432334  1
  O  O136  1  0.68148875  0.51318440  0.09426216  1
  O  O137  1  0.86091014  0.14758308  0.52955745  1
  O  O138  1  0.58785159  0.43333604  0.71972752  1
  O  O139  1  0.18149450  0.01333076  0.09437095  1
  O  O140  1  0.92231485  0.74676090  0.40593394  1
  O  O141  1  0.88870250  0.89516156  0.52882754  1
  O  O142  1  0.31851125  0.48681560  0.90573784  1
  O  O143  1  0.84796071  0.31747550  0.27849216  1
