# generated using pymatgen
data_K2NiH12(C2O7)2
_symmetry_space_group_name_H-M   'P 1'
_cell_length_a   6.83107284
_cell_length_b   8.71140094
_cell_length_c   12.10614649
_cell_angle_alpha   102.16164457
_cell_angle_beta   90.00000000
_cell_angle_gamma   90.00000000
_symmetry_Int_Tables_number   1
_chemical_formula_structural   K2NiH12(C2O7)2
_chemical_formula_sum   'K4 Ni2 H24 C8 O28'
_cell_volume   704.24698540
_cell_formula_units_Z   2
loop_
 _symmetry_equiv_pos_site_id
 _symmetry_equiv_pos_as_xyz
  1  'x, y, z'
loop_
 _atom_site_type_symbol
 _atom_site_label
 _atom_site_symmetry_multiplicity
 _atom_site_fract_x
 _atom_site_fract_y
 _atom_site_fract_z
 _atom_site_occupancy
  K  K0  1  0.65499650  0.55907920  0.87918761  1
  K  K1  1  0.15499650  0.94092080  0.62081239  1
  K  K2  1  0.84500350  0.05907920  0.37918761  1
  K  K3  1  0.34500350  0.44092080  0.12081239  1
  Ni  Ni4  1  0.00000000  0.00000000  0.00000000  1
  Ni  Ni5  1  0.50000000  0.50000000  0.50000000  1
  H  H6  1  0.91448903  0.39849964  0.34318338  1
  H  H7  1  0.28454725  0.09281797  0.88221752  1
  H  H8  1  0.08848178  0.42255464  0.85196654  1
  H  H9  1  0.58551097  0.89849964  0.84318338  1
  H  H10  1  0.71545275  0.90718203  0.11778248  1
  H  H11  1  0.21545275  0.59281797  0.38221752  1
  H  H12  1  0.58848178  0.07744536  0.64803346  1
  H  H13  1  0.41151822  0.92255464  0.35196654  1
  H  H14  1  0.41448903  0.10150036  0.15681662  1
  H  H15  1  0.59020373  0.32637524  0.64854008  1
  H  H16  1  0.49113099  0.82040543  0.23510933  1
  H  H17  1  0.01342531  0.71042168  0.77094571  1
  H  H18  1  0.09020373  0.17362476  0.85145992  1
  H  H19  1  0.51342531  0.78957832  0.72905429  1
  H  H20  1  0.98657469  0.28957832  0.22905429  1
  H  H21  1  0.90979627  0.82637524  0.14854008  1
  H  H22  1  0.99113099  0.67959457  0.26489067  1
  H  H23  1  0.08551097  0.60150036  0.65681662  1
  H  H24  1  0.00886901  0.32040543  0.73510933  1
  H  H25  1  0.50886901  0.17959457  0.76489067  1
  H  H26  1  0.91151822  0.57744536  0.14803346  1
  H  H27  1  0.78454725  0.40718203  0.61778248  1
  H  H28  1  0.48657469  0.21042168  0.27094571  1
  H  H29  1  0.40979627  0.67362476  0.35145992  1
  C  C30  1  0.32000359  0.81643257  0.04439360  1
  C  C31  1  0.31157475  0.20239738  0.45834863  1
  C  C32  1  0.17999641  0.31643257  0.54439360  1
  C  C33  1  0.81157475  0.29760262  0.04165137  1
  C  C34  1  0.82000359  0.68356743  0.45560640  1
  C  C35  1  0.68842525  0.79760262  0.54165137  1
  C  C36  1  0.18842525  0.70239738  0.95834863  1
  C  C37  1  0.67999641  0.18356743  0.95560640  1
  O  O38  1  0.46637599  0.26266880  0.42530708  1
  O  O39  1  0.53362401  0.73733120  0.57469292  1
  O  O40  1  0.99482562  0.68807545  0.68844957  1
  O  O41  1  0.49703864  0.16477543  0.68176359  1
  O  O42  1  0.52795755  0.23668959  0.91772388  1
  O  O43  1  0.74003088  0.93885450  0.57116625  1
  O  O44  1  0.64552771  0.42874042  0.63565330  1
  O  O45  1  0.25996912  0.06114550  0.42883375  1
  O  O46  1  0.35447229  0.57125958  0.36434670  1
  O  O47  1  0.75996912  0.43885450  0.07116625  1
  O  O48  1  0.00296136  0.66477543  0.18176359  1
  O  O49  1  0.97204245  0.73668959  0.41772388  1
  O  O50  1  0.96637599  0.23733120  0.07469292  1
  O  O51  1  0.99703864  0.33522457  0.81823641  1
  O  O52  1  0.03362401  0.76266880  0.92530708  1
  O  O53  1  0.85447229  0.92874042  0.13565330  1
  O  O54  1  0.14552771  0.07125958  0.86434670  1
  O  O55  1  0.73933052  0.04157059  0.92814390  1
  O  O56  1  0.47204245  0.76331041  0.08227612  1
  O  O57  1  0.24003088  0.56114550  0.92883375  1
  O  O58  1  0.26066948  0.95842941  0.07185610  1
  O  O59  1  0.76066948  0.54157059  0.42814390  1
  O  O60  1  0.50517438  0.18807545  0.18844957  1
  O  O61  1  0.02795755  0.26331041  0.58227612  1
  O  O62  1  0.50296136  0.83522457  0.31823641  1
  O  O63  1  0.23933052  0.45842941  0.57185610  1
  O  O64  1  0.49482562  0.81192455  0.81155043  1
  O  O65  1  0.00517438  0.31192455  0.31155043  1
