# generated using pymatgen
data_CrHg3O5
_symmetry_space_group_name_H-M   'P 1'
_cell_length_a   9.63826764
_cell_length_b   10.68019488
_cell_length_c   11.81986523
_cell_angle_alpha   90.00000000
_cell_angle_beta   90.00000000
_cell_angle_gamma   90.00000000
_symmetry_Int_Tables_number   1
_chemical_formula_structural   CrHg3O5
_chemical_formula_sum   'Cr8 Hg24 O40'
_cell_volume   1216.72010357
_cell_formula_units_Z   8
loop_
 _symmetry_equiv_pos_site_id
 _symmetry_equiv_pos_as_xyz
  1  'x, y, z'
loop_
 _atom_site_type_symbol
 _atom_site_label
 _atom_site_symmetry_multiplicity
 _atom_site_fract_x
 _atom_site_fract_y
 _atom_site_fract_z
 _atom_site_occupancy
  Cr  Cr0  1  0.94747945  0.57878696  0.86366912  1
  Cr  Cr1  1  0.44838549  0.57923456  0.85643027  1
  Cr  Cr2  1  0.55161451  0.07923456  0.14356973  1
  Cr  Cr3  1  0.44838549  0.07923456  0.64356973  1
  Cr  Cr4  1  0.05252055  0.07878696  0.13633088  1
  Cr  Cr5  1  0.55161451  0.57923456  0.35643027  1
  Cr  Cr6  1  0.94747945  0.07878696  0.63633088  1
  Cr  Cr7  1  0.05252055  0.57878696  0.36366912  1
  Hg  Hg8  1  0.26470145  0.82888473  0.25236414  1
  Hg  Hg9  1  0.73529855  0.32888473  0.74763586  1
  Hg  Hg10  1  0.42539162  0.91083750  0.90610823  1
  Hg  Hg11  1  0.73529855  0.82888473  0.75236414  1
  Hg  Hg12  1  0.24517382  0.57848408  0.09037422  1
  Hg  Hg13  1  0.06819924  0.25988489  0.87854504  1
  Hg  Hg14  1  0.75482618  0.07848408  0.90962578  1
  Hg  Hg15  1  0.33898262  0.24762675  0.90256124  1
  Hg  Hg16  1  0.15532566  0.40266797  0.61453967  1
  Hg  Hg17  1  0.42539162  0.41083750  0.59389177  1
  Hg  Hg18  1  0.84467434  0.90266797  0.38546033  1
  Hg  Hg19  1  0.66101738  0.74762675  0.09743876  1
  Hg  Hg20  1  0.75482618  0.57848408  0.59037422  1
  Hg  Hg21  1  0.57460838  0.91083750  0.40610823  1
  Hg  Hg22  1  0.26470145  0.32888473  0.24763586  1
  Hg  Hg23  1  0.24517382  0.07848408  0.40962578  1
  Hg  Hg24  1  0.93180076  0.75988489  0.12145496  1
  Hg  Hg25  1  0.93180076  0.25988489  0.37854504  1
  Hg  Hg26  1  0.06819924  0.75988489  0.62145496  1
  Hg  Hg27  1  0.33898262  0.74762675  0.59743876  1
  Hg  Hg28  1  0.15532566  0.90266797  0.88546033  1
  Hg  Hg29  1  0.57460838  0.41083750  0.09389177  1
  Hg  Hg30  1  0.84467434  0.40266797  0.11453967  1
  Hg  Hg31  1  0.66101738  0.24762675  0.40256124  1
  O  O32  1  0.99854600  0.72970361  0.86029206  1
  O  O33  1  0.99482073  0.00492533  0.01849522  1
  O  O34  1  0.16368829  0.25844724  0.39089802  1
  O  O35  1  0.65784752  0.40257893  0.59660186  1
  O  O36  1  0.50117792  0.42792434  0.86254443  1
  O  O37  1  0.99482073  0.50492533  0.48150478  1
  O  O38  1  0.49882208  0.42792434  0.36254443  1
  O  O39  1  0.00517927  0.00492533  0.51849522  1
  O  O40  1  0.34215248  0.90257893  0.40339814  1
  O  O41  1  0.83631171  0.75844724  0.60910198  1
  O  O42  1  0.00145400  0.72970361  0.36029206  1
  O  O43  1  0.22248805  0.57823749  0.36625335  1
  O  O44  1  0.99854600  0.22970361  0.63970794  1
  O  O45  1  0.00517927  0.50492533  0.98150478  1
  O  O46  1  0.50117792  0.92792434  0.63745557  1
  O  O47  1  0.49363586  0.65045097  0.23855458  1
  O  O48  1  0.77751195  0.57823749  0.86625335  1
  O  O49  1  0.72066894  0.07974138  0.14774367  1
  O  O50  1  0.49882208  0.92792434  0.13745557  1
  O  O51  1  0.65784752  0.90257893  0.90339814  1
  O  O52  1  0.49465985  0.65865965  0.97533940  1
  O  O53  1  0.27933106  0.07974138  0.64774367  1
  O  O54  1  0.34215248  0.40257893  0.09660186  1
  O  O55  1  0.72066894  0.57974138  0.35225633  1
  O  O56  1  0.50534015  0.15865965  0.02466060  1
  O  O57  1  0.50636414  0.65045097  0.73855458  1
  O  O58  1  0.99497891  0.50095363  0.74592023  1
  O  O59  1  0.00502109  0.50095363  0.24592023  1
  O  O60  1  0.99497891  0.00095363  0.75407977  1
  O  O61  1  0.49363586  0.15045097  0.26144542  1
  O  O62  1  0.00502109  0.00095363  0.25407977  1
  O  O63  1  0.50534015  0.65865965  0.47533940  1
  O  O64  1  0.00145400  0.22970361  0.13970794  1
  O  O65  1  0.27933106  0.57974138  0.85225633  1
  O  O66  1  0.22248805  0.07823749  0.13374665  1
  O  O67  1  0.16368829  0.75844724  0.10910198  1
  O  O68  1  0.77751195  0.07823749  0.63374665  1
  O  O69  1  0.83631171  0.25844724  0.89089802  1
  O  O70  1  0.49465985  0.15865965  0.52466060  1
  O  O71  1  0.50636414  0.15045097  0.76144542  1
