# generated using pymatgen
data_V2Cu5(HO3)4
_symmetry_space_group_name_H-M   'P 1'
_cell_length_a   5.52096242
_cell_length_b   6.30386662
_cell_length_c   6.94612602
_cell_angle_alpha   86.43083437
_cell_angle_beta   90.57182055
_cell_angle_gamma   89.64545750
_symmetry_Int_Tables_number   1
_chemical_formula_structural   V2Cu5(HO3)4
_chemical_formula_sum   'V2 Cu5 H4 O12'
_cell_volume   241.26234286
_cell_formula_units_Z   1
loop_
 _symmetry_equiv_pos_site_id
 _symmetry_equiv_pos_as_xyz
  1  'x, y, z'
loop_
 _atom_site_type_symbol
 _atom_site_label
 _atom_site_symmetry_multiplicity
 _atom_site_fract_x
 _atom_site_fract_y
 _atom_site_fract_z
 _atom_site_occupancy
  V  V0  1  0.44267543  0.19125344  0.68615687  1
  V  V1  1  0.55732457  0.80874656  0.31384313  1
  Cu  Cu2  1  0.99644106  0.84679314  0.66177190  1
  Cu  Cu3  1  0.00000000  0.50000000  0.00000000  1
  Cu  Cu4  1  0.00355894  0.15320686  0.33822810  1
  Cu  Cu5  1  0.49661632  0.68306589  0.82175023  1
  Cu  Cu6  1  0.50338368  0.31693411  0.17824977  1
  H  H7  1  0.20927394  0.87851604  0.00926287  1
  H  H8  1  0.79868894  0.47375131  0.65519621  1
  H  H9  1  0.79072606  0.12148396  0.99073713  1
  H  H10  1  0.20131106  0.52624869  0.34480379  1
  O  O11  1  0.38825801  0.38699812  0.85094197  1
  O  O12  1  0.60647219  0.97891778  0.80437688  1
  O  O13  1  0.84938077  0.88346104  0.40522699  1
  O  O14  1  0.37531337  0.70475751  0.49099597  1
  O  O15  1  0.62468663  0.29524249  0.50900403  1
  O  O16  1  0.61174199  0.61300188  0.14905803  1
  O  O17  1  0.39352781  0.02108222  0.19562312  1
  O  O18  1  0.16845445  0.41745271  0.24930185  1
  O  O19  1  0.83422153  0.22851224  0.08480083  1
  O  O20  1  0.15061923  0.11653896  0.59477301  1
  O  O21  1  0.83154555  0.58254729  0.75069815  1
  O  O22  1  0.16577847  0.77148776  0.91519917  1
