# generated using pymatgen
data_H8C2BrN
_symmetry_space_group_name_H-M   'P 1'
_cell_length_a   4.71973179
_cell_length_b   6.28166898
_cell_length_c   8.52901332
_cell_angle_alpha   90.00000000
_cell_angle_beta   93.33707992
_cell_angle_gamma   90.00000000
_symmetry_Int_Tables_number   1
_chemical_formula_structural   H8C2BrN
_chemical_formula_sum   'H16 C4 Br2 N2'
_cell_volume   252.43764746
_cell_formula_units_Z   2
loop_
 _symmetry_equiv_pos_site_id
 _symmetry_equiv_pos_as_xyz
  1  'x, y, z'
loop_
 _atom_site_type_symbol
 _atom_site_label
 _atom_site_symmetry_multiplicity
 _atom_site_fract_x
 _atom_site_fract_y
 _atom_site_fract_z
 _atom_site_occupancy
  H  H0  1  0.17962107  0.89216143  0.72412642  1
  H  H1  1  0.24727078  0.38632014  0.13385259  1
  H  H2  1  0.82037893  0.39216143  0.27587358  1
  H  H3  1  0.03203832  0.25000000  0.53503120  1
  H  H4  1  0.01692795  0.75000000  0.96329353  1
  H  H5  1  0.70925100  0.60795274  0.56649153  1
  H  H6  1  0.70925100  0.89204726  0.56649153  1
  H  H7  1  0.82037893  0.10783857  0.27587358  1
  H  H8  1  0.75272922  0.88632014  0.86614741  1
  H  H9  1  0.75272922  0.61367986  0.86614741  1
  H  H10  1  0.29074900  0.39204726  0.43350847  1
  H  H11  1  0.96796168  0.75000000  0.46496880  1
  H  H12  1  0.17962107  0.60783857  0.72412642  1
  H  H13  1  0.98307205  0.25000000  0.03670647  1
  H  H14  1  0.29074900  0.10795274  0.43350847  1
  H  H15  1  0.24727078  0.11367986  0.13385259  1
  C  C16  1  0.04355929  0.75000000  0.71740199  1
  C  C17  1  0.95644071  0.25000000  0.28259801  1
  C  C18  1  0.15456197  0.25000000  0.42945830  1
  C  C19  1  0.84543803  0.75000000  0.57054170  1
  Br  Br20  1  0.61773369  0.25000000  0.84234663  1
  Br  Br21  1  0.38226631  0.75000000  0.15765337  1
  N  N22  1  0.87886215  0.75000000  0.86220849  1
  N  N23  1  0.12113785  0.25000000  0.13779151  1
