# generated using pymatgen
data_Ti4Cr3(PO4)6
_symmetry_space_group_name_H-M   'P 1'
_cell_length_a   6.45645917
_cell_length_b   8.15859362
_cell_length_c   9.55136627
_cell_angle_alpha   106.08724086
_cell_angle_beta   105.79867441
_cell_angle_gamma   102.71124092
_symmetry_Int_Tables_number   1
_chemical_formula_structural   Ti4Cr3(PO4)6
_chemical_formula_sum   'Ti4 Cr3 P6 O24'
_cell_volume   440.76486267
_cell_formula_units_Z   1
loop_
 _symmetry_equiv_pos_site_id
 _symmetry_equiv_pos_as_xyz
  1  'x, y, z'
loop_
 _atom_site_type_symbol
 _atom_site_label
 _atom_site_symmetry_multiplicity
 _atom_site_fract_x
 _atom_site_fract_y
 _atom_site_fract_z
 _atom_site_occupancy
  Ti  Ti0  1  0.03058479  0.19955673  0.01804494  1
  Ti  Ti1  1  0.39383869  0.95716027  0.60402541  1
  Ti  Ti2  1  0.96941521  0.80044327  0.98195506  1
  Ti  Ti3  1  0.60616131  0.04283973  0.39597459  1
  Cr  Cr4  1  0.27105258  0.30366324  0.77882620  1
  Cr  Cr5  1  0.72894742  0.69633676  0.22117380  1
  Cr  Cr6  1  0.00000000  0.50000000  0.50000000  1
  P  P7  1  0.41266928  0.74368072  0.87009482  1
  P  P8  1  0.78293997  0.35700693  0.73874634  1
  P  P9  1  0.90805937  0.89803810  0.66170173  1
  P  P10  1  0.09194063  0.10196190  0.33829827  1
  P  P11  1  0.21706003  0.64299307  0.26125366  1
  P  P12  1  0.58733072  0.25631928  0.12990518  1
  O  O13  1  0.30049092  0.54599061  0.75828508  1
  O  O14  1  0.26027062  0.79839530  0.96281230  1
  O  O15  1  0.18418489  0.44531914  0.18604660  1
  O  O16  1  0.12491634  0.29681270  0.42036120  1
  O  O17  1  0.35238958  0.22792386  0.00882648  1
  O  O18  1  0.07543191  0.05469059  0.16362249  1
  O  O19  1  0.97847559  0.30298725  0.83465672  1
  O  O20  1  0.29746152  0.04584026  0.41844581  1
  O  O21  1  0.64761042  0.77207614  0.99117352  1
  O  O22  1  0.70253848  0.95415974  0.58155419  1
  O  O23  1  0.21533311  0.69235964  0.43222311  1
  O  O24  1  0.69950908  0.45400939  0.24171492  1
  O  O25  1  0.02152441  0.69701275  0.16534328  1
  O  O26  1  0.44142972  0.85862329  0.76826547  1
  O  O27  1  0.92456809  0.94530941  0.83637751  1
  O  O28  1  0.78466689  0.30764036  0.56777689  1
  O  O29  1  0.81581511  0.55468086  0.81395340  1
  O  O30  1  0.12579042  0.02370218  0.65972721  1
  O  O31  1  0.54856434  0.23860993  0.73004062  1
  O  O32  1  0.87420958  0.97629782  0.34027279  1
  O  O33  1  0.87508366  0.70318730  0.57963880  1
  O  O34  1  0.73972938  0.20160470  0.03718770  1
  O  O35  1  0.45143566  0.76139007  0.26995938  1
  O  O36  1  0.55857028  0.14137671  0.23173453  1
