# generated using pymatgen
data_Fe11Mo6C5
_symmetry_space_group_name_H-M   'P 1'
_cell_length_a   6.56154584
_cell_length_b   6.69528195
_cell_length_c   6.69528169
_cell_angle_alpha   69.72524374
_cell_angle_beta   65.22047092
_cell_angle_gamma   65.22046574
_symmetry_Int_Tables_number   1
_chemical_formula_structural   Fe11Mo6C5
_chemical_formula_sum   'Fe11 Mo6 C5'
_cell_volume   237.19822014
_cell_formula_units_Z   1
loop_
 _symmetry_equiv_pos_site_id
 _symmetry_equiv_pos_as_xyz
  1  'x, y, z'
loop_
 _atom_site_type_symbol
 _atom_site_label
 _atom_site_symmetry_multiplicity
 _atom_site_fract_x
 _atom_site_fract_y
 _atom_site_fract_z
 _atom_site_occupancy
  Fe  Fe0  1  0.62661644  0.80793770  0.47646953  1
  Fe  Fe1  1  0.20503928  0.23674131  0.23674131  1
  Fe  Fe2  1  0.37338356  0.19206230  0.52353047  1
  Fe  Fe3  1  0.62661644  0.47646953  0.80793770  1
  Fe  Fe4  1  0.33657207  0.86463326  0.86463326  1
  Fe  Fe5  1  0.66342793  0.13536674  0.13536674  1
  Fe  Fe6  1  0.50000000  0.16494643  0.83505357  1
  Fe  Fe7  1  0.79496072  0.76325869  0.76325869  1
  Fe  Fe8  1  0.00000000  0.50000000  0.50000000  1
  Fe  Fe9  1  0.37338356  0.52353047  0.19206230  1
  Fe  Fe10  1  0.50000000  0.83505357  0.16494643  1
  Mo  Mo11  1  0.96049292  0.68626930  0.08251091  1
  Mo  Mo12  1  0.03950708  0.91748909  0.31373070  1
  Mo  Mo13  1  0.96049292  0.08251091  0.68626930  1
  Mo  Mo14  1  0.71540078  0.38025346  0.38025346  1
  Mo  Mo15  1  0.03950708  0.31373070  0.91748909  1
  Mo  Mo16  1  0.28459922  0.61974654  0.61974654  1
  C  C17  1  0.69333961  0.55929214  0.04257305  1
  C  C18  1  0.30666039  0.95742695  0.44070786  1
  C  C19  1  0.00000000  0.00000000  0.00000000  1
  C  C20  1  0.30666039  0.44070786  0.95742695  1
  C  C21  1  0.69333961  0.04257305  0.55929214  1
