# generated using pymatgen
data_SbH16C4N2Cl5
_symmetry_space_group_name_H-M   'P 1'
_cell_length_a   8.74704497
_cell_length_b   12.14475381
_cell_length_c   14.97061185
_cell_angle_alpha   90.00000000
_cell_angle_beta   90.00000000
_cell_angle_gamma   90.00000000
_symmetry_Int_Tables_number   1
_chemical_formula_structural   SbH16C4N2Cl5
_chemical_formula_sum   'Sb4 H64 C16 N8 Cl20'
_cell_volume   1590.33869191
_cell_formula_units_Z   4
loop_
 _symmetry_equiv_pos_site_id
 _symmetry_equiv_pos_as_xyz
  1  'x, y, z'
loop_
 _atom_site_type_symbol
 _atom_site_label
 _atom_site_symmetry_multiplicity
 _atom_site_fract_x
 _atom_site_fract_y
 _atom_site_fract_z
 _atom_site_occupancy
  Sb  Sb0  1  0.30359628  0.75000000  0.90412345  1
  Sb  Sb1  1  0.80359628  0.75000000  0.59587655  1
  Sb  Sb2  1  0.19640372  0.25000000  0.40412345  1
  Sb  Sb3  1  0.69640372  0.25000000  0.09587655  1
  H  H4  1  0.45675720  0.58899788  0.18389613  1
  H  H5  1  0.12626363  0.11868201  0.06760550  1
  H  H6  1  0.36564309  0.40712011  0.14541559  1
  H  H7  1  0.10060124  0.41532225  0.18300619  1
  H  H8  1  0.65746748  0.50382762  0.93941391  1
  H  H9  1  0.65746748  0.99617238  0.93941391  1
  H  H10  1  0.26762336  0.64046193  0.16422613  1
  H  H11  1  0.07443646  0.51890273  0.09794158  1
  H  H12  1  0.76762336  0.64046193  0.33577387  1
  H  H13  1  0.54324280  0.08899788  0.81610387  1
  H  H14  1  0.57443646  0.98109727  0.40205842  1
  H  H15  1  0.19917604  0.04477136  0.75431200  1
  H  H16  1  0.23237664  0.35953807  0.66422613  1
  H  H17  1  0.69917604  0.04477136  0.74568800  1
  H  H18  1  0.86564309  0.40712011  0.35458441  1
  H  H19  1  0.84253252  0.00382762  0.43941391  1
  H  H20  1  0.15746748  0.50382762  0.56058609  1
  H  H21  1  0.87373637  0.88131799  0.93239450  1
  H  H22  1  0.63435691  0.90712011  0.85458441  1
  H  H23  1  0.73237664  0.35953807  0.83577387  1
  H  H24  1  0.62626363  0.11868201  0.43239450  1
  H  H25  1  0.84253252  0.49617238  0.43941391  1
  H  H26  1  0.57443646  0.51890273  0.40205842  1
  H  H27  1  0.04324280  0.41100212  0.68389613  1
  H  H28  1  0.45675720  0.91100212  0.18389613  1
  H  H29  1  0.26762336  0.85953807  0.16422613  1
  H  H30  1  0.23237664  0.14046193  0.66422613  1
  H  H31  1  0.60060124  0.41532225  0.31699381  1
  H  H32  1  0.86564309  0.09287989  0.35458441  1
  H  H33  1  0.54324280  0.41100212  0.81610387  1
  H  H34  1  0.89939876  0.58467775  0.81699381  1
  H  H35  1  0.39939876  0.58467775  0.68300619  1
  H  H36  1  0.30082396  0.54477136  0.25431200  1
  H  H37  1  0.15746748  0.99617238  0.56058609  1
  H  H38  1  0.34253252  0.00382762  0.06058609  1
  H  H39  1  0.36564309  0.09287989  0.14541559  1
  H  H40  1  0.80082396  0.95522864  0.24568800  1
  H  H41  1  0.63435691  0.59287989  0.85458441  1
  H  H42  1  0.13435691  0.59287989  0.64541559  1
  H  H43  1  0.76762336  0.85953807  0.33577387  1
  H  H44  1  0.95675720  0.91100212  0.31610387  1
  H  H45  1  0.19917604  0.45522864  0.75431200  1
  H  H46  1  0.04324280  0.08899788  0.68389613  1
  H  H47  1  0.69917604  0.45522864  0.74568800  1
  H  H48  1  0.42556354  0.01890273  0.59794158  1
  H  H49  1  0.34253252  0.49617238  0.06058609  1
  H  H50  1  0.73237664  0.14046193  0.83577387  1
  H  H51  1  0.13435691  0.90712011  0.64541559  1
  H  H52  1  0.92556354  0.48109727  0.90205842  1
  H  H53  1  0.42556354  0.48109727  0.59794158  1
  H  H54  1  0.30082396  0.95522864  0.25431200  1
  H  H55  1  0.80082396  0.54477136  0.24568800  1
  H  H56  1  0.37373637  0.61868201  0.56760550  1
  H  H57  1  0.95675720  0.58899788  0.31610387  1
  H  H58  1  0.10060124  0.08467775  0.18300619  1
  H  H59  1  0.07443646  0.98109727  0.09794158  1
  H  H60  1  0.92556354  0.01890273  0.90205842  1
  H  H61  1  0.39939876  0.91532225  0.68300619  1
  H  H62  1  0.12626363  0.38131799  0.06760550  1
  H  H63  1  0.87373637  0.61868201  0.93239450  1
  H  H64  1  0.60060124  0.08467775  0.31699381  1
  H  H65  1  0.62626363  0.38131799  0.43239450  1
  H  H66  1  0.37373637  0.88131799  0.56760550  1
  H  H67  1  0.89939876  0.91532225  0.81699381  1
  C  C68  1  0.63942152  0.44591167  0.38197257  1
  C  C69  1  0.13942152  0.05408833  0.11802743  1
  C  C70  1  0.86057848  0.55408833  0.88197257  1
  C  C71  1  0.66532744  0.06946845  0.81331353  1
  C  C72  1  0.36057848  0.55408833  0.61802743  1
  C  C73  1  0.33467256  0.56946845  0.18668647  1
  C  C74  1  0.16532744  0.43053155  0.68668647  1
  C  C75  1  0.83467256  0.56946845  0.31331353  1
  C  C76  1  0.36057848  0.94591167  0.61802743  1
  C  C77  1  0.63942152  0.05408833  0.38197257  1
  C  C78  1  0.83467256  0.93053155  0.31331353  1
  C  C79  1  0.16532744  0.06946845  0.68668647  1
  C  C80  1  0.86057848  0.94591167  0.88197257  1
  C  C81  1  0.33467256  0.93053155  0.18668647  1
  C  C82  1  0.13942152  0.44591167  0.11802743  1
  C  C83  1  0.66532744  0.43053155  0.81331353  1
  N  N84  1  0.19571423  0.52382266  0.62443919  1
  N  N85  1  0.80428577  0.02382266  0.37556081  1
  N  N86  1  0.30428577  0.02382266  0.12443919  1
  N  N87  1  0.69571423  0.97617734  0.87556081  1
  N  N88  1  0.80428577  0.47617734  0.37556081  1
  N  N89  1  0.30428577  0.47617734  0.12443919  1
  N  N90  1  0.69571423  0.52382266  0.87556081  1
  N  N91  1  0.19571423  0.97617734  0.62443919  1
  Cl  Cl92  1  0.43811120  0.25000000  0.21686659  1
  Cl  Cl93  1  0.69050173  0.03184045  0.08925529  1
  Cl  Cl94  1  0.06188880  0.75000000  0.71686659  1
  Cl  Cl95  1  0.60098754  0.75000000  0.47522041  1
  Cl  Cl96  1  0.56188880  0.75000000  0.78313341  1
  Cl  Cl97  1  0.69050173  0.46815955  0.08925529  1
  Cl  Cl98  1  0.50701528  0.75000000  0.01499505  1
  Cl  Cl99  1  0.00701528  0.75000000  0.48500495  1
  Cl  Cl100  1  0.93811120  0.25000000  0.28313341  1
  Cl  Cl101  1  0.30949827  0.96815955  0.91074471  1
  Cl  Cl102  1  0.19050173  0.46815955  0.41074471  1
  Cl  Cl103  1  0.10098754  0.75000000  0.02477959  1
  Cl  Cl104  1  0.19050173  0.03184045  0.41074471  1
  Cl  Cl105  1  0.99298472  0.25000000  0.51499505  1
  Cl  Cl106  1  0.30949827  0.53184045  0.91074471  1
  Cl  Cl107  1  0.80949827  0.53184045  0.58925529  1
  Cl  Cl108  1  0.49298472  0.25000000  0.98500495  1
  Cl  Cl109  1  0.80949827  0.96815955  0.58925529  1
  Cl  Cl110  1  0.39901246  0.25000000  0.52477959  1
  Cl  Cl111  1  0.89901246  0.25000000  0.97522041  1
