# generated using pymatgen
data_SrSi
_symmetry_space_group_name_H-M   'P 1'
_cell_length_a   4.82249675
_cell_length_b   11.36918311
_cell_length_c   11.36918349
_cell_angle_alpha   69.38093797
_cell_angle_beta   77.75535369
_cell_angle_gamma   77.75535761
_symmetry_Int_Tables_number   1
_chemical_formula_structural   SrSi
_chemical_formula_sum   'Sr10 Si10'
_cell_volume   563.67577645
_cell_formula_units_Z   10
loop_
 _symmetry_equiv_pos_site_id
 _symmetry_equiv_pos_as_xyz
  1  'x, y, z'
loop_
 _atom_site_type_symbol
 _atom_site_label
 _atom_site_symmetry_multiplicity
 _atom_site_fract_x
 _atom_site_fract_y
 _atom_site_fract_z
 _atom_site_occupancy
  Sr  Sr0  1  0.18853996  0.64637868  0.97654139  1
  Sr  Sr1  1  0.81146004  0.02345861  0.35362132  1
  Sr  Sr2  1  0.81146004  0.35362132  0.02345861  1
  Sr  Sr3  1  1.00000000  0.70857753  0.29142247  1
  Sr  Sr4  1  0.18853996  0.97654139  0.64637868  1
  Sr  Sr5  1  0.00000000  0.00000000  0.00000000  1
  Sr  Sr6  1  0.16855465  0.33144535  0.33144535  1
  Sr  Sr7  1  0.00000000  0.29142247  0.70857753  1
  Sr  Sr8  1  0.50000000  0.50000000  0.50000000  1
  Sr  Sr9  1  0.83144535  0.66855465  0.66855465  1
  Si  Si10  1  0.62887598  0.55079433  0.19145372  1
  Si  Si11  1  0.43188765  0.22341827  0.91280643  1
  Si  Si12  1  0.43188765  0.91280643  0.22341827  1
  Si  Si13  1  0.35708887  0.14291113  0.14291113  1
  Si  Si14  1  0.37112402  0.80854628  0.44920567  1
  Si  Si15  1  0.56811235  0.08719357  0.77658173  1
  Si  Si16  1  0.62887598  0.19145372  0.55079433  1
  Si  Si17  1  0.37112402  0.44920567  0.80854628  1
  Si  Si18  1  0.64291113  0.85708887  0.85708887  1
  Si  Si19  1  0.56811235  0.77658173  0.08719357  1
