# generated using pymatgen
data_Ca3N2
_symmetry_space_group_name_H-M   'P 1'
_cell_length_a   3.78927707
_cell_length_b   7.77081510
_cell_length_c   9.36308270
_cell_angle_alpha   100.20931414
_cell_angle_beta   90.00000000
_cell_angle_gamma   104.11179387
_symmetry_Int_Tables_number   1
_chemical_formula_structural   Ca3N2
_chemical_formula_sum   'Ca9 N6'
_cell_volume   262.87959376
_cell_formula_units_Z   3
loop_
 _symmetry_equiv_pos_site_id
 _symmetry_equiv_pos_as_xyz
  1  'x, y, z'
loop_
 _atom_site_type_symbol
 _atom_site_label
 _atom_site_symmetry_multiplicity
 _atom_site_fract_x
 _atom_site_fract_y
 _atom_site_fract_z
 _atom_site_occupancy
  Ca  Ca0  1  0.12568890  0.25137780  0.27777164  1
  Ca  Ca1  1  0.78971883  0.57943767  0.37944262  1
  Ca  Ca2  1  0.82797923  0.65595846  0.03518379  1
  Ca  Ca3  1  0.21028117  0.42056233  0.62055738  1
  Ca  Ca4  1  0.17202077  0.34404154  0.96481621  1
  Ca  Ca5  1  0.87431110  0.74862220  0.72222836  1
  Ca  Ca6  1  0.46823816  0.93647633  0.33945869  1
  Ca  Ca7  1  0.50000000  0.00000000  0.00000000  1
  Ca  Ca8  1  0.53176184  0.06352367  0.66054131  1
  N  N9  1  0.35895671  0.71791343  0.51175792  1
  N  N10  1  0.03065335  0.06130670  0.81229251  1
  N  N11  1  0.96934665  0.93869330  0.18770749  1
  N  N12  1  0.31744494  0.63488988  0.86975482  1
  N  N13  1  0.64104329  0.28208657  0.48824208  1
  N  N14  1  0.68255506  0.36511012  0.13024518  1
