# generated using pymatgen
data_Li3Sn2(PO4)3
_symmetry_space_group_name_H-M   'P 1'
_cell_length_a   8.67482219
_cell_length_b   10.17619488
_cell_length_c   8.67482264
_cell_angle_alpha   115.22861333
_cell_angle_beta   60.00000216
_cell_angle_gamma   115.22861399
_symmetry_Int_Tables_number   1
_chemical_formula_structural   Li3Sn2(PO4)3
_chemical_formula_sum   'Li6 Sn4 P6 O24'
_cell_volume   577.30559789
_cell_formula_units_Z   2
loop_
 _symmetry_equiv_pos_site_id
 _symmetry_equiv_pos_as_xyz
  1  'x, y, z'
loop_
 _atom_site_type_symbol
 _atom_site_label
 _atom_site_symmetry_multiplicity
 _atom_site_fract_x
 _atom_site_fract_y
 _atom_site_fract_z
 _atom_site_occupancy
  Li  Li0  1  0.24518896  0.85855903  0.67057532  1
  Li  Li1  1  0.32942468  0.14144097  0.05720525  1
  Li  Li2  1  0.94279475  0.85855903  0.24518896  1
  Li  Li3  1  0.75481104  0.14144097  0.32942468  1
  Li  Li4  1  0.05720525  0.14144097  0.75481104  1
  Li  Li5  1  0.67057532  0.85855903  0.94279475  1
  Sn  Sn6  1  0.65747794  0.97243281  0.65747794  1
  Sn  Sn7  1  0.83703089  0.51109266  0.83703089  1
  Sn  Sn8  1  0.16296911  0.48890734  0.16296911  1
  Sn  Sn9  1  0.34252206  0.02756719  0.34252206  1
  P  P10  1  0.04733279  0.22017119  0.45135472  1
  P  P11  1  0.27851632  0.77982881  0.95266721  1
  P  P12  1  0.95266721  0.77982881  0.54864528  1
  P  P13  1  0.72148368  0.22017119  0.04733279  1
  P  P14  1  0.45135472  0.22017119  0.72148368  1
  P  P15  1  0.54864528  0.77982881  0.27851632  1
  O  O16  1  0.14305574  0.22685785  0.25281372  1
  O  O17  1  0.46486156  0.09744865  0.78364846  1
  O  O18  1  0.98371250  0.63280235  0.40196865  1
  O  O19  1  0.74718628  0.77314215  0.16901161  1
  O  O20  1  0.49431505  0.84417362  0.84791424  1
  O  O21  1  0.59803135  0.36719765  0.75287880  1
  O  O22  1  0.49805566  0.15582638  0.50568495  1
  O  O23  1  0.85694426  0.77314215  0.74718628  1
  O  O24  1  0.21635154  0.90255135  0.15106136  1
  O  O25  1  0.16901161  0.77314215  0.85694426  1
  O  O26  1  0.84893864  0.09744865  0.46486156  1
  O  O27  1  0.25281372  0.22685785  0.83098839  1
  O  O28  1  0.15208576  0.15582638  0.49805566  1
  O  O29  1  0.78364846  0.09744865  0.84893864  1
  O  O30  1  0.40196865  0.63280235  0.24712120  1
  O  O31  1  0.50568495  0.15582638  0.15208576  1
  O  O32  1  0.50194434  0.84417362  0.49431505  1
  O  O33  1  0.53513844  0.90255135  0.21635154  1
  O  O34  1  0.15106136  0.90255135  0.53513844  1
  O  O35  1  0.24712120  0.63280235  0.98371250  1
  O  O36  1  0.75287880  0.36719765  0.01628750  1
  O  O37  1  0.84791424  0.84417362  0.50194434  1
  O  O38  1  0.83098839  0.22685785  0.14305574  1
  O  O39  1  0.01628750  0.36719765  0.59803135  1
