# generated using pymatgen
data_Mo7S8
_symmetry_space_group_name_H-M   'P 1'
_cell_length_a   6.44260758
_cell_length_b   6.51404394
_cell_length_c   13.08147627
_cell_angle_alpha   94.32563403
_cell_angle_beta   94.49731494
_cell_angle_gamma   96.56342255
_symmetry_Int_Tables_number   1
_chemical_formula_structural   Mo7S8
_chemical_formula_sum   'Mo14 S16'
_cell_volume   541.74115456
_cell_formula_units_Z   2
loop_
 _symmetry_equiv_pos_site_id
 _symmetry_equiv_pos_as_xyz
  1  'x, y, z'
loop_
 _atom_site_type_symbol
 _atom_site_label
 _atom_site_symmetry_multiplicity
 _atom_site_fract_x
 _atom_site_fract_y
 _atom_site_fract_z
 _atom_site_occupancy
  Mo  Mo0  1  0.17704715  0.89510128  0.01016475  1
  Mo  Mo1  1  0.20903626  0.41860998  0.27247765  1
  Mo  Mo2  1  0.21798451  0.38191759  0.77141086  1
  Mo  Mo3  1  0.40398350  0.56382040  0.10594442  1
  Mo  Mo4  1  0.40300328  0.54235883  0.60700717  1
  Mo  Mo5  1  0.44753041  0.79831720  0.29305226  1
  Mo  Mo6  1  0.47681824  0.77392105  0.80074071  1
  Mo  Mo7  1  0.53271166  0.23494054  0.20319258  1
  Mo  Mo8  1  0.54001050  0.20953564  0.70159239  1
  Mo  Mo9  1  0.58799368  0.46993204  0.38982857  1
  Mo  Mo10  1  0.60207203  0.44395583  0.89085197  1
  Mo  Mo11  1  0.77521608  0.61077007  0.22472750  1
  Mo  Mo12  1  0.78657811  0.58148202  0.72693858  1
  Mo  Mo13  1  0.01923555  0.81493406  0.54574838  1
  S  S14  1  0.12881560  0.74967848  0.17635420  1
  S  S15  1  0.15079090  0.71660542  0.70258311  1
  S  S16  1  0.18851550  0.23182838  0.10275508  1
  S  S17  1  0.19348765  0.17196983  0.60257771  1
  S  S18  1  0.25746675  0.64875049  0.43335034  1
  S  S19  1  0.27622957  0.59562926  0.92646924  1
  S  S20  1  0.35667147  0.14767675  0.36051602  1
  S  S21  1  0.36758064  0.11719365  0.87125238  1
  S  S22  1  0.63318729  0.88912563  0.13765969  1
  S  S23  1  0.63986215  0.86193773  0.63448645  1
  S  S24  1  0.71626019  0.38458312  0.06764083  1
  S  S25  1  0.70871358  0.37304480  0.56491135  1
  S  S26  1  0.79331689  0.81795333  0.38869165  1
  S  S27  1  0.83156290  0.77885770  0.90104516  1
  S  S28  1  0.85251211  0.29962300  0.31335355  1
  S  S29  1  0.86120383  0.26424394  0.81082345  1
