# generated using pymatgen
data_Fe3Pb4ClO8
_symmetry_space_group_name_H-M   'P 1'
_cell_length_a   3.97598766
_cell_length_b   3.97677472
_cell_length_c   15.59398648
_cell_angle_alpha   90.00494993
_cell_angle_beta   90.00882779
_cell_angle_gamma   90.00195065
_symmetry_Int_Tables_number   1
_chemical_formula_structural   Fe3Pb4ClO8
_chemical_formula_sum   'Fe3 Pb4 Cl1 O8'
_cell_volume   246.56598493
_cell_formula_units_Z   1
loop_
 _symmetry_equiv_pos_site_id
 _symmetry_equiv_pos_as_xyz
  1  'x, y, z'
loop_
 _atom_site_type_symbol
 _atom_site_label
 _atom_site_symmetry_multiplicity
 _atom_site_fract_x
 _atom_site_fract_y
 _atom_site_fract_z
 _atom_site_occupancy
  Fe  Fe0  1  0.50007492  0.50018396  0.87450670  1
  Fe  Fe1  1  0.49982369  0.49984333  0.36298907  1
  Fe  Fe2  1  0.50032942  0.49970700  0.61854290  1
  Pb  Pb3  1  0.00166298  0.99848318  0.73368999  1
  Pb  Pb4  1  0.99961945  0.99987337  0.24028342  1
  Pb  Pb5  1  0.00043224  0.99875005  0.50216026  1
  Pb  Pb6  1  0.99994227  0.00042558  0.99755094  1
  Cl  Cl7  1  0.49969378  0.50019396  0.12104391  1
  O  O8  1  0.49971262  0.00001630  0.61871995  1
  O  O9  1  0.49951368  0.50073693  0.75328892  1
  O  O10  1  0.99992389  0.50043316  0.90771891  1
  O  O11  1  0.49990424  0.50034094  0.48429938  1
  O  O12  1  0.49969615  0.99994582  0.33094211  1
  O  O13  1  0.00012447  0.50067871  0.61873097  1
  O  O14  1  0.99975059  0.50003912  0.33088767  1
  O  O15  1  0.49979562  0.00034858  0.90764489  1
