# generated using pymatgen
data_H8N2O
_symmetry_space_group_name_H-M   'P 1'
_cell_length_a   8.75880205
_cell_length_b   8.82430495
_cell_length_c   4.44349706
_cell_angle_alpha   90.00000000
_cell_angle_beta   90.00000000
_cell_angle_gamma   90.00000000
_symmetry_Int_Tables_number   1
_chemical_formula_structural   H8N2O
_chemical_formula_sum   'H32 N8 O4'
_cell_volume   343.43939983
_cell_formula_units_Z   4
loop_
 _symmetry_equiv_pos_site_id
 _symmetry_equiv_pos_as_xyz
  1  'x, y, z'
loop_
 _atom_site_type_symbol
 _atom_site_label
 _atom_site_symmetry_multiplicity
 _atom_site_fract_x
 _atom_site_fract_y
 _atom_site_fract_z
 _atom_site_occupancy
  H  H0  1  0.30031332  0.85346479  0.25790407  1
  H  H1  1  0.49835842  0.83101265  0.55100743  1
  H  H2  1  0.36964090  0.58752997  0.56616002  1
  H  H3  1  0.58435779  0.56845146  0.25105349  1
  H  H4  1  0.36740088  0.58790770  0.93156331  1
  H  H5  1  0.49853788  0.83174649  0.94699831  1
  H  H6  1  0.17113974  0.68183837  0.24934930  1
  H  H7  1  0.42619547  0.01953124  0.24837423  1
  H  H8  1  0.19968668  0.35346479  0.25790407  1
  H  H9  1  0.32886026  0.18183837  0.24934930  1
  H  H10  1  0.13035910  0.08752997  0.56616002  1
  H  H11  1  0.00164158  0.33101265  0.55100743  1
  H  H12  1  0.91564221  0.06845146  0.25105349  1
  H  H13  1  0.07380453  0.51953124  0.24837423  1
  H  H14  1  0.00146212  0.33174649  0.94699831  1
  H  H15  1  0.13259912  0.08790770  0.93156331  1
  H  H16  1  0.69968668  0.14653521  0.75790407  1
  H  H17  1  0.50146212  0.16825351  0.44699831  1
  H  H18  1  0.63259912  0.41209230  0.43156331  1
  H  H19  1  0.57380453  0.98046876  0.74837423  1
  H  H20  1  0.50164158  0.16898735  0.05100743  1
  H  H21  1  0.63035910  0.41247003  0.06616002  1
  H  H22  1  0.41564221  0.43154854  0.75105349  1
  H  H23  1  0.82886026  0.31816163  0.74934930  1
  H  H24  1  0.80031332  0.64653521  0.75790407  1
  H  H25  1  0.99835842  0.66898735  0.05100743  1
  H  H26  1  0.08435779  0.93154854  0.75105349  1
  H  H27  1  0.67113974  0.81816163  0.74934930  1
  H  H28  1  0.99853788  0.66825351  0.44699831  1
  H  H29  1  0.92619547  0.48046876  0.74837423  1
  H  H30  1  0.86964090  0.91247003  0.06616002  1
  H  H31  1  0.86740088  0.91209230  0.43156331  1
  N  N32  1  0.06217939  0.63635761  0.24919704  1
  N  N33  1  0.43782061  0.13635761  0.24919704  1
  N  N34  1  0.93782061  0.36364239  0.74919704  1
  N  N35  1  0.56217939  0.86364239  0.74919704  1
  N  N36  1  0.65763667  0.47800021  0.24896900  1
  N  N37  1  0.84236333  0.97800021  0.24896900  1
  N  N38  1  0.34236333  0.52199979  0.74896900  1
  N  N39  1  0.15763667  0.02199979  0.74896900  1
  O  O40  1  0.39386926  0.79308834  0.25074479  1
  O  O41  1  0.10613074  0.29308834  0.25074479  1
  O  O42  1  0.60613074  0.20691166  0.75074479  1
  O  O43  1  0.89386926  0.70691166  0.75074479  1
