# generated using pymatgen
data_Ba(HO)2
_symmetry_space_group_name_H-M   'P 1'
_cell_length_a   9.49226609
_cell_length_b   8.14122008
_cell_length_c   6.86941951
_cell_angle_alpha   91.06095723
_cell_angle_beta   98.06613027
_cell_angle_gamma   90.26784999
_symmetry_Int_Tables_number   1
_chemical_formula_structural   Ba(HO)2
_chemical_formula_sum   'Ba8 H16 O16'
_cell_volume   525.50310846
_cell_formula_units_Z   8
loop_
 _symmetry_equiv_pos_site_id
 _symmetry_equiv_pos_as_xyz
  1  'x, y, z'
loop_
 _atom_site_type_symbol
 _atom_site_label
 _atom_site_symmetry_multiplicity
 _atom_site_fract_x
 _atom_site_fract_y
 _atom_site_fract_z
 _atom_site_occupancy
  Ba  Ba0  1  0.90222425  0.13818013  0.26353199  1
  Ba  Ba1  1  0.39980833  0.35587463  0.75837231  1
  Ba  Ba2  1  0.09695784  0.85294087  0.75659695  1
  Ba  Ba3  1  0.59422606  0.64888124  0.25709561  1
  Ba  Ba4  1  0.34626584  0.07539882  0.29013881  1
  Ba  Ba5  1  0.82906649  0.44650478  0.78325024  1
  Ba  Ba6  1  0.67811949  0.96169963  0.72058474  1
  Ba  Ba7  1  0.18437272  0.55416110  0.21075714  1
  H  H8  1  0.62586319  0.04728352  0.18638984  1
  H  H9  1  0.12024665  0.38483478  0.85885625  1
  H  H10  1  0.37835900  0.89394230  0.63348677  1
  H  H11  1  0.88531021  0.54566118  0.30664966  1
  H  H12  1  0.17550612  0.84468662  0.34344724  1
  H  H13  1  0.68588220  0.68487164  0.90778821  1
  H  H14  1  0.97699680  0.15531449  0.77209704  1
  H  H15  1  0.48975433  0.35446124  0.27791500  1
  H  H16  1  0.93538202  0.81801362  0.11234059  1
  H  H17  1  0.45372296  0.67398521  0.62320315  1
  H  H18  1  0.12536227  0.23404211  0.12020559  1
  H  H19  1  0.64296896  0.23873862  0.45693337  1
  H  H20  1  0.37346517  0.85277254  0.95163209  1
  H  H21  1  0.87115858  0.78049587  0.44997619  1
  H  H22  1  0.62367174  0.28734078  0.04784298  1
  H  H23  1  0.12494605  0.34880266  0.53829802  1
  O  O24  1  0.63040762  0.99503859  0.31551418  1
  O  O25  1  0.12414052  0.49883965  0.80853682  1
  O  O26  1  0.38354978  0.00755238  0.68895643  1
  O  O27  1  0.88507187  0.46889147  0.19470277  1
  O  O28  1  0.07700587  0.87074955  0.35330855  1
  O  O29  1  0.59603645  0.62857254  0.85725102  1
  O  O30  1  0.90806525  0.13092724  0.65339601  1
  O  O31  1  0.42477594  0.37002978  0.15023554  1
  O  O32  1  0.87540277  0.83888947  0.98655250  1
  O  O33  1  0.38574893  0.68496868  0.50169758  1
  O  O34  1  0.11672805  0.18827108  0.98693007  1
  O  O35  1  0.59985393  0.33942111  0.50067854  1
  O  O36  1  0.32576612  0.80738090  0.05719415  1
  O  O37  1  0.82674529  0.71080467  0.53854875  1
  O  O38  1  0.67107672  0.20870549  0.96988025  1
  O  O39  1  0.17533462  0.29592605  0.43821306  1
