# generated using pymatgen
data_CsYb3F10
_symmetry_space_group_name_H-M   'P 1'
_cell_length_a   8.16426417
_cell_length_b   8.16426399
_cell_length_c   17.83951937
_cell_angle_alpha   90.00000000
_cell_angle_beta   90.00000000
_cell_angle_gamma   120.00000078
_symmetry_Int_Tables_number   1
_chemical_formula_structural   CsYb3F10
_chemical_formula_sum   'Cs4 Yb12 F40'
_cell_volume   1029.78809162
_cell_formula_units_Z   4
loop_
 _symmetry_equiv_pos_site_id
 _symmetry_equiv_pos_as_xyz
  1  'x, y, z'
loop_
 _atom_site_type_symbol
 _atom_site_label
 _atom_site_symmetry_multiplicity
 _atom_site_fract_x
 _atom_site_fract_y
 _atom_site_fract_z
 _atom_site_occupancy
  Yb  Yb0  1  0.48683051  0.97366103  0.75004442  1
  Yb  Yb1  1  0.02633897  0.51316949  0.75004442  1
  Yb  Yb2  1  0.48742731  0.51257269  0.50173656  1
  Yb  Yb3  1  0.97366103  0.48683051  0.25004442  1
  Yb  Yb4  1  0.02514537  0.51257269  0.50173656  1
  Yb  Yb5  1  0.48683051  0.51316949  0.75004442  1
  Yb  Yb6  1  0.51257269  0.02514537  0.00173656  1
  Yb  Yb7  1  0.48742731  0.97485463  0.50173656  1
  Yb  Yb8  1  0.51316949  0.48683051  0.25004442  1
  Yb  Yb9  1  0.51257269  0.48742731  0.00173656  1
  Yb  Yb10  1  0.97485463  0.48742731  0.00173656  1
  Yb  Yb11  1  0.51316949  0.02633897  0.25004442  1
  Cs  Cs12  1  0.00000000  0.00000000  0.62632243  1
  Cs  Cs13  1  0.00000000  0.00000000  0.12632243  1
  Cs  Cs14  1  0.00000000  0.00000000  0.87223617  1
  Cs  Cs15  1  0.00000000  0.00000000  0.37223617  1
  F  F16  1  0.21526136  0.78473864  0.00245893  1
  F  F17  1  0.52044380  0.47955620  0.12580475  1
  F  F18  1  0.32442053  0.16221026  0.24530283  1
  F  F19  1  0.67557947  0.83778974  0.74530283  1
  F  F20  1  0.47955620  0.95911240  0.62580475  1
  F  F21  1  0.15903924  0.31807849  0.50109944  1
  F  F22  1  0.43686500  0.21843250  0.74627677  1
  F  F23  1  0.47955620  0.52044380  0.62580475  1
  F  F24  1  0.84096076  0.68192151  0.00109944  1
  F  F25  1  0.66666700  0.33333300  0.29043338  1
  F  F26  1  0.95911240  0.47955620  0.12580475  1
  F  F27  1  0.43052272  0.21526136  0.50245893  1
  F  F28  1  0.66666700  0.33333300  0.97402731  1
  F  F29  1  0.78156750  0.56313500  0.74627677  1
  F  F30  1  0.83778974  0.67557947  0.24530283  1
  F  F31  1  0.50018169  0.00036338  0.37576988  1
  F  F32  1  0.83778974  0.16221026  0.24530283  1
  F  F33  1  0.21843250  0.43686500  0.24627677  1
  F  F34  1  0.99963662  0.49981831  0.37576988  1
  F  F35  1  0.15903924  0.84096076  0.50109944  1
  F  F36  1  0.50018169  0.49981831  0.37576988  1
  F  F37  1  0.16221026  0.83778974  0.74530283  1
  F  F38  1  0.33333300  0.66666700  0.47402731  1
  F  F39  1  0.56313500  0.78156750  0.24627677  1
  F  F40  1  0.49981831  0.99963662  0.87576988  1
  F  F41  1  0.78473864  0.56947728  0.50245893  1
  F  F42  1  0.31807849  0.15903924  0.00109944  1
  F  F43  1  0.00036338  0.50018169  0.87576988  1
  F  F44  1  0.21526136  0.43052272  0.00245893  1
  F  F45  1  0.49981831  0.50018169  0.87576988  1
  F  F46  1  0.78473864  0.21526136  0.50245893  1
  F  F47  1  0.68192151  0.84096076  0.50109944  1
  F  F48  1  0.04088760  0.52044380  0.62580475  1
  F  F49  1  0.56947728  0.78473864  0.00245893  1
  F  F50  1  0.78156750  0.21843250  0.74627677  1
  F  F51  1  0.33333300  0.66666700  0.79043338  1
  F  F52  1  0.84096076  0.15903924  0.00109944  1
  F  F53  1  0.52044380  0.04088760  0.12580475  1
  F  F54  1  0.21843250  0.78156750  0.24627677  1
  F  F55  1  0.16221026  0.32442053  0.74530283  1
