# generated using pymatgen
data_Ca(H8O5)2
_symmetry_space_group_name_H-M   'P 1'
_cell_length_a   5.91458450
_cell_length_b   6.95867359
_cell_length_c   11.04950031
_cell_angle_alpha   89.59177829
_cell_angle_beta   87.37806555
_cell_angle_gamma   88.96513723
_symmetry_Int_Tables_number   1
_chemical_formula_structural   Ca(H8O5)2
_chemical_formula_sum   'Ca2 H32 O20'
_cell_volume   454.21239178
_cell_formula_units_Z   2
loop_
 _symmetry_equiv_pos_site_id
 _symmetry_equiv_pos_as_xyz
  1  'x, y, z'
loop_
 _atom_site_type_symbol
 _atom_site_label
 _atom_site_symmetry_multiplicity
 _atom_site_fract_x
 _atom_site_fract_y
 _atom_site_fract_z
 _atom_site_occupancy
  Ca  Ca0  1  0.01416693  0.94592228  0.26603821  1
  Ca  Ca1  1  0.00163568  0.01188652  0.74624005  1
  H  H2  1  0.29608587  0.41151573  0.36082431  1
  H  H3  1  0.96591818  0.28311460  0.38758650  1
  H  H4  1  0.95895859  0.55403302  0.39475663  1
  H  H5  1  0.70897365  0.65852626  0.37940508  1
  H  H6  1  0.64628013  0.23834315  0.36087081  1
  H  H7  1  0.49598597  0.98608271  0.36703642  1
  H  H8  1  0.33293513  0.87497528  0.45843106  1
  H  H9  1  0.84923771  0.33907893  0.93758951  1
  H  H10  1  0.03709997  0.37344177  0.83838825  1
  H  H11  1  0.23809786  0.63449807  0.85875171  1
  H  H12  1  0.96509971  0.67260978  0.88017953  1
  H  H13  1  0.35438822  0.26626270  0.85958992  1
  H  H14  1  0.27451329  0.12142795  0.96769416  1
  H  H15  1  0.53784639  0.99087804  0.86377879  1
  H  H16  1  0.70377803  0.91213700  0.95838917  1
  H  H17  1  0.86415585  0.69650957  0.55286455  1
  H  H18  1  0.96749126  0.55706108  0.64794867  1
  H  H19  1  0.26900243  0.36578189  0.64613685  1
  H  H20  1  0.10607334  0.33200530  0.53709168  1
  H  H21  1  0.45912570  0.95613435  0.62583369  1
  H  H22  1  0.36844295  0.74381391  0.65162784  1
  H  H23  1  0.63253695  0.23479544  0.64170048  1
  H  H24  1  0.70851487  0.11815582  0.51829762  1
  H  H25  1  0.14539296  0.73067287  0.03862478  1
  H  H26  1  0.03919999  0.57195559  0.12301373  1
  H  H27  1  0.02262981  0.26668843  0.11126686  1
  H  H28  1  0.77241999  0.36843372  0.15119695  1
  H  H29  1  0.52118223  0.98086145  0.13298817  1
  H  H30  1  0.63086172  0.77505072  0.13986126  1
  H  H31  1  0.32647291  0.23291730  0.15188116  1
  H  H32  1  0.62921356  0.56522402  0.71375722  1
  H  H33  1  0.35783224  0.56797115  0.18699823  1
  O  O34  1  0.07557524  0.38454447  0.40564597  1
  O  O35  1  0.86621669  0.69329264  0.39236305  1
  O  O36  1  0.73874273  0.12263374  0.37883610  1
  O  O37  1  0.35226027  0.91002659  0.37143721  1
  O  O38  1  0.87933501  0.33310379  0.84885582  1
  O  O39  1  0.10683350  0.74172415  0.88552924  1
  O  O40  1  0.30566917  0.12703917  0.87714752  1
  O  O41  1  0.68544586  0.91824151  0.87019849  1
  O  O42  1  0.87659100  0.67766058  0.64228866  1
  O  O43  1  0.12292999  0.30873293  0.62930048  1
  O  O44  1  0.32223194  0.87332105  0.62186493  1
  O  O45  1  0.68265955  0.10712089  0.61288980  1
  O  O46  1  0.13446176  0.69093651  0.12690993  1
  O  O47  1  0.90531064  0.37394399  0.09500133  1
  O  O48  1  0.66961254  0.91011741  0.12597073  1
  O  O49  1  0.23684091  0.12459603  0.12557942  1
  O  O50  1  0.46942544  0.45500968  0.33904193  1
  O  O51  1  0.38800692  0.48603758  0.83429307  1
  O  O52  1  0.47305422  0.51451909  0.70789598  1
  O  O53  1  0.48003755  0.47084978  0.20617150  1
