# generated using pymatgen
data_H8PtO6
_symmetry_space_group_name_H-M   'P 1'
_cell_length_a   5.65291113
_cell_length_b   5.59898238
_cell_length_c   7.40608381
_cell_angle_alpha   86.07286883
_cell_angle_beta   91.62919881
_cell_angle_gamma   98.46067357
_symmetry_Int_Tables_number   1
_chemical_formula_structural   H8PtO6
_chemical_formula_sum   'H16 Pt2 O12'
_cell_volume   231.27117485
_cell_formula_units_Z   2
loop_
 _symmetry_equiv_pos_site_id
 _symmetry_equiv_pos_as_xyz
  1  'x, y, z'
loop_
 _atom_site_type_symbol
 _atom_site_label
 _atom_site_symmetry_multiplicity
 _atom_site_fract_x
 _atom_site_fract_y
 _atom_site_fract_z
 _atom_site_occupancy
  H  H0  1  0.87445920  0.72373872  0.74810825  1
  H  H1  1  0.79319922  0.42241514  0.87931040  1
  H  H2  1  0.62190652  0.08707547  0.67388125  1
  H  H3  1  0.89900412  0.40137420  0.16173298  1
  H  H4  1  0.17959791  0.51657998  0.17017195  1
  H  H5  1  0.55258201  0.14929478  0.34253442  1
  H  H6  1  0.40713158  0.86729856  0.35176182  1
  H  H7  1  0.25100534  0.62760756  0.91575360  1
  H  H8  1  0.55230414  0.45626849  0.49246110  1
  H  H9  1  0.55260073  0.46192224  -0.00127564  1
  H  H10  1  0.39889410  0.73990433  0.60579415  1
  H  H11  1  0.19078797  0.12648975  0.80051695  1
  H  H12  1  0.24978905  0.17530356  0.50965128  1
  H  H13  1  0.86108769  0.85233220  0.22614382  1
  H  H14  1  0.99133843  0.97458597  0.02204665  1
  H  H15  1  0.95522770  0.94418350  0.47757867  1
  Pt  Pt16  1  0.99743764  0.49846489  0.49994609  1
  Pt  Pt17  1  0.52251918  0.99180246  0.00337466  1
  O  O18  1  0.95712414  0.57844928  0.75807277  1
  O  O19  1  0.59676253  0.93148791  0.74947550  1
  O  O20  1  0.04650573  0.40904801  0.24041461  1
  O  O21  1  0.43743196  0.02886835  0.27039256  1
  O  O22  1  0.36642102  0.64234988  0.01953821  1
  O  O23  1  0.65554432  0.32475379  0.49252045  1
  O  O24  1  0.68310506  0.34990506  0.99211875  1
  O  O25  1  0.34532271  0.65836587  0.49278157  1
  O  O26  1  0.21143374  0.10853627  0.93573922  1
  O  O27  1  0.10811175  0.17671972  0.58214253  1
  O  O28  1  0.83917109  0.87219421  0.08076382  1
  O  O29  1  0.86939240  0.80419785  0.41245563  1
