# generated using pymatgen
data_H5IO6
_symmetry_space_group_name_H-M   'P 1'
_cell_length_a   5.51926830
_cell_length_b   18.46406237
_cell_length_c   4.92196303
_cell_angle_alpha   90.00000000
_cell_angle_beta   110.29835889
_cell_angle_gamma   90.00000000
_symmetry_Int_Tables_number   1
_chemical_formula_structural   H5IO6
_chemical_formula_sum   'H20 I4 O24'
_cell_volume   470.43879102
_cell_formula_units_Z   4
loop_
 _symmetry_equiv_pos_site_id
 _symmetry_equiv_pos_as_xyz
  1  'x, y, z'
loop_
 _atom_site_type_symbol
 _atom_site_label
 _atom_site_symmetry_multiplicity
 _atom_site_fract_x
 _atom_site_fract_y
 _atom_site_fract_z
 _atom_site_occupancy
  H  H0  1  0.27209305  0.54546475  0.61142117  1
  H  H1  1  0.59841333  0.99300638  0.29536474  1
  H  H2  1  0.90158667  0.49300638  0.20463526  1
  H  H3  1  0.22790695  0.04546475  0.88857883  1
  H  H4  1  0.73837193  0.60963003  0.05346153  1
  H  H5  1  0.33946208  0.97987638  0.66004327  1
  H  H6  1  0.16053792  0.47987638  0.83995673  1
  H  H7  1  0.76162807  0.10963003  0.44653847  1
  H  H8  1  0.85265192  0.96526351  0.89411278  1
  H  H9  1  0.64734808  0.46526351  0.60588722  1
  H  H10  1  0.13906401  0.69024372  0.46085374  1
  H  H11  1  0.60396538  0.80019665  0.91445645  1
  H  H12  1  0.89603462  0.30019665  0.58554355  1
  H  H13  1  0.36093599  0.19024372  0.03914626  1
  H  H14  1  0.09028081  0.86412652  0.49152332  1
  H  H15  1  0.40971919  0.36412652  0.00847668  1
  H  H16  1  0.91457877  0.70694366  0.75804062  1
  H  H17  1  0.36578305  0.77323012  0.25502323  1
  H  H18  1  0.13421695  0.27323012  0.24497677  1
  H  H19  1  0.58542123  0.20694366  0.74195938  1
  I  I20  1  0.22380092  0.61571493  0.07767541  1
  I  I21  1  0.65532896  0.87229461  0.51197811  1
  I  I22  1  0.84467104  0.37229461  0.98802189  1
  I  I23  1  0.27619908  0.11571493  0.42232459  1
  O  O24  1  0.20258359  0.53490413  0.78913187  1
  O  O25  1  0.64373555  0.94482521  0.22927339  1
  O  O26  1  0.85626445  0.44482521  0.27072661  1
  O  O27  1  0.29741641  0.03490413  0.71086813  1
  O  O28  1  0.89702499  0.57510997  0.06468618  1
  O  O29  1  0.37523615  0.90953844  0.59053748  1
  O  O30  1  0.12476385  0.40953844  0.90946252  1
  O  O31  1  0.60297501  0.07510997  0.43531382  1
  O  O32  1  0.37827075  0.55783669  0.39449450  1
  O  O33  1  0.91844812  0.92361812  0.81573220  1
  O  O34  1  0.58155188  0.42361812  0.68426780  1
  O  O35  1  0.12172925  0.05783669  0.10550550  1
  O  O36  1  0.17913374  0.70179159  0.27910582  1
  O  O37  1  0.67501985  0.78856995  0.75761948  1
  O  O38  1  0.82498015  0.28856995  0.74238052  1
  O  O39  1  0.32086626  0.20179159  0.22089418  1
  O  O40  1  0.51577994  0.65050697  0.03464425  1
  O  O41  1  0.93840873  0.82981474  0.43508012  1
  O  O42  1  0.56159127  0.32981474  0.06491988  1
  O  O43  1  0.98422006  0.15050697  0.46535575  1
  O  O44  1  0.02752298  0.66944860  0.71920017  1
  O  O45  1  0.44407802  0.81591331  0.18835984  1
  O  O46  1  0.05592198  0.31591331  0.31164016  1
  O  O47  1  0.47247702  0.16944860  0.78079983  1
