# generated using pymatgen
data_Na2EuCl5
_symmetry_space_group_name_H-M   'P 1'
_cell_length_a   7.91409209
_cell_length_b   8.56540615
_cell_length_c   12.38764961
_cell_angle_alpha   90.00017643
_cell_angle_beta   89.99782201
_cell_angle_gamma   89.99993297
_symmetry_Int_Tables_number   1
_chemical_formula_structural   Na2EuCl5
_chemical_formula_sum   'Na8 Eu4 Cl20'
_cell_volume   839.72672064
_cell_formula_units_Z   4
loop_
 _symmetry_equiv_pos_site_id
 _symmetry_equiv_pos_as_xyz
  1  'x, y, z'
loop_
 _atom_site_type_symbol
 _atom_site_label
 _atom_site_symmetry_multiplicity
 _atom_site_fract_x
 _atom_site_fract_y
 _atom_site_fract_z
 _atom_site_occupancy
  Eu  Eu0  1  0.42061375  0.74999982  0.49346618  1
  Eu  Eu1  1  0.07938625  0.75000058  0.99346122  1
  Eu  Eu2  1  0.57944645  0.25000067  0.50655591  1
  Eu  Eu3  1  0.92055613  0.25000054  0.00656276  1
  Na  Na4  1  0.03394680  0.00152185  0.67254499  1
  Na  Na5  1  0.46603566  0.49848003  0.17247123  1
  Na  Na6  1  0.46603459  0.00151785  0.17247121  1
  Na  Na7  1  0.53398598  0.50144577  0.82752589  1
  Na  Na8  1  0.03394788  0.49847886  0.67254554  1
  Na  Na9  1  0.53398785  0.99855396  0.82752568  1
  Na  Na10  1  0.96603416  0.99855122  0.32744946  1
  Na  Na11  1  0.96603306  0.50144897  0.32744947  1
  Cl  Cl12  1  0.05521161  0.75000027  0.49390670  1
  Cl  Cl13  1  0.14115616  0.25000033  0.18352241  1
  Cl  Cl14  1  0.35887087  0.24999895  0.68355383  1
  Cl  Cl15  1  0.82013310  0.25000105  0.78650089  1
  Cl  Cl16  1  0.16623042  0.45433640  0.91138016  1
  Cl  Cl17  1  0.66621177  0.95434604  0.58863207  1
  Cl  Cl18  1  0.44479371  0.74999945  0.99390655  1
  Cl  Cl19  1  0.85886689  0.74999966  0.81646697  1
  Cl  Cl20  1  0.32010900  0.75000046  0.71349087  1
  Cl  Cl21  1  0.66621182  0.54565424  0.58863237  1
  Cl  Cl22  1  0.33375767  0.45435116  0.41136566  1
  Cl  Cl23  1  0.67989152  0.25000004  0.28648810  1
  Cl  Cl24  1  0.17987412  0.74999947  0.21349764  1
  Cl  Cl25  1  0.33375717  0.04564863  0.41136627  1
  Cl  Cl26  1  0.94479655  0.24999969  0.50608914  1
  Cl  Cl27  1  0.16623136  0.04566292  0.91138037  1
  Cl  Cl28  1  0.64108616  0.74999958  0.31645500  1
  Cl  Cl29  1  0.83378832  0.54563444  0.08861612  1
  Cl  Cl30  1  0.83378896  0.95436627  0.08861626  1
  Cl  Cl31  1  0.55522427  0.25000084  0.00610308  1
