# generated using pymatgen
data_Fe4As5O13
_symmetry_space_group_name_H-M   'P 1'
_cell_length_a   9.07158675
_cell_length_b   9.22726152
_cell_length_c   9.29287512
_cell_angle_alpha   94.27196432
_cell_angle_beta   116.37721348
_cell_angle_gamma   111.76157085
_symmetry_Int_Tables_number   1
_chemical_formula_structural   Fe4As5O13
_chemical_formula_sum   'Fe8 As10 O26'
_cell_volume   619.89635653
_cell_formula_units_Z   2
loop_
 _symmetry_equiv_pos_site_id
 _symmetry_equiv_pos_as_xyz
  1  'x, y, z'
loop_
 _atom_site_type_symbol
 _atom_site_label
 _atom_site_symmetry_multiplicity
 _atom_site_fract_x
 _atom_site_fract_y
 _atom_site_fract_z
 _atom_site_occupancy
  Fe  Fe0  1  0.99741686  0.49967126  0.00065916  1
  Fe  Fe1  1  0.00008720  0.49985045  0.50018015  1
  Fe  Fe2  1  0.73971254  0.30615941  0.61810798  1
  Fe  Fe3  1  0.25717590  0.69320816  0.38149816  1
  Fe  Fe4  1  0.34961918  0.88189944  0.79957583  1
  Fe  Fe5  1  0.65115916  0.12079403  0.19681749  1
  Fe  Fe6  1  0.46870703  0.72347879  0.10813440  1
  Fe  Fe7  1  0.53095133  0.27799731  0.89381858  1
  As  As8  1  0.10016309  0.29281637  0.30403791  1
  As  As9  1  0.90126554  0.70636105  0.69574418  1
  As  As10  1  0.16203542  0.33760872  0.83510910  1
  As  As11  1  0.84292226  0.66794562  0.16632976  1
  As  As12  1  0.21077808  0.93161216  0.09584891  1
  As  As13  1  0.79018356  0.06805121  0.90511427  1
  As  As14  1  0.52560457  0.40776433  0.26031663  1
  As  As15  1  0.47270058  0.59205270  0.74318891  1
  As  As16  1  0.69662777  0.94583512  0.45572658  1
  As  As17  1  0.30191521  0.05232561  0.53965817  1
  O  O18  1  0.09799433  0.70987691  0.68926467  1
  O  O19  1  0.90384329  0.28898438  0.31205818  1
  O  O20  1  0.62504662  0.08629184  0.96095345  1
  O  O21  1  0.37549846  0.90325905  0.04154942  1
  O  O22  1  0.00854093  0.65722033  0.35600260  1
  O  O23  1  0.99241009  0.34551604  0.64743898  1
  O  O24  1  0.47754752  0.76060801  0.34446594  1
  O  O25  1  0.51570706  0.23571704  0.63659127  1
  O  O26  1  0.27378998  0.56696898  0.55363706  1
  O  O27  1  0.72843257  0.43784732  0.44913679  1
  O  O28  1  0.86646840  0.26199987  0.85772954  1
  O  O29  1  0.13278763  0.73941415  0.14490002  1
  O  O30  1  0.28525624  0.06216254  0.72852485  1
  O  O31  1  0.71053251  0.93200369  0.26439135  1
  O  O32  1  0.14031170  0.46665868  0.22171566  1
  O  O33  1  0.86099885  0.53396802  0.77932439  1
  O  O34  1  0.78093339  0.48057646  0.02904127  1
  O  O35  1  0.22817273  0.52877264  0.97913708  1
  O  O36  1  0.62135754  0.10375885  0.41537753  1
  O  O37  1  0.38222536  0.89426021  0.58360317  1
  O  O38  1  0.36557083  0.41167611  0.79965568  1
  O  O39  1  0.62494341  0.58958521  0.19212961  1
  O  O40  1  0.48018570  0.74073237  0.89068556  1
  O  O41  1  0.51891939  0.25633941  0.12199592  1
  O  O42  1  0.01865568  0.87557378  0.88816624  1
  O  O43  1  0.98484551  0.12479637  0.11265760  1
