# generated using pymatgen
data_MgSiO3
_symmetry_space_group_name_H-M   'P 1'
_cell_length_a   4.99059907
_cell_length_b   9.06394537
_cell_length_c   9.34513953
_cell_angle_alpha   90.00000000
_cell_angle_beta   90.00000000
_cell_angle_gamma   90.00000000
_symmetry_Int_Tables_number   1
_chemical_formula_structural   MgSiO3
_chemical_formula_sum   'Mg8 Si8 O24'
_cell_volume   422.72287606
_cell_formula_units_Z   8
loop_
 _symmetry_equiv_pos_site_id
 _symmetry_equiv_pos_as_xyz
  1  'x, y, z'
loop_
 _atom_site_type_symbol
 _atom_site_label
 _atom_site_symmetry_multiplicity
 _atom_site_fract_x
 _atom_site_fract_y
 _atom_site_fract_z
 _atom_site_occupancy
  Mg  Mg0  1  0.25000000  0.27250042  0.00000000  1
  Mg  Mg1  1  0.25000000  0.90263593  0.00000000  1
  Mg  Mg2  1  0.25000000  0.77250042  0.50000000  1
  Mg  Mg3  1  0.75000000  0.59736407  0.50000000  1
  Mg  Mg4  1  0.75000000  0.72749958  0.00000000  1
  Mg  Mg5  1  0.75000000  0.09736407  0.00000000  1
  Mg  Mg6  1  0.75000000  0.22749958  0.50000000  1
  Mg  Mg7  1  0.25000000  0.40263593  0.50000000  1
  Si  Si8  1  0.32939696  0.59151470  0.79389426  1
  Si  Si9  1  0.32939696  0.09151470  0.70610574  1
  Si  Si10  1  0.17060304  0.59151470  0.20610574  1
  Si  Si11  1  0.82939696  0.40848530  0.79389426  1
  Si  Si12  1  0.17060304  0.09151470  0.29389426  1
  Si  Si13  1  0.82939696  0.90848530  0.70610574  1
  Si  Si14  1  0.67060304  0.90848530  0.29389426  1
  Si  Si15  1  0.67060304  0.40848530  0.20610574  1
  O  O16  1  0.48329188  0.55293562  0.15041517  1
  O  O17  1  0.11196513  0.09267454  0.12131656  1
  O  O18  1  0.07476047  0.23586219  0.37933659  1
  O  O19  1  0.38803487  0.09267454  0.87868344  1
  O  O20  1  0.48329188  0.05293562  0.34958483  1
  O  O21  1  0.61196513  0.40732546  0.37868344  1
  O  O22  1  0.57476047  0.76413781  0.37933659  1
  O  O23  1  0.07476047  0.73586219  0.12066341  1
  O  O24  1  0.42523953  0.23586219  0.62066341  1
  O  O25  1  0.57476047  0.26413781  0.12066341  1
  O  O26  1  0.92523953  0.26413781  0.87933659  1
  O  O27  1  0.38803487  0.59267454  0.62131656  1
  O  O28  1  0.11196513  0.59267454  0.37868344  1
  O  O29  1  0.01670812  0.55293562  0.84958483  1
  O  O30  1  0.01670812  0.05293562  0.65041517  1
  O  O31  1  0.51670812  0.94706438  0.65041517  1
  O  O32  1  0.98329188  0.94706438  0.34958483  1
  O  O33  1  0.61196513  0.90732546  0.12131656  1
  O  O34  1  0.88803487  0.90732546  0.87868344  1
  O  O35  1  0.88803487  0.40732546  0.62131656  1
  O  O36  1  0.98329188  0.44706438  0.15041517  1
  O  O37  1  0.51670812  0.44706438  0.84958483  1
  O  O38  1  0.42523953  0.73586219  0.87933659  1
  O  O39  1  0.92523953  0.76413781  0.62066341  1
