# generated using pymatgen
data_Ce6In14Pt11
_symmetry_space_group_name_H-M   'P 1'
_cell_length_a   4.48042827
_cell_length_b   11.66532805
_cell_length_c   13.99144057
_cell_angle_alpha   72.02790045
_cell_angle_beta   80.78228906
_cell_angle_gamma   78.92959664
_symmetry_Int_Tables_number   1
_chemical_formula_structural   Ce6In14Pt11
_chemical_formula_sum   'Ce6 In14 Pt11'
_cell_volume   678.64488204
_cell_formula_units_Z   1
loop_
 _symmetry_equiv_pos_site_id
 _symmetry_equiv_pos_as_xyz
  1  'x, y, z'
loop_
 _atom_site_type_symbol
 _atom_site_label
 _atom_site_symmetry_multiplicity
 _atom_site_fract_x
 _atom_site_fract_y
 _atom_site_fract_z
 _atom_site_occupancy
  Ce  Ce0  1  0.37195500  0.45959267  0.80270334  1
  Ce  Ce1  1  0.63384108  0.54868379  0.19044363  1
  Ce  Ce2  1  0.88189831  0.87649863  0.36129240  1
  Ce  Ce3  1  0.12146264  0.11855123  0.64252919  1
  Ce  Ce4  1  0.86056536  0.64814433  0.63223385  1
  Ce  Ce5  1  0.14088648  0.34933974  0.37013736  1
  In  In6  1  0.38285630  0.21133266  0.02306556  1
  In  In7  1  0.61783808  0.78996401  0.97469045  1
  In  In8  1  0.77145907  0.21375923  0.24323786  1
  In  In9  1  0.51215791  0.17936588  0.79853685  1
  In  In10  1  0.53969672  0.35725099  0.56685110  1
  In  In11  1  0.06412978  0.97404762  0.89967944  1
  In  In12  1  0.46472215  0.64209634  0.43296567  1
  In  In13  1  0.48534111  0.82531373  0.20219222  1
  In  In14  1  0.79737889  0.40280627  0.00338815  1
  In  In15  1  0.22948423  0.78530309  0.75805355  1
  In  In16  1  0.73956278  0.94187884  0.58256363  1
  In  In17  1  0.93784370  0.02637914  0.10139601  1
  In  In18  1  0.20789807  0.59570929  0.99584426  1
  In  In19  1  0.26532042  0.05368300  0.41829593  1
  Pt  Pt20  1  0.32337423  0.81164971  0.54359324  1
  Pt  Pt21  1  0.63772485  0.94508673  0.78013355  1
  Pt  Pt22  1  0.93801757  0.22319193  0.90148909  1
  Pt  Pt23  1  0.23722592  0.37073086  0.14959271  1
  Pt  Pt24  1  0.97724053  0.35552067  0.69753230  1
  Pt  Pt25  1  0.67960548  0.18465098  0.45851448  1
  Pt  Pt26  1  0.06051251  0.77873105  0.09700510  1
  Pt  Pt27  1  0.03357215  0.64608906  0.30022134  1
  Pt  Pt28  1  0.76552684  0.62768067  0.85124452  1
  Pt  Pt29  1  0.00129900  0.50065189  0.49909466  1
  Pt  Pt30  1  0.36504581  0.05830698  0.21923457  1
