# generated using pymatgen
data_P2CN3Cl5
_symmetry_space_group_name_H-M   'P 1'
_cell_length_a   7.93950062
_cell_length_b   17.14337683
_cell_length_c   29.86245166
_cell_angle_alpha   90.00000000
_cell_angle_beta   90.00000000
_cell_angle_gamma   90.00000000
_symmetry_Int_Tables_number   1
_chemical_formula_structural   P2CN3Cl5
_chemical_formula_sum   'P32 C16 N48 Cl80'
_cell_volume   4064.57384506
_cell_formula_units_Z   16
loop_
 _symmetry_equiv_pos_site_id
 _symmetry_equiv_pos_as_xyz
  1  'x, y, z'
loop_
 _atom_site_type_symbol
 _atom_site_label
 _atom_site_symmetry_multiplicity
 _atom_site_fract_x
 _atom_site_fract_y
 _atom_site_fract_z
 _atom_site_occupancy
  P  P0  1  0.73436534  0.61329439  0.77350682  1
  P  P1  1  0.25868320  0.33519224  0.53973250  1
  P  P2  1  0.23363690  0.52794377  0.68544581  1
  P  P3  1  0.23436534  0.38670561  0.72649318  1
  P  P4  1  0.76563466  0.61329439  0.27350682  1
  P  P5  1  0.75868320  0.66480776  0.96026750  1
  P  P6  1  0.71987175  0.66646457  0.55083957  1
  P  P7  1  0.24131680  0.33519224  0.03973250  1
  P  P8  1  0.73363690  0.97205623  0.68544581  1
  P  P9  1  0.76636310  0.97205623  0.18544581  1
  P  P10  1  0.78012825  0.66646457  0.05083957  1
  P  P11  1  0.25868320  0.83519224  0.96026750  1
  P  P12  1  0.21987175  0.33353543  0.94916043  1
  P  P13  1  0.26636310  0.02794377  0.31455419  1
  P  P14  1  0.26636310  0.52794377  0.18544581  1
  P  P15  1  0.75868320  0.16480776  0.53973250  1
  P  P16  1  0.26563466  0.38670561  0.22649318  1
  P  P17  1  0.73363690  0.47205623  0.81455419  1
  P  P18  1  0.28012825  0.33353543  0.44916043  1
  P  P19  1  0.71987175  0.16646457  0.94916043  1
  P  P20  1  0.24131680  0.83519224  0.46026750  1
  P  P21  1  0.76563466  0.11329439  0.22649318  1
  P  P22  1  0.78012825  0.16646457  0.44916043  1
  P  P23  1  0.73436534  0.11329439  0.72649318  1
  P  P24  1  0.28012825  0.83353543  0.05083957  1
  P  P25  1  0.74131680  0.66480776  0.46026750  1
  P  P26  1  0.26563466  0.88670561  0.27350682  1
  P  P27  1  0.23363690  0.02794377  0.81455419  1
  P  P28  1  0.74131680  0.16480776  0.03973250  1
  P  P29  1  0.23436534  0.88670561  0.77350682  1
  P  P30  1  0.76636310  0.47205623  0.31455419  1
  P  P31  1  0.21987175  0.83353543  0.55083957  1
  C  C32  1  0.48392090  0.06505382  0.68123815  1
  C  C33  1  0.98473255  0.88626030  0.50169564  1
  C  C34  1  0.98392090  0.93494618  0.81876185  1
  C  C35  1  0.48473255  0.11373970  0.99830436  1
  C  C36  1  0.51526745  0.38626030  0.49830436  1
  C  C37  1  0.98473255  0.38626030  0.99830436  1
  C  C38  1  0.98392090  0.43494618  0.68123815  1
  C  C39  1  0.01607910  0.06505382  0.18123815  1
  C  C40  1  0.01526745  0.61373970  0.00169564  1
  C  C41  1  0.48392090  0.56505382  0.81876185  1
  C  C42  1  0.51607910  0.93494618  0.31876185  1
  C  C43  1  0.51607910  0.43494618  0.18123815  1
  C  C44  1  0.01526745  0.11373970  0.49830436  1
  C  C45  1  0.48473255  0.61373970  0.50169564  1
  C  C46  1  0.51526745  0.88626030  0.00169564  1
  C  C47  1  0.01607910  0.56505382  0.31876185  1
  N  N48  1  0.03668717  0.87290172  0.54307436  1
  N  N49  1  0.55613198  0.62536045  0.46186434  1
  N  N50  1  0.44386802  0.87463955  0.96186434  1
  N  N51  1  0.82879889  0.53205312  0.78201424  1
  N  N52  1  0.53668717  0.12709828  0.95692564  1
  N  N53  1  0.46331283  0.37290172  0.45692564  1
  N  N54  1  0.03668717  0.37290172  0.95692564  1
  N  N55  1  0.05613198  0.87463955  0.46186434  1
  N  N56  1  0.55613198  0.12536045  0.03813566  1
  N  N57  1  0.95435034  0.49622513  0.33070579  1
  N  N58  1  0.45435034  0.00377487  0.33070579  1
  N  N59  1  0.96331283  0.12709828  0.45692564  1
  N  N60  1  0.04564966  0.00377487  0.83070579  1
  N  N61  1  0.95174520  0.62353614  0.29514608  1
  N  N62  1  0.32879889  0.96794688  0.78201424  1
  N  N63  1  0.82879889  0.03205312  0.71798576  1
  N  N64  1  0.45174520  0.87646386  0.29514608  1
  N  N65  1  0.32200011  0.30789027  0.99316405  1
  N  N66  1  0.32879889  0.46794688  0.71798576  1
  N  N67  1  0.67799989  0.69210973  0.00683595  1
  N  N68  1  0.82200011  0.69210973  0.50683595  1
  N  N69  1  0.94386802  0.12536045  0.53813566  1
  N  N70  1  0.96331283  0.62709828  0.04307436  1
  N  N71  1  0.95435034  0.99622513  0.16929421  1
  N  N72  1  0.67799989  0.19210973  0.49316405  1
  N  N73  1  0.54825480  0.12353614  0.70485392  1
  N  N74  1  0.05613198  0.37463955  0.03813566  1
  N  N75  1  0.82200011  0.19210973  0.99316405  1
  N  N76  1  0.94386802  0.62536045  0.96186434  1
  N  N77  1  0.04825480  0.37646386  0.70485392  1
  N  N78  1  0.17120111  0.96794688  0.28201424  1
  N  N79  1  0.45174520  0.37646386  0.20485392  1
  N  N80  1  0.54825480  0.62353614  0.79514608  1
  N  N81  1  0.04564966  0.50377487  0.66929421  1
  N  N82  1  0.46331283  0.87290172  0.04307436  1
  N  N83  1  0.53668717  0.62709828  0.54307436  1
  N  N84  1  0.67120111  0.03205312  0.21798576  1
  N  N85  1  0.04825480  0.87646386  0.79514608  1
  N  N86  1  0.17799989  0.30789027  0.49316405  1
  N  N87  1  0.44386802  0.37463955  0.53813566  1
  N  N88  1  0.95174520  0.12353614  0.20485392  1
  N  N89  1  0.67120111  0.53205312  0.28201424  1
  N  N90  1  0.32200011  0.80789027  0.50683595  1
  N  N91  1  0.17799989  0.80789027  0.00683595  1
  N  N92  1  0.54564966  0.99622513  0.66929421  1
  N  N93  1  0.17120111  0.46794688  0.21798576  1
  N  N94  1  0.54564966  0.49622513  0.83070579  1
  N  N95  1  0.45435034  0.50377487  0.16929421  1
  Cl  Cl96  1  0.28259248  0.57304533  0.49866711  1
  Cl  Cl97  1  0.71916672  0.36659886  0.78557139  1
  Cl  Cl98  1  0.85732726  0.09348292  0.91111314  1
  Cl  Cl99  1  0.72122442  0.91770845  0.33835956  1
  Cl  Cl100  1  0.37551080  0.79635778  0.79420174  1
  Cl  Cl101  1  0.21916672  0.63340114  0.71442861  1
  Cl  Cl102  1  0.21729921  0.86661557  0.70738987  1
  Cl  Cl103  1  0.64267274  0.09348292  0.41111314  1
  Cl  Cl104  1  0.37279457  0.05026154  0.86917917  1
  Cl  Cl105  1  0.87551080  0.70364222  0.79420174  1
  Cl  Cl106  1  0.28270079  0.36661557  0.29261013  1
  Cl  Cl107  1  0.60103574  0.58999547  0.92951693  1
  Cl  Cl108  1  0.72122442  0.41770845  0.16164044  1
  Cl  Cl109  1  0.69310443  0.25857609  0.90834150  1
  Cl  Cl110  1  0.10103574  0.41000453  0.57048307  1
  Cl  Cl111  1  0.78270079  0.13338443  0.29261013  1
  Cl  Cl112  1  0.39896426  0.41000453  0.07048307  1
  Cl  Cl113  1  0.22122442  0.58229155  0.33835956  1
  Cl  Cl114  1  0.28083328  0.63340114  0.21442861  1
  Cl  Cl115  1  0.77877558  0.91770845  0.83835956  1
  Cl  Cl116  1  0.76539980  0.75443624  0.91732499  1
  Cl  Cl117  1  0.71916672  0.86659886  0.71442861  1
  Cl  Cl118  1  0.89896426  0.08999547  0.07048307  1
  Cl  Cl119  1  0.87279457  0.94973846  0.63082083  1
  Cl  Cl120  1  0.71729921  0.63338443  0.70738987  1
  Cl  Cl121  1  0.21916672  0.13340114  0.78557139  1
  Cl  Cl122  1  0.35732726  0.90651708  0.58888686  1
  Cl  Cl123  1  0.78259248  0.92695467  0.49866711  1
  Cl  Cl124  1  0.77877558  0.41770845  0.66164044  1
  Cl  Cl125  1  0.78083328  0.86659886  0.21442861  1
  Cl  Cl126  1  0.60103574  0.08999547  0.57048307  1
  Cl  Cl127  1  0.30689557  0.24142391  0.40834150  1
  Cl  Cl128  1  0.64267274  0.59348292  0.08888686  1
  Cl  Cl129  1  0.37551080  0.29635778  0.70579826  1
  Cl  Cl130  1  0.78259248  0.42695467  0.00133289  1
  Cl  Cl131  1  0.12448920  0.29635778  0.20579826  1
  Cl  Cl132  1  0.37279457  0.55026154  0.63082083  1
  Cl  Cl133  1  0.23460020  0.74556376  0.41732499  1
  Cl  Cl134  1  0.39896426  0.91000453  0.42951693  1
  Cl  Cl135  1  0.73460020  0.75443624  0.41732499  1
  Cl  Cl136  1  0.87551080  0.20364222  0.70579826  1
  Cl  Cl137  1  0.62720543  0.44973846  0.36917917  1
  Cl  Cl138  1  0.23460020  0.24556376  0.08267501  1
  Cl  Cl139  1  0.14267274  0.90651708  0.08888686  1
  Cl  Cl140  1  0.62448920  0.20364222  0.20579826  1
  Cl  Cl141  1  0.21729921  0.36661557  0.79261013  1
  Cl  Cl142  1  0.35732726  0.40651708  0.91111314  1
  Cl  Cl143  1  0.28259248  0.07304533  0.00133289  1
  Cl  Cl144  1  0.73460020  0.25443624  0.08267501  1
  Cl  Cl145  1  0.28270079  0.86661557  0.20738987  1
  Cl  Cl146  1  0.14267274  0.40651708  0.41111314  1
  Cl  Cl147  1  0.80689557  0.75857609  0.09165850  1
  Cl  Cl148  1  0.71729921  0.13338443  0.79261013  1
  Cl  Cl149  1  0.21740752  0.07304533  0.50133289  1
  Cl  Cl150  1  0.19310443  0.74142391  0.59165850  1
  Cl  Cl151  1  0.87279457  0.44973846  0.86917917  1
  Cl  Cl152  1  0.21740752  0.57304533  0.99866711  1
  Cl  Cl153  1  0.12448920  0.79635778  0.29420174  1
  Cl  Cl154  1  0.80689557  0.25857609  0.40834150  1
  Cl  Cl155  1  0.27877558  0.08229155  0.66164044  1
  Cl  Cl156  1  0.22122442  0.08229155  0.16164044  1
  Cl  Cl157  1  0.27877558  0.58229155  0.83835956  1
  Cl  Cl158  1  0.85732726  0.59348292  0.58888686  1
  Cl  Cl159  1  0.76539980  0.25443624  0.58267501  1
  Cl  Cl160  1  0.78083328  0.36659886  0.28557139  1
  Cl  Cl161  1  0.89896426  0.58999547  0.42951693  1
  Cl  Cl162  1  0.69310443  0.75857609  0.59165850  1
  Cl  Cl163  1  0.26539980  0.74556376  0.91732499  1
  Cl  Cl164  1  0.26539980  0.24556376  0.58267501  1
  Cl  Cl165  1  0.30689557  0.74142391  0.09165850  1
  Cl  Cl166  1  0.19310443  0.24142391  0.90834150  1
  Cl  Cl167  1  0.62720543  0.94973846  0.13082083  1
  Cl  Cl168  1  0.12720543  0.05026154  0.36917917  1
  Cl  Cl169  1  0.28083328  0.13340114  0.28557139  1
  Cl  Cl170  1  0.62448920  0.70364222  0.29420174  1
  Cl  Cl171  1  0.78270079  0.63338443  0.20738987  1
  Cl  Cl172  1  0.12720543  0.55026154  0.13082083  1
  Cl  Cl173  1  0.10103574  0.91000453  0.92951693  1
  Cl  Cl174  1  0.71740752  0.42695467  0.50133289  1
  Cl  Cl175  1  0.71740752  0.92695467  0.99866711  1
