# generated using pymatgen
data_Ba14Na11Li5N6
_symmetry_space_group_name_H-M   'P 1'
_cell_length_a   12.65735481
_cell_length_b   12.65740538
_cell_length_c   12.65748049
_cell_angle_alpha   59.99950684
_cell_angle_beta   59.99973143
_cell_angle_gamma   59.99944596
_symmetry_Int_Tables_number   1
_chemical_formula_structural   Ba14Na11Li5N6
_chemical_formula_sum   'Ba14 Na11 Li5 N6'
_cell_volume   1433.88920136
_cell_formula_units_Z   1
loop_
 _symmetry_equiv_pos_site_id
 _symmetry_equiv_pos_as_xyz
  1  'x, y, z'
loop_
 _atom_site_type_symbol
 _atom_site_label
 _atom_site_symmetry_multiplicity
 _atom_site_fract_x
 _atom_site_fract_y
 _atom_site_fract_z
 _atom_site_occupancy
  Ba  Ba0  1  0.28536632  0.71463356  0.28536886  1
  Ba  Ba1  1  0.89761498  0.89761062  0.89761360  1
  Ba  Ba2  1  0.89761082  0.89761352  0.30716467  1
  Ba  Ba3  1  0.10324434  0.10324585  0.10324985  1
  Ba  Ba4  1  0.10324308  0.10325564  0.69025367  1
  Ba  Ba5  1  0.69025768  0.10324726  0.10325328  1
  Ba  Ba6  1  0.71463469  0.71464052  0.28537108  1
  Ba  Ba7  1  0.28536154  0.71464383  0.71463354  1
  Ba  Ba8  1  0.71463580  0.28536400  0.28536039  1
  Ba  Ba9  1  0.30716305  0.89760294  0.89761895  1
  Ba  Ba10  1  0.10325328  0.69025993  0.10324426  1
  Ba  Ba11  1  0.28536544  0.28536018  0.71463285  1
  Ba  Ba12  1  0.89760975  0.30715646  0.89761848  1
  Ba  Ba13  1  0.71463462  0.28536613  0.71463564  1
  Na  Na14  1  0.98907016  0.67030970  0.67031298  1
  Na  Na15  1  0.01035333  0.48964562  0.01035849  1
  Na  Na16  1  0.67030939  0.67031213  0.67031388  1
  Na  Na17  1  0.48964028  0.48964026  0.01035858  1
  Na  Na18  1  0.48963933  0.01036004  0.48963885  1
  Na  Na19  1  0.49999499  0.49999826  0.50000106  1
  Na  Na20  1  0.01035670  0.01035932  0.48964032  1
  Na  Na21  1  0.67031391  0.67031007  0.98906463  1
  Na  Na22  1  0.01035914  0.48964073  0.48964299  1
  Na  Na23  1  0.48963944  0.01036200  0.01035969  1
  Na  Na24  1  0.67031316  0.98906838  0.67030563  1
  Li  Li25  1  0.35697413  0.35697357  0.35697267  1
  Li  Li26  1  0.35697299  0.35697303  0.92907820  1
  Li  Li27  1  0.92907709  0.35697353  0.35697356  1
  Li  Li28  1  0.35697207  0.92908195  0.35697144  1
  Li  Li29  1  0.99999764  0.00000011  0.00000027  1
  N  N30  1  0.85455791  0.85454912  0.14544264  1
  N  N31  1  0.14544913  0.14544648  0.85454831  1
  N  N32  1  0.14544956  0.85455779  0.85455432  1
  N  N33  1  0.14545041  0.85455163  0.14544855  1
  N  N34  1  0.85455781  0.14544461  0.85455119  1
  N  N35  1  0.85455602  0.14544124  0.14544265  1
