# generated using pymatgen
data_SbRu2C6Cl7O6
_symmetry_space_group_name_H-M   'P 1'
_cell_length_a   9.39527260
_cell_length_b   12.11108093
_cell_length_c   17.09306761
_cell_angle_alpha   90.00000000
_cell_angle_beta   100.22060981
_cell_angle_gamma   90.00000000
_symmetry_Int_Tables_number   1
_chemical_formula_structural   SbRu2C6Cl7O6
_chemical_formula_sum   'Sb4 Ru8 C24 Cl28 O24'
_cell_volume   1914.10425028
_cell_formula_units_Z   4
loop_
 _symmetry_equiv_pos_site_id
 _symmetry_equiv_pos_as_xyz
  1  'x, y, z'
loop_
 _atom_site_type_symbol
 _atom_site_label
 _atom_site_symmetry_multiplicity
 _atom_site_fract_x
 _atom_site_fract_y
 _atom_site_fract_z
 _atom_site_occupancy
  Sb  Sb0  1  0.36366399  0.14021463  0.37701353  1
  Sb  Sb1  1  0.63633601  0.64021463  0.12298647  1
  Sb  Sb2  1  0.63633601  0.85978537  0.62298647  1
  Sb  Sb3  1  0.36366399  0.35978537  0.87701353  1
  Ru  Ru4  1  0.13250034  0.46252056  0.08941704  1
  Ru  Ru5  1  0.13250034  0.03747944  0.58941704  1
  Ru  Ru6  1  0.86749966  0.53747944  0.91058296  1
  Ru  Ru7  1  0.80607715  0.46271004  0.47335810  1
  Ru  Ru8  1  0.86749966  0.96252056  0.41058296  1
  Ru  Ru9  1  0.19392285  0.53728996  0.52664190  1
  Ru  Ru10  1  0.80607715  0.03728996  0.97335810  1
  Ru  Ru11  1  0.19392285  0.96271004  0.02664190  1
  C  C12  1  0.14692865  0.63480477  0.60696627  1
  C  C13  1  0.80037236  0.03047146  0.30964852  1
  C  C14  1  0.31125887  0.64059531  0.48437858  1
  C  C15  1  0.73464197  0.65646352  0.89028778  1
  C  C16  1  0.26535803  0.15646352  0.60971222  1
  C  C17  1  0.73464197  0.84353648  0.39028778  1
  C  C18  1  0.64165297  0.51705199  0.40295844  1
  C  C19  1  0.68874113  0.35940469  0.51562142  1
  C  C20  1  0.85307135  0.36519523  0.39303373  1
  C  C21  1  0.01459799  0.61606416  0.86913363  1
  C  C22  1  0.35834703  0.48294801  0.59704156  1
  C  C23  1  0.19962764  0.53047146  0.19035148  1
  C  C24  1  0.98540201  0.11606416  0.63086637  1
  C  C25  1  0.35834703  0.01705199  0.09704156  1
  C  C26  1  0.85307135  0.13480477  0.89303373  1
  C  C27  1  0.68874113  0.14059531  0.01562142  1
  C  C28  1  0.19962764  0.96952854  0.69035148  1
  C  C29  1  0.31125887  0.85940469  0.98437858  1
  C  C30  1  0.80037236  0.46952854  0.80964852  1
  C  C31  1  0.26535803  0.34353648  0.10971222  1
  C  C32  1  0.01459799  0.88393584  0.36913363  1
  C  C33  1  0.14692865  0.86519523  0.10696627  1
  C  C34  1  0.64165297  0.98294801  0.90295844  1
  C  C35  1  0.98540201  0.38393584  0.13086637  1
  Cl  Cl36  1  0.30768081  0.94008666  0.52605722  1
  Cl  Cl37  1  0.97707929  0.59799757  0.43092585  1
  Cl  Cl38  1  0.48273825  0.74784040  0.68850394  1
  Cl  Cl39  1  0.24756020  0.09660045  0.93047482  1
  Cl  Cl40  1  0.24756020  0.40339955  0.43047482  1
  Cl  Cl41  1  0.84460441  0.82616970  0.72519993  1
  Cl  Cl42  1  0.48273825  0.75215960  0.18850394  1
  Cl  Cl43  1  0.59258755  0.03034770  0.68506483  1
  Cl  Cl44  1  0.40741245  0.53034770  0.81493517  1
  Cl  Cl45  1  0.75243980  0.90339955  0.06952518  1
  Cl  Cl46  1  0.15539559  0.17383030  0.27480007  1
  Cl  Cl47  1  0.69231919  0.44008666  0.97394278  1
  Cl  Cl48  1  0.15539559  0.32616970  0.77480007  1
  Cl  Cl49  1  0.40741245  0.96965230  0.31493517  1
  Cl  Cl50  1  0.69231919  0.05991334  0.47394278  1
  Cl  Cl51  1  0.51726175  0.24784040  0.81149606  1
  Cl  Cl52  1  0.03880571  0.38473370  0.95646848  1
  Cl  Cl53  1  0.30768081  0.55991334  0.02605722  1
  Cl  Cl54  1  0.51726175  0.25215960  0.31149606  1
  Cl  Cl55  1  0.96119429  0.88473370  0.54353152  1
  Cl  Cl56  1  0.75243980  0.59660045  0.56952518  1
  Cl  Cl57  1  0.96119429  0.61526630  0.04353152  1
  Cl  Cl58  1  0.03880571  0.11526630  0.45646848  1
  Cl  Cl59  1  0.97707929  0.90200243  0.93092585  1
  Cl  Cl60  1  0.02292071  0.40200243  0.56907415  1
  Cl  Cl61  1  0.02292071  0.09799757  0.06907415  1
  Cl  Cl62  1  0.59258755  0.46965230  0.18506483  1
  Cl  Cl63  1  0.84460441  0.67383030  0.22519993  1
  O  O64  1  0.65391225  0.72870135  0.88216412  1
  O  O65  1  0.65391225  0.77129865  0.38216412  1
  O  O66  1  0.38431314  0.70109531  0.45764833  1
  O  O67  1  0.23619713  0.92849625  0.75122607  1
  O  O68  1  0.10028838  0.66557253  0.84354875  1
  O  O69  1  0.45959593  0.04795387  0.13925542  1
  O  O70  1  0.61568686  0.29890469  0.54235167  1
  O  O71  1  0.87782520  0.31087358  0.34182081  1
  O  O72  1  0.76380287  0.42849625  0.74877393  1
  O  O73  1  0.54040407  0.54795387  0.36074458  1
  O  O74  1  0.61568686  0.20109531  0.04235167  1
  O  O75  1  0.45959593  0.45204613  0.63925542  1
  O  O76  1  0.38431314  0.79890469  0.95764833  1
  O  O77  1  0.54040407  0.95204613  0.86074458  1
  O  O78  1  0.76380287  0.07150375  0.24877393  1
  O  O79  1  0.12217480  0.81087358  0.15817919  1
  O  O80  1  0.12217480  0.68912642  0.65817919  1
  O  O81  1  0.34608775  0.22870135  0.61783588  1
  O  O82  1  0.23619713  0.57150375  0.25122607  1
  O  O83  1  0.89971162  0.33442747  0.15645125  1
  O  O84  1  0.87782520  0.18912642  0.84182081  1
  O  O85  1  0.10028838  0.83442747  0.34354875  1
  O  O86  1  0.34608775  0.27129865  0.11783588  1
  O  O87  1  0.89971162  0.16557253  0.65645125  1
