# generated using pymatgen
data_Dy2TiO5
_symmetry_space_group_name_H-M   'P 1'
_cell_length_a   7.15901451
_cell_length_b   7.31393672
_cell_length_c   14.67516035
_cell_angle_alpha   60.53659631
_cell_angle_beta   60.02080352
_cell_angle_gamma   60.41088741
_symmetry_Int_Tables_number   1
_chemical_formula_structural   Dy2TiO5
_chemical_formula_sum   'Dy10 Ti5 O25'
_cell_volume   547.28484938
_cell_formula_units_Z   5
loop_
 _symmetry_equiv_pos_site_id
 _symmetry_equiv_pos_as_xyz
  1  'x, y, z'
loop_
 _atom_site_type_symbol
 _atom_site_label
 _atom_site_symmetry_multiplicity
 _atom_site_fract_x
 _atom_site_fract_y
 _atom_site_fract_z
 _atom_site_occupancy
  Dy  Dy0  1  0.98493860  0.04637225  0.97970526  1
  Dy  Dy1  1  0.98820961  0.49319847  0.99222890  1
  Dy  Dy2  1  0.00788051  0.01824813  0.23652170  1
  Dy  Dy3  1  0.49974665  0.00626798  0.99047004  1
  Dy  Dy4  1  0.94542635  0.99491296  0.52705301  1
  Dy  Dy5  1  0.98266049  0.49209824  0.52192992  1
  Dy  Dy6  1  0.02072870  0.97160165  0.75084733  1
  Dy  Dy7  1  0.49445615  0.01550117  0.48165550  1
  Dy  Dy8  1  0.57935559  0.51379086  0.24993720  1
  Dy  Dy9  1  0.48236192  0.49679235  0.01341045  1
  Ti  Ti10  1  0.57448379  0.96898382  0.24150961  1
  Ti  Ti11  1  0.00368729  0.50922691  0.73885598  1
  Ti  Ti12  1  0.53157865  0.48796095  0.49887446  1
  Ti  Ti13  1  0.48430379  0.00983498  0.75810339  1
  Ti  Ti14  1  0.48493589  0.51055331  0.75584028  1
  O  O15  1  0.12803400  0.11905919  0.05321328  1
  O  O16  1  0.59760930  0.13394805  0.08446193  1
  O  O17  1  0.11973680  0.11328437  0.56775390  1
  O  O18  1  0.58300897  0.17148117  0.28502935  1
  O  O19  1  0.58674411  0.62646069  0.08051002  1
  O  O20  1  0.39010402  0.40278277  0.43140957  1
  O  O21  1  0.36691556  0.87417636  0.22871811  1
  O  O22  1  0.15573497  0.59622684  0.58669368  1
  O  O23  1  0.15994956  0.18278898  0.78123912  1
  O  O24  1  0.56693943  0.16152120  0.59216259  1
  O  O25  1  0.94263176  0.37590668  0.17778588  1
  O  O26  1  0.16548576  0.58577145  0.78173042  1
  O  O27  1  0.46092567  0.80973795  0.40337228  1
  O  O28  1  0.57752270  0.16522502  0.79271487  1
  O  O29  1  0.84212801  0.38514402  0.43171634  1
  O  O30  1  0.87379043  0.82542291  0.19978054  1
  O  O31  1  0.56676370  0.57526678  0.59056940  1
  O  O32  1  0.41356132  0.81540185  0.72340430  1
  O  O33  1  0.38546822  0.42024251  0.91776941  1
  O  O34  1  0.81637184  0.43206021  0.70974903  1
  O  O35  1  0.87895611  0.87281485  0.43406456  1
  O  O36  1  0.37725417  0.85414476  0.91756304  1
  O  O37  1  0.83583636  0.41766711  0.91514318  1
  O  O38  1  0.81453787  0.82827136  0.71666181  1
  O  O39  1  0.89123537  0.86584892  0.93284038  1
