# generated using pymatgen
data_Ba8Re2(WO8)3
_symmetry_space_group_name_H-M   'P 1'
_cell_length_a   19.72453135
_cell_length_b   19.72453136
_cell_length_c   19.72453072
_cell_angle_alpha   16.98919117
_cell_angle_beta   16.98919108
_cell_angle_gamma   16.98919054
_symmetry_Int_Tables_number   1
_chemical_formula_structural   Ba8Re2(WO8)3
_chemical_formula_sum   'Ba8 Re2 W3 O24'
_cell_volume   571.55127343
_cell_formula_units_Z   1
loop_
 _symmetry_equiv_pos_site_id
 _symmetry_equiv_pos_as_xyz
  1  'x, y, z'
loop_
 _atom_site_type_symbol
 _atom_site_label
 _atom_site_symmetry_multiplicity
 _atom_site_fract_x
 _atom_site_fract_y
 _atom_site_fract_z
 _atom_site_occupancy
  Ba  Ba0  1  0.72915575  0.72915575  0.72915575  1
  Ba  Ba1  1  0.81540066  0.81540066  0.81540066  1
  Ba  Ba2  1  0.88499687  0.88499687  0.88499687  1
  Ba  Ba3  1  0.11500313  0.11500313  0.11500313  1
  Ba  Ba4  1  0.27084425  0.27084425  0.27084425  1
  Ba  Ba5  1  0.35067760  0.35067760  0.35067760  1
  Ba  Ba6  1  0.64932240  0.64932240  0.64932240  1
  Ba  Ba7  1  0.18459934  0.18459934  0.18459934  1
  Re  Re8  1  0.96092981  0.96092981  0.96092981  1
  Re  Re9  1  0.03907019  0.03907019  0.03907019  1
  W  W10  1  0.41653566  0.41653566  0.41653566  1
  W  W11  1  0.58346434  0.58346434  0.58346434  1
  W  W12  1  0.50000000  0.50000000  0.50000000  1
  O  O13  1  0.86787782  0.33093997  0.86787782  1
  O  O14  1  0.19851185  0.67903504  0.67903504  1
  O  O15  1  0.72989603  0.22309788  0.22309788  1
  O  O16  1  0.32096496  0.80148815  0.32096496  1
  O  O17  1  0.59027899  0.11253013  0.59027899  1
  O  O18  1  0.77690212  0.27010397  0.77690212  1
  O  O19  1  0.67903504  0.19851185  0.67903504  1
  O  O20  1  0.11253013  0.59027899  0.59027899  1
  O  O21  1  0.88746987  0.40972101  0.40972101  1
  O  O22  1  0.32096496  0.32096496  0.80148815  1
  O  O23  1  0.40972101  0.40972101  0.88746987  1
  O  O24  1  0.59027899  0.59027899  0.11253013  1
  O  O25  1  0.80148815  0.32096496  0.32096496  1
  O  O26  1  0.22309788  0.22309788  0.72989603  1
  O  O27  1  0.13212218  0.66906003  0.13212218  1
  O  O28  1  0.67903504  0.67903504  0.19851185  1
  O  O29  1  0.86787782  0.86787782  0.33093997  1
  O  O30  1  0.27010397  0.77690212  0.77690212  1
  O  O31  1  0.40972101  0.88746987  0.40972101  1
  O  O32  1  0.22309788  0.72989603  0.22309788  1
  O  O33  1  0.33093997  0.86787782  0.86787782  1
  O  O34  1  0.13212218  0.13212218  0.66906003  1
  O  O35  1  0.66906003  0.13212218  0.13212218  1
  O  O36  1  0.77690212  0.77690212  0.27010397  1
