# generated using pymatgen
data_U6Ni
_symmetry_space_group_name_H-M   'P 1'
_cell_length_a   5.11104424
_cell_length_b   7.71678935
_cell_length_c   7.70413220
_cell_angle_alpha   83.57665873
_cell_angle_beta   70.75397344
_cell_angle_gamma   70.76341161
_symmetry_Int_Tables_number   1
_chemical_formula_structural   U6Ni
_chemical_formula_sum   'U12 Ni2'
_cell_volume   270.85632634
_cell_formula_units_Z   2
loop_
 _symmetry_equiv_pos_site_id
 _symmetry_equiv_pos_as_xyz
  1  'x, y, z'
loop_
 _atom_site_type_symbol
 _atom_site_label
 _atom_site_symmetry_multiplicity
 _atom_site_fract_x
 _atom_site_fract_y
 _atom_site_fract_z
 _atom_site_occupancy
  U  U0  1  0.10093612  0.67415525  0.11237759  1
  U  U1  1  0.58806403  0.49957604  0.31228774  1
  U  U2  1  0.89909647  0.69099220  0.49935790  1
  U  U3  1  0.89613949  0.32373307  0.88664548  1
  U  U4  1  0.39852997  0.50332733  0.68792491  1
  U  U5  1  0.77842346  0.11149666  0.32394922  1
  U  U6  1  0.21242129  0.88516278  0.67630036  1
  U  U7  1  0.38982931  0.89125873  0.32511895  1
  U  U8  1  0.27818952  0.32414805  0.11339853  1
  U  U9  1  0.60385735  0.10850110  0.67398075  1
  U  U10  1  0.08734943  0.31249943  0.50058846  1
  U  U11  1  0.71381976  0.67388806  0.88686483  1
  Ni  Ni12  1  0.24850843  0.99711472  0.99982085  1
  Ni  Ni13  1  0.74632938  0.00032460  0.99905044  1
