# generated using pymatgen
data_LiSb(PO3)4
_symmetry_space_group_name_H-M   'P 1'
_cell_length_a   7.07222041
_cell_length_b   8.60659832
_cell_length_c   7.85561928
_cell_angle_alpha   90.00000000
_cell_angle_beta   91.09214787
_cell_angle_gamma   90.00000000
_symmetry_Int_Tables_number   1
_chemical_formula_structural   LiSb(PO3)4
_chemical_formula_sum   'Li2 Sb2 P8 O24'
_cell_volume   478.06708705
_cell_formula_units_Z   2
loop_
 _symmetry_equiv_pos_site_id
 _symmetry_equiv_pos_as_xyz
  1  'x, y, z'
loop_
 _atom_site_type_symbol
 _atom_site_label
 _atom_site_symmetry_multiplicity
 _atom_site_fract_x
 _atom_site_fract_y
 _atom_site_fract_z
 _atom_site_occupancy
  Li  Li0  1  0.28650500  0.59563078  0.65206642  1
  Li  Li1  1  0.71349500  0.09563078  0.34793358  1
  Sb  Sb2  1  0.75852448  0.77213356  0.77064287  1
  Sb  Sb3  1  0.24147552  0.27213356  0.22935713  1
  P  P4  1  0.56620013  0.12598983  0.90556460  1
  P  P5  1  0.39255704  0.99141734  0.59306993  1
  P  P6  1  0.00879332  0.60233952  0.39637010  1
  P  P7  1  0.99120668  0.10233952  0.60362990  1
  P  P8  1  0.43379987  0.62598983  0.09443540  1
  P  P9  1  0.08731412  0.82710798  0.10748536  1
  P  P10  1  0.91268588  0.32710798  0.89251464  1
  P  P11  1  0.60744296  0.49141734  0.40693007  1
  O  O12  1  0.17009297  0.99152594  0.62328815  1
  O  O13  1  0.97930097  0.30040338  0.07505231  1
  O  O14  1  0.93794595  0.48064637  0.81033818  1
  O  O15  1  0.54493134  0.33480767  0.33973608  1
  O  O16  1  0.06205405  0.98064637  0.18966182  1
  O  O17  1  0.57657722  0.65328019  0.95868423  1
  O  O18  1  0.42342278  0.15328019  0.04131577  1
  O  O19  1  0.45506866  0.83480767  0.66026392  1
  O  O20  1  0.69033123  0.28031272  0.88624845  1
  O  O21  1  0.53827621  0.62801684  0.27742589  1
  O  O22  1  0.31364877  0.48222539  0.06862317  1
  O  O23  1  0.02069903  0.80040338  0.92494769  1
  O  O24  1  0.56013046  0.53966232  0.58366439  1
  O  O25  1  0.18252002  0.49940998  0.40265740  1
  O  O26  1  0.30966877  0.78031272  0.11375155  1
  O  O27  1  0.46172379  0.12801684  0.72257411  1
  O  O28  1  0.00001361  0.70927043  0.54632958  1
  O  O29  1  -0.00001361  0.20927043  0.45367042  1
  O  O30  1  0.01094693  0.19032175  0.78340258  1
  O  O31  1  0.98905307  0.69032175  0.21659742  1
  O  O32  1  0.68635123  0.98222539  0.93137683  1
  O  O33  1  0.82990703  0.49152594  0.37671185  1
  O  O34  1  0.81747998  0.99940998  0.59734260  1
  O  O35  1  0.43986954  0.03966232  0.41633561  1
