# generated using pymatgen
data_Dy14(PbS8)3
_symmetry_space_group_name_H-M   'P 1'
_cell_length_a   7.30666433
_cell_length_b   7.30276823
_cell_length_c   21.88232462
_cell_angle_alpha   109.17244907
_cell_angle_beta   109.35870465
_cell_angle_gamma   109.90957281
_symmetry_Int_Tables_number   1
_chemical_formula_structural   Dy14(PbS8)3
_chemical_formula_sum   'Dy14 Pb3 S24'
_cell_volume   898.50086295
_cell_formula_units_Z   1
loop_
 _symmetry_equiv_pos_site_id
 _symmetry_equiv_pos_as_xyz
  1  'x, y, z'
loop_
 _atom_site_type_symbol
 _atom_site_label
 _atom_site_symmetry_multiplicity
 _atom_site_fract_x
 _atom_site_fract_y
 _atom_site_fract_z
 _atom_site_occupancy
  Dy  Dy0  1  0.10140963  0.73720460  0.94682885  1
  Dy  Dy1  1  0.24666915  0.60144126  0.78732607  1
  Dy  Dy2  1  0.13906714  0.76208360  0.62867077  1
  Dy  Dy3  1  0.37683558  0.25395915  0.87188337  1
  Dy  Dy4  1  0.11715833  0.74816328  0.28950381  1
  Dy  Dy5  1  0.25483707  0.62765923  0.46340114  1
  Dy  Dy6  1  0.74078141  0.88219393  0.71197672  1
  Dy  Dy7  1  0.39487126  0.26159949  0.55334580  1
  Dy  Dy8  1  0.86804641  0.11713281  0.91250119  1
  Dy  Dy9  1  0.24950410  0.61686222  0.12059486  1
  Dy  Dy10  1  0.75229050  0.88301643  0.37833813  1
  Dy  Dy11  1  0.37730767  0.24738750  0.20970763  1
  Dy  Dy12  1  0.87516301  0.13015191  0.58625941  1
  Dy  Dy13  1  0.73723214  0.87272492  0.03809470  1
  Pb  Pb14  1  0.62345232  0.37717994  0.41861483  1
  Pb  Pb15  1  0.62174096  0.37235324  0.08143619  1
  Pb  Pb16  1  0.87847069  0.12887881  0.25113575  1
  S  S17  1  0.00978052  0.87759641  0.83510123  1
  S  S18  1  0.00230215  0.34999566  0.83262453  1
  S  S19  1  0.01113575  0.88016010  0.50587543  1
  S  S20  1  0.12191217  0.12880447  0.71224971  1
  S  S21  1  0.01172151  0.36282726  0.50460055  1
  S  S22  1  0.35077152  0.50449486  0.66723882  1
  S  S23  1  0.64577897  0.65130410  0.88402809  1
  S  S24  1  0.48898964  0.98426900  0.94650839  1
  S  S25  1  0.00653371  0.85472174  0.16109111  1
  S  S26  1  0.48885586  0.98361264  0.78662898  1
  S  S27  1  0.14315580  0.13604162  0.38642683  1
  S  S28  1  0.01870247  0.36321223  0.16691164  1
  S  S29  1  0.36021618  0.51578520  0.33209002  1
  S  S30  1  0.64062612  0.64944497  0.55299946  1
  S  S31  1  0.49920008  -0.00458424  0.61632135  1
  S  S32  1  0.86993226  0.50547720  0.66471320  1
  S  S33  1  0.50045101  0.99289513  0.45675426  1
  S  S34  1  0.12093300  0.13081966  0.04225103  1
  S  S35  1  0.34912309  0.50193861  0.99546173  1
  S  S36  1  0.63541267  0.63667666  0.21754464  1
  S  S37  1  0.48496502  0.98317649  0.28256024  1
  S  S38  1  0.87143348  0.52520941  0.33935818  1
  S  S39  1  0.47821094  0.98715815  0.11402757  1
  S  S40  1  0.86365870  0.49520234  0.99454576  1
