# generated using pymatgen
data_Y2Zr9O22
_symmetry_space_group_name_H-M   'P 1'
_cell_length_a   3.68130160
_cell_length_b   40.42691009
_cell_length_c   6.39041528
_cell_angle_alpha   54.91861015
_cell_angle_beta   90.00000000
_cell_angle_gamma   90.00000000
_symmetry_Int_Tables_number   1
_chemical_formula_structural   Y2Zr9O22
_chemical_formula_sum   'Y4 Zr18 O44'
_cell_volume   778.27471474
_cell_formula_units_Z   2
loop_
 _symmetry_equiv_pos_site_id
 _symmetry_equiv_pos_as_xyz
  1  'x, y, z'
loop_
 _atom_site_type_symbol
 _atom_site_label
 _atom_site_symmetry_multiplicity
 _atom_site_fract_x
 _atom_site_fract_y
 _atom_site_fract_z
 _atom_site_occupancy
  Y  Y0  1  0.50000000  0.27248978  0.49654493  1
  Y  Y1  1  0.50000000  0.54529175  0.49538088  1
  Y  Y2  1  0.50000000  0.72735566  0.49915358  1
  Y  Y3  1  0.50000000  0.90957714  0.50255213  1
  Zr  Zr4  1  0.00000000  0.00017586  0.00172382  1
  Zr  Zr5  1  0.00000000  0.09115023  0.00018578  1
  Zr  Zr6  1  0.00000000  0.18204372  0.99905941  1
  Zr  Zr7  1  0.00000000  0.36318575  0.00018969  1
  Zr  Zr8  1  0.00000000  0.45489329  0.99930058  1
  Zr  Zr9  1  0.00000000  0.72694990  0.00105781  1
  Zr  Zr10  1  0.00000000  0.81871626  0.00115288  1
  Zr  Zr11  1  0.00000000  0.90902455  0.00351728  1
  Zr  Zr12  1  0.50000000  0.09112729  0.50151292  1
  Zr  Zr13  1  0.50000000  0.18124571  0.50068445  1
  Zr  Zr14  1  0.50000000  0.36402113  0.49714032  1
  Zr  Zr15  1  0.50000000  0.45367521  0.50357499  1
  Zr  Zr16  1  0.50000000  0.63589732  0.50076086  1
  Zr  Zr17  1  0.50000000  0.81827585  0.50234566  1
  Zr  Zr18  1  0.50000000  0.00109303  0.49931702  1
  Zr  Zr19  1  0.00000000  0.27178330  0.99843348  1
  Zr  Zr20  1  0.00000000  0.54456185  0.99852461  1
  Zr  Zr21  1  0.00000000  0.63639052  0.99903633  1
  O  O22  1  0.00000000  0.02672020  0.22034900  1
  O  O23  1  0.00000000  0.20430527  0.23745737  1
  O  O24  1  0.00000000  0.29842788  0.21077889  1
  O  O25  1  0.00000000  0.38915912  0.22454779  1
  O  O26  1  0.00000000  0.47676414  0.24177736  1
  O  O27  1  0.00000000  0.57065953  0.21461234  1
  O  O28  1  0.00000000  0.65924331  0.24549408  1
  O  O29  1  0.00000000  0.61522782  0.72834353  1
  O  O30  1  0.00000000  0.84177903  0.24899000  1
  O  O31  1  0.00000000  0.79720951  0.73405577  1
  O  O32  1  0.50000000  0.02161927  0.77786915  1
  O  O33  1  0.50000000  0.06678259  0.27755222  1
  O  O34  1  0.50000000  0.10955905  0.78197929  1
  O  O35  1  0.50000000  0.19854526  0.77957296  1
  O  O36  1  0.50000000  0.15632236  0.27644689  1
  O  O37  1  0.50000000  0.24540186  0.26087789  1
  O  O38  1  0.50000000  0.29650855  0.77256208  1
  O  O39  1  0.50000000  0.34214567  0.26056584  1
  O  O40  1  0.50000000  0.38379191  0.77195337  1
  O  O41  1  0.50000000  0.47168449  0.77628726  1
  O  O42  1  0.50000000  0.43018894  0.26974851  1
  O  O43  1  0.50000000  0.51840415  0.25827896  1
  O  O44  1  0.50000000  0.56821200  0.76941383  1
  O  O45  1  0.50000000  0.65505520  0.76660862  1
  O  O46  1  0.50000000  0.61526986  0.25288196  1
  O  O47  1  0.50000000  0.70178276  0.25298331  1
  O  O48  1  0.50000000  0.75088888  0.76720248  1
  O  O49  1  0.50000000  0.83757594  0.76723733  1
  O  O50  1  0.50000000  0.79787743  0.25294946  1
  O  O51  1  0.50000000  0.88431355  0.25478435  1
  O  O52  1  0.50000000  0.93412408  0.77217910  1
  O  O53  1  0.50000000  0.97925638  0.26488234  1
  O  O54  1  0.00000000  0.11614399  0.22256085  1
  O  O55  1  0.00000000  0.07147788  0.71781496  1
  O  O56  1  0.00000000  0.15951756  0.72544106  1
  O  O57  1  0.00000000  0.24915816  0.75544127  1
  O  O58  1  0.00000000  0.34534555  0.71592457  1
  O  O59  1  0.00000000  0.43216364  0.72965162  1
  O  O60  1  0.00000000  0.52137726  0.75719531  1
  O  O61  1  0.00000000  0.75283808  0.22063183  1
  O  O62  1  0.00000000  0.70325629  0.76373890  1
  O  O63  1  0.00000000  0.93587532  0.21673711  1
  O  O64  1  0.00000000  0.88599800  0.76561969  1
  O  O65  1  0.00000000  0.98311718  0.71687007  1
