# generated using pymatgen
data_RbAg4I5
_symmetry_space_group_name_H-M   'P 1'
_cell_length_a   11.72446362
_cell_length_b   11.72235975
_cell_length_c   11.60636837
_cell_angle_alpha   90.82905763
_cell_angle_beta   90.23864502
_cell_angle_gamma   89.57952887
_symmetry_Int_Tables_number   1
_chemical_formula_structural   RbAg4I5
_chemical_formula_sum   'Rb4 Ag16 I20'
_cell_volume   1594.93738873
_cell_formula_units_Z   4
loop_
 _symmetry_equiv_pos_site_id
 _symmetry_equiv_pos_as_xyz
  1  'x, y, z'
loop_
 _atom_site_type_symbol
 _atom_site_label
 _atom_site_symmetry_multiplicity
 _atom_site_fract_x
 _atom_site_fract_y
 _atom_site_fract_z
 _atom_site_occupancy
  Rb  Rb0  1  0.16172145  0.63085975  0.86871222  1
  Rb  Rb1  1  0.36559178  0.36856761  0.42671122  1
  Rb  Rb2  1  0.59202189  0.88222576  0.14351251  1
  Rb  Rb3  1  0.87961770  0.12163280  0.63842656  1
  Ag  Ag4  1  0.25738973  0.00632501  0.61124421  1
  Ag  Ag5  1  0.35065113  0.15614816  0.97363246  1
  Ag  Ag6  1  0.40633545  0.81687493  0.69765188  1
  Ag  Ag7  1  0.65102379  0.48868928  0.74817968  1
  Ag  Ag8  1  0.71084234  0.53429969  0.51161733  1
  Ag  Ag9  1  0.58727865  0.25108160  0.98503595  1
  Ag  Ag10  1  0.64618701  0.78510063  0.50006207  1
  Ag  Ag11  1  0.77016300  0.45616552  0.00839999  1
  Ag  Ag12  1  0.78170510  0.55252514  0.26157781  1
  Ag  Ag13  1  0.85014283  0.20404467  0.98958077  1
  Ag  Ag14  1  0.92821500  0.77579683  0.53081322  1
  Ag  Ag15  1  0.00129347  0.42908299  0.25147780  1
  Ag  Ag16  1  0.03027517  0.18331569  0.21938658  1
  Ag  Ag17  1  0.00383935  0.68545787  0.27974548  1
  Ag  Ag18  1  0.11322133  0.26258287  0.97514991  1
  Ag  Ag19  1  0.04563019  0.93929191  0.26529264  1
  I  I20  1  0.04053667  0.03464745  0.03114569  1
  I  I21  1  0.07227531  0.88069896  0.69128069  1
  I  I22  1  0.12322763  0.16697026  0.43661507  1
  I  I23  1  0.19663445  0.43189463  0.12761336  1
  I  I24  1  0.21522730  0.78229002  0.29648906  1
  I  I25  1  0.25868620  0.21282922  0.77011440  1
  I  I26  1  0.33896591  0.59978709  0.62256422  1
  I  I27  1  0.37588799  0.84590403  0.93268041  1
  I  I28  1  0.45725737  0.16496680  0.18106398  1
  I  I29  1  0.48090825  0.96761341  0.52650821  1
  I  I30  1  0.53752080  0.47942803  0.95847610  1
  I  I31  1  0.56497154  0.62167921  0.33118276  1
  I  I32  1  0.63897433  0.31628820  0.58000919  1
  I  I33  1  0.68848515  0.06008565  0.88720224  1
  I  I34  1  0.74219978  0.70991710  0.71006686  1
  I  I35  1  0.79867856  0.29889454  0.22250446  1
  I  I36  1  0.82395866  0.92984925  0.37362090  1
  I  I37  1  0.86688982  0.68076160  0.07592679  1
  I  I38  1  0.93203350  0.38117372  0.84037537  1
  I  I39  1  0.95983440  0.53565013  0.47315294  1
