# generated using pymatgen
data_Ba9(TaN6)2
_symmetry_space_group_name_H-M   'P 1'
_cell_length_a   8.17202428
_cell_length_b   9.79766958
_cell_length_c   12.90293513
_cell_angle_alpha   76.42709158
_cell_angle_beta   85.87703666
_cell_angle_gamma   87.87577776
_symmetry_Int_Tables_number   1
_chemical_formula_structural   Ba9(TaN6)2
_chemical_formula_sum   'Ba18 Ta4 N24'
_cell_volume   1001.42819613
_cell_formula_units_Z   2
loop_
 _symmetry_equiv_pos_site_id
 _symmetry_equiv_pos_as_xyz
  1  'x, y, z'
loop_
 _atom_site_type_symbol
 _atom_site_label
 _atom_site_symmetry_multiplicity
 _atom_site_fract_x
 _atom_site_fract_y
 _atom_site_fract_z
 _atom_site_occupancy
  Ba  Ba0  1  0.46803586  0.62110116  0.12732877  1
  Ba  Ba1  1  0.98890027  0.92939886  0.26766390  1
  Ba  Ba2  1  0.45722671  0.92448616  0.26444775  1
  Ba  Ba3  1  0.26577154  0.70150128  0.84831861  1
  Ba  Ba4  1  0.96135057  0.75137885  0.62551575  1
  Ba  Ba5  1  0.00836815  0.38148951  0.89171400  1
  Ba  Ba6  1  0.54277329  0.07551384  0.73555225  1
  Ba  Ba7  1  0.17287659  0.58435670  0.38050576  1
  Ba  Ba8  1  0.01109973  0.07060114  0.73233610  1
  Ba  Ba9  1  0.53196414  0.37889884  0.87267123  1
  Ba  Ba10  1  0.82712341  0.41564330  0.61949424  1
  Ba  Ba11  1  0.03864943  0.24862115  0.37448425  1
  Ba  Ba12  1  0.50222797  0.66707001  0.58072768  1
  Ba  Ba13  1  0.25657865  0.01472637  0.00185872  1
  Ba  Ba14  1  0.74342135  0.98527363  0.99814128  1
  Ba  Ba15  1  0.73422846  0.29849872  0.15168139  1
  Ba  Ba16  1  0.99163185  0.61851049  0.10828600  1
  Ba  Ba17  1  0.49777203  0.33292999  0.41927232  1
  Ta  Ta18  1  0.73060200  0.70215330  0.87840299  1
  Ta  Ta19  1  0.73062791  0.63637165  0.33861765  1
  Ta  Ta20  1  0.26937209  0.36362835  0.66138235  1
  Ta  Ta21  1  0.26939800  0.29784670  0.12159701  1
  N  N22  1  0.19617223  0.54800043  0.69294986  1
  N  N23  1  0.26226844  0.46784616  0.00435860  1
  N  N24  1  0.21428335  0.94621298  0.44769019  1
  N  N25  1  0.26105881  0.93726592  0.53458657  1
  N  N26  1  0.70926625  0.63634114  0.74501350  1
  N  N27  1  0.75353511  0.79177478  0.20939231  1
  N  N28  1  0.30282084  0.92438607  0.62262902  1
  N  N29  1  0.14810141  0.31957558  0.54634536  1
  N  N30  1  0.54273354  0.82768009  0.91208566  1
  N  N31  1  0.78473598  0.19782215  0.82032306  1
  N  N32  1  0.69717916  0.07561393  0.37737098  1
  N  N33  1  0.73773156  0.53215384  0.99564140  1
  N  N34  1  0.80382777  0.45199957  0.30705014  1
  N  N35  1  0.50393117  0.36831756  0.61959545  1
  N  N36  1  0.21526402  0.80217785  0.17967694  1
  N  N37  1  0.73894119  0.06273408  0.46541343  1
  N  N38  1  0.78571665  0.05378702  0.55230981  1
  N  N39  1  0.06201688  0.19699836  0.12718409  1
  N  N40  1  0.29073375  0.36365886  0.25498650  1
  N  N41  1  0.85189859  0.68042442  0.45365464  1
  N  N42  1  0.93798312  0.80300164  0.87281591  1
  N  N43  1  0.49606883  0.63168244  0.38040455  1
  N  N44  1  0.45726646  0.17231991  0.08791434  1
  N  N45  1  0.24646489  0.20822522  0.79060769  1
