# generated using pymatgen
data_Sr5Ti5O13
_symmetry_space_group_name_H-M   'P 1'
_cell_length_a   19.77043901
_cell_length_b   8.84107668
_cell_length_c   5.60116927
_cell_angle_alpha   50.78696336
_cell_angle_beta   45.05258929
_cell_angle_gamma   26.49757022
_symmetry_Int_Tables_number   1
_chemical_formula_structural   Sr5Ti5O13
_chemical_formula_sum   'Sr5 Ti5 O13'
_cell_volume   309.15332114
_cell_formula_units_Z   1
loop_
 _symmetry_equiv_pos_site_id
 _symmetry_equiv_pos_as_xyz
  1  'x, y, z'
loop_
 _atom_site_type_symbol
 _atom_site_label
 _atom_site_symmetry_multiplicity
 _atom_site_fract_x
 _atom_site_fract_y
 _atom_site_fract_z
 _atom_site_occupancy
  Sr  Sr0  1  0.19651456  0.50566599  0.49805650  1
  Sr  Sr1  1  0.40348544  0.49433401  0.50194350  1
  Sr  Sr2  1  0.60558988  0.48627600  0.50121640  1
  Sr  Sr3  1  0.80000000  0.50000000  0.50000000  1
  Sr  Sr4  1  0.99441012  0.51372400  0.49878360  1
  Ti  Ti5  1  0.00805840  0.97660695  0.99613065  1
  Ti  Ti6  1  0.18891194  0.01557179  0.99928647  1
  Ti  Ti7  1  0.41108806  0.98442821  0.00071353  1
  Ti  Ti8  1  0.59194160  0.02339305  0.00386935  1
  Ti  Ti9  1  0.80000000  0.00000000  0.00000000  1
  O  O10  1  0.08962250  0.01813220  0.01082438  1
  O  O11  1  0.20159668  0.49124312  0.98711375  1
  O  O12  1  0.51037750  0.98186780  0.98917562  1
  O  O13  1  0.39840332  0.50875688  0.01288625  1
  O  O14  1  0.09307089  0.03132125  0.49778682  1
  O  O15  1  0.71689679  0.94805648  0.01416845  1
  O  O16  1  0.58400171  0.50057912  0.02079782  1
  O  O17  1  0.30000000  0.00000000  0.50000000  1
  O  O18  1  0.88310321  0.05194352  0.98583155  1
  O  O19  1  0.50692911  0.96867875  0.50221318  1
  O  O20  1  0.70929207  0.97701625  0.51010670  1
  O  O21  1  0.01599829  0.49942088  0.97920218  1
  O  O22  1  0.89070793  0.02298375  0.48989330  1
