# generated using pymatgen
data_MgMo3S4
_symmetry_space_group_name_H-M   'P 1'
_cell_length_a   6.70672376
_cell_length_b   6.70666462
_cell_length_c   6.72212438
_cell_angle_alpha   95.37876648
_cell_angle_beta   98.49433479
_cell_angle_gamma   97.44552376
_symmetry_Int_Tables_number   1
_chemical_formula_structural   MgMo3S4
_chemical_formula_sum   'Mg2 Mo6 S8'
_cell_volume   294.55053605
_cell_formula_units_Z   2
loop_
 _symmetry_equiv_pos_site_id
 _symmetry_equiv_pos_as_xyz
  1  'x, y, z'
loop_
 _atom_site_type_symbol
 _atom_site_label
 _atom_site_symmetry_multiplicity
 _atom_site_fract_x
 _atom_site_fract_y
 _atom_site_fract_z
 _atom_site_occupancy
  Mg  Mg0  1  0.17750643  0.92954988  0.90051646  1
  Mg  Mg1  1  0.82249357  0.07045012  0.09948354  1
  Mo  Mo2  1  0.22882467  0.40301728  0.53514257  1
  Mo  Mo3  1  0.46217763  0.76707745  0.59117490  1
  Mo  Mo4  1  0.39833319  0.53905431  0.23106810  1
  Mo  Mo5  1  0.60166681  0.46094569  0.76893190  1
  Mo  Mo6  1  0.53782237  0.23292255  0.40882510  1
  Mo  Mo7  1  0.77117533  0.59698272  0.46485743  1
  S  S8  1  0.13198754  0.70641501  0.37253383  1
  S  S9  1  0.29607812  0.60523639  0.86031632  1
  S  S10  1  0.19419162  0.19823756  0.19122580  1
  S  S11  1  0.38602145  0.13216551  0.70587973  1
  S  S12  1  0.61397855  0.86783449  0.29412027  1
  S  S13  1  0.80580838  0.80176244  0.80877420  1
  S  S14  1  0.70392188  0.39476361  0.13968368  1
  S  S15  1  0.86801246  0.29358499  0.62746617  1
