# generated using pymatgen
data_Bi2Pb3F12
_symmetry_space_group_name_H-M   'P 1'
_cell_length_a   4.32393114
_cell_length_b   4.34971401
_cell_length_c   21.22333079
_cell_angle_alpha   58.40364381
_cell_angle_beta   60.19889154
_cell_angle_gamma   59.96847732
_symmetry_Int_Tables_number   1
_chemical_formula_structural   Bi2Pb3F12
_chemical_formula_sum   'Bi2 Pb3 F12'
_cell_volume   279.03252266
_cell_formula_units_Z   1
loop_
 _symmetry_equiv_pos_site_id
 _symmetry_equiv_pos_as_xyz
  1  'x, y, z'
loop_
 _atom_site_type_symbol
 _atom_site_label
 _atom_site_symmetry_multiplicity
 _atom_site_fract_x
 _atom_site_fract_y
 _atom_site_fract_z
 _atom_site_occupancy
  Bi  Bi0  1  0.99118599  0.87457390  0.61233949  1
  Bi  Bi1  1  0.79187231  0.01762112  0.82157667  1
  Pb  Pb2  1  0.92469803  0.02535732  0.00880903  1
  Pb  Pb3  1  0.90484799  0.05581218  0.20765926  1
  Pb  Pb4  1  0.94612933  0.02817942  0.40761013  1
  F  F5  1  0.14453247  0.32242375  0.06564049  1
  F  F6  1  0.64747807  0.80336334  0.16029701  1
  F  F7  1  0.24213526  0.19849635  0.46943528  1
  F  F8  1  0.15734023  0.29870410  0.25735647  1
  F  F9  1  0.39255707  0.26189333  0.61735782  1
  F  F10  1  0.70618771  0.74132785  0.36646517  1
  F  F11  1  0.18265371  0.38300784  0.85462779  1
  F  F12  1  0.81864463  0.72785187  0.55077239  1
  F  F13  1  0.65904305  0.47849094  0.70007352  1
  F  F14  1  0.85741720  0.75459318  0.74661475  1
  F  F15  1  0.42918922  0.68188340  0.89194626  1
  F  F16  1  0.64808773  0.84642011  0.96141847  1
