# generated using pymatgen
data_Zr7N2O11
_symmetry_space_group_name_H-M   'P 1'
_cell_length_a   8.15803339
_cell_length_b   8.20185641
_cell_length_c   8.18238091
_cell_angle_alpha   73.16136534
_cell_angle_beta   72.69296287
_cell_angle_gamma   72.94584492
_symmetry_Int_Tables_number   1
_chemical_formula_structural   Zr7N2O11
_chemical_formula_sum   'Zr14 N4 O22'
_cell_volume   487.27416287
_cell_formula_units_Z   2
loop_
 _symmetry_equiv_pos_site_id
 _symmetry_equiv_pos_as_xyz
  1  'x, y, z'
loop_
 _atom_site_type_symbol
 _atom_site_label
 _atom_site_symmetry_multiplicity
 _atom_site_fract_x
 _atom_site_fract_y
 _atom_site_fract_z
 _atom_site_occupancy
  Zr  Zr0  1  0.99701278  0.00086569  0.99754380  1
  Zr  Zr1  1  0.16287682  0.25530136  0.59679336  1
  Zr  Zr2  1  0.28026279  0.54824537  0.14754988  1
  Zr  Zr3  1  0.07879883  0.61823908  0.77806839  1
  Zr  Zr4  1  0.20614810  0.90630534  0.40076656  1
  Zr  Zr5  1  0.59691277  0.15797396  0.25420254  1
  Zr  Zr6  1  0.39024996  0.20748317  0.91068893  1
  Zr  Zr7  1  0.51202176  0.50665951  0.51360832  1
  Zr  Zr8  1  0.60161520  0.79471510  0.09552642  1
  Zr  Zr9  1  0.44535603  0.87172866  0.70877042  1
  Zr  Zr10  1  0.79743145  0.08034833  0.60649414  1
  Zr  Zr11  1  0.91323186  0.38396814  0.21213291  1
  Zr  Zr12  1  0.71140857  0.45595118  0.86649797  1
  Zr  Zr13  1  0.85309025  0.75170580  0.39584735  1
  N  N14  1  0.25129042  0.07569969  0.83242215  1
  N  N15  1  0.83014475  0.24909172  0.07352790  1
  N  N16  1  0.75713198  0.91948357  0.16593694  1
  N  N17  1  0.97296269  0.82232216  0.58154168  1
  O  O18  1  0.02578279  0.17248567  0.40181290  1
  O  O19  1  0.16504604  0.38859313  0.03557836  1
  O  O20  1  0.03780685  0.53314240  0.32031908  1
  O  O21  1  0.07496016  0.87807534  0.23126856  1
  O  O22  1  0.40501371  0.02835411  0.15741746  1
  O  O23  1  0.32713105  0.03320902  0.50370352  1
  O  O24  1  0.35854351  0.35512594  0.36915869  1
  O  O25  1  0.28737432  0.40455768  0.68787218  1
  O  O26  1  0.49259676  0.34737199  0.04618074  1
  O  O27  1  0.12578610  0.73964886  0.94872400  1
  O  O28  1  0.38887087  0.68594223  0.28905687  1
  O  O29  1  0.31649739  0.71790182  0.61764186  1
  O  O30  1  0.68851732  0.28098960  0.40566602  1
  O  O31  1  0.61082652  0.31069194  0.72761908  1
  O  O32  1  0.48632875  0.67282176  0.94919230  1
  O  O33  1  0.71454773  0.59784746  0.30193245  1
  O  O34  1  0.64838529  0.63647356  0.61826318  1
  O  O35  1  0.65020551  0.96887285  0.49937439  1
  O  O36  1  0.60575100  0.97020052  0.83500379  1
  O  O37  1  0.94644188  0.11182316  0.75008923  1
  O  O38  1  0.95980376  0.45254201  0.69882088  1
  O  O39  1  0.82583570  0.60724112  0.96738478  1
