# generated using pymatgen
data_Re3Pb3O10
_symmetry_space_group_name_H-M   'P 1'
_cell_length_a   7.45614295
_cell_length_b   22.39990894
_cell_length_c   19.76278778
_cell_angle_alpha   19.08003817
_cell_angle_beta   55.53359194
_cell_angle_gamma   60.04647459
_symmetry_Int_Tables_number   1
_chemical_formula_structural   Re3Pb3O10
_chemical_formula_sum   'Re12 Pb12 O40'
_cell_volume   881.79725226
_cell_formula_units_Z   4
loop_
 _symmetry_equiv_pos_site_id
 _symmetry_equiv_pos_as_xyz
  1  'x, y, z'
loop_
 _atom_site_type_symbol
 _atom_site_label
 _atom_site_symmetry_multiplicity
 _atom_site_fract_x
 _atom_site_fract_y
 _atom_site_fract_z
 _atom_site_occupancy
  Re  Re0  1  0.49896385  0.16719574  0.00016203  1
  Re  Re1  1  0.99983797  0.16632162  0.50103615  1
  Re  Re2  1  0.50103615  0.00121950  0.49808974  1
  Re  Re3  1  0.50103615  0.49947126  0.99983797  1
  Re  Re4  1  0.49808974  0.16632162  0.50103615  1
  Re  Re5  1  0.50000000  0.33333300  0.50000000  1
  Re  Re6  1  0.50000000  0.83333300  0.00000000  1
  Re  Re7  1  0.50191026  0.50034538  0.49896385  1
  Re  Re8  1  0.49896385  0.66544750  0.50191026  1
  Re  Re9  1  0.00016203  0.50034538  0.49896385  1
  Re  Re10  1  0.50000000  0.83333300  0.50000000  1
  Re  Re11  1  -0.00000000  0.83333300  0.50000000  1
  Pb  Pb12  1  0.99478256  0.99755354  0.00733937  1
  Pb  Pb13  1  0.49053871  0.99755354  0.00733937  1
  Pb  Pb14  1  -0.00000000  0.33333300  0.00000000  1
  Pb  Pb15  1  0.50000000  0.33333300  0.00000000  1
  Pb  Pb16  1  0.00521744  0.66911346  0.99266063  1
  Pb  Pb17  1  0.00733937  0.16699153  0.99478256  1
  Pb  Pb18  1  -0.00000000  0.83333300  0.00000000  1
  Pb  Pb19  1  -0.00000000  0.33333300  0.50000000  1
  Pb  Pb20  1  0.50946129  0.66911346  0.99266063  1
  Pb  Pb21  1  0.99266063  0.49967547  0.00521744  1
  Pb  Pb22  1  0.00733937  0.67123538  0.49053871  1
  Pb  Pb23  1  0.99266063  0.99543162  0.50946129  1
  O  O24  1  0.18465469  0.06506322  0.18430641  1
  O  O25  1  0.10180987  0.28393696  0.14819013  1
  O  O26  1  0.56723642  0.06506322  0.18430641  1
  O  O27  1  0.18379573  0.01712873  0.56620427  1
  O  O28  1  0.18379573  0.39953727  0.18379573  1
  O  O29  1  0.56577251  0.27192450  0.18422749  1
  O  O30  1  0.14819013  0.63273004  0.10180987  1
  O  O31  1  0.18422749  0.14474250  0.56577251  1
  O  O32  1  0.56620427  0.01712873  0.56620427  1
  O  O33  1  0.56620427  0.39953727  0.18379573  1
  O  O34  1  0.18430641  0.35006095  0.56723642  1
  O  O35  1  0.43619751  0.31660605  0.43276358  1
  O  O36  1  0.18430641  0.73264268  0.18465469  1
  O  O37  1  0.56222266  0.60407422  0.18777734  1
  O  O38  1  0.81940166  0.18980022  0.43059834  1
  O  O39  1  0.43777734  0.06259278  0.81222266  1
  O  O40  1  0.18059834  0.47686578  0.56940166  1
  O  O41  1  0.56380249  0.35006095  0.56723642  1
  O  O42  1  0.81569359  0.31660605  0.43276358  1
  O  O43  1  0.56380249  0.73264268  0.18465469  1
  O  O44  1  0.18465469  0.68556714  0.56380249  1
  O  O45  1  0.43379573  0.26712873  0.81620427  1
  O  O46  1  0.43379573  0.64953727  0.43379573  1
  O  O47  1  0.56940166  0.93980022  0.18059834  1
  O  O48  1  0.85180987  0.03393696  0.89819013  1
  O  O49  1  0.81577251  0.52192450  0.43422749  1
  O  O50  1  0.43422749  0.39474250  0.81577251  1
  O  O51  1  0.18777734  0.81259278  0.56222266  1
  O  O52  1  0.56723642  0.68556714  0.56380249  1
  O  O53  1  0.81620427  0.26712873  0.81620427  1
  O  O54  1  0.81620427  0.64953727  0.43379573  1
  O  O55  1  0.43276358  0.60160378  0.81569359  1
  O  O56  1  0.43276358  0.98109986  0.43619751  1
  O  O57  1  0.81222266  0.85407422  0.43777734  1
  O  O58  1  0.89819013  0.38273004  0.85180987  1
  O  O59  1  0.43059834  0.72686578  0.81940166  1
  O  O60  1  0.81534531  0.60160378  0.81569359  1
  O  O61  1  0.81534531  0.98109986  0.43619751  1
  O  O62  1  0.43619751  0.93402432  0.81534531  1
  O  O63  1  0.81569359  0.93402432  0.81534531  1
