# generated using pymatgen
data_La3O2F5
_symmetry_space_group_name_H-M   'P 1'
_cell_length_a   4.13788237
_cell_length_b   4.18361276
_cell_length_c   17.60809532
_cell_angle_alpha   89.62650005
_cell_angle_beta   90.29839133
_cell_angle_gamma   91.33371688
_symmetry_Int_Tables_number   1
_chemical_formula_structural   La3O2F5
_chemical_formula_sum   'La6 O4 F10'
_cell_volume   304.72602415
_cell_formula_units_Z   2
loop_
 _symmetry_equiv_pos_site_id
 _symmetry_equiv_pos_as_xyz
  1  'x, y, z'
loop_
 _atom_site_type_symbol
 _atom_site_label
 _atom_site_symmetry_multiplicity
 _atom_site_fract_x
 _atom_site_fract_y
 _atom_site_fract_z
 _atom_site_occupancy
  La  La0  1  0.22555167  0.26995752  0.08514899  1
  La  La1  1  0.25207504  0.26588073  0.40029126  1
  La  La2  1  0.25572902  0.16489833  0.74658659  1
  La  La3  1  0.75623826  0.74341957  0.26264445  1
  La  La4  1  0.74820166  0.76687163  0.58924338  1
  La  La5  1  0.76126351  0.75764626  0.92701060  1
  O  O6  1  0.27858327  0.74564475  -0.00533852  1
  O  O7  1  0.25092692  0.77701713  0.33628477  1
  O  O8  1  0.25122329  0.77719147  0.65598320  1
  O  O9  1  0.75051400  0.26342282  0.33717402  1
  F  F10  1  0.22442033  0.41482085  0.21734764  1
  F  F11  1  0.24909990  0.76673477  0.49904658  1
  F  F12  1  0.25938619  0.74974192  0.84102996  1
  F  F13  1  0.75015997  0.25567644  0.00173670  1
  F  F14  1  0.69323936  0.20122375  0.16037288  1
  F  F15  1  0.75050007  0.27714876  0.66260950  1
  F  F16  1  0.74905995  0.26850756  0.50975926  1
  F  F17  1  0.75498313  0.27096149  0.84957898  1
  F  F18  1  0.75631501  0.82592799  0.75455416  1
  F  F19  1  0.93452945  0.74130625  0.11460162  1
