# generated using pymatgen
data_Li3Bi(PO4)2
_symmetry_space_group_name_H-M   'P 1'
_cell_length_a   8.54002068
_cell_length_b   8.54059812
_cell_length_c   7.56635653
_cell_angle_alpha   90.00549093
_cell_angle_beta   89.99662471
_cell_angle_gamma   120.00383865
_symmetry_Int_Tables_number   1
_chemical_formula_structural   Li3Bi(PO4)2
_chemical_formula_sum   'Li9 Bi3 P6 O24'
_cell_volume   477.91189488
_cell_formula_units_Z   3
loop_
 _symmetry_equiv_pos_site_id
 _symmetry_equiv_pos_as_xyz
  1  'x, y, z'
loop_
 _atom_site_type_symbol
 _atom_site_label
 _atom_site_symmetry_multiplicity
 _atom_site_fract_x
 _atom_site_fract_y
 _atom_site_fract_z
 _atom_site_occupancy
  Li  Li0  1  0.65380165  0.97852703  0.37041037  1
  Li  Li1  1  0.97851085  0.32453896  0.62935212  1
  Li  Li2  1  0.33308928  0.66646999  0.51614318  1
  Li  Li3  1  0.32435666  0.34596555  0.37058878  1
  Li  Li4  1  0.67543948  0.65395175  0.62968877  1
  Li  Li5  1  0.02162285  0.67572406  0.37033399  1
  Li  Li6  1  0.66643111  0.33331762  0.48389685  1
  Li  Li7  1  0.34589768  0.02155070  0.62951366  1
  Li  Li8  1  0.99974994  0.00035080  0.49979987  1
  Bi  Bi9  1  0.99946832  0.99975832  0.99996340  1
  Bi  Bi10  1  0.33358826  0.66670514  0.05079787  1
  Bi  Bi11  1  0.66697712  0.33340501  0.94919105  1
  P  P12  1  0.33417424  0.02563663  0.24867298  1
  P  P13  1  0.97429223  0.30856773  0.24860610  1
  P  P14  1  0.02568713  0.69157510  0.75110892  1
  P  P15  1  0.30857872  0.33414075  0.75146636  1
  P  P16  1  0.66586007  0.97420327  0.75116396  1
  P  P17  1  0.69156603  0.66585090  0.24900694  1
  O  O18  1  0.58509740  0.10490635  0.73795017  1
  O  O19  1  0.25280825  0.42293795  0.60489092  1
  O  O20  1  0.12646411  0.91482879  0.27586131  1
  O  O21  1  0.10507625  0.51984369  0.26210797  1
  O  O22  1  0.21162235  0.12639629  0.72379043  1
  O  O23  1  0.42268768  0.17010871  0.39533313  1
  O  O24  1  0.11390712  0.74447778  0.93703917  1
  O  O25  1  0.88658929  0.25507669  0.06294726  1
  O  O26  1  0.87365487  0.08529215  0.72284284  1
  O  O27  1  0.36951634  0.11395689  0.06272588  1
  O  O28  1  0.48008930  0.58511751  0.26234703  1
  O  O29  1  0.91471037  0.78821064  0.72400201  1
  O  O30  1  0.74726215  0.57720501  0.39563609  1
  O  O31  1  0.74488107  0.63116368  0.06325859  1
  O  O32  1  0.82956184  0.25279931  0.39516295  1
  O  O33  1  0.89496717  0.48004368  0.73757339  1
  O  O34  1  0.51991431  0.41468053  0.73785878  1
  O  O35  1  0.41476497  0.89496730  0.26222723  1
  O  O36  1  0.08522226  0.21160546  0.27693419  1
  O  O37  1  0.63171066  0.88638322  0.93674734  1
  O  O38  1  0.57683722  0.82967117  0.60454474  1
  O  O39  1  0.78825266  0.87364797  0.27673834  1
  O  O40  1  0.16999968  0.74733097  0.60448371  1
  O  O41  1  0.25551005  0.36910994  0.93729038  1
