# generated using pymatgen
data_LiFe(PO3)5
_symmetry_space_group_name_H-M   'P 1'
_cell_length_a   10.34279944
_cell_length_b   13.72457472
_cell_length_c   9.05586776
_cell_angle_alpha   90.00000000
_cell_angle_beta   100.69938220
_cell_angle_gamma   90.00000000
_symmetry_Int_Tables_number   1
_chemical_formula_structural   LiFe(PO3)5
_chemical_formula_sum   'Li4 Fe4 P20 O60'
_cell_volume   1263.13675217
_cell_formula_units_Z   4
loop_
 _symmetry_equiv_pos_site_id
 _symmetry_equiv_pos_as_xyz
  1  'x, y, z'
loop_
 _atom_site_type_symbol
 _atom_site_label
 _atom_site_symmetry_multiplicity
 _atom_site_fract_x
 _atom_site_fract_y
 _atom_site_fract_z
 _atom_site_occupancy
  Li  Li0  1  0.02610049  0.39242010  0.09126422  1
  Li  Li1  1  0.47389951  0.60757990  0.90873578  1
  Li  Li2  1  0.52610049  0.10757990  0.09126422  1
  Li  Li3  1  0.97389951  0.89242010  0.90873578  1
  Fe  Fe4  1  0.25000000  0.00000000  0.50000000  1
  Fe  Fe5  1  0.75000000  0.50000000  0.50000000  1
  Fe  Fe6  1  0.75000000  0.00000000  0.50000000  1
  Fe  Fe7  1  0.25000000  0.50000000  0.50000000  1
  P  P8  1  0.00054448  0.14089030  0.52076794  1
  P  P9  1  -0.00054448  0.64089030  0.47923206  1
  P  P10  1  0.49680419  0.64255708  0.47666767  1
  P  P11  1  0.00319581  0.35744292  0.52333233  1
  P  P12  1  0.82454999  0.91609690  0.18632946  1
  P  P13  1  0.33857121  0.92695217  0.19319208  1
  P  P14  1  0.22922966  0.75191314  0.99710067  1
  P  P15  1  0.66142879  0.42695217  0.80680792  1
  P  P16  1  0.27077034  0.24808686  0.00289933  1
  P  P17  1  0.50319581  0.14255708  0.52333233  1
  P  P18  1  0.16142879  0.07304783  0.80680792  1
  P  P19  1  0.32454999  0.58390310  0.18632946  1
  P  P20  1  0.17545001  0.41609690  0.81367054  1
  P  P21  1  0.83857121  0.57304783  0.19319208  1
  P  P22  1  0.50054448  0.35910970  0.52076794  1
  P  P23  1  0.49945552  0.85910970  0.47923206  1
  P  P24  1  0.72922966  0.74808686  0.99710067  1
  P  P25  1  0.77077034  0.25191314  0.00289933  1
  P  P26  1  0.67545001  0.08390310  0.81367054  1
  P  P27  1  0.99680419  0.85744292  0.47666767  1
  O  O28  1  0.40655856  0.99015619  0.09789672  1
  O  O29  1  0.41917081  0.92506323  0.55906085  1
  O  O30  1  0.59344144  0.49015619  0.90210328  1
  O  O31  1  0.94122690  0.64287177  0.30154930  1
  O  O32  1  0.38855845  0.54428530  0.06546431  1
  O  O33  1  0.35755823  0.12532562  0.50411331  1
  O  O34  1  0.08082919  0.07493677  0.44093915  1
  O  O35  1  0.28123222  0.33080852  0.87779650  1
  O  O36  1  0.71876778  0.83080852  0.12220350  1
  O  O37  1  0.74477038  0.01756600  0.72068124  1
  O  O38  1  0.58120668  0.07713829  0.43811181  1
  O  O39  1  0.75334069  0.51910283  0.28572517  1
  O  O40  1  0.11144155  0.45571470  0.93453569  1
  O  O41  1  0.85755823  0.37467438  0.50411331  1
  O  O42  1  0.64244177  0.62532562  0.49588669  1
  O  O43  1  0.90655856  0.50984381  0.09789672  1
  O  O44  1  0.56541593  0.14667279  0.69877445  1
  O  O45  1  0.74665931  0.48089717  0.71427483  1
  O  O46  1  0.85451349  0.12361264  0.49846923  1
  O  O47  1  0.24665931  0.01910283  0.71427483  1
  O  O48  1  0.78123222  0.16919148  0.87779650  1
  O  O49  1  0.25645873  0.15234265  0.89838139  1
  O  O50  1  0.24354127  0.84765735  0.10161861  1
  O  O51  1  0.15559070  0.26580656  0.07931173  1
  O  O52  1  0.84440930  0.76580656  0.92068827  1
  O  O53  1  0.14244177  0.87467438  0.49588669  1
  O  O54  1  0.05877310  0.14287177  0.69845070  1
  O  O55  1  0.64548651  0.87638736  0.50153077  1
  O  O56  1  0.55877310  0.35712823  0.69845070  1
  O  O57  1  0.74354127  0.65234265  0.10161861  1
  O  O58  1  0.75645873  0.34765735  0.89838139  1
  O  O59  1  0.65559070  0.23419344  0.07931173  1
  O  O60  1  0.43458407  0.64667279  0.30122555  1
  O  O61  1  0.47327530  0.75089690  0.53120971  1
  O  O62  1  0.21876778  0.66919148  0.12220350  1
  O  O63  1  0.75522962  0.98243400  0.27931876  1
  O  O64  1  0.25522962  0.51756600  0.27931876  1
  O  O65  1  0.02672470  0.24910310  0.46879029  1
  O  O66  1  0.08120668  0.42286171  0.43811181  1
  O  O67  1  0.06541593  0.35332721  0.69877445  1
  O  O68  1  0.91879332  0.92286171  0.56188819  1
  O  O69  1  0.52672470  0.25089690  0.46879029  1
  O  O70  1  0.88855845  0.95571470  0.06546431  1
  O  O71  1  0.24477038  0.48243400  0.72068124  1
  O  O72  1  0.90082432  0.26445852  0.10818970  1
  O  O73  1  0.97327530  0.74910310  0.53120971  1
  O  O74  1  0.91917081  0.57493677  0.55906085  1
  O  O75  1  0.44122690  0.85712823  0.30154930  1
  O  O76  1  0.41879332  0.57713829  0.56188819  1
  O  O77  1  0.09917568  0.76445852  0.89181030  1
  O  O78  1  0.61144155  0.04428530  0.93453569  1
  O  O79  1  0.34440930  0.73419344  0.92068827  1
  O  O80  1  0.14548651  0.62361264  0.50153077  1
  O  O81  1  0.58082919  0.42506323  0.44093915  1
  O  O82  1  0.09344144  0.00984381  0.90210328  1
  O  O83  1  0.59917568  0.73554148  0.89181030  1
  O  O84  1  0.40082432  0.23554148  0.10818970  1
  O  O85  1  0.25334069  0.98089717  0.28572517  1
  O  O86  1  0.35451349  0.37638736  0.49846923  1
  O  O87  1  0.93458407  0.85332721  0.30122555  1
