# generated using pymatgen
data_Li2Mo(PO3)8
_symmetry_space_group_name_H-M   'P 1'
_cell_length_a   7.34408904
_cell_length_b   7.26102116
_cell_length_c   9.88594374
_cell_angle_alpha   70.66469647
_cell_angle_beta   80.79470711
_cell_angle_gamma   110.41165835
_symmetry_Int_Tables_number   1
_chemical_formula_structural   Li2Mo(PO3)8
_chemical_formula_sum   'Li2 Mo1 P8 O24'
_cell_volume   443.01532078
_cell_formula_units_Z   1
loop_
 _symmetry_equiv_pos_site_id
 _symmetry_equiv_pos_as_xyz
  1  'x, y, z'
loop_
 _atom_site_type_symbol
 _atom_site_label
 _atom_site_symmetry_multiplicity
 _atom_site_fract_x
 _atom_site_fract_y
 _atom_site_fract_z
 _atom_site_occupancy
  Li  Li0  1  0.99059458  0.01184844  0.03180155  1
  Li  Li1  1  0.93885728  0.19292813  0.25644482  1
  Mo  Mo2  1  0.05481504  0.80500699  0.74836052  1
  P  P3  1  0.29032574  0.48375359  0.70461169  1
  P  P4  1  0.31301538  0.01624096  0.18998315  1
  P  P5  1  0.73195683  0.26277494  0.97532844  1
  P  P6  1  0.70641281  0.50256596  0.31271171  1
  P  P7  1  0.24444613  0.29775303  0.47625997  1
  P  P8  1  0.27318285  0.72110233  0.02181387  1
  P  P9  1  0.68929676  0.99330960  0.79328243  1
  P  P10  1  0.74092468  0.71284735  0.52257372  1
  O  O11  1  0.24633806  0.09123481  0.59752106  1
  O  O12  1  0.50943635  0.79280502  0.93766132  1
  O  O13  1  0.35728361  0.97121725  0.33693643  1
  O  O14  1  0.18692774  0.84909478  0.90872775  1
  O  O15  1  0.46367743  0.43799908  0.35639486  1
  O  O16  1  0.24400105  0.67705889  0.69798028  1
  O  O17  1  0.87410767  0.93924675  0.81258171  1
  O  O18  1  0.74183562  0.31409554  0.30814101  1
  O  O19  1  0.64389996  0.03487781  0.65047736  1
  O  O20  1  0.85201069  0.51414936  0.89896564  1
  O  O21  1  0.90899094  0.74745680  0.59967232  1
  O  O22  1  0.72355806  0.20105403  0.83355835  1
  O  O23  1  0.76728651  0.54648518  0.45362055  1
  O  O24  1  0.50535243  0.22419768  0.04868462  1
  O  O25  1  0.80795381  0.13719294  0.08231857  1
  O  O26  1  0.53247658  0.55928300  0.66495958  1
  O  O27  1  0.23348813  0.44773784  0.56209648  1
  O  O28  1  0.80545293  0.69923824  0.16658412  1
  O  O29  1  0.16097293  0.48552168  0.08921439  1
  O  O30  1  0.07962490  0.25290347  0.40992638  1
  O  O31  1  0.18690472  0.28729626  0.84648068  1
  O  O32  1  0.12842778  0.05531124  0.18025819  1
  O  O33  1  0.72855426  0.89583594  0.41038119  1
  O  O34  1  0.29809978  0.81694406  0.14443028  1
