# generated using pymatgen
data_Cu9S5
_symmetry_space_group_name_H-M   'P 1'
_cell_length_a   7.76895135
_cell_length_b   21.65282533
_cell_length_c   10.29614589
_cell_angle_alpha   18.09458132
_cell_angle_beta   55.49811750
_cell_angle_gamma   51.10135786
_symmetry_Int_Tables_number   1
_chemical_formula_structural   Cu9S5
_chemical_formula_sum   'Cu18 S10'
_cell_volume   415.31994293
_cell_formula_units_Z   2
loop_
 _symmetry_equiv_pos_site_id
 _symmetry_equiv_pos_as_xyz
  1  'x, y, z'
loop_
 _atom_site_type_symbol
 _atom_site_label
 _atom_site_symmetry_multiplicity
 _atom_site_fract_x
 _atom_site_fract_y
 _atom_site_fract_z
 _atom_site_occupancy
  Cu  Cu0  1  0.05449791  0.14636345  0.25718369  1
  Cu  Cu1  1  0.35193481  0.05383041  0.74245064  1
  Cu  Cu2  1  0.54806519  0.14616959  0.25754936  1
  Cu  Cu3  1  0.25285399  0.25148875  0.74352435  1
  Cu  Cu4  1  0.84550209  0.05363655  0.74281631  1
  Cu  Cu5  1  0.35241971  0.54574717  0.26092711  1
  Cu  Cu6  1  0.14555666  0.44769866  0.76099549  1
  Cu  Cu7  1  0.94404054  0.35629212  0.24275803  1
  Cu  Cu8  1  0.74773372  0.25085910  0.74948798  1
  Cu  Cu9  1  0.25308311  0.75047778  0.24485083  1
  Cu  Cu10  1  0.05426019  0.64600092  0.75719656  1
  Cu  Cu11  1  0.84573981  0.55399908  0.24280344  1
  Cu  Cu12  1  0.15226628  0.94914090  0.25051202  1
  Cu  Cu13  1  0.64691689  0.44952222  0.75514917  1
  Cu  Cu14  1  0.75444334  0.75230134  0.23900451  1
  Cu  Cu15  1  0.54758029  0.65425283  0.73907289  1
  Cu  Cu16  1  0.64714601  0.94851125  0.25647565  1
  Cu  Cu17  1  0.95595946  0.84370788  0.75724197  1
  S  S18  1  0.00062125  0.99874257  0.00188422  1
  S  S19  1  0.49922557  0.00256723  0.99532018  1
  S  S20  1  0.40077443  0.19743277  0.00467982  1
  S  S21  1  0.30261257  0.39945648  0.00149679  1
  S  S22  1  0.89937875  0.20125743  0.99811578  1
  S  S23  1  0.20181643  0.59764620  0.00302000  1
  S  S24  1  0.79712044  0.39865110  0.00367822  1
  S  S25  1  0.10287956  0.80134890  0.99632178  1
  S  S26  1  0.69818357  0.60235380  0.99698000  1
  S  S27  1  0.59738743  0.80054352  0.99850321  1
