# generated using pymatgen
data_Li20B54O
_symmetry_space_group_name_H-M   'P 1'
_cell_length_a   8.21439980
_cell_length_b   8.19633590
_cell_length_c   12.51579842
_cell_angle_alpha   89.80904949
_cell_angle_beta   90.04639729
_cell_angle_gamma   119.95426720
_symmetry_Int_Tables_number   1
_chemical_formula_structural   Li20B54O
_chemical_formula_sum   'Li20 B54 O1'
_cell_volume   730.09959335
_cell_formula_units_Z   1
loop_
 _symmetry_equiv_pos_site_id
 _symmetry_equiv_pos_as_xyz
  1  'x, y, z'
loop_
 _atom_site_type_symbol
 _atom_site_label
 _atom_site_symmetry_multiplicity
 _atom_site_fract_x
 _atom_site_fract_y
 _atom_site_fract_z
 _atom_site_occupancy
  Li  Li0  1  0.14153628  0.06357802  0.16095526  1
  Li  Li1  1  0.04439784  0.10114754  0.52275925  1
  Li  Li2  1  0.19544238  0.31694142  0.67804970  1
  Li  Li3  1  0.97588573  0.04887906  0.81866717  1
  Li  Li4  1  0.33575043  0.66785298  0.00261641  1
  Li  Li5  1  0.29001681  0.64514224  0.32415468  1
  Li  Li6  1  0.32494082  0.68494025  0.66846089  1
  Li  Li7  1  0.33060746  0.16593329  0.97937613  1
  Li  Li8  1  0.27321986  0.05190459  0.67554013  1
  Li  Li9  1  0.62529813  0.81223626  0.33026820  1
  Li  Li10  1  0.69953589  0.82080324  0.66535924  1
  Li  Li11  1  0.67598974  0.34029974  0.01223142  1
  Li  Li12  1  0.66161506  0.34628614  0.67048716  1
  Li  Li13  1  0.84736669  0.69607613  0.99751625  1
  Li  Li14  1  0.46745776  0.23285127  0.33469050  1
  Li  Li15  1  0.80586633  0.59301746  0.33354279  1
  Li  Li16  1  0.95798646  0.73945415  0.66989939  1
  Li  Li17  1  0.84336673  0.15398619  0.00892156  1
  Li  Li18  1  0.84450977  0.16678559  0.66686756  1
  Li  Li19  1  0.80354148  0.21397616  0.33133571  1
  B  B20  1  0.99462357  0.49869277  0.26356033  1
  B  B21  1  0.00035605  0.49225145  0.59949523  1
  B  B22  1  0.00412336  0.50292988  0.93160638  1
  B  B23  1  0.11778445  0.67204819  0.16522760  1
  B  B24  1  0.12483187  0.66701312  0.50234752  1
  B  B25  1  0.13133669  0.67238193  0.83119750  1
  B  B26  1  0.32290451  0.87795339  0.16441085  1
  B  B27  1  0.33027648  0.87342860  0.50355785  1
  B  B28  1  0.33896522  0.87912809  0.83073534  1
  B  B29  1  0.11837006  0.45013806  0.16507579  1
  B  B30  1  0.12298105  0.44675007  0.49964967  1
  B  B31  1  0.13119965  0.45252693  0.83573076  1
  B  B32  1  0.51094710  0.00009599  0.59877809  1
  B  B33  1  0.32273297  0.44726050  0.16404409  1
  B  B34  1  0.32827928  0.44734454  0.50070074  1
  B  B35  1  0.33792181  0.45437119  0.83534492  1
  B  B36  1  0.53989437  0.87384456  0.16349176  1
  B  B37  1  0.55724966  0.87911466  0.83530997  1
  B  B38  1  0.54861221  0.87365061  0.50022727  1
  B  B39  1  0.53990263  0.66771504  0.16314833  1
  B  B40  1  0.54704943  0.66783097  0.49955338  1
  B  B41  1  0.55677399  0.67345501  0.83482675  1
  B  B42  1  0.50190120  0.49941450  0.06647329  1
  B  B43  1  0.49936415  0.49974029  0.40215928  1
  B  B44  1  0.50642675  0.50741646  0.73444627  1
  B  B45  1  0.49673090  0.50059473  0.26405107  1
  B  B46  1  0.50974017  0.49940802  0.93044417  1
  B  B47  1  0.50200835  0.50363599  0.59881909  1
  B  B48  1  0.46208399  0.33265993  0.82807629  1
  B  B49  1  0.44833474  0.32916388  0.16588601  1
  B  B50  1  0.45201722  0.32698492  0.50292999  1
  B  B51  1  0.44867934  0.12105014  0.16585932  1
  B  B52  1  0.45388368  0.11935194  0.50235854  1
  B  B53  1  0.46535265  0.12694017  0.82906860  1
  B  B54  1  0.66797850  0.54951391  0.16548933  1
  B  B55  1  0.67126324  0.54479860  0.50275727  1
  B  B56  1  0.68003583  0.55146255  0.83025918  1
  B  B57  1  0.49583508  0.99515792  0.26419813  1
  B  B58  1  0.50585063  0.00477247  0.93058830  1
  B  B59  1  0.50001271  0.00245641  0.06667132  1
  B  B60  1  0.51602374  0.00311928  0.73452558  1
  B  B61  1  0.49734164  0.99462752  0.40240551  1
  B  B62  1  0.87468779  0.55031481  0.16465211  1
  B  B63  1  0.87782657  0.54409511  0.50327428  1
  B  B64  1  0.88488641  0.54849915  0.83119430  1
  B  B65  1  0.66696958  0.12117363  0.16560655  1
  B  B66  1  0.68186242  0.12292937  0.83500955  1
  B  B67  1  0.67352416  0.11888169  0.49904747  1
  B  B68  1  0.87396670  0.32903211  0.16488071  1
  B  B69  1  0.88727531  0.32880064  0.83553259  1
  B  B70  1  0.87980231  0.32451938  0.50024061  1
  B  B71  1  0.99834205  0.49877268  0.40260582  1
  B  B72  1  0.99723136  0.50120838  0.06695211  1
  B  B73  1  0.00548081  0.49463681  0.73494128  1
  O  O74  1  0.00333197  0.02434937  0.66887755  1
