# generated using pymatgen
data_Pd7O8
_symmetry_space_group_name_H-M   'P 1'
_cell_length_a   5.78594670
_cell_length_b   34.41926332
_cell_length_c   7.78731166
_cell_angle_alpha   47.50173141
_cell_angle_beta   89.99999987
_cell_angle_gamma   90.00005858
_symmetry_Int_Tables_number   1
_chemical_formula_structural   Pd7O8
_chemical_formula_sum   'Pd42 O48'
_cell_volume   1143.42179302
_cell_formula_units_Z   6
loop_
 _symmetry_equiv_pos_site_id
 _symmetry_equiv_pos_as_xyz
  1  'x, y, z'
loop_
 _atom_site_type_symbol
 _atom_site_label
 _atom_site_symmetry_multiplicity
 _atom_site_fract_x
 _atom_site_fract_y
 _atom_site_fract_z
 _atom_site_occupancy
  Pd  Pd0  1  -0.00000002  0.00076935  0.99466197  1
  Pd  Pd1  1  0.99999996  0.71005387  0.24851895  1
  Pd  Pd2  1  0.00000016  0.78877481  0.75816736  1
  Pd  Pd3  1  0.25005867  0.08331960  0.50010297  1
  Pd  Pd4  1  0.25035241  0.24998973  0.50421118  1
  Pd  Pd5  1  0.24845807  0.41728580  0.49820502  1
  Pd  Pd6  1  0.24744295  0.58340029  0.49986554  1
  Pd  Pd7  1  0.24855361  0.74942211  0.50156672  1
  Pd  Pd8  1  0.25026832  0.91660960  0.49588915  1
  Pd  Pd9  1  0.50000043  0.33468628  0.49821181  1
  Pd  Pd10  1  0.49999997  0.50024127  0.49835062  1
  Pd  Pd11  1  0.49999975  0.66649180  0.50140740  1
  Pd  Pd12  1  0.49999967  0.83200611  0.50172806  1
  Pd  Pd13  1  0.50000014  0.04441550  0.98764009  1
  Pd  Pd14  1  0.49999995  0.12208039  0.01283270  1
  Pd  Pd15  1  0.50000048  0.20692762  0.00717412  1
  Pd  Pd16  1  0.50000024  0.29154712  0.99977548  1
  Pd  Pd17  1  0.50000024  0.37267862  0.01302423  1
  Pd  Pd18  1  0.49999953  0.46160801  0.98281034  1
  Pd  Pd19  1  0.50000007  0.53902579  0.01417990  1
  Pd  Pd20  1  0.50000013  0.70507997  0.01734997  1
  Pd  Pd21  1  0.49999973  0.62766720  0.98592085  1
  Pd  Pd22  1  0.50000003  0.87508179  0.00027484  1
  Pd  Pd23  1  0.49999970  0.79400201  0.98696472  1
  Pd  Pd24  1  0.49999980  0.95976530  0.99286751  1
  Pd  Pd25  1  0.74994114  0.08331935  0.50010315  1
  Pd  Pd26  1  0.75154159  0.41728557  0.49820613  1
  Pd  Pd27  1  0.74964894  0.24998964  0.50421033  1
  Pd  Pd28  1  0.75255712  0.58340023  0.49986590  1
  Pd  Pd29  1  0.75144643  0.74942205  0.50156686  1
  Pd  Pd30  1  0.74973106  0.91660957  0.49588917  1
  Pd  Pd31  1  0.99999957  0.03913450  0.24970238  1
  Pd  Pd32  1  0.99999956  0.20909411  0.24632064  1
  Pd  Pd33  1  0.00000079  0.16584178  0.00549762  1
  Pd  Pd34  1  0.00000131  0.37789911  0.24201895  1
  Pd  Pd35  1  0.99999997  0.54382856  0.24518210  1
  Pd  Pd36  1  0.00000019  0.12739681  0.75041624  1
  Pd  Pd37  1  0.99999980  0.87296039  0.25290699  1
  Pd  Pd38  1  0.00000087  0.29364908  0.74726501  1
  Pd  Pd39  1  0.00000026  0.45667225  0.75137016  1
  Pd  Pd40  1  0.00000021  0.62294818  0.75433253  1
  Pd  Pd41  1  0.00000004  0.95752660  0.75417464  1
  O  O42  1  0.22544111  0.16428057  0.22377768  1
  O  O43  1  0.27133018  0.33210057  0.28967611  1
  O  O44  1  0.27056646  0.49831567  0.29196076  1
  O  O45  1  0.22529592  0.00228813  0.77647194  1
  O  O46  1  0.27051690  0.66449853  0.29527811  1
  O  O47  1  0.27488413  0.83039946  0.29063610  1
  O  O48  1  0.22917506  0.16798720  0.78546239  1
  O  O49  1  0.27468083  0.33629241  0.70912579  1
  O  O50  1  0.22892425  0.99867553  0.21453166  1
  O  O51  1  0.27057961  0.50224074  0.70446200  1
  O  O52  1  0.25237016  0.25099892  0.76064304  1
  O  O53  1  0.25600808  0.07614105  0.26424277  1
  O  O54  1  0.27059426  0.66842164  0.70792175  1
  O  O55  1  0.27151817  0.83451695  0.71049607  1
  O  O56  1  0.25572812  0.09039836  0.73600977  1
  O  O57  1  0.24992608  0.25017641  0.24689159  1
  O  O58  1  0.25728559  0.58561578  0.23486918  1
  O  O59  1  0.24992757  0.42184891  0.22592448  1
  O  O60  1  0.25765434  0.58127866  0.76434889  1
  O  O61  1  0.25716298  0.75217419  0.23567624  1
  O  O62  1  0.25669902  0.41434374  0.76483169  1
  O  O63  1  0.25281597  0.91555333  0.23997258  1
  O  O64  1  0.25038119  0.74504181  0.77321296  1
  O  O65  1  0.25010373  0.91646442  0.75319171  1
  O  O66  1  0.74398457  0.07613870  0.26424952  1
  O  O67  1  0.74427408  0.09039793  0.73601081  1
  O  O68  1  0.77107537  0.99867530  0.21453170  1
  O  O69  1  0.77455907  0.16428005  0.22377933  1
  O  O70  1  0.75006368  0.42184653  0.22593154  1
  O  O71  1  0.74271346  0.58561559  0.23486973  1
  O  O72  1  0.75007268  0.25017608  0.24689272  1
  O  O73  1  0.72867001  0.33210007  0.28967757  1
  O  O74  1  0.72943334  0.49831547  0.29196113  1
  O  O75  1  0.74330254  0.41434338  0.76483290  1
  O  O76  1  0.74283675  0.75217420  0.23567612  1
  O  O77  1  0.74718002  0.91555239  0.23997515  1
  O  O78  1  0.74764132  0.25099635  0.76065077  1
  O  O79  1  0.74234616  0.58127851  0.76434939  1
  O  O80  1  0.72948277  0.66449840  0.29527846  1
  O  O81  1  0.74962186  0.74504094  0.77321558  1
  O  O82  1  0.74989493  0.91646482  0.75319092  1
  O  O83  1  0.77470458  0.00228785  0.77647293  1
  O  O84  1  0.77082689  0.16798677  0.78546334  1
  O  O85  1  0.72511567  0.83039932  0.29063608  1
  O  O86  1  0.72531931  0.33629179  0.70912741  1
  O  O87  1  0.72942055  0.50224061  0.70446247  1
  O  O88  1  0.72940596  0.66842154  0.70792197  1
  O  O89  1  0.72848185  0.83451671  0.71049691  1
