# generated using pymatgen
data_K4N2O5
_symmetry_space_group_name_H-M   'P 1'
_cell_length_a   5.48657133
_cell_length_b   5.48657113
_cell_length_c   14.87090523
_cell_angle_alpha   103.09159673
_cell_angle_beta   103.09159530
_cell_angle_gamma   92.74388026
_symmetry_Int_Tables_number   1
_chemical_formula_structural   K4N2O5
_chemical_formula_sum   'K8 N4 O10'
_cell_volume   422.35665076
_cell_formula_units_Z   2
loop_
 _symmetry_equiv_pos_site_id
 _symmetry_equiv_pos_as_xyz
  1  'x, y, z'
loop_
 _atom_site_type_symbol
 _atom_site_label
 _atom_site_symmetry_multiplicity
 _atom_site_fract_x
 _atom_site_fract_y
 _atom_site_fract_z
 _atom_site_occupancy
  K  K0  1  0.04338542  0.47429354  0.50613019  1
  K  K1  1  0.31090008  0.39511833  0.82558444  1
  K  K2  1  0.39511833  0.31090008  0.32558444  1
  K  K3  1  0.52570646  0.95661458  0.49386981  1
  K  K4  1  0.68909992  0.60488167  0.67441556  1
  K  K5  1  0.47429354  0.04338542  0.00613019  1
  K  K6  1  0.60488167  0.68909992  0.17441556  1
  K  K7  1  0.95661458  0.52570646  0.99386981  1
  N  N8  1  0.06257963  0.99461589  0.62992055  1
  N  N9  1  0.99461589  0.06257963  0.12992055  1
  N  N10  1  0.93742037  0.00538411  0.87007945  1
  N  N11  1  0.00538411  0.93742037  0.37007945  1
  O  O12  1  0.07488355  0.83090590  0.84738422  1
  O  O13  1  0.47325498  0.52674502  1.00000000  1
  O  O14  1  0.29405862  0.07120162  0.64344290  1
  O  O15  1  0.07120162  0.29405862  0.14344290  1
  O  O16  1  0.16909410  0.92511646  0.15261578  1
  O  O17  1  0.70594138  0.92879838  0.85655710  1
  O  O18  1  0.52674502  0.47325498  0.50000000  1
  O  O19  1  0.92511645  0.16909410  0.65261578  1
  O  O20  1  0.83090590  0.07488354  0.34738422  1
  O  O21  1  0.92879838  0.70594138  0.35655710  1
