# generated using pymatgen
data_LiMnPO4
_symmetry_space_group_name_H-M   'P 1'
_cell_length_a   8.01127618
_cell_length_b   4.91916716
_cell_length_c   8.58073624
_cell_angle_alpha   90.00000000
_cell_angle_beta   99.30264821
_cell_angle_gamma   90.00000000
_symmetry_Int_Tables_number   1
_chemical_formula_structural   LiMnPO4
_chemical_formula_sum   'Li4 Mn4 P4 O16'
_cell_volume   333.70922368
_cell_formula_units_Z   4
loop_
 _symmetry_equiv_pos_site_id
 _symmetry_equiv_pos_as_xyz
  1  'x, y, z'
loop_
 _atom_site_type_symbol
 _atom_site_label
 _atom_site_symmetry_multiplicity
 _atom_site_fract_x
 _atom_site_fract_y
 _atom_site_fract_z
 _atom_site_occupancy
  Li  Li0  1  0.16747931  0.99782713  0.57683583  1
  Li  Li1  1  0.63192521  0.98406742  0.93588991  1
  Li  Li2  1  0.36807479  0.48406742  0.06411009  1
  Li  Li3  1  0.83252069  0.49782713  0.42316417  1
  Mn  Mn4  1  0.47761284  0.42513343  0.71591151  1
  Mn  Mn5  1  0.00643537  0.99149639  0.18163369  1
  Mn  Mn6  1  0.99356463  0.49149639  0.81836631  1
  Mn  Mn7  1  0.52238716  0.92513343  0.28408849  1
  P  P8  1  0.22133582  0.51885330  0.38772798  1
  P  P9  1  0.77866418  0.01885330  0.61227202  1
  P  P10  1  0.26218096  0.01542545  0.93171283  1
  P  P11  1  0.73781904  0.51542545  0.06828717  1
  O  O12  1  0.11810588  0.17367735  0.99440377  1
  O  O13  1  0.70381712  0.11485490  0.44179984  1
  O  O14  1  0.95272840  0.16259755  0.65541273  1
  O  O15  1  0.21832393  0.71197788  0.90815859  1
  O  O16  1  0.57493748  0.55922714  0.94352581  1
  O  O17  1  0.80425819  0.70561060  0.62223354  1
  O  O18  1  0.65478153  0.10901585  0.72487268  1
  O  O19  1  0.29618288  0.61485490  0.55820016  1
  O  O20  1  0.78167607  0.21197788  0.09184141  1
  O  O21  1  0.70201103  0.64262159  0.22397324  1
  O  O22  1  0.29798897  0.14262159  0.77602676  1
  O  O23  1  0.88189412  0.67367735  0.00559623  1
  O  O24  1  0.04727160  0.66259755  0.34458727  1
  O  O25  1  0.42506252  0.05922714  0.05647419  1
  O  O26  1  0.34521847  0.60901585  0.27512732  1
  O  O27  1  0.19574181  0.20561060  0.37776646  1
