# generated using pymatgen
data_V5Fe3O16
_symmetry_space_group_name_H-M   'P 1'
_cell_length_a   4.52903189
_cell_length_b   4.93098202
_cell_length_c   11.10766421
_cell_angle_alpha   89.94458299
_cell_angle_beta   89.83734313
_cell_angle_gamma   90.45088390
_symmetry_Int_Tables_number   1
_chemical_formula_structural   V5Fe3O16
_chemical_formula_sum   'V5 Fe3 O16'
_cell_volume   248.05394004
_cell_formula_units_Z   1
loop_
 _symmetry_equiv_pos_site_id
 _symmetry_equiv_pos_as_xyz
  1  'x, y, z'
loop_
 _atom_site_type_symbol
 _atom_site_label
 _atom_site_symmetry_multiplicity
 _atom_site_fract_x
 _atom_site_fract_y
 _atom_site_fract_z
 _atom_site_occupancy
  V  V0  1  0.99721593  0.74181362  0.41356489  1
  V  V1  1  0.99696918  0.75075151  0.91550442  1
  V  V2  1  0.50270515  0.24156383  0.33460669  1
  V  V3  1  0.49775852  0.75143006  0.66064775  1
  V  V4  1  0.00396836  0.25097380  0.08453277  1
  Fe  Fe5  1  0.49899584  0.24981337  0.83379247  1
  Fe  Fe6  1  0.49877474  0.75130546  0.16618300  1
  Fe  Fe7  1  0.00238449  0.25129387  0.58041932  1
  O  O8  1  0.22092992  0.93368299  0.05686309  1
  O  O9  1  0.23692978  0.90462543  0.56178326  1
  O  O10  1  0.21926154  0.43238572  0.94487252  1
  O  O11  1  0.22692325  0.41723972  0.43655170  1
  O  O12  1  0.27264097  0.91613955  0.31246516  1
  O  O13  1  0.25906132  0.90312268  0.81290362  1
  O  O14  1  0.26379521  0.40076784  0.18823806  1
  O  O15  1  0.28455369  0.43642654  0.69201648  1
  O  O16  1  0.73012212  0.58839839  0.31537157  1
  O  O17  1  0.74135202  0.59648552  0.81358196  1
  O  O18  1  0.73817892  0.09950033  0.18662923  1
  O  O19  1  0.71368499  0.06438030  0.69058438  1
  O  O20  1  0.78120190  0.56780255  0.05781539  1
  O  O21  1  0.76119717  0.59549502  0.56328257  1
  O  O22  1  0.77043096  0.08800751  0.43386858  1
  O  O23  1  0.78096402  0.06659441  0.94392113  1
