# generated using pymatgen
data_Li9Mn22O48
_symmetry_space_group_name_H-M   'P 1'
_cell_length_a   5.88669277
_cell_length_b   5.87716163
_cell_length_c   35.04360565
_cell_angle_alpha   59.79270710
_cell_angle_beta   60.72234773
_cell_angle_gamma   60.05354093
_symmetry_Int_Tables_number   1
_chemical_formula_structural   Li9Mn22O48
_chemical_formula_sum   'Li9 Mn22 O48'
_cell_volume   860.85909016
_cell_formula_units_Z   1
loop_
 _symmetry_equiv_pos_site_id
 _symmetry_equiv_pos_as_xyz
  1  'x, y, z'
loop_
 _atom_site_type_symbol
 _atom_site_label
 _atom_site_symmetry_multiplicity
 _atom_site_fract_x
 _atom_site_fract_y
 _atom_site_fract_z
 _atom_site_occupancy
  Li  Li0  1  0.13385293  0.11527662  0.02259864  1
  Li  Li1  1  0.13159103  0.13274246  0.18382068  1
  Li  Li2  1  0.13304826  0.11552428  0.35598420  1
  Li  Li3  1  0.86634939  0.88437597  0.14414944  1
  Li  Li4  1  0.13251251  0.13027908  0.51782122  1
  Li  Li5  1  0.86781047  0.86720299  0.31629726  1
  Li  Li6  1  0.86532898  0.88514401  0.47739750  1
  Li  Li7  1  0.86689677  0.87945150  0.81236671  1
  Li  Li8  1  0.87117762  0.86714218  0.98242334  1
  Mn  Mn9  1  0.49689079  0.49410866  0.00248198  1
  Mn  Mn10  1  0.50040324  0.49996299  0.08329845  1
  Mn  Mn11  1  0.99957557  0.49989220  0.25010667  1
  Mn  Mn12  1  0.50040324  0.99984106  0.08329845  1
  Mn  Mn13  1  0.50451568  0.50522760  0.16417186  1
  Mn  Mn14  1  0.49960307  0.49988855  0.25009482  1
  Mn  Mn15  1  0.49960307  0.99993946  0.25009482  1
  Mn  Mn16  1  0.49445025  0.49473559  0.33601276  1
  Mn  Mn17  1  0.49874951  0.49976314  0.41687495  1
  Mn  Mn18  1  0.49874951  0.00023962  0.41687495  1
  Mn  Mn19  1  0.50512432  0.50498763  0.49748341  1
  Mn  Mn20  1  0.00075347  0.50216921  0.74915135  1
  Mn  Mn21  1  0.50033284  0.49892749  0.58352508  1
  Mn  Mn22  1  0.50033284  0.99958720  0.58352508  1
  Mn  Mn23  1  0.50891467  0.49554160  0.66666736  1
  Mn  Mn24  1  0.00137451  0.49819989  0.58370395  1
  Mn  Mn25  1  0.49941539  0.50135480  0.74939812  1
  Mn  Mn26  1  0.49941539  0.00284112  0.74939812  1
  Mn  Mn27  1  0.49024680  0.50316872  0.83390229  1
  Mn  Mn28  1  0.50007332  0.49936409  0.91676281  1
  Mn  Mn29  1  0.50007332  0.99998772  0.91676281  1
  Mn  Mn30  1  0.00001985  0.50024579  0.91658176  1
  O  O31  1  0.31014380  0.24713418  0.03783313  1
  O  O32  1  0.31014380  0.71572327  0.03783313  1
  O  O33  1  0.29604325  0.25104848  0.11697663  1
  O  O34  1  0.71719265  0.25809540  0.04443609  1
  O  O35  1  0.28363741  0.74151041  0.12222396  1
  O  O36  1  0.25508352  0.26363807  0.21203648  1
  O  O37  1  0.69079280  0.28418650  0.12871911  1
  O  O38  1  0.70468525  0.74910962  0.04951625  1
  O  O39  1  0.25508352  0.70906156  0.21203648  1
  O  O40  1  0.25653974  0.26450984  0.28574043  1
  O  O41  1  0.69079280  0.75270802  0.12871911  1
  O  O42  1  0.70438013  0.26469616  0.21103826  1
  O  O43  1  0.30807514  0.24711950  0.37153938  1
  O  O44  1  0.29477377  0.73507353  0.28917953  1
  O  O45  1  0.30807514  0.71556708  0.37153938  1
  O  O46  1  0.74260490  0.73525985  0.21447890  1
  O  O47  1  0.74396955  0.29074625  0.28819573  1
  O  O48  1  0.29475036  0.25043518  0.45072955  1
  O  O49  1  0.71540157  0.25833891  0.37798643  1
  O  O50  1  0.74396955  0.73610781  0.28819573  1
  O  O51  1  0.28230427  0.74085935  0.45599617  1
  O  O52  1  0.25676922  0.26227992  0.54546542  1
  O  O53  1  0.25676922  0.70815833  0.54546542  1
  O  O54  1  0.69051268  0.28373643  0.46221672  1
  O  O55  1  0.27157611  0.26277457  0.61714579  1
  O  O56  1  0.70269016  0.74915833  0.38316553  1
  O  O57  1  0.70566530  0.26393256  0.54441160  1
  O  O58  1  0.69051268  0.75245056  0.46221672  1
  O  O59  1  0.29255445  0.25700688  0.70700533  1
  O  O60  1  0.30390287  0.73323145  0.62160604  1
  O  O61  1  0.74071634  0.29533431  0.62150251  1
  O  O62  1  0.26738522  0.26877576  0.78251088  1
  O  O63  1  0.29255445  0.70840870  0.70700533  1
  O  O64  1  0.73426947  0.73718474  0.54856051  1
  O  O65  1  0.70879103  0.25938685  0.71207288  1
  O  O66  1  0.74071634  0.73493629  0.62150251  1
  O  O67  1  0.25975100  0.26861350  0.87770099  1
  O  O68  1  0.28569979  0.74201571  0.78837780  1
  O  O69  1  0.25975100  0.70542755  0.87770099  1
  O  O70  1  0.71201042  0.28875213  0.79272244  1
  O  O71  1  0.73055994  0.73386959  0.71694981  1
  O  O72  1  0.25590351  0.26490313  0.95238137  1
  O  O73  1  0.69594125  0.26812977  0.87796620  1
  O  O74  1  0.71201042  0.74290083  0.79272244  1
  O  O75  1  0.29700115  0.73486728  0.95554405  1
  O  O76  1  0.74660347  0.29029977  0.95471308  1
  O  O77  1  0.74174755  0.73560459  0.88117388  1
  O  O78  1  0.74660347  0.73481828  0.95471308  1
