# generated using pymatgen
data_SrLa7Cu4(SnO6)4
_symmetry_space_group_name_H-M   'P 1'
_cell_length_a   7.89655267
_cell_length_b   7.90199720
_cell_length_c   8.51734180
_cell_angle_alpha   91.27913079
_cell_angle_beta   90.00000000
_cell_angle_gamma   90.00000000
_symmetry_Int_Tables_number   1
_chemical_formula_structural   SrLa7Cu4(SnO6)4
_chemical_formula_sum   'Sr1 La7 Cu4 Sn4 O24'
_cell_volume   531.33722985
_cell_formula_units_Z   1
loop_
 _symmetry_equiv_pos_site_id
 _symmetry_equiv_pos_as_xyz
  1  'x, y, z'
loop_
 _atom_site_type_symbol
 _atom_site_label
 _atom_site_symmetry_multiplicity
 _atom_site_fract_x
 _atom_site_fract_y
 _atom_site_fract_z
 _atom_site_occupancy
  Sr  Sr0  1  0.25000000  0.27579221  0.76662541  1
  La  La1  1  0.25000000  0.28192425  0.20634718  1
  La  La2  1  0.25000000  0.76616244  0.19707103  1
  La  La3  1  0.25000000  0.78824844  0.75629915  1
  La  La4  1  0.75000000  0.21336330  0.24479799  1
  La  La5  1  0.75000000  0.23093875  0.80194100  1
  La  La6  1  0.75000000  0.71789879  0.78748980  1
  La  La7  1  0.75000000  0.72368996  0.23326714  1
  Cu  Cu8  1  0.00019114  0.00012692  0.99829996  1
  Cu  Cu9  1  0.00092195  0.49956372  0.99839781  1
  Cu  Cu10  1  0.49980886  0.00012692  0.99829996  1
  Cu  Cu11  1  0.49907805  0.49956372  0.99839781  1
  Sn  Sn12  1  0.00086749  0.49921249  0.50076984  1
  Sn  Sn13  1  0.00020983  0.00016817  0.50092214  1
  Sn  Sn14  1  0.49979017  0.00016817  0.50092214  1
  Sn  Sn15  1  0.49913251  0.49921249  0.50076984  1
  O  O16  1  0.02954864  0.75040294  0.96290692  1
  O  O17  1  0.04515800  0.24851623  0.42620166  1
  O  O18  1  0.04411734  0.04039133  0.73760797  1
  O  O19  1  0.04982866  0.55531538  0.26805518  1
  O  O20  1  0.25000000  0.02640538  0.03439671  1
  O  O21  1  0.25000000  0.53262109  0.58125092  1
  O  O22  1  0.25000000  0.48096386  0.99034307  1
  O  O23  1  0.25000000  0.92345966  0.46111626  1
  O  O24  1  0.45017134  0.55531538  0.26805518  1
  O  O25  1  0.45588266  0.04039133  0.73760797  1
  O  O26  1  0.45484200  0.24851623  0.42620166  1
  O  O27  1  0.47045136  0.75040294  0.96290692  1
  O  O28  1  0.53247227  0.24959866  0.03897369  1
  O  O29  1  0.54860103  0.75042261  0.56810030  1
  O  O30  1  0.55093646  0.95065105  0.26517279  1
  O  O31  1  0.55767849  0.44929346  0.73264186  1
  O  O32  1  0.75000000  0.07866268  0.53670489  1
  O  O33  1  0.75000000  0.47380583  0.41548071  1
  O  O34  1  0.75000000  0.52830802  0.01835670  1
  O  O35  1  0.75000000  0.97042941  0.97241178  1
  O  O36  1  0.94232151  0.44929346  0.73264186  1
  O  O37  1  0.94906354  0.95065105  0.26517279  1
  O  O38  1  0.95139897  0.75042261  0.56810030  1
  O  O39  1  0.96752773  0.24959866  0.03897369  1
