# generated using pymatgen
data_KP(HO2)2
_symmetry_space_group_name_H-M   'P 1'
_cell_length_a   8.26931275
_cell_length_b   8.26931275
_cell_length_c   8.26931275
_cell_angle_alpha   113.02062416
_cell_angle_beta   113.02062416
_cell_angle_gamma   102.58425827
_symmetry_Int_Tables_number   1
_chemical_formula_structural   KP(HO2)2
_chemical_formula_sum   'K4 P4 H8 O16'
_cell_volume   430.65952997
_cell_formula_units_Z   4
loop_
 _symmetry_equiv_pos_site_id
 _symmetry_equiv_pos_as_xyz
  1  'x, y, z'
loop_
 _atom_site_type_symbol
 _atom_site_label
 _atom_site_symmetry_multiplicity
 _atom_site_fract_x
 _atom_site_fract_y
 _atom_site_fract_z
 _atom_site_occupancy
  K  K0  1  0.32540871  0.62153713  0.21400195  1
  K  K1  1  0.40753517  0.11140676  0.78599805  1
  K  K2  1  0.88859324  0.67459129  0.29612842  1
  K  K3  1  0.37846287  0.59246483  0.70387158  1
  P  P4  1  0.07144001  0.78005806  0.85188686  1
  P  P5  1  0.92817120  0.21955314  0.14811314  1
  P  P6  1  0.78044686  0.92855999  0.70861805  1
  P  P7  1  0.21994194  0.07182880  0.29138195  1
  H  H8  1  0.59605200  0.36624097  0.69803435  1
  H  H9  1  0.66820662  0.89801765  0.30196565  1
  H  H10  1  0.10198235  0.40394800  0.77018897  1
  H  H11  1  0.63375903  0.33179338  0.22981103  1
  H  H12  1  0.81671790  0.48015683  0.86307260  1
  H  H13  1  0.61708424  0.95364530  0.13692740  1
  H  H14  1  0.04635470  0.18328210  0.66343894  1
  H  H15  1  0.51984317  0.38291576  0.33656106  1
  O  O16  1  0.72787390  0.16584197  0.11795786  1
  O  O17  1  0.04788411  0.60991604  0.88204214  1
  O  O18  1  0.39008396  0.27212610  0.43796807  1
  O  O19  1  0.83415803  0.95211589  0.56203193  1
  O  O20  1  0.14760107  0.79194218  0.71810907  1
  O  O21  1  0.07383311  0.42949200  0.28189093  1
  O  O22  1  0.57050800  0.85239893  0.64434112  1
  O  O23  1  0.20805782  0.92616689  0.35565888  1
  O  O24  1  0.86056691  0.78612889  0.77325158  1
  O  O25  1  0.01287731  0.08731533  0.22674842  1
  O  O26  1  0.91268467  0.13943309  0.92556198  1
  O  O27  1  0.21387111  0.98712269  0.07443802  1
  O  O28  1  0.68885184  0.43056800  0.84811114  1
  O  O29  1  0.58245685  0.84074070  0.15188886  1
  O  O30  1  0.15925930  0.31114816  0.74171615  1
  O  O31  1  0.56943200  0.41754315  0.25828385  1
