# generated using pymatgen
data_Dy10Ti6O27
_symmetry_space_group_name_H-M   'P 1'
_cell_length_a   7.29365801
_cell_length_b   7.35811554
_cell_length_c   29.41828637
_cell_angle_alpha   59.98405799
_cell_angle_beta   59.53767224
_cell_angle_gamma   59.70722362
_symmetry_Int_Tables_number   1
_chemical_formula_structural   Dy10Ti6O27
_chemical_formula_sum   'Dy20 Ti12 O54'
_cell_volume   1109.83551929
_cell_formula_units_Z   2
loop_
 _symmetry_equiv_pos_site_id
 _symmetry_equiv_pos_as_xyz
  1  'x, y, z'
loop_
 _atom_site_type_symbol
 _atom_site_label
 _atom_site_symmetry_multiplicity
 _atom_site_fract_x
 _atom_site_fract_y
 _atom_site_fract_z
 _atom_site_occupancy
  Dy  Dy0  1  0.98321357  0.00531412  0.24383556  1
  Dy  Dy1  1  0.98321357  0.53613008  0.24383556  1
  Dy  Dy2  1  0.49860749  0.53620587  0.11277791  1
  Dy  Dy3  1  0.52584671  0.51749497  0.23479084  1
  Dy  Dy4  1  0.49860749  0.01407501  0.11277791  1
  Dy  Dy5  1  0.51245553  0.50490863  0.37271609  1
  Dy  Dy6  1  0.51565716  0.97995852  0.50610645  1
  Dy  Dy7  1  0.98679296  0.99718273  0.37971039  1
  Dy  Dy8  1  0.55202847  0.48116353  0.49641112  1
  Dy  Dy9  1  0.51245553  0.99177147  0.37271609  1
  Dy  Dy10  1  0.00751422  0.51875887  0.36374201  1
  Dy  Dy11  1  0.46516699  0.51775640  0.63387511  1
  Dy  Dy12  1  0.49166478  0.00209727  0.75103517  1
  Dy  Dy13  1  0.98123399  0.50874566  0.87531867  1
  Dy  Dy14  1  0.52149280  0.47744367  0.75590497  1
  Dy  Dy15  1  0.46516699  0.98157619  0.63387511  1
  Dy  Dy16  1  0.98116673  0.48266797  0.63837433  1
  Dy  Dy17  1  0.45174213  0.52064554  0.87958161  1
  Dy  Dy18  1  0.50856184  0.50027910  0.99771999  1
  Dy  Dy19  1  0.45174213  0.00928589  0.87958161  1
  Ti  Ti20  1  0.98076118  0.01459736  0.99859674  1
  Ti  Ti21  1  0.98076118  0.51025451  0.99859674  1
  Ti  Ti22  1  0.49453670  0.01666091  0.99303537  1
  Ti  Ti23  1  0.49617577  0.00997153  0.24597029  1
  Ti  Ti24  1  0.01867764  0.00922542  0.49215372  1
  Ti  Ti25  1  0.01867764  0.50348205  0.49215372  1
  Ti  Ti26  1  0.01836738  0.47005566  0.13538032  1
  Ti  Ti27  1  0.98886964  0.99583357  0.75255121  1
  Ti  Ti28  1  0.00696453  0.00954659  0.11848557  1
  Ti  Ti29  1  0.99605744  0.00374703  0.87411212  1
  Ti  Ti30  1  0.98886964  0.50509196  0.75255121  1
  Ti  Ti31  1  0.98664171  0.02566716  0.61550599  1
  O  O32  1  0.36807777  0.38634573  0.08980770  1
  O  O33  1  0.10004777  0.15910459  0.14508546  1
  O  O34  1  0.10004777  0.66050582  0.14508546  1
  O  O35  1  0.64540779  0.10046966  0.01593311  1
  O  O36  1  0.15497749  0.63452510  0.26899308  1
  O  O37  1  0.12182078  0.13303491  0.40957424  1
  O  O38  1  0.32434129  0.92128481  0.08327228  1
  O  O39  1  0.39507294  0.32175986  0.20797508  1
  O  O40  1  0.64540779  0.69039012  0.01593311  1
  O  O41  1  0.82305214  0.92791087  0.20528153  1
  O  O42  1  0.70042745  0.62154668  0.13911980  1
  O  O43  1  0.12182078  0.60684736  0.40957424  1
  O  O44  1  0.88074996  0.32236816  0.07853595  1
  O  O45  1  0.39507294  0.95126689  0.20797508  1
  O  O46  1  0.60192037  0.16448703  0.28197978  1
  O  O47  1  0.91468041  0.82286680  0.48489650  1
  O  O48  1  0.06404977  0.10781221  0.66847970  1
  O  O49  1  0.35300053  0.92521142  0.32414416  1
  O  O50  1  0.31318195  0.39089623  0.48547016  1
  O  O51  1  0.88074996  0.98273808  0.07853595  1
  O  O52  1  0.60192037  0.60567349  0.28197978  1
  O  O53  1  0.92474535  0.36444429  0.21159152  1
  O  O54  1  0.59165761  0.13159665  0.41128727  1
  O  O55  1  0.63903714  0.62039323  0.40504410  1
  O  O56  1  0.06404977  0.65421920  0.66847970  1
  O  O57  1  0.90031893  0.36321647  0.33508133  1
  O  O58  1  0.31318195  0.85404117  0.48547016  1
  O  O59  1  0.61488630  0.12333156  0.54025680  1
  O  O60  1  0.99887786  0.70095706  0.77480200  1
  O  O61  1  0.05939319  0.10921401  0.91669049  1
  O  O62  1  0.31528755  0.89949675  0.59642974  1
  O  O63  1  0.32274165  0.37510737  0.73037316  1
  O  O64  1  0.61488630  0.60075494  0.54025680  1
  O  O65  1  0.90031893  0.89613927  0.33508133  1
  O  O66  1  0.63509292  0.12489770  0.65377792  1
  O  O67  1  0.93248187  0.31491478  0.48442214  1
  O  O68  1  0.63198460  0.61928726  0.65736022  1
  O  O69  1  0.35341815  0.37979186  0.84674953  1
  O  O70  1  0.05939319  0.66463082  0.91669049  1
  O  O71  1  0.65501739  0.09582236  0.77930407  1
  O  O72  1  0.96816905  0.32385074  0.57694454  1
  O  O73  1  0.32274165  0.88065836  0.73037316  1
  O  O74  1  0.30235076  0.33769240  0.98120210  1
  O  O75  1  0.32195114  0.90110757  0.84395843  1
  O  O76  1  0.65631377  0.08728852  0.91727730  1
  O  O77  1  0.91782020  0.33035343  0.73036824  1
  O  O78  1  0.96816905  0.90020203  0.57694454  1
  O  O79  1  0.65501739  0.63194397  0.77930407  1
  O  O80  1  0.60826078  0.63398878  0.90594041  1
  O  O81  1  0.95442044  0.30398345  0.82803947  1
  O  O82  1  0.30235076  0.93514844  0.98120210  1
  O  O83  1  0.88699082  0.35149247  0.97750606  1
  O  O84  1  0.95442044  0.92943820  0.82803947  1
  O  O85  1  0.02873354  0.71595383  0.00983970  1
