# generated using pymatgen
data_NaLi2La3Ti6O18
_symmetry_space_group_name_H-M   'P 1'
_cell_length_a   5.55830835
_cell_length_b   16.62422437
_cell_length_c   9.61366853
_cell_angle_alpha   29.83759256
_cell_angle_beta   54.72718330
_cell_angle_gamma   59.93908692
_symmetry_Int_Tables_number   1
_chemical_formula_structural   NaLi2La3Ti6O18
_chemical_formula_sum   'Na1 Li2 La3 Ti6 O18'
_cell_volume   360.83874977
_cell_formula_units_Z   1
loop_
 _symmetry_equiv_pos_site_id
 _symmetry_equiv_pos_as_xyz
  1  'x, y, z'
loop_
 _atom_site_type_symbol
 _atom_site_label
 _atom_site_symmetry_multiplicity
 _atom_site_fract_x
 _atom_site_fract_y
 _atom_site_fract_z
 _atom_site_occupancy
  Na  Na0  1  0.25000000  0.99956733  0.25064901  1
  Li  Li1  1  0.00289402  0.83320148  0.00063844  1
  Li  Li2  1  0.49710598  0.83320148  0.99975613  1
  La  La3  1  0.25000000  0.32633735  0.26049348  1
  La  La4  1  0.75000000  0.34015987  0.73975969  1
  La  La5  1  0.75000000  0.66558847  0.75161780  1
  Ti  Ti6  1  0.99290875  0.99817382  0.00720829  1
  Ti  Ti7  1  0.00077742  0.32640399  0.00801090  1
  Ti  Ti8  1  0.00642293  0.67310061  0.98787763  1
  Ti  Ti9  1  0.50709125  0.99817382  0.49827024  1
  Ti  Ti10  1  0.49922258  0.32640399  0.51277611  1
  Ti  Ti11  1  0.49357707  0.67310061  0.49282155  1
  O  O12  1  0.29796590  0.18788350  0.20118071  1
  O  O13  1  0.25000000  0.01114527  0.73328210  1
  O  O14  1  0.20203410  0.18788350  0.73516981  1
  O  O15  1  0.28374717  0.50530962  0.21466851  1
  O  O16  1  0.76796809  0.16730402  0.23024731  1
  O  O17  1  0.25000000  0.34797234  0.72804100  1
  O  O18  1  0.75000000  0.32588174  0.26117689  1
  O  O19  1  0.21625283  0.50530962  0.76940264  1
  O  O20  1  0.73203191  0.16730402  0.76784162  1
  O  O21  1  0.26274809  0.83917772  0.23753853  1
  O  O22  1  0.79726442  0.48478365  0.24987518  1
  O  O23  1  0.25000000  0.68011722  0.72982467  1
  O  O24  1  0.75000000  0.65471501  0.26792799  1
  O  O25  1  0.23725191  0.83917772  0.74492732  1
  O  O26  1  0.70273558  0.48478365  0.79577386  1
  O  O27  1  0.77330130  0.81915950  0.26862607  1
  O  O28  1  0.75000000  0.97951860  0.28072210  1
  O  O29  1  0.72669870  0.81915950  0.77389443  1
