# generated using pymatgen
data_Mg4Al3(HO)17
_symmetry_space_group_name_H-M   'P 1'
_cell_length_a   7.18704469
_cell_length_b   7.17337118
_cell_length_c   50.45880037
_cell_angle_alpha   24.50659560
_cell_angle_beta   24.41938664
_cell_angle_gamma   24.41023741
_symmetry_Int_Tables_number   1
_chemical_formula_structural   Mg4Al3(HO)17
_chemical_formula_sum   'Mg4 Al3 H17 O17'
_cell_volume   391.65802109
_cell_formula_units_Z   1
loop_
 _symmetry_equiv_pos_site_id
 _symmetry_equiv_pos_as_xyz
  1  'x, y, z'
loop_
 _atom_site_type_symbol
 _atom_site_label
 _atom_site_symmetry_multiplicity
 _atom_site_fract_x
 _atom_site_fract_y
 _atom_site_fract_z
 _atom_site_occupancy
  Mg  Mg0  1  0.02193991  0.02305056  0.13685820  1
  Mg  Mg1  1  0.00548906  0.00437117  0.28424604  1
  Mg  Mg2  1  0.98757634  0.98673866  0.43235739  1
  Mg  Mg3  1  0.97761763  0.97322842  0.57819037  1
  Al  Al4  1  0.03752992  0.05053192  0.98696393  1
  Al  Al5  1  0.99106890  0.98438683  0.71598994  1
  Al  Al6  1  0.00806017  0.01906570  0.85216002  1
  H  H7  1  0.50605998  0.52205367  0.03691825  1
  H  H8  1  0.65727350  0.67385003  0.05633907  1
  H  H9  1  0.43314362  0.43785163  0.20237847  1
  H  H10  1  0.57111290  0.57038651  0.22418923  1
  H  H11  1  0.41439311  0.41860840  0.35095216  1
  H  H12  1  0.54503759  0.54469381  0.37470372  1
  H  H13  1  0.37715469  0.41395553  0.49991792  1
  H  H14  1  0.03880269  0.15448009  0.61605850  1
  H  H15  1  0.49419713  0.53984413  0.52523468  1
  H  H16  1  0.42278085  0.38268130  0.64018731  1
  H  H17  1  0.05821098  0.22724961  0.74704882  1
  H  H18  1  0.65827598  0.51137402  0.64196419  1
  H  H19  1  0.44354669  0.41323338  0.77608657  1
  H  H20  1  0.06916088  0.19881658  0.89153963  1
  H  H21  1  0.64184454  0.50179561  0.78809411  1
  H  H22  1  0.45557074  0.41319168  0.91813666  1
  H  H23  1  0.65160587  0.45805216  0.93398686  1
  O  O24  1  0.42486588  0.43701108  0.04118880  1
  O  O25  1  0.68153282  0.68434480  0.07106386  1
  O  O26  1  0.40773647  0.41003784  0.19034300  1
  O  O27  1  0.64327486  0.64019171  0.22354320  1
  O  O28  1  0.39180700  0.39338413  0.33811981  1
  O  O29  1  0.62211988  0.61726941  0.37292188  1
  O  O30  1  0.36907831  0.37292708  0.48727881  1
  O  O31  1  0.60593309  0.59261103  0.52116646  1
  O  O32  1  0.33234516  0.33966570  0.63922990  1
  O  O33  1  0.73537543  0.49071914  0.61395411  1
  O  O34  1  0.57437645  0.56160962  0.67514412  1
  O  O35  1  0.34772487  0.37908471  0.77427862  1
  O  O36  1  0.68624181  0.39628785  0.77626383  1
  O  O37  1  0.60914805  0.61759734  0.80689334  1
  O  O38  1  0.37451099  0.41167356  0.90946046  1
  O  O39  1  0.72745546  0.25154051  0.93378138  1
  O  O40  1  0.64120080  0.65523412  0.93982137  1
