# generated using pymatgen
data_TiFeO3
_symmetry_space_group_name_H-M   'P 1'
_cell_length_a   5.60098473
_cell_length_b   5.63290669
_cell_length_c   44.21122076
_cell_angle_alpha   54.84026709
_cell_angle_beta   55.32774512
_cell_angle_gamma   54.40483091
_symmetry_Int_Tables_number   1
_chemical_formula_structural   TiFeO3
_chemical_formula_sum   'Ti16 Fe16 O48'
_cell_volume   868.10095568
_cell_formula_units_Z   16
loop_
 _symmetry_equiv_pos_site_id
 _symmetry_equiv_pos_as_xyz
  1  'x, y, z'
loop_
 _atom_site_type_symbol
 _atom_site_label
 _atom_site_symmetry_multiplicity
 _atom_site_fract_x
 _atom_site_fract_y
 _atom_site_fract_z
 _atom_site_occupancy
  Ti  Ti0  1  0.36566707  0.36772040  0.04157464  1
  Ti  Ti1  1  0.34486284  0.37178016  0.16773673  1
  Ti  Ti2  1  0.13403008  0.14330471  0.26893930  1
  Ti  Ti3  1  0.85058664  0.86837935  0.10617968  1
  Ti  Ti4  1  0.14504361  0.14438202  0.39288606  1
  Ti  Ti5  1  0.85952113  0.85355983  0.23134452  1
  Ti  Ti6  1  0.14301500  0.14348875  0.51866201  1
  Ti  Ti7  1  0.85392775  0.85271104  0.35710646  1
  Ti  Ti8  1  0.14063923  0.14208238  0.64359155  1
  Ti  Ti9  1  0.85555245  0.85593102  0.48172655  1
  Ti  Ti10  1  0.14394054  0.14631091  0.76797546  1
  Ti  Ti11  1  0.85121685  0.85659820  0.60732250  1
  Ti  Ti12  1  0.15358749  0.14047125  0.89255224  1
  Ti  Ti13  1  0.85383450  0.85472716  0.73175825  1
  Ti  Ti14  1  0.85714969  0.85047785  0.85692887  1
  Ti  Ti15  1  0.83977265  0.88183330  0.98036861  1
  Fe  Fe16  1  0.14580222  0.14406183  0.01824529  1
  Fe  Fe17  1  0.14847999  0.14892998  0.14146992  1
  Fe  Fe18  1  0.64979369  0.64708572  0.08010142  1
  Fe  Fe19  1  0.34887113  0.34843669  0.29371794  1
  Fe  Fe20  1  0.64627377  0.63620227  0.20610587  1
  Fe  Fe21  1  0.35216841  0.35541552  0.41953280  1
  Fe  Fe22  1  0.64694730  0.64616587  0.33015458  1
  Fe  Fe23  1  0.34954805  0.36181706  0.54430786  1
  Fe  Fe24  1  0.64665102  0.64116108  0.45599038  1
  Fe  Fe25  1  0.34923634  0.35228627  0.66840754  1
  Fe  Fe26  1  0.64504555  0.64136151  0.58140213  1
  Fe  Fe27  1  0.34734810  0.36285630  0.79410061  1
  Fe  Fe28  1  0.64881148  0.64158310  0.70584578  1
  Fe  Fe29  1  0.35756805  0.35553933  0.91934458  1
  Fe  Fe30  1  0.64856606  0.63954239  0.83078270  1
  Fe  Fe31  1  0.64051687  0.65095265  0.95605664  1
  O  O32  1  0.08305362  0.70725285  0.05918043  1
  O  O33  1  0.46640590  0.07331214  0.08983458  1
  O  O34  1  0.72086591  0.45325573  0.00996999  1
  O  O35  1  0.21159045  0.56964864  0.12196750  1
  O  O36  1  0.57679872  0.96632673  0.02804860  1
  O  O37  1  0.06855222  0.72099490  0.18259500  1
  O  O38  1  0.95463317  0.20890324  0.07378295  1
  O  O39  1  0.43080754  0.07429092  0.21916292  1
  O  O40  1  0.70116112  0.45289133  0.13638895  1
  O  O41  1  0.21592643  0.56031274  0.24521835  1
  O  O42  1  0.57774917  0.95277426  0.15355092  1
  O  O43  1  0.05900282  0.77595424  0.30334191  1
  O  O44  1  0.96069272  0.20309607  0.19738930  1
  O  O45  1  0.44071069  0.05734403  0.34616828  1
  O  O46  1  0.76351101  0.43673488  0.25765525  1
  O  O47  1  0.21926090  0.55939457  0.36989091  1
  O  O48  1  0.56138579  0.94885791  0.27777892  1
  O  O49  1  0.04989386  0.78683270  0.42861306  1
  O  O50  1  0.96010048  0.21160263  0.32020150  1
  O  O51  1  0.43639861  0.05611492  0.47165985  1
  O  O52  1  0.78093562  0.44518111  0.37935271  1
  O  O53  1  0.21817549  0.56070942  0.49436862  1
  O  O54  1  0.56455644  0.94452301  0.40309086  1
  O  O55  1  0.05137418  0.78249377  0.55383453  1
  O  O56  1  0.95173162  0.21485767  0.44558822  1
  O  O57  1  0.43851169  0.05176957  0.59724810  1
  O  O58  1  0.78034012  0.44226245  0.50493422  1
  O  O59  1  0.21650379  0.56198020  0.61960590  1
  O  O60  1  0.56190923  0.94541384  0.52856860  1
  O  O61  1  0.05864927  0.77699561  0.67854893  1
  O  O62  1  0.95352964  0.21435247  0.57058864  1
  O  O63  1  0.44026991  0.05813655  0.72100356  1
  O  O64  1  0.77277187  0.44106462  0.63092752  1
  O  O65  1  0.21865707  0.56298478  0.74381959  1
  O  O66  1  0.56113787  0.95590636  0.65316133  1
  O  O67  1  0.05626247  0.78143643  0.80286022  1
  O  O68  1  0.95573241  0.21641154  0.69579481  1
  O  O69  1  0.44059285  0.04758667  0.84678735  1
  O  O70  1  0.77956657  0.44179183  0.75533468  1
  O  O71  1  0.22210343  0.55503934  0.87006741  1
  O  O72  1  0.56499601  0.94812940  0.77818993  1
  O  O73  1  0.06145423  0.78011090  0.92963292  1
  O  O74  1  0.95360058  0.21171341  0.82035650  1
  O  O75  1  0.47119777  0.04740548  0.96757005  1
  O  O76  1  0.78876903  0.43924467  0.87905349  1
  O  O77  1  0.20445893  0.57228953  0.99684909  1
  O  O78  1  0.56571209  0.94674589  0.90215821  1
  O  O79  1  0.94402322  0.23041217  0.94608540  1
