# generated using pymatgen
data_NaCa2V3(CuO6)2
_symmetry_space_group_name_H-M   'P 1'
_cell_length_a   10.84457758
_cell_length_b   10.84457822
_cell_length_c   10.84457809
_cell_angle_alpha   109.40210184
_cell_angle_beta   109.60954154
_cell_angle_gamma   109.40210646
_symmetry_Int_Tables_number   1
_chemical_formula_structural   NaCa2V3(CuO6)2
_chemical_formula_sum   'Na4 Ca8 V12 Cu8 O48'
_cell_volume   981.77999838
_cell_formula_units_Z   4
loop_
 _symmetry_equiv_pos_site_id
 _symmetry_equiv_pos_as_xyz
  1  'x, y, z'
loop_
 _atom_site_type_symbol
 _atom_site_label
 _atom_site_symmetry_multiplicity
 _atom_site_fract_x
 _atom_site_fract_y
 _atom_site_fract_z
 _atom_site_occupancy
  Na  Na0  1  0.12500000  0.25000000  0.37500000  1
  Na  Na1  1  0.37500000  0.75000000  0.12500000  1
  Na  Na2  1  0.62500000  0.25000000  0.87500000  1
  Na  Na3  1  0.87500000  0.75000000  0.62500000  1
  Ca  Ca4  1  0.25000000  0.87651677  0.62651677  1
  Ca  Ca5  1  0.12651677  0.37651677  0.75000000  1
  Ca  Ca6  1  0.25000000  0.37651677  0.12651677  1
  Ca  Ca7  1  0.62651677  0.87651677  0.75000000  1
  Ca  Ca8  1  0.37348323  0.12348323  0.25000000  1
  Ca  Ca9  1  0.75000000  0.62348323  0.87348323  1
  Ca  Ca10  1  0.75000000  0.12348323  0.37348323  1
  Ca  Ca11  1  0.87348323  0.62348323  0.25000000  1
  V  V12  1  0.12500000  0.75000000  0.87500000  1
  V  V13  1  0.12494878  0.87494878  0.25000000  1
  V  V14  1  0.25000000  0.12505122  0.87505122  1
  V  V15  1  0.37505122  0.62505122  0.75000000  1
  V  V16  1  0.25000000  0.62505122  0.37505122  1
  V  V17  1  0.37500000  0.25000000  0.62500000  1
  V  V18  1  0.62500000  0.75000000  0.37500000  1
  V  V19  1  0.75000000  0.37494878  0.62494878  1
  V  V20  1  0.62494878  0.37494878  0.25000000  1
  V  V21  1  0.75000000  0.87494878  0.12494878  1
  V  V22  1  0.87505122  0.12505122  0.75000000  1
  V  V23  1  0.87500000  0.25000000  0.12500000  1
  Cu  Cu24  1  0.00000000  0.50000000  0.50000000  1
  Cu  Cu25  1  0.00000000  0.50000000  0.00000000  1
  Cu  Cu26  1  0.00000000  0.00000000  0.50000000  1
  Cu  Cu27  1  0.00000000  0.00000000  0.00000000  1
  Cu  Cu28  1  0.50000000  0.50000000  0.50000000  1
  Cu  Cu29  1  0.50000000  0.00000000  0.50000000  1
  Cu  Cu30  1  0.50000000  0.50000000  0.00000000  1
  Cu  Cu31  1  0.50000000  0.00000000  0.00000000  1
  O  O32  1  0.10473003  0.98734754  0.69193854  1
  O  O33  1  0.01773589  0.31006961  0.89805991  1
  O  O34  1  0.11260383  0.59880360  0.90690767  1
  O  O35  1  0.09309233  0.70569616  0.69189594  1
  O  O36  1  0.08799030  0.88032402  0.39805991  1
  O  O37  1  0.10194009  0.61967598  0.41200970  1
  O  O38  1  0.19193854  0.48734754  0.60473003  1
  O  O39  1  0.41200970  0.81006961  0.79233372  1
  O  O40  1  0.29233372  0.31006961  0.91200970  1
  O  O41  1  0.38261750  0.58720850  0.89526997  1
  O  O42  1  0.30806146  0.91279150  0.29540900  1
  O  O43  1  0.01380022  0.20569616  0.11260383  1
  O  O44  1  0.19189594  0.20569616  0.59309233  1
  O  O45  1  0.20459100  0.58720850  0.19193854  1
  O  O46  1  0.39805991  0.81006961  0.51773589  1
  O  O47  1  0.30810406  0.90119640  0.01380022  1
  O  O48  1  0.29540900  0.48734754  0.38261750  1
  O  O49  1  0.11738250  0.01265246  0.20459100  1
  O  O50  1  0.39526997  0.08720850  0.88261750  1
  O  O51  1  0.51773589  0.61967598  0.70766628  1
  O  O52  1  0.51380022  0.40119640  0.80810406  1
  O  O53  1  0.38739617  0.29430384  0.48619978  1
  O  O54  1  0.59309233  0.90119640  0.38739617  1
  O  O55  1  0.20766628  0.11967598  0.01773589  1
  O  O56  1  0.79233372  0.88032402  0.98226411  1
  O  O57  1  0.40690767  0.09880360  0.61260383  1
  O  O58  1  0.61260383  0.70569616  0.51380022  1
  O  O59  1  0.48619978  0.59880360  0.19189594  1
  O  O60  1  0.48226411  0.38032402  0.29233372  1
  O  O61  1  0.60473003  0.91279150  0.11738250  1
  O  O62  1  0.88261750  0.98734754  0.79540900  1
  O  O63  1  0.70459100  0.51265246  0.61738250  1
  O  O64  1  0.69189594  0.09880360  0.98619978  1
  O  O65  1  0.60194009  0.18993039  0.48226411  1
  O  O66  1  0.79540900  0.41279150  0.80806146  1
  O  O67  1  0.80810406  0.79430384  0.40690767  1
  O  O68  1  0.98619978  0.79430384  0.88739617  1
  O  O69  1  0.69193854  0.08720850  0.70459100  1
  O  O70  1  0.61738250  0.41279150  0.10473003  1
  O  O71  1  0.70766628  0.68993039  0.08799030  1
  O  O72  1  0.58799030  0.18993039  0.20766628  1
  O  O73  1  0.80806146  0.51265246  0.39526997  1
  O  O74  1  0.89805991  0.38032402  0.58799030  1
  O  O75  1  0.91200970  0.11967598  0.60194009  1
  O  O76  1  0.90690767  0.29430384  0.30810406  1
  O  O77  1  0.98226411  0.68993039  0.10194009  1
  O  O78  1  0.88739617  0.40119640  0.09309233  1
  O  O79  1  0.89526997  0.01265246  0.30806146  1
