# generated using pymatgen
data_Sr2B5H2O11
_symmetry_space_group_name_H-M   'P 1'
_cell_length_a   6.56054554
_cell_length_b   6.56054554
_cell_length_c   6.40882037
_cell_angle_alpha   61.56195325
_cell_angle_beta   118.43804675
_cell_angle_gamma   103.11147348
_symmetry_Int_Tables_number   1
_chemical_formula_structural   Sr2B5H2O11
_chemical_formula_sum   'Sr2 B5 H2 O11'
_cell_volume   213.28695780
_cell_formula_units_Z   1
loop_
 _symmetry_equiv_pos_site_id
 _symmetry_equiv_pos_as_xyz
  1  'x, y, z'
loop_
 _atom_site_type_symbol
 _atom_site_label
 _atom_site_symmetry_multiplicity
 _atom_site_fract_x
 _atom_site_fract_y
 _atom_site_fract_z
 _atom_site_occupancy
  Sr  Sr0  1  0.83107511  0.24650607  0.08085427  1
  Sr  Sr1  1  0.24650607  0.83107511  0.91914573  1
  B  B2  1  0.75100128  0.90033239  0.74434157  1
  B  B3  1  0.90033239  0.75100128  0.25565843  1
  B  B4  1  0.65917894  0.65917894  0.50000000  1
  B  B5  1  0.80602396  0.34161152  0.49277935  1
  B  B6  1  0.34161152  0.80602396  0.50722065  1
  H  H7  1  0.29743658  0.35811876  0.71966989  1
  H  H8  1  0.35811876  0.29743658  0.28033011  1
  O  O9  1  0.40784219  0.69334601  0.41585787  1
  O  O10  1  0.69334601  0.40784219  0.58414213  1
  O  O11  1  0.82000092  0.11352783  0.54828624  1
  O  O12  1  0.11352783  0.82000092  0.45171376  1
  O  O13  1  0.70003501  0.80381956  0.26515208  1
  O  O14  1  0.80381956  0.70003501  0.73484792  1
  O  O15  1  0.90108551  0.90108551  0.00000000  1
  O  O16  1  0.90565735  0.49952541  0.32839130  1
  O  O17  1  0.49952541  0.90565735  0.67160870  1
  O  O18  1  0.38172510  0.24131051  0.89827924  1
  O  O19  1  0.24131051  0.38172510  0.10172076  1
