# generated using pymatgen
data_Fe5SiO8
_symmetry_space_group_name_H-M   'P 1'
_cell_length_a   5.98805954
_cell_length_b   15.96382284
_cell_length_c   13.50383474
_cell_angle_alpha   32.23125899
_cell_angle_beta   63.46197896
_cell_angle_gamma   67.79373409
_symmetry_Int_Tables_number   1
_chemical_formula_structural   Fe5SiO8
_chemical_formula_sum   'Fe20 Si4 O32'
_cell_volume   615.92794756
_cell_formula_units_Z   4
loop_
 _symmetry_equiv_pos_site_id
 _symmetry_equiv_pos_as_xyz
  1  'x, y, z'
loop_
 _atom_site_type_symbol
 _atom_site_label
 _atom_site_symmetry_multiplicity
 _atom_site_fract_x
 _atom_site_fract_y
 _atom_site_fract_z
 _atom_site_occupancy
  Fe  Fe0  1  0.00558370  0.99840481  0.99875909  1
  Fe  Fe1  1  0.99441630  0.50159519  0.00124091  1
  Fe  Fe2  1  0.12386804  0.12044342  0.25537158  1
  Fe  Fe3  1  0.11711437  0.25416990  0.37172522  1
  Fe  Fe4  1  0.37613196  0.62044342  0.00374157  1
  Fe  Fe5  1  0.50558370  0.00159519  0.49556872  1
  Fe  Fe6  1  0.75161149  0.03073948  0.21817932  1
  Fe  Fe7  1  0.12653863  0.75111849  0.37452223  1
  Fe  Fe8  1  0.37346137  0.25111849  0.62324079  1
  Fe  Fe9  1  0.62653863  0.24888151  0.37675921  1
  Fe  Fe10  1  0.24838851  0.46926052  0.78182068  1
  Fe  Fe11  1  0.49441630  0.49840481  0.50443128  1
  Fe  Fe12  1  0.74838851  0.53073948  0.22034173  1
  Fe  Fe13  1  0.38288563  0.75416990  0.61993499  1
  Fe  Fe14  1  0.61711437  0.74583010  0.38006501  1
  Fe  Fe15  1  0.88288563  0.24583010  0.62827478  1
  Fe  Fe16  1  0.25161149  0.96926052  0.77965827  1
  Fe  Fe17  1  0.87613196  0.37955658  0.74462842  1
  Fe  Fe18  1  0.87346137  0.74888151  0.62547777  1
  Fe  Fe19  1  0.62386804  0.87955658  0.99625843  1
  O  O20  1  0.00521226  0.25057500  0.25475985  1
  O  O21  1  0.27343004  0.22104320  0.00975973  1
  O  O22  1  0.11303142  0.99901890  0.62068098  1
  O  O23  1  0.11742060  0.48999690  0.13624852  1
  O  O24  1  0.99526853  0.73531172  0.25905322  1
  O  O25  1  0.23694812  0.22817152  0.51432583  1
  O  O26  1  0.22656996  0.72104320  0.04815387  1
  O  O27  1  0.49526853  0.26468828  0.22967666  1
  O  O28  1  0.12967926  0.50582307  0.62275395  1
  O  O29  1  0.15270135  0.00672359  0.11172233  1
  O  O30  1  0.34729865  0.50672359  0.37483050  1
  O  O31  1  0.37032074  0.00582307  0.86559991  1
  O  O32  1  0.62967926  0.49417693  0.13440009  1
  O  O33  1  0.65270135  0.99327641  0.62516950  1
  O  O34  1  0.26305188  0.72817152  0.52933112  1
  O  O35  1  0.50473147  0.23531172  0.77032334  1
  O  O36  1  0.50521226  0.74942500  0.25590986  1
  O  O37  1  0.76305188  0.27182848  0.48567417  1
  O  O38  1  0.38257940  0.98999690  0.38375769  1
  O  O39  1  0.38696858  0.49901890  0.88128121  1
  O  O40  1  0.61303142  0.00098110  0.11871879  1
  O  O41  1  0.61742060  0.51000310  0.61624231  1
  O  O42  1  0.88257940  0.01000310  0.86375148  1
  O  O43  1  0.88696858  0.50098110  0.37931902  1
  O  O44  1  0.49478774  0.75057500  0.74409014  1
  O  O45  1  0.72656996  0.27895680  0.99024027  1
  O  O46  1  0.73694812  0.77182848  0.47066888  1
  O  O47  1  0.99478774  0.24942500  0.74524015  1
  O  O48  1  0.84729865  0.49327641  0.88827767  1
  O  O49  1  0.87032074  0.99417693  0.37724605  1
  O  O50  1  0.77343004  0.77895680  0.95184613  1
  O  O51  1  0.00473147  0.76468828  0.74094678  1
  Si  Si52  1  0.38831055  0.11541142  0.99996517  1
  Si  Si53  1  0.11168945  0.61541142  0.26921200  1
  Si  Si54  1  0.61168945  0.38458858  0.00003483  1
  Si  Si55  1  0.88831055  0.88458858  0.73078800  1
