# generated using pymatgen
data_CuH16(ClO8)2
_symmetry_space_group_name_H-M   'P 1'
_cell_length_a   6.45458380
_cell_length_b   12.70698387
_cell_length_c   9.38998070
_cell_angle_alpha   90.00000000
_cell_angle_beta   106.34568863
_cell_angle_gamma   90.00000000
_symmetry_Int_Tables_number   1
_chemical_formula_structural   CuH16(ClO8)2
_chemical_formula_sum   'Cu2 H32 Cl4 O32'
_cell_volume   739.02161856
_cell_formula_units_Z   2
loop_
 _symmetry_equiv_pos_site_id
 _symmetry_equiv_pos_as_xyz
  1  'x, y, z'
loop_
 _atom_site_type_symbol
 _atom_site_label
 _atom_site_symmetry_multiplicity
 _atom_site_fract_x
 _atom_site_fract_y
 _atom_site_fract_z
 _atom_site_occupancy
  Cu  Cu0  1  0.00000000  0.50000000  0.50000000  1
  Cu  Cu1  1  0.00000000  0.00000000  0.00000000  1
  H  H2  1  0.68407407  0.44102195  0.59792113  1
  H  H3  1  0.31592593  0.94102195  0.90207887  1
  H  H4  1  0.31592593  0.55897805  0.40207887  1
  H  H5  1  0.68407407  0.05897805  0.09792113  1
  H  H6  1  0.68629425  0.36317036  0.46708282  1
  H  H7  1  0.31370575  0.86317036  0.03291718  1
  H  H8  1  0.31370575  0.63682964  0.53291718  1
  H  H9  1  0.68629425  0.13682964  0.96708282  1
  H  H10  1  0.04570605  0.59579459  0.76431869  1
  H  H11  1  0.95429395  0.09579459  0.73568131  1
  H  H12  1  0.95429395  0.40420541  0.23568131  1
  H  H13  1  0.04570605  0.90420541  0.26431869  1
  H  H14  1  0.98761776  0.67952983  0.63468656  1
  H  H15  1  0.01238224  0.17952983  0.86531344  1
  H  H16  1  0.01238224  0.32047017  0.36531344  1
  H  H17  1  0.98761776  0.82047017  0.13468656  1
  H  H18  1  0.10428578  0.37165060  0.74994756  1
  H  H19  1  0.89571422  0.87165060  0.75005244  1
  H  H20  1  0.89571422  0.62834940  0.25005244  1
  H  H21  1  0.10428578  0.12834940  0.24994756  1
  H  H22  1  0.32151783  0.40237002  0.71352085  1
  H  H23  1  0.67848217  0.90237002  0.78647915  1
  H  H24  1  0.67848217  0.59762998  0.28647915  1
  H  H25  1  0.32151783  0.09762998  0.21352085  1
  H  H26  1  0.63114290  0.91871689  0.33881246  1
  H  H27  1  0.36885710  0.41871689  0.16118754  1
  H  H28  1  0.36885710  0.08128311  0.66118754  1
  H  H29  1  0.63114290  0.58128311  0.83881246  1
  H  H30  1  0.59722313  0.80282550  0.28740895  1
  H  H31  1  0.40277687  0.30282550  0.21259105  1
  H  H32  1  0.40277687  0.19717450  0.71259105  1
  H  H33  1  0.59722313  0.69717450  0.78740895  1
  Cl  Cl34  1  0.74382673  0.13996666  0.40903649  1
  Cl  Cl35  1  0.25617327  0.63996666  0.09096351  1
  Cl  Cl36  1  0.25617327  0.86003334  0.59096351  1
  Cl  Cl37  1  0.74382673  0.36003334  0.90903649  1
  O  O38  1  0.60519010  0.23069876  0.41250585  1
  O  O39  1  0.39480990  0.73069876  0.08749415  1
  O  O40  1  0.39480990  0.76930124  0.58749415  1
  O  O41  1  0.60519010  0.26930124  0.91250585  1
  O  O42  1  0.63065846  0.07217597  0.28148841  1
  O  O43  1  0.36934154  0.57217597  0.21851159  1
  O  O44  1  0.36934154  0.92782403  0.71851159  1
  O  O45  1  0.63065846  0.42782403  0.78148841  1
  O  O46  1  0.78270992  0.07819247  0.54307373  1
  O  O47  1  0.21729008  0.57819247  0.95692627  1
  O  O48  1  0.21729008  0.92180753  0.45692627  1
  O  O49  1  0.78270992  0.42180753  0.04307373  1
  O  O50  1  0.94795310  0.17711391  0.38638922  1
  O  O51  1  0.05204690  0.67711391  0.11361078  1
  O  O52  1  0.05204690  0.82288609  0.61361078  1
  O  O53  1  0.94795310  0.32288609  0.88638922  1
  O  O54  1  0.70777357  0.43754657  0.49867593  1
  O  O55  1  0.29222643  0.93754657  0.00132407  1
  O  O56  1  0.29222643  0.56245343  0.50132407  1
  O  O57  1  0.70777357  0.06245343  0.99867593  1
  O  O58  1  0.96247834  0.60645568  0.65974740  1
  O  O59  1  0.03752166  0.10645568  0.84025260  1
  O  O60  1  0.03752166  0.39354432  0.34025260  1
  O  O61  1  0.96247834  0.89354432  0.15974740  1
  O  O62  1  0.16925799  0.38411539  0.66857999  1
  O  O63  1  0.83074201  0.88411539  0.83142001  1
  O  O64  1  0.83074201  0.61588461  0.33142001  1
  O  O65  1  0.16925799  0.11588461  0.16857999  1
  O  O66  1  0.64382511  0.84655103  0.37537039  1
  O  O67  1  0.35617489  0.34655103  0.12462961  1
  O  O68  1  0.35617489  0.15344897  0.62462961  1
  O  O69  1  0.64382511  0.65344897  0.87537039  1
