# generated using pymatgen
data_Li2Mo(PO4)2
_symmetry_space_group_name_H-M   'P 1'
_cell_length_a   4.95365638
_cell_length_b   17.86117878
_cell_length_c   6.81480944
_cell_angle_alpha   90.00000000
_cell_angle_beta   94.97998881
_cell_angle_gamma   90.00000000
_symmetry_Int_Tables_number   1
_chemical_formula_structural   Li2Mo(PO4)2
_chemical_formula_sum   'Li8 Mo4 P8 O32'
_cell_volume   600.68554525
_cell_formula_units_Z   4
loop_
 _symmetry_equiv_pos_site_id
 _symmetry_equiv_pos_as_xyz
  1  'x, y, z'
loop_
 _atom_site_type_symbol
 _atom_site_label
 _atom_site_symmetry_multiplicity
 _atom_site_fract_x
 _atom_site_fract_y
 _atom_site_fract_z
 _atom_site_occupancy
  Li  Li0  1  0.28402985  0.38686082  0.97161900  1
  Li  Li1  1  0.79724410  0.30735659  0.15161653  1
  Li  Li2  1  0.70275590  0.80735659  0.34838347  1
  Li  Li3  1  0.29033755  0.05983657  0.31473751  1
  Li  Li4  1  0.71278930  0.62029071  0.98575914  1
  Li  Li5  1  0.78721070  0.12029071  0.51424086  1
  Li  Li6  1  0.21597015  0.88686082  0.52838100  1
  Li  Li7  1  0.20966245  0.55983657  0.18526249  1
  Mo  Mo8  1  0.30380031  0.37171732  0.49749188  1
  Mo  Mo9  1  0.71231336  0.62853531  0.51946667  1
  Mo  Mo10  1  0.19619969  0.87171732  0.00250812  1
  Mo  Mo11  1  0.78768664  0.12853531  0.98053333  1
  P  P12  1  0.33543826  0.21322436  0.22044437  1
  P  P13  1  0.66239025  0.78446052  0.77674730  1
  P  P14  1  0.16456174  0.71322436  0.27955563  1
  P  P15  1  0.76513287  0.46110695  0.27586719  1
  P  P16  1  0.73486713  0.96110695  0.22413281  1
  P  P17  1  0.23400083  0.53573912  0.73351531  1
  P  P18  1  0.83760975  0.28446052  0.72325270  1
  P  P19  1  0.26599917  0.03573912  0.76648469  1
  O  O20  1  0.38141561  0.29818973  0.26383454  1
  O  O21  1  0.52460085  0.80447956  0.96957025  1
  O  O22  1  0.97539915  0.30447956  0.53042975  1
  O  O23  1  0.84363211  0.19707190  0.73726518  1
  O  O24  1  0.22030933  0.44902941  0.71685994  1
  O  O25  1  0.65636789  0.69707190  0.76273482  1
  O  O26  1  0.63563864  0.43509452  0.46440942  1
  O  O27  1  0.86436136  0.93509452  0.03559058  1
  O  O28  1  0.37380409  0.55942476  0.92979150  1
  O  O29  1  0.07498215  0.43680970  0.29051949  1
  O  O30  1  0.87174335  0.92604100  0.40694666  1
  O  O31  1  0.96628183  0.81067912  0.80498239  1
  O  O32  1  0.44973425  0.16174085  0.38277029  1
  O  O33  1  0.47578664  0.69702501  0.32360631  1
  O  O34  1  0.13318212  0.06791478  0.94987764  1
  O  O35  1  0.56765442  0.06567692  0.78214853  1
  O  O36  1  0.93234558  0.56567692  0.71785147  1
  O  O37  1  0.97465612  0.32015076  0.90669936  1
  O  O38  1  0.77023866  0.54923790  0.27914371  1
  O  O39  1  0.72976134  0.04923790  0.22085629  1
  O  O40  1  0.27969067  0.94902941  0.78314006  1
  O  O41  1  0.52534388  0.82015076  0.59330064  1
  O  O42  1  0.42501785  0.93680970  0.20948051  1
  O  O43  1  0.48443525  0.20142884  0.02759207  1
  O  O44  1  0.01556475  0.70142884  0.47240793  1
  O  O45  1  0.02421336  0.19702501  0.17639369  1
  O  O46  1  0.53371817  0.31067912  0.69501761  1
  O  O47  1  0.12619591  0.05942476  0.57020850  1
  O  O48  1  0.62825665  0.42604100  0.09305334  1
  O  O49  1  0.36681788  0.56791478  0.55012236  1
  O  O50  1  0.11858439  0.79818973  0.23616546  1
  O  O51  1  0.05026575  0.66174085  0.11722971  1
