# generated using pymatgen
data_Li3Mn3(PO4)4
_symmetry_space_group_name_H-M   'P 1'
_cell_length_a   8.41096294
_cell_length_b   11.57499888
_cell_length_c   6.14236213
_cell_angle_alpha   90.00000000
_cell_angle_beta   100.12467796
_cell_angle_gamma   90.00000000
_symmetry_Int_Tables_number   1
_chemical_formula_structural   Li3Mn3(PO4)4
_chemical_formula_sum   'Li6 Mn6 P8 O32'
_cell_volume   588.68891192
_cell_formula_units_Z   2
loop_
 _symmetry_equiv_pos_site_id
 _symmetry_equiv_pos_as_xyz
  1  'x, y, z'
loop_
 _atom_site_type_symbol
 _atom_site_label
 _atom_site_symmetry_multiplicity
 _atom_site_fract_x
 _atom_site_fract_y
 _atom_site_fract_z
 _atom_site_occupancy
  Li  Li0  1  0.35235297  0.19742757  0.11410702  1
  Li  Li1  1  0.94359140  0.39747860  0.37912035  1
  Li  Li2  1  0.64764703  0.69742757  0.38589298  1
  Li  Li3  1  0.05640860  0.89747860  0.12087965  1
  Li  Li4  1  0.95219855  0.10519835  0.88074856  1
  Li  Li5  1  0.04780145  0.60519835  0.61925144  1
  Mn  Mn6  1  0.65828155  0.81031059  0.88554179  1
  Mn  Mn7  1  0.72175694  0.41192810  0.83702205  1
  Mn  Mn8  1  0.27824306  0.91192810  0.66297795  1
  Mn  Mn9  1  0.71923451  0.08428511  0.32635859  1
  Mn  Mn10  1  0.34171845  0.31031059  0.61445821  1
  Mn  Mn11  1  0.28076549  0.58428511  0.17364141  1
  P  P12  1  0.91141310  0.87111838  0.62407012  1
  P  P13  1  0.91692821  0.62917225  0.11444229  1
  P  P14  1  0.60177383  0.08460217  0.80150877  1
  P  P15  1  0.39822617  0.58460217  0.69849123  1
  P  P16  1  0.08307179  0.12917225  0.38555771  1
  P  P17  1  0.08858690  0.37111838  0.87592988  1
  P  P18  1  0.40587847  0.91630892  0.18277490  1
  P  P19  1  0.59412153  0.41630892  0.31722510  1
  O  O20  1  0.70363644  0.11562645  0.62571708  1
  O  O21  1  0.80054981  0.73534022  0.11716907  1
  O  O22  1  0.21969266  0.27528591  0.85729679  1
  O  O23  1  0.51466188  0.53679168  0.25743661  1
  O  O24  1  0.08750117  0.06710748  0.16923286  1
  O  O25  1  0.47669524  0.45840402  0.74604331  1
  O  O26  1  0.27199229  0.57988558  0.48215789  1
  O  O27  1  0.19945019  0.23534022  0.38283093  1
  O  O28  1  0.85346054  0.93627559  0.40706128  1
  O  O29  1  0.52513148  0.67671821  0.68808461  1
  O  O30  1  0.72889003  0.42278620  0.52584564  1
  O  O31  1  0.14273850  0.05861126  0.59564824  1
  O  O32  1  0.27110997  0.92278620  0.97415436  1
  O  O33  1  0.48533812  0.03679168  0.24256339  1
  O  O34  1  0.78030734  0.77528591  0.64270321  1
  O  O35  1  0.14653946  0.43627559  0.09293872  1
  O  O36  1  0.53168091  0.82361877  0.14365527  1
  O  O37  1  0.91275409  0.18366266  0.38928594  1
  O  O38  1  0.52330476  0.95840402  0.75395669  1
  O  O39  1  0.07747497  0.81108671  0.61189569  1
  O  O40  1  0.85726150  0.55861126  0.90435176  1
  O  O41  1  0.91249883  0.56710748  0.33076714  1
  O  O42  1  0.46831909  0.32361877  0.35634473  1
  O  O43  1  0.92252503  0.31108671  0.88810431  1
  O  O44  1  0.31641171  0.87330304  0.36758286  1
  O  O45  1  0.08724591  0.68366266  0.11071406  1
  O  O46  1  0.91779091  0.93766516  0.83960669  1
  O  O47  1  0.68358829  0.37330304  0.13241714  1
  O  O48  1  0.47486852  0.17671821  0.81191539  1
  O  O49  1  0.29636356  0.61562645  0.87428292  1
  O  O50  1  0.08220909  0.43766516  0.66039331  1
  O  O51  1  0.72800771  0.07988558  0.01784211  1
