# generated using pymatgen
data_PH3
_symmetry_space_group_name_H-M   'P 1'
_cell_length_a   7.82957182
_cell_length_b   7.37485479
_cell_length_c   7.31853841
_cell_angle_alpha   95.76531481
_cell_angle_beta   94.33146138
_cell_angle_gamma   108.68824251
_symmetry_Int_Tables_number   1
_chemical_formula_structural   PH3
_chemical_formula_sum   'P4 H12'
_cell_volume   395.67178449
_cell_formula_units_Z   4
loop_
 _symmetry_equiv_pos_site_id
 _symmetry_equiv_pos_as_xyz
  1  'x, y, z'
loop_
 _atom_site_type_symbol
 _atom_site_label
 _atom_site_symmetry_multiplicity
 _atom_site_fract_x
 _atom_site_fract_y
 _atom_site_fract_z
 _atom_site_occupancy
  P  P0  1  0.81362870  0.67601570  0.23985370  1
  P  P1  1  0.34370351  0.92009030  0.75412021  1
  P  P2  1  0.57740871  0.19138743  0.76350388  1
  P  P3  1  0.22972023  0.31068811  0.18777240  1
  H  H4  1  0.54249246  0.00205663  0.29748329  1
  H  H5  1  0.84676116  0.55080225  0.36554239  1
  H  H6  1  0.48783677  0.31276290  0.85102787  1
  H  H7  1  0.05882531  0.05955103  0.60650240  1
  H  H8  1  0.48310580  0.98148899  0.20692179  1
  H  H9  1  0.95362141  0.65301361  0.13398771  1
  H  H10  1  0.34530059  0.86129801  0.56141665  1
  H  H11  1  0.37070377  0.47859670  0.15335838  1
  H  H12  1  0.65620972  0.17184774  0.94047800  1
  H  H13  1  0.09687949  0.35262659  0.07049581  1
  H  H14  1  0.18918953  0.41055083  0.34739716  1
  H  H15  1  0.00461084  0.06722218  0.52014138  1
