# generated using pymatgen
data_HC5N3(OF4)2
_symmetry_space_group_name_H-M   'P 1'
_cell_length_a   10.43171620
_cell_length_b   6.83530272
_cell_length_c   14.07339029
_cell_angle_alpha   90.00000000
_cell_angle_beta   104.54925075
_cell_angle_gamma   90.00000000
_symmetry_Int_Tables_number   1
_chemical_formula_structural   HC5N3(OF4)2
_chemical_formula_sum   'H4 C20 N12 O8 F32'
_cell_volume   971.30835101
_cell_formula_units_Z   4
loop_
 _symmetry_equiv_pos_site_id
 _symmetry_equiv_pos_as_xyz
  1  'x, y, z'
loop_
 _atom_site_type_symbol
 _atom_site_label
 _atom_site_symmetry_multiplicity
 _atom_site_fract_x
 _atom_site_fract_y
 _atom_site_fract_z
 _atom_site_occupancy
  H  H0  1  0.99888436  0.61708396  0.08184678  1
  H  H1  1  0.00111564  0.11708396  0.41815322  1
  H  H2  1  0.00111564  0.38291604  0.91815322  1
  H  H3  1  0.99888436  0.88291604  0.58184678  1
  C  C4  1  0.70539904  0.44400734  0.17978892  1
  C  C5  1  0.29460096  0.94400734  0.32021108  1
  C  C6  1  0.29460096  0.55599266  0.82021108  1
  C  C7  1  0.70539904  0.05599266  0.67978892  1
  C  C8  1  0.90118982  0.66699452  0.19018762  1
  C  C9  1  0.09881018  0.16699452  0.30981238  1
  C  C10  1  0.09881018  0.33300548  0.80981238  1
  C  C11  1  0.90118982  0.83300548  0.69018762  1
  C  C12  1  0.84819388  0.41958143  0.05970998  1
  C  C13  1  0.15180612  0.91958143  0.44029002  1
  C  C14  1  0.15180612  0.58041857  0.94029002  1
  C  C15  1  0.84819388  0.08041857  0.55970998  1
  C  C16  1  0.67157377  0.18281876  0.05171500  1
  C  C17  1  0.32842623  0.68281876  0.44828500  1
  C  C18  1  0.32842623  0.81718124  0.94828500  1
  C  C19  1  0.67157377  0.31718124  0.55171500  1
  C  C20  1  0.76899069  0.70049380  0.30904201  1
  C  C21  1  0.23100931  0.20049380  0.19095799  1
  C  C22  1  0.23100931  0.29950620  0.69095799  1
  C  C23  1  0.76899069  0.79950620  0.80904201  1
  N  N24  1  0.74431442  0.35407730  0.09857010  1
  N  N25  1  0.25568558  0.85407730  0.40142990  1
  N  N26  1  0.25568558  0.64592270  0.90142990  1
  N  N27  1  0.74431442  0.14592270  0.59857010  1
  N  N28  1  0.78868650  0.60640719  0.22080174  1
  N  N29  1  0.21131350  0.10640719  0.27919826  1
  N  N30  1  0.21131350  0.39359281  0.77919826  1
  N  N31  1  0.78868650  0.89359281  0.72080174  1
  N  N32  1  0.91650668  0.57838280  0.10588037  1
  N  N33  1  0.08349332  0.07838280  0.39411963  1
  N  N34  1  0.08349332  0.42161720  0.89411963  1
  N  N35  1  0.91650668  0.92161720  0.60588037  1
  O  O36  1  0.87458079  0.33847230  0.98902996  1
  O  O37  1  0.12541921  0.83847230  0.51097004  1
  O  O38  1  0.12541921  0.66152770  0.01097004  1
  O  O39  1  0.87458079  0.16152770  0.48902996  1
  O  O40  1  0.97677490  0.79211561  0.23365342  1
  O  O41  1  0.02322510  0.29211561  0.26634658  1
  O  O42  1  0.02322510  0.20788439  0.76634658  1
  O  O43  1  0.97677490  0.70788439  0.73365342  1
  F  F44  1  0.70608650  0.30780600  0.25164862  1
  F  F45  1  0.29391350  0.80780600  0.24835138  1
  F  F46  1  0.29391350  0.69219400  0.74835138  1
  F  F47  1  0.70608650  0.19219400  0.75164862  1
  F  F48  1  0.57552806  0.50637774  0.14806459  1
  F  F49  1  0.42447194  0.00637774  0.35193541  1
  F  F50  1  0.42447194  0.49362226  0.85193541  1
  F  F51  1  0.57552806  0.99362226  0.64806459  1
  F  F52  1  0.65505061  0.64070328  0.32825363  1
  F  F53  1  0.34494939  0.14070328  0.17174637  1
  F  F54  1  0.34494939  0.35929672  0.67174637  1
  F  F55  1  0.65505061  0.85929672  0.82825363  1
  F  F56  1  0.76222900  0.89707926  0.29780770  1
  F  F57  1  0.23777100  0.39707926  0.20219230  1
  F  F58  1  0.23777100  0.10292074  0.70219230  1
  F  F59  1  0.76222900  0.60292074  0.79780770  1
  F  F60  1  0.86958158  0.65868981  0.38832662  1
  F  F61  1  0.13041842  0.15868981  0.11167338  1
  F  F62  1  0.13041842  0.34131019  0.61167338  1
  F  F63  1  0.86958158  0.84131019  0.88832662  1
  F  F64  1  0.75229286  0.02475293  0.06000833  1
  F  F65  1  0.24770714  0.52475293  0.43999167  1
  F  F66  1  0.24770714  0.97524707  0.93999167  1
  F  F67  1  0.75229286  0.47524707  0.56000833  1
  F  F68  1  0.57317225  0.13763361  0.09424794  1
  F  F69  1  0.42682775  0.63763361  0.40575206  1
  F  F70  1  0.42682775  0.86236639  0.90575206  1
  F  F71  1  0.57317225  0.36236639  0.59424794  1
  F  F72  1  0.61622986  0.21520870  0.95557485  1
  F  F73  1  0.38377014  0.71520870  0.54442515  1
  F  F74  1  0.38377014  0.78479130  0.04442515  1
  F  F75  1  0.61622986  0.28479130  0.45557485  1
