# generated using pymatgen
data_NbBi7O13
_symmetry_space_group_name_H-M   'P 1'
_cell_length_a   3.96808899
_cell_length_b   3.92753034
_cell_length_c   31.75477848
_cell_angle_alpha   60.69002243
_cell_angle_beta   59.25279332
_cell_angle_gamma   88.94322095
_symmetry_Int_Tables_number   1
_chemical_formula_structural   NbBi7O13
_chemical_formula_sum   'Nb1 Bi7 O13'
_cell_volume   352.68445236
_cell_formula_units_Z   1
loop_
 _symmetry_equiv_pos_site_id
 _symmetry_equiv_pos_as_xyz
  1  'x, y, z'
loop_
 _atom_site_type_symbol
 _atom_site_label
 _atom_site_symmetry_multiplicity
 _atom_site_fract_x
 _atom_site_fract_y
 _atom_site_fract_z
 _atom_site_occupancy
  Nb  Nb0  1  0.06759299  0.01090224  0.87433176  1
  Bi  Bi1  1  0.88253754  0.85164180  0.99594428  1
  Bi  Bi2  1  0.90456250  0.93297932  0.14297085  1
  Bi  Bi3  1  0.94010629  0.94663825  0.25738942  1
  Bi  Bi4  1  0.83671518  0.93587553  0.39198235  1
  Bi  Bi5  1  0.93198453  0.95303155  0.50639823  1
  Bi  Bi6  1  0.91372721  0.98235275  0.64386334  1
  Bi  Bi7  1  0.98868572  0.01246847  0.75778205  1
  O  O8  1  0.31521304  0.07451936  0.16488896  1
  O  O9  1  0.17567348  0.55482832  0.06977221  1
  O  O10  1  0.50891622  0.75491988  0.24165433  1
  O  O11  1  0.59337822  0.37266293  0.34083976  1
  O  O12  1  0.62809576  0.17301058  0.44682473  1
  O  O13  1  0.13070658  0.64244667  0.45583302  1
  O  O14  1  0.97672230  0.67154792  0.58455889  1
  O  O15  1  0.69852361  0.20551951  0.70615513  1
  O  O16  1  0.23405908  0.74651303  0.69943219  1
  O  O17  1  0.65429280  0.21610231  0.83755481  1
  O  O18  1  0.15374505  0.70066206  0.83931110  1
  O  O19  1  0.62381196  0.00362336  0.94207175  1
  O  O20  1  0.06954791  0.55435516  0.94261484  1
