# generated using pymatgen
data_Na3CrH10C6O17
_symmetry_space_group_name_H-M   'P 1'
_cell_length_a   10.86942748
_cell_length_b   10.86942748
_cell_length_c   15.31092728
_cell_angle_alpha   81.71951349
_cell_angle_beta   98.28048651
_cell_angle_gamma   108.30228331
_symmetry_Int_Tables_number   1
_chemical_formula_structural   Na3CrH10C6O17
_chemical_formula_sum   'Na12 Cr4 H40 C24 O68'
_cell_volume   1690.06830909
_cell_formula_units_Z   4
loop_
 _symmetry_equiv_pos_site_id
 _symmetry_equiv_pos_as_xyz
  1  'x, y, z'
loop_
 _atom_site_type_symbol
 _atom_site_label
 _atom_site_symmetry_multiplicity
 _atom_site_fract_x
 _atom_site_fract_y
 _atom_site_fract_z
 _atom_site_occupancy
  Na  Na0  1  0.50261750  0.50261750  0.75000000  1
  Na  Na1  1  0.49738250  0.49738250  0.25000000  1
  Na  Na2  1  0.22950676  0.22950676  0.75000000  1
  Na  Na3  1  0.77049324  0.77049324  0.25000000  1
  Na  Na4  1  0.84214937  0.92804573  0.00014576  1
  Na  Na5  1  0.92804573  0.84214937  0.49985424  1
  Na  Na6  1  0.15785063  0.07195427  0.99985424  1
  Na  Na7  1  0.07195427  0.15785063  0.50014576  1
  Na  Na8  1  0.50898933  0.74615244  0.98581939  1
  Na  Na9  1  0.74615244  0.50898933  0.51418061  1
  Na  Na10  1  0.49101067  0.25384756  0.01418061  1
  Na  Na11  1  0.25384756  0.49101067  0.48581939  1
  Cr  Cr12  1  0.67373286  0.05820309  0.76827361  1
  Cr  Cr13  1  0.05820309  0.67373286  0.73172639  1
  Cr  Cr14  1  0.32626714  0.94179691  0.23172639  1
  Cr  Cr15  1  0.94179691  0.32626714  0.26827361  1
  H  H16  1  0.27292853  0.35401277  0.94500809  1
  H  H17  1  0.35401277  0.27292853  0.55499191  1
  H  H18  1  0.72707147  0.64598723  0.05499191  1
  H  H19  1  0.64598723  0.72707147  0.44500809  1
  H  H20  1  0.28191019  0.34883793  0.05021426  1
  H  H21  1  0.34883793  0.28191019  0.44978574  1
  H  H22  1  0.71808981  0.65116207  0.94978574  1
  H  H23  1  0.65116207  0.71808981  0.55021426  1
  H  H24  1  0.00933100  0.18827515  0.09246346  1
  H  H25  1  0.18827515  0.00933100  0.40753654  1
  H  H26  1  0.99066900  0.81172485  0.90753654  1
  H  H27  1  0.81172485  0.99066900  0.59246346  1
  H  H28  1  0.96847149  0.22440494  0.99369938  1
  H  H29  1  0.22440494  0.96847149  0.50630062  1
  H  H30  1  0.03152851  0.77559506  0.00630062  1
  H  H31  1  0.77559506  0.03152851  0.49369938  1
  H  H32  1  0.65735840  0.98524420  0.08251873  1
  H  H33  1  0.98524420  0.65735840  0.41748127  1
  H  H34  1  0.34264160  0.01475580  0.91748127  1
  H  H35  1  0.01475580  0.34264160  0.58251873  1
  H  H36  1  0.61896312  0.04468326  0.98677701  1
  H  H37  1  0.04468326  0.61896312  0.51322299  1
  H  H38  1  0.38103688  0.95531674  0.01322299  1
  H  H39  1  0.95531674  0.38103688  0.48677701  1
  H  H40  1  0.78113893  0.32102059  0.99677538  1
  H  H41  1  0.32102059  0.78113893  0.50322462  1
  H  H42  1  0.21886107  0.67897941  0.00322462  1
  H  H43  1  0.67897941  0.21886107  0.49677538  1
  H  H44  1  0.74462123  0.26577318  0.09349770  1
  H  H45  1  0.26577318  0.74462123  0.40650230  1
  H  H46  1  0.25537877  0.73422682  0.90650230  1
  H  H47  1  0.73422682  0.25537877  0.59349770  1
  H  H48  1  0.98172914  0.42284596  0.89045046  1
  H  H49  1  0.42284596  0.98172914  0.60954954  1
  H  H50  1  0.01827086  0.57715404  0.10954954  1
  H  H51  1  0.57715404  0.01827086  0.39045046  1
  H  H52  1  0.85849969  0.30278185  0.87246023  1
  H  H53  1  0.30278185  0.85849969  0.62753977  1
  H  H54  1  0.14150031  0.69721815  0.12753977  1
  H  H55  1  0.69721815  0.14150031  0.37246023  1
  C  C56  1  0.54683229  0.22635962  0.81189928  1
  C  C57  1  0.22635962  0.54683229  0.68810072  1
  C  C58  1  0.45316771  0.77364038  0.18810072  1
  C  C59  1  0.77364038  0.45316771  0.31189928  1
  C  C60  1  0.49163282  0.19649723  0.71481846  1
  C  C61  1  0.19649723  0.49163282  0.78518154  1
  C  C62  1  0.50836718  0.80350277  0.28518154  1
  C  C63  1  0.80350277  0.50836718  0.21481846  1
  C  C64  1  0.60918127  0.81460875  0.70293542  1
  C  C65  1  0.81460875  0.60918127  0.79706458  1
  C  C66  1  0.39081873  0.18539125  0.29706458  1
  C  C67  1  0.18539125  0.39081873  0.20293542  1
  C  C68  1  0.53963019  0.79200257  0.78889020  1
  C  C69  1  0.79200257  0.53963019  0.71110980  1
  C  C70  1  0.46036981  0.20799743  0.21110980  1
  C  C71  1  0.20799743  0.46036981  0.28889020  1
  C  C72  1  0.92655481  0.20738384  0.73073024  1
  C  C73  1  0.20738384  0.92655481  0.76926976  1
  C  C74  1  0.07344519  0.79261616  0.26926976  1
  C  C75  1  0.79261616  0.07344519  0.23073024  1
  C  C76  1  0.94545971  0.11481039  0.81593195  1
  C  C77  1  0.11481039  0.94545971  0.68406805  1
  C  C78  1  0.05454029  0.88518961  0.18406805  1
  C  C79  1  0.88518961  0.05454029  0.31593195  1
  O  O80  1  0.63702278  0.17374721  0.84630565  1
  O  O81  1  0.17374721  0.63702278  0.65369435  1
  O  O82  1  0.36297722  0.82625279  0.15369435  1
  O  O83  1  0.82625279  0.36297722  0.34630565  1
  O  O84  1  0.52902380  0.10793050  0.68724212  1
  O  O85  1  0.10793050  0.52902380  0.81275788  1
  O  O86  1  0.47097620  0.89206950  0.31275788  1
  O  O87  1  0.89206950  0.47097620  0.18724212  1
  O  O88  1  0.50152307  0.29330781  0.85012631  1
  O  O89  1  0.29330781  0.50152307  0.64987369  1
  O  O90  1  0.49847693  0.70669219  0.14987369  1
  O  O91  1  0.70669219  0.49847693  0.35012631  1
  O  O92  1  0.41610993  0.25381028  0.67192688  1
  O  O93  1  0.25381028  0.41610993  0.82807312  1
  O  O94  1  0.58389007  0.74618972  0.32807312  1
  O  O95  1  0.74618972  0.58389007  0.17192688  1
  O  O96  1  0.68315932  0.93320727  0.68586930  1
  O  O97  1  0.93320727  0.68315932  0.81413070  1
  O  O98  1  0.31684068  0.06679273  0.31413070  1
  O  O99  1  0.06679273  0.31684068  0.18586930  1
  O  O100  1  0.55779518  0.89637402  0.82710346  1
  O  O101  1  0.89637402  0.55779518  0.67289654  1
  O  O102  1  0.44220482  0.10362598  0.17289654  1
  O  O103  1  0.10362598  0.44220482  0.32710346  1
  O  O104  1  0.59321857  0.72293980  0.65856037  1
  O  O105  1  0.72293980  0.59321857  0.84143963  1
  O  O106  1  0.40678143  0.27706020  0.34143963  1
  O  O107  1  0.27706020  0.40678143  0.15856037  1
  O  O108  1  0.47557410  0.68156719  0.81791642  1
  O  O109  1  0.68156719  0.47557410  0.68208358  1
  O  O110  1  0.52442590  0.31843281  0.18208358  1
  O  O111  1  0.31843281  0.52442590  0.31791642  1
  O  O112  1  0.80701669  0.20503899  0.70627778  1
  O  O113  1  0.20503899  0.80701669  0.79372222  1
  O  O114  1  0.19298331  0.79496101  0.29372222  1
  O  O115  1  0.79496101  0.19298331  0.20627778  1
  O  O116  1  0.83750060  0.04149910  0.84602296  1
  O  O117  1  0.04149910  0.83750060  0.65397704  1
  O  O118  1  0.16249940  0.95850090  0.15397704  1
  O  O119  1  0.95850090  0.16249940  0.34602296  1
  O  O120  1  0.02250221  0.27718633  0.69337494  1
  O  O121  1  0.27718633  0.02250221  0.80662506  1
  O  O122  1  0.97749779  0.72281367  0.30662506  1
  O  O123  1  0.72281367  0.97749779  0.19337494  1
  O  O124  1  0.05693670  0.11775870  0.84972321  1
  O  O125  1  0.11775870  0.05693670  0.65027679  1
  O  O126  1  0.94306330  0.88224130  0.15027679  1
  O  O127  1  0.88224130  0.94306330  0.34972321  1
  O  O128  1  0.29538498  0.30541171  0.00153087  1
  O  O129  1  0.30541171  0.29538498  0.49846913  1
  O  O130  1  0.70461502  0.69458829  0.99846913  1
  O  O131  1  0.69458829  0.70461502  0.50153087  1
  O  O132  1  0.98154379  0.15045252  0.03580406  1
  O  O133  1  0.15045252  0.98154379  0.46419594  1
  O  O134  1  0.01845621  0.84954748  0.96419594  1
  O  O135  1  0.84954748  0.01845621  0.53580406  1
  O  O136  1  0.63227757  0.96529512  0.02007430  1
  O  O137  1  0.96529512  0.63227757  0.47992570  1
  O  O138  1  0.36772243  0.03470488  0.97992570  1
  O  O139  1  0.03470488  0.36772243  0.52007430  1
  O  O140  1  0.70840122  0.28927748  0.03343660  1
  O  O141  1  0.28927748  0.70840122  0.46656340  1
  O  O142  1  0.29159878  0.71072252  0.96656340  1
  O  O143  1  0.71072252  0.29159878  0.53343660  1
  O  O144  1  0.91512465  0.35064861  0.91963496  1
  O  O145  1  0.35064861  0.91512465  0.58036504  1
  O  O146  1  0.08487535  0.64935139  0.08036504  1
  O  O147  1  0.64935139  0.08487535  0.41963496  1
