# generated using pymatgen
data_Ba2YF7
_symmetry_space_group_name_H-M   'P 1'
_cell_length_a   7.70376685
_cell_length_b   7.70376685
_cell_length_c   8.23227562
_cell_angle_alpha   58.67643075
_cell_angle_beta   121.32356925
_cell_angle_gamma   127.58465266
_symmetry_Int_Tables_number   1
_chemical_formula_structural   Ba2YF7
_chemical_formula_sum   'Ba4 Y2 F14'
_cell_volume   315.54865662
_cell_formula_units_Z   2
loop_
 _symmetry_equiv_pos_site_id
 _symmetry_equiv_pos_as_xyz
  1  'x, y, z'
loop_
 _atom_site_type_symbol
 _atom_site_label
 _atom_site_symmetry_multiplicity
 _atom_site_fract_x
 _atom_site_fract_y
 _atom_site_fract_z
 _atom_site_occupancy
  Ba  Ba0  1  0.31436103  0.67333831  0.73910815  1
  Ba  Ba1  1  0.32666169  0.68563897  0.23910815  1
  Ba  Ba2  1  0.67333831  0.31436103  0.76089185  1
  Ba  Ba3  1  0.68563897  0.32666169  0.26089185  1
  Y  Y4  1  0.98518610  0.98518610  0.75000000  1
  Y  Y5  1  0.01481390  0.01481390  0.25000000  1
  F  F6  1  0.06967324  0.69736125  0.86046702  1
  F  F7  1  0.30263875  0.93032676  0.36046702  1
  F  F8  1  0.05748137  0.22139135  0.92724469  1
  F  F9  1  0.11420534  0.36633000  0.54605190  1
  F  F10  1  0.63466117  0.63466117  0.75000000  1
  F  F11  1  0.77860865  0.94251863  0.42724469  1
  F  F12  1  0.36633000  0.11420534  0.95394810  1
  F  F13  1  0.63367000  0.88579466  0.04605190  1
  F  F14  1  0.22139135  0.05748137  0.57275531  1
  F  F15  1  0.36533883  0.36533883  0.25000000  1
  F  F16  1  0.88579466  0.63367000  0.45394810  1
  F  F17  1  0.94251863  0.77860865  0.07275531  1
  F  F18  1  0.69736125  0.06967324  0.63953298  1
  F  F19  1  0.93032676  0.30263875  0.13953298  1
