# generated using pymatgen
data_BaSrI4
_symmetry_space_group_name_H-M   'P 1'
_cell_length_a   8.36275565
_cell_length_b   17.40271514
_cell_length_c   8.18658068
_cell_angle_alpha   90.00000000
_cell_angle_beta   90.00000000
_cell_angle_gamma   90.00000000
_symmetry_Int_Tables_number   1
_chemical_formula_structural   BaSrI4
_chemical_formula_sum   'Ba4 Sr4 I16'
_cell_volume   1191.43118967
_cell_formula_units_Z   4
loop_
 _symmetry_equiv_pos_site_id
 _symmetry_equiv_pos_as_xyz
  1  'x, y, z'
loop_
 _atom_site_type_symbol
 _atom_site_label
 _atom_site_symmetry_multiplicity
 _atom_site_fract_x
 _atom_site_fract_y
 _atom_site_fract_z
 _atom_site_occupancy
  Ba  Ba0  1  0.00000000  0.13191510  0.25000000  1
  Ba  Ba1  1  0.00000000  0.86808490  0.75000000  1
  Ba  Ba2  1  0.50000000  0.63191510  0.25000000  1
  Ba  Ba3  1  0.50000000  0.36808490  0.75000000  1
  Sr  Sr4  1  0.00000000  0.40547130  0.25000000  1
  Sr  Sr5  1  0.00000000  0.59452870  0.75000000  1
  Sr  Sr6  1  0.50000000  0.09452870  0.75000000  1
  Sr  Sr7  1  0.50000000  0.90547130  0.25000000  1
  I  I8  1  0.16305863  0.27740065  0.01221175  1
  I  I9  1  0.16305863  0.72259935  0.51221175  1
  I  I10  1  0.24625282  0.01204048  0.00373617  1
  I  I11  1  0.24625282  0.98795952  0.50373617  1
  I  I12  1  0.25374718  0.48795952  0.50373617  1
  I  I13  1  0.25374718  0.51204048  0.00373617  1
  I  I14  1  0.33694137  0.22259935  0.51221175  1
  I  I15  1  0.33694137  0.77740065  0.01221175  1
  I  I16  1  0.66305863  0.22259935  0.98778825  1
  I  I17  1  0.66305863  0.77740065  0.48778825  1
  I  I18  1  0.74625282  0.48795952  0.99626383  1
  I  I19  1  0.74625282  0.51204048  0.49626383  1
  I  I20  1  0.75374718  0.01204048  0.49626383  1
  I  I21  1  0.75374718  0.98795952  0.99626383  1
  I  I22  1  0.83694137  0.72259935  0.98778825  1
  I  I23  1  0.83694137  0.27740065  0.48778825  1
