# generated using pymatgen
data_CeZr7O16
_symmetry_space_group_name_H-M   'P 1'
_cell_length_a   7.33911748
_cell_length_b   7.43216987
_cell_length_c   6.46268407
_cell_angle_alpha   72.02095260
_cell_angle_beta   90.00000000
_cell_angle_gamma   60.41330841
_symmetry_Int_Tables_number   1
_chemical_formula_structural   CeZr7O16
_chemical_formula_sum   'Ce1 Zr7 O16'
_cell_volume   286.58589371
_cell_formula_units_Z   1
loop_
 _symmetry_equiv_pos_site_id
 _symmetry_equiv_pos_as_xyz
  1  'x, y, z'
loop_
 _atom_site_type_symbol
 _atom_site_label
 _atom_site_symmetry_multiplicity
 _atom_site_fract_x
 _atom_site_fract_y
 _atom_site_fract_z
 _atom_site_occupancy
  Ce  Ce0  1  0.99997502  0.50004895  0.99903810  1
  Zr  Zr1  1  0.74781999  0.50197777  0.49814677  1
  Zr  Zr2  1  0.74781105  0.00437691  0.49815177  1
  Zr  Zr3  1  0.50162615  0.49674869  0.99786592  1
  Zr  Zr4  1  0.25020324  0.50197777  0.49814677  1
  Zr  Zr5  1  0.49783811  0.99788188  0.00171819  1
  Zr  Zr6  1  0.25082598  0.99834805  0.50400147  1
  Zr  Zr7  1  0.00428001  0.99788188  0.00171819  1
  O  O8  1  0.92302950  0.65394101  0.63614514  1
  O  O9  1  0.79814301  0.90371298  0.90152825  1
  O  O10  1  0.57705837  0.84918127  0.34934160  1
  O  O11  1  0.82132638  0.34889547  0.84897522  1
  O  O12  1  0.68323564  0.60621949  0.10580070  1
  O  O13  1  0.95090685  0.09806747  0.59806959  1
  O  O14  1  0.29449756  0.91100488  0.88859749  1
  O  O15  1  0.42451163  0.65097675  0.65043617  1
  O  O16  1  0.55297583  0.39404935  0.41145231  1
  O  O17  1  0.67334067  0.15331966  0.15276248  1
  O  O18  1  0.07376036  0.84918127  0.34934160  1
  O  O19  1  0.45102468  0.09806747  0.59806959  1
  O  O20  1  0.32977815  0.34889547  0.84897522  1
  O  O21  1  0.21054487  0.60621949  0.10580070  1
  O  O22  1  0.05198767  0.39602566  0.40324285  1
  O  O23  1  0.18350030  0.13299941  0.15267293  1
