# generated using pymatgen
data_Yb2Zr2O7
_symmetry_space_group_name_H-M   'P 1'
_cell_length_a   3.67345142
_cell_length_b   14.95985193
_cell_length_c   13.10913803
_cell_angle_alpha   28.80222713
_cell_angle_beta   55.91367514
_cell_angle_gamma   60.58656708
_symmetry_Int_Tables_number   1
_chemical_formula_structural   Yb2Zr2O7
_chemical_formula_sum   'Yb4 Zr4 O14'
_cell_volume   287.45086324
_cell_formula_units_Z   2
loop_
 _symmetry_equiv_pos_site_id
 _symmetry_equiv_pos_as_xyz
  1  'x, y, z'
loop_
 _atom_site_type_symbol
 _atom_site_label
 _atom_site_symmetry_multiplicity
 _atom_site_fract_x
 _atom_site_fract_y
 _atom_site_fract_z
 _atom_site_occupancy
  Yb  Yb0  1  0.04962546  0.00000000  0.47518727  1
  Yb  Yb1  1  0.00000000  0.75000000  0.00000000  1
  Yb  Yb2  1  0.00000000  0.25000000  0.50000000  1
  Yb  Yb3  1  0.95037454  0.50000000  0.52481273  1
  Zr  Zr4  1  0.05475352  0.00000000  0.97262324  1
  Zr  Zr5  1  0.00000000  0.25000000  0.00000000  1
  Zr  Zr6  1  0.94524648  0.50000000  0.02737676  1
  Zr  Zr7  1  0.00000000  0.75000000  0.50000000  1
  O  O8  1  0.26007683  0.00000000  0.11996158  1
  O  O9  1  0.26697939  0.28801991  0.07849039  1
  O  O10  1  0.24744215  0.50000000  0.12627892  1
  O  O11  1  0.78130536  0.00000000  0.35934732  1
  O  O12  1  0.23117892  0.73214711  0.15226343  1
  O  O13  1  0.23117892  0.26785289  0.61655765  1
  O  O14  1  0.76882108  0.23214711  0.38344235  1
  O  O15  1  0.21869464  0.50000000  0.64065268  1
  O  O16  1  0.75255785  0.00000000  0.87372108  1
  O  O17  1  0.26697939  0.71198009  0.65453022  1
  O  O18  1  0.73302061  0.21198009  0.92150961  1
  O  O19  1  0.73302061  0.78801991  0.34546978  1
  O  O20  1  0.73992317  0.50000000  0.88003842  1
  O  O21  1  0.76882108  0.76785289  0.84773657  1
