# generated using pymatgen
data_Na5P3H48C4N(O9F)3
_symmetry_space_group_name_H-M   'P 1'
_cell_length_a   6.48713351
_cell_length_b   13.57619590
_cell_length_c   19.63456421
_cell_angle_alpha   89.40412788
_cell_angle_beta   88.90643982
_cell_angle_gamma   88.09214685
_symmetry_Int_Tables_number   1
_chemical_formula_structural   Na5P3H48C4N(O9F)3
_chemical_formula_sum   'Na10 P6 H96 C8 N2 O54 F6'
_cell_volume   1727.87190467
_cell_formula_units_Z   2
loop_
 _symmetry_equiv_pos_site_id
 _symmetry_equiv_pos_as_xyz
  1  'x, y, z'
loop_
 _atom_site_type_symbol
 _atom_site_label
 _atom_site_symmetry_multiplicity
 _atom_site_fract_x
 _atom_site_fract_y
 _atom_site_fract_z
 _atom_site_occupancy
  Na  Na0  1  0.99801898  0.44152696  0.42277743  1
  Na  Na1  1  0.00198102  0.55847304  0.57722257  1
  Na  Na2  1  0.24642869  0.25062590  0.36726101  1
  Na  Na3  1  0.75357131  0.74937410  0.63273899  1
  Na  Na4  1  0.98364692  0.93567784  0.57470436  1
  Na  Na5  1  0.01635308  0.06432216  0.42529564  1
  Na  Na6  1  0.91706102  0.80786022  0.95883912  1
  Na  Na7  1  0.08293898  0.19213978  0.04116088  1
  Na  Na8  1  0.64548131  0.31958248  0.05593789  1
  Na  Na9  1  0.35451869  0.68041752  0.94406211  1
  P  P10  1  0.62255677  0.75505412  0.40114843  1
  P  P11  1  0.37744323  0.24494588  0.59885157  1
  P  P12  1  0.64678038  0.46886476  0.19440021  1
  P  P13  1  0.35321962  0.53113524  0.80559979  1
  P  P14  1  0.37991395  0.96521221  0.80749196  1
  P  P15  1  0.62008605  0.03478779  0.19250804  1
  H  H16  1  0.61883556  0.47144157  0.34028050  1
  H  H17  1  0.38116444  0.52855843  0.65971950  1
  H  H18  1  0.61270193  0.55319942  0.39858536  1
  H  H19  1  0.38729807  0.44680058  0.60141464  1
  H  H20  1  0.02314029  0.40967039  0.27222817  1
  H  H21  1  0.97685971  0.59032961  0.72777183  1
  H  H22  1  0.25456202  0.42371681  0.29102520  1
  H  H23  1  0.74543798  0.57628319  0.70897480  1
  H  H24  1  0.28355191  0.90864528  0.95163859  1
  H  H25  1  0.71644809  0.09135472  0.04836141  1
  H  H26  1  0.21423973  0.91736717  0.02848099  1
  H  H27  1  0.78576027  0.08263283  0.97151901  1
  H  H28  1  0.60873813  0.87023082  0.51031638  1
  H  H29  1  0.39126187  0.12976918  0.48968362  1
  H  H30  1  0.53353501  0.91467140  0.58028287  1
  H  H31  1  0.46646499  0.08532860  0.41971713  1
  H  H32  1  0.27721820  0.48492803  0.10690279  1
  H  H33  1  0.72278180  0.51507197  0.89309721  1
  H  H34  1  0.03831178  0.48494832  0.12999350  1
  H  H35  1  0.96168822  0.51505168  0.87000650  1
  H  H36  1  0.99327372  0.34684038  0.55791438  1
  H  H37  1  0.00672628  0.65315962  0.44208562  1
  H  H38  1  0.75803480  0.38103486  0.55220924  1
  H  H39  1  0.24196520  0.61896514  0.44779076  1
  H  H40  1  0.99819859  0.89140752  0.71944537  1
  H  H41  1  0.00180141  0.10859248  0.28055463  1
  H  H42  1  0.76082463  0.90909338  0.72809945  1
  H  H43  1  0.23917537  0.09090662  0.27190055  1
  H  H44  1  0.55260021  0.58302426  0.57686894  1
  H  H45  1  0.44739979  0.41697574  0.42313106  1
  H  H46  1  0.62261028  0.64068023  0.51176468  1
  H  H47  1  0.37738972  0.35931977  0.48823532  1
  H  H48  1  0.78530035  0.25577000  0.38130479  1
  H  H49  1  0.21469965  0.74423000  0.61869521  1
  H  H50  1  0.84896811  0.25116002  0.45865513  1
  H  H51  1  0.15103189  0.74883998  0.54134487  1
  H  H52  1  0.56896394  0.31636533  0.29203948  1
  H  H53  1  0.43103606  0.68363467  0.70796052  1
  H  H54  1  0.63015093  0.20156600  0.28889606  1
  H  H55  1  0.36984907  0.79843400  0.71110394  1
  H  H56  1  0.77054025  0.97134359  0.87812378  1
  H  H57  1  0.22945975  0.02865641  0.12187622  1
  H  H58  1  0.00728220  0.98665803  0.89600538  1
  H  H59  1  0.99271780  0.01334197  0.10399462  1
  H  H60  1  0.53197476  0.84666087  0.02686748  1
  H  H61  1  0.46802524  0.15333913  0.97313252  1
  H  H62  1  0.69538025  0.89058210  0.07484875  1
  H  H63  1  0.30461975  0.10941790  0.92515125  1
  H  H64  1  0.92803040  0.39672658  0.96398593  1
  H  H65  1  0.07196960  0.60327342  0.03601407  1
  H  H66  1  0.04637136  0.40049089  0.03183726  1
  H  H67  1  0.95362864  0.59950911  0.96816274  1
  H  H68  1  0.15350316  0.80708887  0.82728286  1
  H  H69  1  0.84649684  0.19291113  0.17271714  1
  H  H70  1  0.10711000  0.69427953  0.83955158  1
  H  H71  1  0.89289000  0.30572047  0.16044842  1
  H  H72  1  0.45419717  0.43080753  0.93371623  1
  H  H73  1  0.54580283  0.56919247  0.06628377  1
  H  H74  1  0.35784079  0.32722834  0.95028092  1
  H  H75  1  0.64215921  0.67277166  0.04971908  1
  H  H76  1  0.30748239  0.29746818  0.13923037  1
  H  H77  1  0.69251761  0.70253182  0.86076963  1
  H  H78  1  0.38184633  0.18615140  0.14160060  1
  H  H79  1  0.61815367  0.81384860  0.85839940  1
  H  H80  1  0.36648734  0.04223691  0.60598353  1
  H  H81  1  0.63351266  0.95776309  0.39401647  1
  H  H82  1  0.30854711  0.96238398  0.66323749  1
  H  H83  1  0.69145289  0.03761602  0.33676251  1
  H  H84  1  0.01213320  0.85148539  0.43976471  1
  H  H85  1  0.98786680  0.14851461  0.56023529  1
  H  H86  1  0.24823582  0.87836869  0.44754195  1
  H  H87  1  0.75176418  0.12163131  0.55245805  1
  H  H88  1  0.32172746  0.83148252  0.14768611  1
  H  H89  1  0.67827254  0.16851748  0.85231389  1
  H  H90  1  0.46119227  0.75792248  0.20781695  1
  H  H91  1  0.53880773  0.24207752  0.79218305  1
  H  H92  1  0.32727617  0.70034693  0.14119927  1
  H  H93  1  0.67272383  0.29965307  0.85880073  1
  H  H94  1  0.00313070  0.66451226  0.29574777  1
  H  H95  1  0.99686930  0.33548774  0.70425223  1
  H  H96  1  0.13941092  0.60223640  0.22737314  1
  H  H97  1  0.86058908  0.39776360  0.77262686  1
  H  H98  1  0.28046083  0.66117575  0.29272317  1
  H  H99  1  0.71953917  0.33882425  0.70727683  1
  H  H100  1  0.81283158  0.76057363  0.21304232  1
  H  H101  1  0.18716842  0.23942637  0.78695768  1
  H  H102  1  0.94279445  0.83302532  0.15003980  1
  H  H103  1  0.05720555  0.16697468  0.84996020  1
  H  H104  1  0.95008610  0.70058969  0.14439603  1
  H  H105  1  0.04991390  0.29941031  0.85560397  1
  H  H106  1  0.99167238  0.83979708  0.30192018  1
  H  H107  1  0.00832762  0.16020292  0.69807982  1
  H  H108  1  0.26845150  0.84215888  0.29993973  1
  H  H109  1  0.73154850  0.15784112  0.70006027  1
  H  H110  1  0.12294120  0.91331982  0.23889228  1
  H  H111  1  0.87705880  0.08668018  0.76110772  1
  C  C112  1  0.32449502  0.76228677  0.17647715  1
  C  C113  1  0.67550498  0.23771323  0.82352285  1
  C  C114  1  0.14056858  0.66436525  0.26247551  1
  C  C115  1  0.85943142  0.33563475  0.73752449  1
  C  C116  1  0.94683358  0.76354278  0.17883298  1
  C  C117  1  0.05316642  0.23645722  0.82116702  1
  C  C118  1  0.12954968  0.84514391  0.26920586  1
  C  C119  1  0.87045032  0.15485609  0.73079414  1
  N  N120  1  0.13609569  0.75880799  0.22155508  1
  N  N121  1  0.86390431  0.24119201  0.77844492  1
  O  O122  1  0.85407928  0.75261691  0.41151846  1
  O  O123  1  0.14592072  0.24738309  0.58848154  1
  O  O124  1  0.51123846  0.66438798  0.42774040  1
  O  O125  1  0.48876154  0.33561202  0.57225960  1
  O  O126  1  0.51426286  0.85368631  0.42027013  1
  O  O127  1  0.48573714  0.14631369  0.57972987  1
  O  O128  1  0.54252674  0.45900377  0.12563730  1
  O  O129  1  0.45747326  0.54099623  0.87436270  1
  O  O130  1  0.52101350  0.43466577  0.25646836  1
  O  O131  1  0.47898650  0.56533423  0.74353164  1
  O  O132  1  0.87286688  0.43146498  0.19416480  1
  O  O133  1  0.12713312  0.56853502  0.80583520  1
  O  O134  1  0.60535975  0.92938650  0.81270667  1
  O  O135  1  0.39464025  0.07061350  0.18729333  1
  O  O136  1  0.25138696  0.89988046  0.76247405  1
  O  O137  1  0.74861304  0.10011954  0.23752595  1
  O  O138  1  0.27622512  0.99332147  0.87568763  1
  O  O139  1  0.72377488  0.00667853  0.12431237  1
  O  O140  1  0.66139546  0.48421297  0.38731947  1
  O  O141  1  0.33860454  0.51578703  0.61268053  1
  O  O142  1  0.12218425  0.40059864  0.30977086  1
  O  O143  1  0.87781575  0.59940136  0.69022914  1
  O  O144  1  0.26116599  0.86836457  0.99341313  1
  O  O145  1  0.73883401  0.13163543  0.00658687  1
  O  O146  1  0.65380719  0.88072546  0.55716399  1
  O  O147  1  0.34619281  0.11927454  0.44283601  1
  O  O148  1  0.13398609  0.49956207  0.09117596  1
  O  O149  1  0.86601391  0.50043793  0.90882404  1
  O  O150  1  0.89932326  0.39998841  0.53938546  1
  O  O151  1  0.10067674  0.60001159  0.46061454  1
  O  O152  1  0.86860550  0.88963051  0.69410557  1
  O  O153  1  0.13139450  0.11036949  0.30589443  1
  O  O154  1  0.66714679  0.62264889  0.55824439  1
  O  O155  1  0.33285321  0.37735111  0.44175561  1
  O  O156  1  0.90514054  0.25111897  0.41242946  1
  O  O157  1  0.09485946  0.74888103  0.58757054  1
  O  O158  1  0.58497516  0.25493687  0.32018743  1
  O  O159  1  0.41502484  0.74506313  0.67981257  1
  O  O160  1  0.86526156  0.98411629  0.91607019  1
  O  O161  1  0.13473844  0.01588371  0.08392981  1
  O  O162  1  0.67242341  0.83408807  0.04503243  1
  O  O163  1  0.32757659  0.16591193  0.95496757  1
  O  O164  1  0.97152422  0.35454892  0.00313838  1
  O  O165  1  0.02847578  0.64545108  0.99686162  1
  O  O166  1  0.12073071  0.75797286  0.86311779  1
  O  O167  1  0.87926929  0.24202714  0.13688221  1
  O  O168  1  0.46588690  0.37155144  0.96313513  1
  O  O169  1  0.53411310  0.62844856  0.03686487  1
  O  O170  1  0.36170666  0.24428579  0.11059856  1
  O  O171  1  0.63829334  0.75571421  0.88940144  1
  O  O172  1  0.30740284  0.97531927  0.61433530  1
  O  O173  1  0.69259716  0.02468073  0.38566470  1
  O  O174  1  0.10460641  0.89928871  0.46053188  1
  O  O175  1  0.89539359  0.10071129  0.53946812  1
  F  F176  1  0.59872361  0.74912563  0.31867893  1
  F  F177  1  0.40127639  0.25087437  0.68132107  1
  F  F178  1  0.66043852  0.58684221  0.20366858  1
  F  F179  1  0.33956148  0.41315779  0.79633142  1
  F  F180  1  0.39068576  0.06773689  0.76525327  1
  F  F181  1  0.60931424  0.93226311  0.23474673  1
