# generated using pymatgen
data_Li2CuP6H20C2(N3O11)2
_symmetry_space_group_name_H-M   'P 1'
_cell_length_a   9.57439863
_cell_length_b   9.34574756
_cell_length_c   7.62793213
_cell_angle_alpha   108.04441597
_cell_angle_beta   109.44557937
_cell_angle_gamma   85.23737994
_symmetry_Int_Tables_number   1
_chemical_formula_structural   Li2CuP6H20C2(N3O11)2
_chemical_formula_sum   'Li2 Cu1 P6 H20 C2 N6 O22'
_cell_volume   611.80423846
_cell_formula_units_Z   1
loop_
 _symmetry_equiv_pos_site_id
 _symmetry_equiv_pos_as_xyz
  1  'x, y, z'
loop_
 _atom_site_type_symbol
 _atom_site_label
 _atom_site_symmetry_multiplicity
 _atom_site_fract_x
 _atom_site_fract_y
 _atom_site_fract_z
 _atom_site_occupancy
  Li  Li0  1  0.15138403  0.05896808  0.82621351  1
  Li  Li1  1  0.84861597  0.94103192  0.17378649  1
  Cu  Cu2  1  0.50000000  0.50000000  0.50000000  1
  P  P3  1  0.34454909  0.79837944  0.67370058  1
  P  P4  1  0.65545091  0.20162056  0.32629942  1
  P  P5  1  0.20289648  0.99680276  0.43042860  1
  P  P6  1  0.79710352  0.00319724  0.56957140  1
  P  P7  1  0.34392431  0.17988616  0.27648274  1
  P  P8  1  0.65607569  0.82011384  0.72351726  1
  H  H9  1  0.04650364  0.29079437  0.14087117  1
  H  H10  1  0.95349636  0.70920563  0.85912883  1
  H  H11  1  0.11609752  0.72591301  0.80922185  1
  H  H12  1  0.88390248  0.27408699  0.19077815  1
  H  H13  1  0.76465595  0.49045492  0.32123678  1
  H  H14  1  0.23534405  0.50954508  0.67876322  1
  H  H15  1  0.83538160  0.66843692  0.36645987  1
  H  H16  1  0.16461840  0.33156308  0.63354013  1
  H  H17  1  0.04421247  0.69155069  0.27808193  1
  H  H18  1  0.95578753  0.30844931  0.72191807  1
  H  H19  1  0.14430109  0.53508418  0.20441093  1
  H  H20  1  0.85569891  0.46491582  0.79558907  1
  H  H21  1  0.58940954  0.77143230  0.20486274  1
  H  H22  1  0.41059046  0.22856770  0.79513726  1
  H  H23  1  0.56925498  0.19667866  0.92150155  1
  H  H24  1  0.43074502  0.80332134  0.07849845  1
  H  H25  1  0.60286732  0.40281833  0.83698138  1
  H  H26  1  0.39713268  0.59718167  0.16301862  1
  H  H27  1  0.63102035  0.57501325  0.89944871  1
  H  H28  1  0.36897965  0.42498675  0.10055129  1
  C  C29  1  0.94927909  0.49149543  0.24230018  1
  C  C30  1  0.05072091  0.50850457  0.75769982  1
  N  N31  1  0.96094700  0.34138602  0.18754013  1
  N  N32  1  0.03905300  0.65861398  0.81245987  1
  N  N33  1  0.16375978  0.44514294  0.69769410  1
  N  N34  1  0.83624022  0.55485706  0.30230590  1
  N  N35  1  0.04987241  0.57824398  0.23401328  1
  N  N36  1  0.95012759  0.42175602  0.76598672  1
  O  O37  1  0.74570826  0.13576479  0.19423898  1
  O  O38  1  0.25429174  0.86423521  0.80576102  1
  O  O39  1  0.35825841  0.62908740  0.61689091  1
  O  O40  1  0.64174159  0.37091260  0.38310909  1
  O  O41  1  0.28204231  0.84370916  0.47397605  1
  O  O42  1  0.71795769  0.15629084  0.52602395  1
  O  O43  1  0.49304571  0.12159437  0.22058647  1
  O  O44  1  0.50695429  0.87840563  0.77941353  1
  O  O45  1  0.21157730  0.11617965  0.62027068  1
  O  O46  1  0.78842270  0.88382035  0.37972932  1
  O  O47  1  0.94084679  0.05024642  0.72823957  1
  O  O48  1  0.05915321  0.94975358  0.27176043  1
  O  O49  1  0.32134077  0.03758955  0.34182350  1
  O  O50  1  0.67865923  0.96241045  0.65817650  1
  O  O51  1  0.77664416  0.81244348  0.90488137  1
  O  O52  1  0.22335584  0.18755652  0.09511863  1
  O  O53  1  0.62079450  0.68235629  0.54626504  1
  O  O54  1  0.37920550  0.31764371  0.45373496  1
  O  O55  1  0.50258635  0.27791006  0.89408124  1
  O  O56  1  0.49741365  0.72208994  0.10591876  1
  O  O57  1  0.65316400  0.48095086  0.81327257  1
  O  O58  1  0.34683600  0.51904914  0.18672743  1
