# generated using pymatgen
data_BSbO3
_symmetry_space_group_name_H-M   'P 1'
_cell_length_a   6.22088684
_cell_length_b   6.06482239
_cell_length_c   4.84603979
_cell_angle_alpha   66.22451774
_cell_angle_beta   111.43739875
_cell_angle_gamma   97.79461568
_symmetry_Int_Tables_number   1
_chemical_formula_structural   BSbO3
_chemical_formula_sum   'B2 Sb2 O6'
_cell_volume   155.72724874
_cell_formula_units_Z   2
loop_
 _symmetry_equiv_pos_site_id
 _symmetry_equiv_pos_as_xyz
  1  'x, y, z'
loop_
 _atom_site_type_symbol
 _atom_site_label
 _atom_site_symmetry_multiplicity
 _atom_site_fract_x
 _atom_site_fract_y
 _atom_site_fract_z
 _atom_site_occupancy
  B  B0  1  0.70774329  0.93642517  0.79293592  1
  B  B1  1  0.29225671  0.06357483  0.20706408  1
  Sb  Sb2  1  0.76589473  0.25534538  0.19526756  1
  Sb  Sb3  1  0.23410527  0.74465462  0.80473244  1
  O  O4  1  0.58244373  0.74882822  0.93462476  1
  O  O5  1  0.77852721  0.92524296  0.55516182  1
  O  O6  1  0.76785245  0.14120522  0.86133099  1
  O  O7  1  0.23214755  0.85879478  0.13866901  1
  O  O8  1  0.22147279  0.07475704  0.44483818  1
  O  O9  1  0.41755627  0.25117178  0.06537524  1
