# generated using pymatgen
data_Ba5Bi3O11
_symmetry_space_group_name_H-M   'P 1'
_cell_length_a   6.28351478
_cell_length_b   6.28351478
_cell_length_c   9.23510435
_cell_angle_alpha   90.00000000
_cell_angle_beta   90.00000000
_cell_angle_gamma   90.03880325
_symmetry_Int_Tables_number   1
_chemical_formula_structural   Ba5Bi3O11
_chemical_formula_sum   'Ba5 Bi3 O11'
_cell_volume   364.62545968
_cell_formula_units_Z   1
loop_
 _symmetry_equiv_pos_site_id
 _symmetry_equiv_pos_as_xyz
  1  'x, y, z'
loop_
 _atom_site_type_symbol
 _atom_site_label
 _atom_site_symmetry_multiplicity
 _atom_site_fract_x
 _atom_site_fract_y
 _atom_site_fract_z
 _atom_site_occupancy
  Ba  Ba0  1  0.54303474  0.98853752  0.22810986  1
  Ba  Ba1  1  0.54303474  0.98853752  0.77189014  1
  Ba  Ba2  1  0.01851023  0.98148977  0.50000000  1
  Ba  Ba3  1  0.01146248  0.45696526  0.22810986  1
  Ba  Ba4  1  0.01146248  0.45696526  0.77189014  1
  Bi  Bi5  1  0.01769893  0.98230107  0.00000000  1
  Bi  Bi6  1  0.50990538  0.49009462  0.00000000  1
  Bi  Bi7  1  0.50440684  0.49559316  0.50000000  1
  O  O8  1  0.76858500  0.23141500  0.00000000  1
  O  O9  1  0.24426134  0.24326215  0.00000000  1
  O  O10  1  0.75673785  0.75573866  0.00000000  1
  O  O11  1  0.01099533  0.98900467  0.23212124  1
  O  O12  1  0.74060890  0.25939110  0.50000000  1
  O  O13  1  0.50822716  0.49177284  0.25030777  1
  O  O14  1  0.25711439  0.74288561  0.00000000  1
  O  O15  1  0.60573785  0.82930512  0.50000000  1
  O  O16  1  0.17069488  0.39426215  0.50000000  1
  O  O17  1  0.50822716  0.49177284  0.74969223  1
  O  O18  1  0.01099533  0.98900467  0.76787876  1
