# generated using pymatgen
data_Sn2H10C4N2O9F2
_symmetry_space_group_name_H-M   'P 1'
_cell_length_a   10.22449409
_cell_length_b   9.87051395
_cell_length_c   12.67229525
_cell_angle_alpha   90.00000000
_cell_angle_beta   94.41398020
_cell_angle_gamma   90.00000000
_symmetry_Int_Tables_number   1
_chemical_formula_structural   Sn2H10C4N2O9F2
_chemical_formula_sum   'Sn8 H40 C16 N8 O36 F8'
_cell_volume   1275.10763965
_cell_formula_units_Z   4
loop_
 _symmetry_equiv_pos_site_id
 _symmetry_equiv_pos_as_xyz
  1  'x, y, z'
loop_
 _atom_site_type_symbol
 _atom_site_label
 _atom_site_symmetry_multiplicity
 _atom_site_fract_x
 _atom_site_fract_y
 _atom_site_fract_z
 _atom_site_occupancy
  Sn  Sn0  1  0.48907478  0.35515697  0.60967225  1
  Sn  Sn1  1  0.51092522  0.85515697  0.89032775  1
  Sn  Sn2  1  0.51092522  0.64484303  0.39032775  1
  Sn  Sn3  1  0.48907478  0.14484303  0.10967225  1
  Sn  Sn4  1  0.87155720  0.18508863  0.99438456  1
  Sn  Sn5  1  0.12844280  0.68508863  0.50561544  1
  Sn  Sn6  1  0.12844280  0.81491137  0.00561544  1
  Sn  Sn7  1  0.87155720  0.31491137  0.49438456  1
  H  H8  1  0.12528751  0.03928808  0.71395777  1
  H  H9  1  0.87471249  0.53928808  0.78604223  1
  H  H10  1  0.87471249  0.96071192  0.28604223  1
  H  H11  1  0.12528751  0.46071192  0.21395777  1
  H  H12  1  0.97307241  0.10256020  0.72809768  1
  H  H13  1  0.02692759  0.60256020  0.77190232  1
  H  H14  1  0.02692759  0.89743980  0.27190232  1
  H  H15  1  0.97307241  0.39743980  0.22809768  1
  H  H16  1  0.35503470  0.08684623  0.70516734  1
  H  H17  1  0.64496530  0.58684623  0.79483266  1
  H  H18  1  0.64496530  0.91315377  0.29483266  1
  H  H19  1  0.35503470  0.41315377  0.20516734  1
  H  H20  1  0.99726234  0.93366892  0.73607766  1
  H  H21  1  0.00273766  0.43366892  0.76392234  1
  H  H22  1  0.00273766  0.06633108  0.26392234  1
  H  H23  1  0.99726234  0.56633108  0.23607766  1
  H  H24  1  0.30421888  0.10981876  0.81927125  1
  H  H25  1  0.69578112  0.60981876  0.68072875  1
  H  H26  1  0.69578112  0.89018124  0.18072875  1
  H  H27  1  0.30421888  0.39018124  0.31927125  1
  H  H28  1  0.59583262  0.03546953  0.60774920  1
  H  H29  1  0.40416738  0.53546953  0.89225080  1
  H  H30  1  0.40416738  0.96453047  0.39225080  1
  H  H31  1  0.59583262  0.46453047  0.10774920  1
  H  H32  1  0.62969727  0.89874700  0.53536604  1
  H  H33  1  0.37030273  0.39874700  0.96463396  1
  H  H34  1  0.37030273  0.10125300  0.46463396  1
  H  H35  1  0.62969727  0.60125300  0.03536604  1
  H  H36  1  0.74372180  0.02333443  0.55707352  1
  H  H37  1  0.25627820  0.52333443  0.94292648  1
  H  H38  1  0.25627820  0.97666557  0.44292648  1
  H  H39  1  0.74372180  0.47666557  0.05707352  1
  H  H40  1  0.70432977  0.91836755  0.65725136  1
  H  H41  1  0.29567023  0.41836755  0.84274864  1
  H  H42  1  0.29567023  0.08163245  0.34274864  1
  H  H43  1  0.70432977  0.58163245  0.15725136  1
  H  H44  1  0.00006910  0.01676948  0.61779444  1
  H  H45  1  0.99993090  0.51676948  0.88220556  1
  H  H46  1  0.99993090  0.98323052  0.38220556  1
  H  H47  1  0.00006910  0.48323052  0.11779444  1
  C  C48  1  0.18680617  0.31754724  0.49612011  1
  C  C49  1  0.81319383  0.81754724  0.00387989  1
  C  C50  1  0.81319383  0.68245276  0.50387989  1
  C  C51  1  0.18680617  0.18245276  0.99612011  1
  C  C52  1  0.73517345  0.24560184  0.76506665  1
  C  C53  1  0.26482655  0.74560184  0.73493335  1
  C  C54  1  0.26482655  0.75439816  0.23493335  1
  C  C55  1  0.73517345  0.25439816  0.26506665  1
  C  C56  1  0.17344471  0.33960495  0.61720693  1
  C  C57  1  0.82655529  0.83960495  0.88279307  1
  C  C58  1  0.82655529  0.66039505  0.38279307  1
  C  C59  1  0.17344471  0.16039505  0.11720693  1
  C  C60  1  0.62052108  0.27619927  0.83538741  1
  C  C61  1  0.37947892  0.77619927  0.66461259  1
  C  C62  1  0.37947892  0.72380073  0.16461259  1
  C  C63  1  0.62052108  0.22380073  0.33538741  1
  N  N64  1  0.66951201  0.96871358  0.58956019  1
  N  N65  1  0.33048799  0.46871358  0.91043981  1
  N  N66  1  0.33048799  0.03128642  0.41043981  1
  N  N67  1  0.66951201  0.53128642  0.08956019  1
  N  N68  1  0.02383586  0.02224477  0.69843107  1
  N  N69  1  0.97616414  0.52224477  0.80156893  1
  N  N70  1  0.97616414  0.97775523  0.30156893  1
  N  N71  1  0.02383586  0.47775523  0.19843107  1
  O  O72  1  0.84777908  0.21915747  0.81150101  1
  O  O73  1  0.15222092  0.71915747  0.68849899  1
  O  O74  1  0.15222092  0.78084253  0.18849899  1
  O  O75  1  0.84777908  0.28084253  0.31150101  1
  O  O76  1  0.08327424  0.29272631  0.43727476  1
  O  O77  1  0.91672576  0.79272631  0.06272524  1
  O  O78  1  0.91672576  0.70727369  0.56272524  1
  O  O79  1  0.08327424  0.20727369  0.93727476  1
  O  O80  1  0.27626927  0.37345267  0.67497664  1
  O  O81  1  0.72373073  0.87345267  0.82502336  1
  O  O82  1  0.72373073  0.62654733  0.32502336  1
  O  O83  1  0.27626927  0.12654733  0.17497664  1
  O  O84  1  0.51016037  0.30897319  0.78856184  1
  O  O85  1  0.48983963  0.80897319  0.71143816  1
  O  O86  1  0.48983963  0.69102681  0.21143816  1
  O  O87  1  0.51016037  0.19102681  0.28856184  1
  O  O88  1  0.71000472  0.24606534  0.66600272  1
  O  O89  1  0.28999528  0.74606534  0.83399728  1
  O  O90  1  0.28999528  0.75393466  0.33399728  1
  O  O91  1  0.71000472  0.25393466  0.16600272  1
  O  O92  1  0.64285895  0.26477884  0.93439543  1
  O  O93  1  0.35714105  0.76477884  0.56560457  1
  O  O94  1  0.35714105  0.73522116  0.06560457  1
  O  O95  1  0.64285895  0.23522116  0.43439543  1
  O  O96  1  0.30057220  0.32693390  0.46312560  1
  O  O97  1  0.69942780  0.82693390  0.03687440  1
  O  O98  1  0.69942780  0.67306610  0.53687440  1
  O  O99  1  0.30057220  0.17306610  0.96312560  1
  O  O100  1  0.06060089  0.32530711  0.64975257  1
  O  O101  1  0.93939911  0.82530711  0.85024743  1
  O  O102  1  0.93939911  0.67469289  0.35024743  1
  O  O103  1  0.06060089  0.17469289  0.14975257  1
  O  O104  1  0.29373164  0.05247722  0.75524559  1
  O  O105  1  0.70626836  0.55247722  0.74475441  1
  O  O106  1  0.70626836  0.94752278  0.24475441  1
  O  O107  1  0.29373164  0.44752278  0.25524559  1
  F  F108  1  0.44816639  0.14265002  0.60236909  1
  F  F109  1  0.55183361  0.64265002  0.89763091  1
  F  F110  1  0.55183361  0.85734998  0.39763091  1
  F  F111  1  0.44816639  0.35734998  0.10236909  1
  F  F112  1  0.88724970  0.39559067  0.00945508  1
  F  F113  1  0.11275030  0.89559067  0.49054492  1
  F  F114  1  0.11275030  0.60440933  0.99054492  1
  F  F115  1  0.88724970  0.10440933  0.50945508  1
