# generated using pymatgen
data_Li2WS4
_symmetry_space_group_name_H-M   'P 1'
_cell_length_a   13.20763156
_cell_length_b   7.76963905
_cell_length_c   6.07188203
_cell_angle_alpha   90.00000000
_cell_angle_beta   90.00000000
_cell_angle_gamma   90.00000000
_symmetry_Int_Tables_number   1
_chemical_formula_structural   Li2WS4
_chemical_formula_sum   'Li8 W4 S16'
_cell_volume   623.08760781
_cell_formula_units_Z   4
loop_
 _symmetry_equiv_pos_site_id
 _symmetry_equiv_pos_as_xyz
  1  'x, y, z'
loop_
 _atom_site_type_symbol
 _atom_site_label
 _atom_site_symmetry_multiplicity
 _atom_site_fract_x
 _atom_site_fract_y
 _atom_site_fract_z
 _atom_site_occupancy
  Li  Li0  1  0.00000000  0.00000000  0.00000000  1
  Li  Li1  1  0.00000000  0.50000000  0.00000000  1
  Li  Li2  1  0.23245322  0.75000000  0.50477264  1
  Li  Li3  1  0.26754678  0.25000000  0.00477264  1
  Li  Li4  1  0.50000000  0.00000000  0.50000000  1
  Li  Li5  1  0.50000000  0.50000000  0.50000000  1
  Li  Li6  1  0.73245322  0.75000000  0.99522736  1
  Li  Li7  1  0.76754678  0.25000000  0.49522736  1
  W  W8  1  0.08895789  0.25000000  0.38529773  1
  W  W9  1  0.41104211  0.75000000  0.88529773  1
  W  W10  1  0.58895789  0.25000000  0.11470227  1
  W  W11  1  0.91104211  0.75000000  0.61470227  1
  S  S12  1  0.06813834  0.75000000  0.74389939  1
  S  S13  1  0.09110219  0.25000000  0.74744032  1
  S  S14  1  0.16644377  0.01920115  0.25544606  1
  S  S15  1  0.16644377  0.48079885  0.25544606  1
  S  S16  1  0.33355623  0.51920115  0.75544606  1
  S  S17  1  0.33355623  0.98079885  0.75544606  1
  S  S18  1  0.40889781  0.75000000  0.24744032  1
  S  S19  1  0.43186166  0.25000000  0.24389939  1
  S  S20  1  0.56813834  0.75000000  0.75610061  1
  S  S21  1  0.59110219  0.25000000  0.75255968  1
  S  S22  1  0.66644377  0.01920115  0.24455394  1
  S  S23  1  0.66644377  0.48079885  0.24455394  1
  S  S24  1  0.83355623  0.51920115  0.74455394  1
  S  S25  1  0.83355623  0.98079885  0.74455394  1
  S  S26  1  0.90889781  0.75000000  0.25255968  1
  S  S27  1  0.93186166  0.25000000  0.25610061  1
