# generated using pymatgen
data_Ga3NO3
_symmetry_space_group_name_H-M   'P 1'
_cell_length_a   5.91390050
_cell_length_b   5.97809663
_cell_length_c   5.97809663
_cell_angle_alpha   59.29080533
_cell_angle_beta   90.00000000
_cell_angle_gamma   119.64540267
_symmetry_Int_Tables_number   1
_chemical_formula_structural   Ga3NO3
_chemical_formula_sum   'Ga6 N2 O6'
_cell_volume   148.62880607
_cell_formula_units_Z   2
loop_
 _symmetry_equiv_pos_site_id
 _symmetry_equiv_pos_as_xyz
  1  'x, y, z'
loop_
 _atom_site_type_symbol
 _atom_site_label
 _atom_site_symmetry_multiplicity
 _atom_site_fract_x
 _atom_site_fract_y
 _atom_site_fract_z
 _atom_site_occupancy
  Ga  Ga0  1  0.50000000  0.00000000  0.00000000  1
  Ga  Ga1  1  0.50000000  0.00000000  0.50000000  1
  Ga  Ga2  1  0.13716888  0.27433875  0.13716888  1
  Ga  Ga3  1  0.50000000  0.50000000  0.50000000  1
  Ga  Ga4  1  0.86283112  0.72566125  0.86283112  1
  Ga  Ga5  1  0.00000000  0.50000000  0.50000000  1
  N  N6  1  0.73270713  0.46541426  0.73270713  1
  N  N7  1  0.26729287  0.53458574  0.26729287  1
  O  O8  1  0.74044467  0.00119142  0.74044467  1
  O  O9  1  0.74044467  0.48089034  0.26074575  1
  O  O10  1  0.26074575  0.00119142  0.74044467  1
  O  O11  1  0.73925425  0.99880858  0.25955533  1
  O  O12  1  0.25955533  0.99880858  0.25955533  1
  O  O13  1  0.25955533  0.51910966  0.73925425  1
