# generated using pymatgen
data_SrLa2O4
_symmetry_space_group_name_H-M   'P 1'
_cell_length_a   7.29561302
_cell_length_b   7.33129111
_cell_length_c   7.29561302
_cell_angle_alpha   60.16085402
_cell_angle_beta   90.00000000
_cell_angle_gamma   119.83914598
_symmetry_Int_Tables_number   1
_chemical_formula_structural   SrLa2O4
_chemical_formula_sum   'Sr2 La4 O8'
_cell_volume   277.26001962
_cell_formula_units_Z   2
loop_
 _symmetry_equiv_pos_site_id
 _symmetry_equiv_pos_as_xyz
  1  'x, y, z'
loop_
 _atom_site_type_symbol
 _atom_site_label
 _atom_site_symmetry_multiplicity
 _atom_site_fract_x
 _atom_site_fract_y
 _atom_site_fract_z
 _atom_site_occupancy
  Sr  Sr0  1  0.62500000  0.75000000  0.12500000  1
  Sr  Sr1  1  0.37500000  0.25000000  0.87500000  1
  La  La2  1  0.00000000  0.50000000  0.00000000  1
  La  La3  1  0.50000000  0.00000000  0.50000000  1
  La  La4  1  0.00000000  0.00000000  0.50000000  1
  La  La5  1  0.00000000  0.50000000  0.50000000  1
  O  O6  1  0.76647648  0.03283834  0.26061795  1
  O  O7  1  0.76061795  0.46716166  0.26636286  1
  O  O8  1  0.20654371  0.46716166  0.26647648  1
  O  O9  1  0.23363714  0.96716166  0.29345629  1
  O  O10  1  0.76636286  0.03283834  0.70654371  1
  O  O11  1  0.79345629  0.53283834  0.73352352  1
  O  O12  1  0.23938205  0.53283834  0.73363714  1
  O  O13  1  0.23352352  0.96716166  0.73938205  1
