# generated using pymatgen
data_Cu2O3
_symmetry_space_group_name_H-M   'P 1'
_cell_length_a   7.75706734
_cell_length_b   3.59952599
_cell_length_c   10.38927476
_cell_angle_alpha   90.00000000
_cell_angle_beta   68.32362679
_cell_angle_gamma   90.00000000
_symmetry_Int_Tables_number   1
_chemical_formula_structural   Cu2O3
_chemical_formula_sum   'Cu8 O12'
_cell_volume   269.57338842
_cell_formula_units_Z   4
loop_
 _symmetry_equiv_pos_site_id
 _symmetry_equiv_pos_as_xyz
  1  'x, y, z'
loop_
 _atom_site_type_symbol
 _atom_site_label
 _atom_site_symmetry_multiplicity
 _atom_site_fract_x
 _atom_site_fract_y
 _atom_site_fract_z
 _atom_site_occupancy
  Cu  Cu0  1  0.14263826  0.50026566  0.37279703  1
  Cu  Cu1  1  0.10255377  0.74939885  0.75902990  1
  Cu  Cu2  1  0.35736174  0.00026566  0.12720297  1
  Cu  Cu3  1  0.39744623  0.24939885  0.74097010  1
  Cu  Cu4  1  0.60255377  0.75060115  0.25902990  1
  Cu  Cu5  1  0.64263826  0.99973434  0.87279703  1
  Cu  Cu6  1  0.89744623  0.25060115  0.24097010  1
  Cu  Cu7  1  0.85736174  0.49973434  0.62720297  1
  O  O8  1  0.08855677  0.70385567  0.54517126  1
  O  O9  1  0.15208605  0.30406488  0.20328761  1
  O  O10  1  0.34791395  0.80406488  0.29671239  1
  O  O11  1  0.13649268  0.24687658  0.79242604  1
  O  O12  1  0.36350732  0.74687658  0.70757396  1
  O  O13  1  0.58855677  0.79614433  0.04517126  1
  O  O14  1  0.41144323  0.20385567  0.95482874  1
  O  O15  1  0.63649268  0.25312342  0.29242604  1
  O  O16  1  0.86350732  0.75312342  0.20757396  1
  O  O17  1  0.65208605  0.19593512  0.70328761  1
  O  O18  1  0.84791395  0.69593512  0.79671239  1
  O  O19  1  0.91144323  0.29614433  0.45482874  1
