# generated using pymatgen
data_Sn2P2O7
_symmetry_space_group_name_H-M   'P 1'
_cell_length_a   7.14499694
_cell_length_b   7.30575194
_cell_length_c   7.30133653
_cell_angle_alpha   98.34551862
_cell_angle_beta   117.35068367
_cell_angle_gamma   80.76935303
_symmetry_Int_Tables_number   1
_chemical_formula_structural   Sn2P2O7
_chemical_formula_sum   'Sn4 P4 O14'
_cell_volume   333.02598154
_cell_formula_units_Z   2
loop_
 _symmetry_equiv_pos_site_id
 _symmetry_equiv_pos_as_xyz
  1  'x, y, z'
loop_
 _atom_site_type_symbol
 _atom_site_label
 _atom_site_symmetry_multiplicity
 _atom_site_fract_x
 _atom_site_fract_y
 _atom_site_fract_z
 _atom_site_occupancy
  Sn  Sn0  1  0.09280005  0.17172510  0.76001024  1
  Sn  Sn1  1  0.29745490  0.32761283  0.37980916  1
  Sn  Sn2  1  0.70254510  0.67238717  0.62019084  1
  Sn  Sn3  1  0.90719995  0.82827490  0.23998976  1
  P  P4  1  0.21740978  0.66416584  0.74823622  1
  P  P5  1  0.64453400  0.14507293  0.82560799  1
  P  P6  1  0.35546600  0.85492707  0.17439201  1
  P  P7  1  0.78259022  0.33583416  0.25176378  1
  O  O8  1  0.08857432  0.52702671  0.77129924  1
  O  O9  1  0.06140162  0.83251166  0.63646983  1
  O  O10  1  0.38434239  0.74437357  0.97569486  1
  O  O11  1  0.41457993  0.14153094  0.65352943  1
  O  O12  1  0.35917550  0.57698913  0.64552623  1
  O  O13  1  0.24908698  0.05100461  0.11133420  1
  O  O14  1  0.22652919  0.74427889  0.23069785  1
  O  O15  1  0.77347081  0.25572111  0.76930215  1
  O  O16  1  0.75091302  0.94899539  0.88866580  1
  O  O17  1  0.64082450  0.42301087  0.35447377  1
  O  O18  1  0.58542007  0.85846906  0.34647057  1
  O  O19  1  0.61565761  0.25562643  0.02430514  1
  O  O20  1  0.93859838  0.16748834  0.36353017  1
  O  O21  1  0.91142568  0.47297329  0.22870076  1
