# generated using pymatgen
data_HfZrO4
_symmetry_space_group_name_H-M   'P 1'
_cell_length_a   6.35415867
_cell_length_b   6.35415867
_cell_length_c   6.35415867
_cell_angle_alpha   132.59500568
_cell_angle_beta   132.59500568
_cell_angle_gamma   69.29088801
_symmetry_Int_Tables_number   1
_chemical_formula_structural   HfZrO4
_chemical_formula_sum   'Hf2 Zr2 O8'
_cell_volume   136.42489106
_cell_formula_units_Z   2
loop_
 _symmetry_equiv_pos_site_id
 _symmetry_equiv_pos_as_xyz
  1  'x, y, z'
loop_
 _atom_site_type_symbol
 _atom_site_label
 _atom_site_symmetry_multiplicity
 _atom_site_fract_x
 _atom_site_fract_y
 _atom_site_fract_z
 _atom_site_occupancy
  Hf  Hf0  1  0.00000000  0.00000000  0.00000000  1
  Hf  Hf1  1  0.75000000  0.25000000  0.50000000  1
  Zr  Zr2  1  0.50000000  0.50000000  0.00000000  1
  Zr  Zr3  1  0.25000000  0.75000000  0.50000000  1
  O  O4  1  0.64874161  0.13668852  0.98712193  1
  O  O5  1  0.60043341  0.58838032  0.48712193  1
  O  O6  1  0.86331148  0.85043341  0.51205309  1
  O  O7  1  0.41161968  0.89874161  0.01205309  1
  O  O8  1  0.33838032  0.35125839  0.48794691  1
  O  O9  1  0.88668852  0.39956659  0.98794691  1
  O  O10  1  0.10125839  0.11331148  0.51287807  1
  O  O11  1  0.14956659  0.66161968  0.01287807  1
