# generated using pymatgen
data_CaTb2O4
_symmetry_space_group_name_H-M   'P 1'
_cell_length_a   6.84632744
_cell_length_b   6.89105235
_cell_length_c   6.84632897
_cell_angle_alpha   60.21445368
_cell_angle_beta   90.00000000
_cell_angle_gamma   119.78553425
_symmetry_Int_Tables_number   1
_chemical_formula_structural   CaTb2O4
_chemical_formula_sum   'Ca2 Tb4 O8'
_cell_volume   229.86742569
_cell_formula_units_Z   2
loop_
 _symmetry_equiv_pos_site_id
 _symmetry_equiv_pos_as_xyz
  1  'x, y, z'
loop_
 _atom_site_type_symbol
 _atom_site_label
 _atom_site_symmetry_multiplicity
 _atom_site_fract_x
 _atom_site_fract_y
 _atom_site_fract_z
 _atom_site_occupancy
  Tb  Tb0  1  0.37500000  0.25000000  0.37500000  1
  Tb  Tb1  1  0.87500000  0.25000000  0.37500000  1
  Tb  Tb2  1  0.37500000  0.75000000  0.37500000  1
  Tb  Tb3  1  0.37500000  0.75000000  0.87500000  1
  Ca  Ca4  1  0.00000107  0.00000213  0.99999893  1
  Ca  Ca5  1  0.74999893  0.49999787  0.75000107  1
  O  O6  1  0.13974389  0.27948777  0.13348231  1
  O  O7  1  0.61025611  0.22051223  0.16297009  1
  O  O8  1  0.58703312  0.72051533  0.13974183  1
  O  O9  1  0.13348221  0.72051533  0.13974183  1
  O  O10  1  0.61025611  0.22051223  0.61651769  1
  O  O11  1  0.13974389  0.27948777  0.58702991  1
  O  O12  1  0.16296688  0.77948467  0.61025817  1
  O  O13  1  0.61651779  0.77948467  0.61025817  1
