# generated using pymatgen
data_Ho3TaO7
_symmetry_space_group_name_H-M   'P 1'
_cell_length_a   7.53222147
_cell_length_b   17.11764673
_cell_length_c   9.31016330
_cell_angle_alpha   26.91060222
_cell_angle_beta   35.78242902
_cell_angle_gamma   50.12233647
_symmetry_Int_Tables_number   1
_chemical_formula_structural   Ho3TaO7
_chemical_formula_sum   'Ho6 Ta2 O14'
_cell_volume   301.94047238
_cell_formula_units_Z   2
loop_
 _symmetry_equiv_pos_site_id
 _symmetry_equiv_pos_as_xyz
  1  'x, y, z'
loop_
 _atom_site_type_symbol
 _atom_site_label
 _atom_site_symmetry_multiplicity
 _atom_site_fract_x
 _atom_site_fract_y
 _atom_site_fract_z
 _atom_site_occupancy
  Ho  Ho0  1  -0.00274568  -0.00627647  0.01100079  1
  Ho  Ho1  1  0.48946588  -0.00488264  0.01654982  1
  Ho  Ho2  1  0.34866879  0.23025031  0.01478276  1
  Ho  Ho3  1  0.79403778  0.23317866  0.06489145  1
  Ho  Ho4  1  0.20246547  0.75601523  0.95603694  1
  Ho  Ho5  1  0.63188914  0.75590394  0.02636243  1
  Ta  Ta6  1  0.25981646  0.49373978  0.00854955  1
  Ta  Ta7  1  0.74768161  0.49501736  0.02326418  1
  O  O8  1  0.53128086  -0.00444988  0.22632841  1
  O  O9  1  0.32413656  0.16661854  0.36061309  1
  O  O10  1  0.46355029  -0.00284378  0.79194156  1
  O  O11  1  0.35428831  0.51677792  0.17495027  1
  O  O12  1  0.84279694  0.28632768  0.23432961  1
  O  O13  1  0.03897295  0.70540453  0.39870695  1
  O  O14  1  0.21053763  0.17112974  0.96771697  1
  O  O15  1  0.66532229  0.49039555  0.28579479  1
  O  O16  1  0.26401476  0.51569685  0.76522170  1
  O  O17  1  0.84116093  0.86404088  -0.05949310  1
  O  O18  1  0.95104322  0.28461530  0.63003923  1
  O  O19  1  0.15424538  0.70701125  0.77983822  1
  O  O20  1  0.68884599  0.49359519  0.75030527  1
  O  O21  1  0.67383444  0.85586009  0.61992111  1
