# generated using pymatgen
data_Li5Cu3(SbO5)2
_symmetry_space_group_name_H-M   'P 1'
_cell_length_a   5.26470513
_cell_length_b   5.51250745
_cell_length_c   7.89198441
_cell_angle_alpha   103.60674859
_cell_angle_beta   104.37366987
_cell_angle_gamma   104.07605507
_symmetry_Int_Tables_number   1
_chemical_formula_structural   Li5Cu3(SbO5)2
_chemical_formula_sum   'Li5 Cu3 Sb2 O10'
_cell_volume   204.27794865
_cell_formula_units_Z   1
loop_
 _symmetry_equiv_pos_site_id
 _symmetry_equiv_pos_as_xyz
  1  'x, y, z'
loop_
 _atom_site_type_symbol
 _atom_site_label
 _atom_site_symmetry_multiplicity
 _atom_site_fract_x
 _atom_site_fract_y
 _atom_site_fract_z
 _atom_site_occupancy
  Li  Li0  1  0.22399012  0.88998587  0.38310329  1
  Li  Li1  1  0.41949047  0.29933508  0.80747844  1
  Li  Li2  1  0.50000000  0.50000000  0.50000000  1
  Li  Li3  1  0.58050953  0.70066492  0.19252156  1
  Li  Li4  1  0.77600988  0.11001413  0.61689671  1
  Cu  Cu5  1  0.00000000  0.50000000  0.00000000  1
  Cu  Cu6  1  0.70823026  0.88808282  0.89840541  1
  Cu  Cu7  1  0.29176974  0.11191718  0.10159459  1
  Sb  Sb8  1  0.10911415  0.69468198  0.70089204  1
  Sb  Sb9  1  0.89088585  0.30531802  0.29910796  1
  O  O10  1  0.05695150  0.03078498  0.82979154  1
  O  O11  1  0.35708203  0.66781309  0.92708852  1
  O  O12  1  0.13789348  0.33759691  0.55053008  1
  O  O13  1  0.21294158  0.52109183  0.24957423  1
  O  O14  1  0.44582112  0.88996630  0.65905921  1
  O  O15  1  0.55417888  0.11003370  0.34094079  1
  O  O16  1  0.78705842  0.47890817  0.75042577  1
  O  O17  1  0.86210652  0.66240309  0.44946992  1
  O  O18  1  0.64291797  0.33218691  0.07291148  1
  O  O19  1  0.94304850  0.96921502  0.17020846  1
