# generated using pymatgen
data_Ba6Bi6O17
_symmetry_space_group_name_H-M   'P 1'
_cell_length_a   8.69550606
_cell_length_b   10.92870445
_cell_length_c   6.33803422
_cell_angle_alpha   73.14293952
_cell_angle_beta   90.00342456
_cell_angle_gamma   113.44295250
_symmetry_Int_Tables_number   1
_chemical_formula_structural   Ba6Bi6O17
_chemical_formula_sum   'Ba6 Bi6 O17'
_cell_volume   524.26660405
_cell_formula_units_Z   1
loop_
 _symmetry_equiv_pos_site_id
 _symmetry_equiv_pos_as_xyz
  1  'x, y, z'
loop_
 _atom_site_type_symbol
 _atom_site_label
 _atom_site_symmetry_multiplicity
 _atom_site_fract_x
 _atom_site_fract_y
 _atom_site_fract_z
 _atom_site_occupancy
  Ba  Ba0  1  0.50000000  0.00000000  0.00000000  1
  Ba  Ba1  1  0.82247141  0.64478508  0.67796406  1
  Ba  Ba2  1  0.66791400  0.33616339  0.33146204  1
  Ba  Ba3  1  0.00000000  0.00000000  0.00000000  1
  Ba  Ba4  1  0.33208600  0.66383661  0.66853796  1
  Ba  Ba5  1  0.17752859  0.35521492  0.32203594  1
  Bi  Bi6  1  0.75182051  0.00001736  0.49998558  1
  Bi  Bi7  1  0.91720434  0.33144247  0.83419859  1
  Bi  Bi8  1  0.24817949  -0.00001736  0.50001442  1
  Bi  Bi9  1  0.41426451  0.33145493  0.83416526  1
  Bi  Bi10  1  0.58573549  0.66854507  0.16583474  1
  Bi  Bi11  1  0.08279566  0.66855753  0.16580141  1
  O  O12  1  0.83905526  0.16596557  0.66954309  1
  O  O13  1  0.83922635  0.16611212  0.16459757  1
  O  O14  1  0.66751743  0.33509411  0.83266725  1
  O  O15  1  0.50000000  0.00000000  0.50000000  1
  O  O16  1  0.83239259  0.66487722  0.16740336  1
  O  O17  1  0.32701043  0.16611261  0.66945559  1
  O  O18  1  0.32707632  0.16621790  0.16442594  1
  O  O19  1  0.50000000  0.50000000  0.50000000  1
  O  O20  1  0.50000000  0.50000000  0.00000000  1
  O  O21  1  0.67292368  0.83378210  0.83557406  1
  O  O22  1  0.67298957  0.83388739  0.33054441  1
  O  O23  1  0.16760741  0.33512278  0.83259664  1
  O  O24  1  0.33248257  0.66490589  0.16733275  1
  O  O25  1  0.00000000  0.50000000  0.50000000  1
  O  O26  1  0.16077365  0.83388788  0.83540243  1
  O  O27  1  0.16094474  0.83403443  0.33045691  1
  O  O28  1  0.00000000  0.50000000  0.00000000  1
