# generated using pymatgen
data_Ca3Al4Si8(ClO12)2
_symmetry_space_group_name_H-M   'P 1'
_cell_length_a   9.48640573
_cell_length_b   9.41719808
_cell_length_c   9.57448482
_cell_angle_alpha   94.21019598
_cell_angle_beta   95.54620426
_cell_angle_gamma   95.18288299
_symmetry_Int_Tables_number   1
_chemical_formula_structural   Ca3Al4Si8(ClO12)2
_chemical_formula_sum   'Ca3 Al4 Si8 Cl2 O24'
_cell_volume   844.93869109
_cell_formula_units_Z   1
loop_
 _symmetry_equiv_pos_site_id
 _symmetry_equiv_pos_as_xyz
  1  'x, y, z'
loop_
 _atom_site_type_symbol
 _atom_site_label
 _atom_site_symmetry_multiplicity
 _atom_site_fract_x
 _atom_site_fract_y
 _atom_site_fract_z
 _atom_site_occupancy
  Ca  Ca0  1  0.02194431  0.02160251  0.94619325  1
  Ca  Ca1  1  0.25124294  0.21862501  0.20643081  1
  Ca  Ca2  1  0.79009951  0.75933411  0.76560428  1
  Al  Al3  1  0.11501253  0.89839197  0.66557639  1
  Al  Al4  1  0.11270086  0.33064018  0.89141469  1
  Al  Al5  1  0.34306647  0.88027702  0.11316039  1
  Al  Al6  1  0.67706332  0.11626282  0.89015698  1
  Si  Si7  1  0.11779091  0.67322084  0.90475175  1
  Si  Si8  1  0.12396544  0.89666516  0.32850877  1
  Si  Si9  1  0.33099753  0.11592705  0.89218306  1
  Si  Si10  1  0.69222593  0.89275823  0.11472276  1
  Si  Si11  1  0.88316759  0.10752940  0.66606789  1
  Si  Si12  1  0.90887287  0.67536624  0.12377614  1
  Si  Si13  1  0.89364808  0.11014334  0.33008294  1
  Si  Si14  1  0.89460570  0.32924030  0.11258203  1
  Cl  Cl15  1  0.76888747  0.58103945  0.56559882  1
  Cl  Cl16  1  0.45044291  0.35845458  0.35025450  1
  O  O17  1  0.99736604  0.21044180  0.77548863  1
  O  O18  1  0.11114855  0.75186488  0.76230339  1
  O  O19  1  0.04647061  0.27882707  0.05700204  1
  O  O20  1  0.04591475  0.04760027  0.28654273  1
  O  O21  1  0.09708912  0.50457243  0.87226883  1
  O  O22  1  0.12907835  0.87978432  0.49103767  1
  O  O23  1  0.27931745  0.92236989  0.27552272  1
  O  O24  1  0.28312579  0.27607043  0.92645083  1
  O  O25  1  0.22467554  0.03454317  0.76363004  1
  O  O26  1  0.24473264  0.73179927  0.02283562  1
  O  O27  1  0.27646336  0.03486530  0.03277747  1
  O  O28  1  0.52369613  0.87599255  0.10873385  1
  O  O29  1  0.49596264  0.10616156  0.88402860  1
  O  O30  1  0.75026425  0.95700634  0.96777217  1
  O  O31  1  0.76423075  0.99845180  0.25284107  1
  O  O32  1  0.75267913  0.73421514  0.12229649  1
  O  O33  1  0.72685291  0.10239453  0.71815402  1
  O  O34  1  0.76699217  0.25781590  0.00136756  1
  O  O35  1  0.89242191  0.12879444  0.49930177  1
  O  O36  1  0.90003668  0.50373261  0.13141703  1
  O  O37  1  0.96196897  0.72243905  0.96896847  1
  O  O38  1  0.93779742  0.94705547  0.69970082  1
  O  O39  1  0.89340764  0.26674390  0.26857225  1
  O  O40  1  0.02257286  0.76097965  0.24392046  1
