# generated using pymatgen
data_ZrTi2O6
_symmetry_space_group_name_H-M   'P 1'
_cell_length_a   4.74412396
_cell_length_b   5.67317384
_cell_length_c   15.18740769
_cell_angle_alpha   89.95773931
_cell_angle_beta   89.10532499
_cell_angle_gamma   89.93917144
_symmetry_Int_Tables_number   1
_chemical_formula_structural   ZrTi2O6
_chemical_formula_sum   'Zr4 Ti8 O24'
_cell_volume   408.70736563
_cell_formula_units_Z   4
loop_
 _symmetry_equiv_pos_site_id
 _symmetry_equiv_pos_as_xyz
  1  'x, y, z'
loop_
 _atom_site_type_symbol
 _atom_site_label
 _atom_site_symmetry_multiplicity
 _atom_site_fract_x
 _atom_site_fract_y
 _atom_site_fract_z
 _atom_site_occupancy
  Zr  Zr0  1  0.00451776  0.17861147  0.07935045  1
  Zr  Zr1  1  0.00172114  0.18937857  0.75171339  1
  Zr  Zr2  1  0.99597493  0.81039850  0.58273680  1
  Zr  Zr3  1  0.50127887  0.32138632  0.25308430  1
  Ti  Ti4  1  0.00107621  0.18430339  0.41873168  1
  Ti  Ti5  1  0.99420855  0.82143903  0.25136549  1
  Ti  Ti6  1  0.00095101  0.80958973  0.91557894  1
  Ti  Ti7  1  0.49930244  0.32554038  0.58115142  1
  Ti  Ti8  1  0.49762698  0.67826596  0.08213358  1
  Ti  Ti9  1  0.50646391  0.32198805  0.91750922  1
  Ti  Ti10  1  0.49555345  0.68402931  0.41487211  1
  Ti  Ti11  1  0.49848279  0.67429583  0.75166543  1
  O  O12  1  0.20041907  0.11210637  0.31064953  1
  O  O13  1  0.23759573  0.11558055  0.63531276  1
  O  O14  1  0.24545517  0.88007459  0.14225990  1
  O  O15  1  0.24166922  0.11101514  0.96547502  1
  O  O16  1  0.22812341  0.88700277  0.46761515  1
  O  O17  1  0.22891033  0.87380955  0.80663804  1
  O  O18  1  0.26807868  0.62593600  0.30847992  1
  O  O19  1  0.25443894  0.38435491  0.47469481  1
  O  O20  1  0.30089946  0.39192038  0.81170864  1
  O  O21  1  0.27666019  0.60356040  0.64777085  1
  O  O22  1  0.26606537  0.62203274  0.97493802  1
  O  O23  1  0.28687803  0.39903075  0.13809568  1
  O  O24  1  0.70942347  0.39279522  0.02331901  1
  O  O25  1  0.74421828  0.62167442  0.19131488  1
  O  O26  1  0.72220805  0.39526581  0.68518001  1
  O  O27  1  0.73412378  0.38709546  0.36634820  1
  O  O28  1  0.69268383  0.61367662  0.52228551  1
  O  O29  1  0.74575396  0.61373686  0.85738717  1
  O  O30  1  0.78627151  0.09855437  0.19496883  1
  O  O31  1  0.77512091  0.87128932  0.02431020  1
  O  O32  1  0.76580305  0.12237549  0.52619709  1
  O  O33  1  0.76046095  0.87808784  0.35911655  1
  O  O34  1  0.76030507  0.88588122  0.69855629  1
  O  O35  1  0.77127346  0.11391668  0.86748611  1
