# generated using pymatgen
data_DyGaO3
_symmetry_space_group_name_H-M   'P 1'
_cell_length_a   5.30715281
_cell_length_b   5.59716506
_cell_length_c   7.63873974
_cell_angle_alpha   90.00000000
_cell_angle_beta   90.00000000
_cell_angle_gamma   90.00000000
_symmetry_Int_Tables_number   1
_chemical_formula_structural   DyGaO3
_chemical_formula_sum   'Dy4 Ga4 O12'
_cell_volume   226.90884247
_cell_formula_units_Z   4
loop_
 _symmetry_equiv_pos_site_id
 _symmetry_equiv_pos_as_xyz
  1  'x, y, z'
loop_
 _atom_site_type_symbol
 _atom_site_label
 _atom_site_symmetry_multiplicity
 _atom_site_fract_x
 _atom_site_fract_y
 _atom_site_fract_z
 _atom_site_occupancy
  Dy  Dy0  1  0.48158932  0.06768067  0.25000000  1
  Dy  Dy1  1  0.01841068  0.56768067  0.25000000  1
  Dy  Dy2  1  0.51841068  0.93231933  0.75000000  1
  Dy  Dy3  1  0.98158932  0.43231933  0.75000000  1
  Ga  Ga4  1  0.50000000  0.50000000  0.50000000  1
  Ga  Ga5  1  -0.00000000  0.00000000  0.00000000  1
  Ga  Ga6  1  0.50000000  0.50000000  0.00000000  1
  Ga  Ga7  1  -0.00000000  -0.00000000  0.50000000  1
  O  O8  1  0.39038800  0.53744219  0.75000000  1
  O  O9  1  0.10961200  0.03744219  0.75000000  1
  O  O10  1  0.60961200  0.46255781  0.25000000  1
  O  O11  1  0.89038800  0.96255781  0.25000000  1
  O  O12  1  0.80572527  0.69548057  0.55611557  1
  O  O13  1  0.69427473  0.19548057  0.94388443  1
  O  O14  1  0.19427473  0.30451943  0.05611557  1
  O  O15  1  0.30572527  0.80451943  0.44388443  1
  O  O16  1  0.19427473  0.30451943  0.44388443  1
  O  O17  1  0.30572527  0.80451943  0.05611557  1
  O  O18  1  0.80572527  0.69548057  0.94388443  1
  O  O19  1  0.69427473  0.19548057  0.55611557  1
