# generated using pymatgen
data_Ta7(P2O7)8
_symmetry_space_group_name_H-M   'P 1'
_cell_length_a   11.83698227
_cell_length_b   11.78461160
_cell_length_c   11.78461160
_cell_angle_alpha   60.29423036
_cell_angle_beta   59.85288484
_cell_angle_gamma   90.00000003
_symmetry_Int_Tables_number   1
_chemical_formula_structural   Ta7(P2O7)8
_chemical_formula_sum   'Ta7 P16 O56'
_cell_volume   1164.96523689
_cell_formula_units_Z   1
loop_
 _symmetry_equiv_pos_site_id
 _symmetry_equiv_pos_as_xyz
  1  'x, y, z'
loop_
 _atom_site_type_symbol
 _atom_site_label
 _atom_site_symmetry_multiplicity
 _atom_site_fract_x
 _atom_site_fract_y
 _atom_site_fract_z
 _atom_site_occupancy
  Ta  Ta0  1  0.00000000  0.00000000  0.50000000  1
  Ta  Ta1  1  0.00000000  0.50000000  0.00000000  1
  Ta  Ta2  1  0.50000000  0.00000000  0.00000000  1
  Ta  Ta3  1  0.50000000  0.00000000  0.50000000  1
  Ta  Ta4  1  0.50000000  0.50000000  0.00000000  1
  Ta  Ta5  1  0.00000000  0.50000000  0.50000000  1
  Ta  Ta6  1  0.50000000  0.50000000  0.50000000  1
  P  P7  1  0.30375065  0.19879948  0.10521309  1
  P  P8  1  0.69725363  0.07964374  0.11309631  1
  P  P9  1  0.07964374  0.18965106  0.61760989  1
  P  P10  1  0.19879948  0.59103626  0.10495117  1
  P  P11  1  0.40896374  0.30375065  0.39223678  1
  P  P12  1  0.80536279  0.19463721  0.38927342  1
  P  P13  1  0.18965106  0.30274637  0.88999268  1
  P  P14  1  0.30487313  0.69512687  0.39025374  1
  P  P15  1  0.69512687  0.30487313  0.60974626  1
  P  P16  1  0.81034894  0.69725363  0.11000732  1
  P  P17  1  0.19463721  0.80536279  0.61072658  1
  P  P18  1  0.59103626  0.69624935  0.60776322  1
  P  P19  1  0.80120052  0.40896374  0.89504883  1
  P  P20  1  0.92035626  0.81034894  0.38239011  1
  P  P21  1  0.30274637  0.92035626  0.88690369  1
  P  P22  1  0.69624935  0.80120052  0.89478691  1
  O  O23  1  0.25662641  0.26300573  0.99197313  1
  O  O24  1  0.37655284  0.09819568  0.08023802  1
  O  O25  1  0.18018842  0.12448393  0.27952858  1
  O  O26  1  0.61232310  0.03995081  0.06227279  1
  O  O27  1  0.04021056  0.12715858  0.54629608  1
  O  O28  1  0.12448393  0.54028300  0.05570548  1
  O  O29  1  0.40537246  0.32013695  0.05924459  1
  O  O30  1  0.09819568  0.54321013  0.27835716  1
  O  O31  1  0.58650664  0.04021056  0.28633478  1
  O  O32  1  0.03232385  0.09183270  0.78319886  1
  O  O33  1  0.81552272  0.03232385  0.09264358  1
  O  O34  1  0.03995081  0.32540411  0.57237229  1
  O  O35  1  0.32013695  0.53538296  0.08523451  1
  O  O36  1  0.73699427  0.24859954  0.00637932  1
  O  O37  1  0.24859954  0.25662641  0.48839373  1
  O  O38  1  0.26300573  0.75140046  0.99362068  1
  O  O39  1  0.45971700  0.18018842  0.41580007  1
  O  O40  1  0.46461704  0.40537246  0.21524601  1
  O  O41  1  0.68063913  0.09518607  0.44192980  1
  O  O42  1  0.18030757  0.59371029  0.44466520  1
  O  O43  1  0.09183270  0.18447728  0.94049115  1
  O  O44  1  0.45678987  0.37655284  0.44501445  1
  O  O45  1  0.87743107  0.31936087  0.21775500  1
  O  O46  1  0.32540411  0.38767690  0.71454570  1
  O  O47  1  0.37502722  0.81969243  0.21868307  1
  O  O48  1  0.40628971  0.62497278  0.41340272  1
  O  O49  1  0.90481393  0.12256893  0.41454693  1
  O  O50  1  0.12715858  0.41349336  0.91305098  1
  O  O51  1  0.24979992  0.75020008  0.50040015  1
  O  O52  1  0.74337359  0.73699427  0.00802687  1
  O  O53  1  0.75020008  0.24979992  0.49959985  1
  O  O54  1  0.09518607  0.87743107  0.58545307  1
  O  O55  1  0.87284142  0.58650664  0.08694902  1
  O  O56  1  0.59371029  0.37502722  0.58659728  1
  O  O57  1  0.67459589  0.61232310  0.28545430  1
  O  O58  1  0.62497278  0.18030757  0.78131693  1
  O  O59  1  0.12256893  0.68063913  0.78224500  1
  O  O60  1  0.54321013  0.62344716  0.55498555  1
  O  O61  1  0.90816730  0.81552272  0.05950885  1
  O  O62  1  0.31936087  0.90481393  0.55807020  1
  O  O63  1  0.81969243  0.40628971  0.55533480  1
  O  O64  1  0.53538296  0.59462754  0.78475399  1
  O  O65  1  0.54028300  0.81981158  0.58419993  1
  O  O66  1  0.75140046  0.74337359  0.51160627  1
  O  O67  1  0.67986305  0.46461704  0.91476549  1
  O  O68  1  0.18447728  0.96767615  0.90735642  1
  O  O69  1  0.96004919  0.67459589  0.42762771  1
  O  O70  1  0.96767615  0.90816730  0.21680114  1
  O  O71  1  0.90180432  0.45678987  0.72164284  1
  O  O72  1  0.41349336  0.95978944  0.71366522  1
  O  O73  1  0.59462754  0.67986305  0.94075541  1
  O  O74  1  0.38767690  0.96004919  0.93772721  1
  O  O75  1  0.87551607  0.45971700  0.94429452  1
  O  O76  1  0.95978944  0.87284142  0.45370392  1
  O  O77  1  0.81981158  0.87551607  0.72047142  1
  O  O78  1  0.62344716  0.90180432  0.91976198  1
