# generated using pymatgen
data_LiCu3O4
_symmetry_space_group_name_H-M   'P 1'
_cell_length_a   5.71884025
_cell_length_b   6.39877901
_cell_length_c   5.71884027
_cell_angle_alpha   61.06010582
_cell_angle_beta   94.75476645
_cell_angle_gamma   118.93989992
_symmetry_Int_Tables_number   1
_chemical_formula_structural   LiCu3O4
_chemical_formula_sum   'Li2 Cu6 O8'
_cell_volume   157.11428582
_cell_formula_units_Z   2
loop_
 _symmetry_equiv_pos_site_id
 _symmetry_equiv_pos_as_xyz
  1  'x, y, z'
loop_
 _atom_site_type_symbol
 _atom_site_label
 _atom_site_symmetry_multiplicity
 _atom_site_fract_x
 _atom_site_fract_y
 _atom_site_fract_z
 _atom_site_occupancy
  Li  Li0  1  0.00000000  0.00000000  0.50000000  1
  Li  Li1  1  0.00000000  0.50000000  0.50000000  1
  Cu  Cu2  1  0.00000000  0.00000000  0.00000000  1
  Cu  Cu3  1  0.50000000  0.00000000  0.00000000  1
  Cu  Cu4  1  0.00000000  0.50000000  0.00000000  1
  Cu  Cu5  1  0.50000000  0.00000000  0.50000000  1
  Cu  Cu6  1  0.50000000  0.50000000  0.00000000  1
  Cu  Cu7  1  0.50000000  0.50000000  0.50000000  1
  O  O8  1  0.25046367  0.95671482  0.24663060  1
  O  O9  1  0.66111659  0.90248239  0.31688203  1
  O  O10  1  0.25336940  0.45671482  0.24953633  1
  O  O11  1  0.81688203  0.59751761  0.16111659  1
  O  O12  1  0.18311797  0.40248239  0.83888341  1
  O  O13  1  0.74663060  0.54328518  0.75046367  1
  O  O14  1  0.33888341  0.09751761  0.68311797  1
  O  O15  1  0.74953633  0.04328518  0.75336940  1
