# generated using pymatgen
data_Li2Ag3F6
_symmetry_space_group_name_H-M   'P 1'
_cell_length_a   3.85698232
_cell_length_b   3.84286941
_cell_length_c   10.06562832
_cell_angle_alpha   82.62684294
_cell_angle_beta   75.43901143
_cell_angle_gamma   90.38777716
_symmetry_Int_Tables_number   1
_chemical_formula_structural   Li2Ag3F6
_chemical_formula_sum   'Li2 Ag3 F6'
_cell_volume   143.08715540
_cell_formula_units_Z   1
loop_
 _symmetry_equiv_pos_site_id
 _symmetry_equiv_pos_as_xyz
  1  'x, y, z'
loop_
 _atom_site_type_symbol
 _atom_site_label
 _atom_site_symmetry_multiplicity
 _atom_site_fract_x
 _atom_site_fract_y
 _atom_site_fract_z
 _atom_site_occupancy
  Li  Li0  1  0.56243729  0.63581424  0.80179565  1
  Li  Li1  1  0.43754231  0.36406895  0.19814338  1
  Ag  Ag2  1  -0.00097919  0.00033010  0.00080319  1
  Ag  Ag3  1  0.82988665  0.80351487  0.36621649  1
  Ag  Ag4  1  0.16750567  0.19654745  0.63369768  1
  F  F5  1  0.97517636  0.36163744  0.15073622  1
  F  F6  1  0.69567426  0.69768586  0.60725511  1
  F  F7  1  0.51313542  0.12588111  0.84988309  1
  F  F8  1  0.48821440  0.87459660  0.14944354  1
  F  F9  1  0.30662265  0.30268653  0.39299479  1
  F  F10  1  0.02478617  0.63723786  0.84903086  1
