# generated using pymatgen
data_TiNb2O7
_symmetry_space_group_name_H-M   'P 1'
_cell_length_a   11.52320099
_cell_length_b   10.56787408
_cell_length_c   3.82796980
_cell_angle_alpha   100.43462881
_cell_angle_beta   99.56104947
_cell_angle_gamma   66.65761677
_symmetry_Int_Tables_number   1
_chemical_formula_structural   TiNb2O7
_chemical_formula_sum   'Ti3 Nb6 O21'
_cell_volume   418.61915763
_cell_formula_units_Z   3
loop_
 _symmetry_equiv_pos_site_id
 _symmetry_equiv_pos_as_xyz
  1  'x, y, z'
loop_
 _atom_site_type_symbol
 _atom_site_label
 _atom_site_symmetry_multiplicity
 _atom_site_fract_x
 _atom_site_fract_y
 _atom_site_fract_z
 _atom_site_occupancy
  Ti  Ti0  1  0.35859929  0.48335212  0.92097571  1
  Ti  Ti1  1  0.00197406  0.99828437  0.00012921  1
  Ti  Ti2  1  0.63658816  0.78116906  0.70887911  1
  Nb  Nb3  1  0.36807216  0.84518177  0.10662697  1
  Nb  Nb4  1  -0.00008222  0.36182886  0.18087332  1
  Nb  Nb5  1  0.36598390  0.22223906  0.29411198  1
  Nb  Nb6  1  0.63205365  0.52201804  0.07703585  1
  Nb  Nb7  1  0.99647243  0.63991350  0.81819296  1
  Nb  Nb8  1  0.63718304  0.14330732  0.89024518  1
  O  O9  1  0.19709718  0.90235742  0.04972780  1
  O  O10  1  0.00345492  0.41287031  0.70816262  1
  O  O11  1  0.18952741  0.56002031  0.87477436  1
  O  O12  1  0.42006564  0.83554362  0.62780463  1
  O  O13  1  0.01589422  0.18256498  0.09922960  1
  O  O14  1  0.61841482  0.96494492  0.79168037  1
  O  O15  1  0.41661918  0.63169851  0.02415935  1
  O  O16  1  0.19239101  0.30587143  0.24913172  1
  O  O17  1  0.00020460  0.00051154  0.50035807  1
  O  O18  1  0.59797131  0.74864780  0.17330905  1
  O  O19  1  0.37627547  0.42910353  0.40268950  1
  O  O20  1  0.62180614  0.57346926  0.59763720  1
  O  O21  1  0.40377590  0.25091688  0.82734639  1
  O  O22  1  0.80410321  0.69639730  0.75025075  1
  O  O23  1  0.58500625  0.36583039  0.97541832  1
  O  O24  1  0.38348031  0.03568489  0.20958260  1
  O  O25  1  0.98467230  0.81839174  0.90153202  1
  O  O26  1  0.58022645  0.16629007  0.37325826  1
  O  O27  1  0.80944839  0.43974088  0.12459513  1
  O  O28  1  0.99632254  0.58508967  0.29070660  1
  O  O29  1  0.80639629  0.09675744  0.95157737  1
