# generated using pymatgen
data_LiCuPO4
_symmetry_space_group_name_H-M   'P 1'
_cell_length_a   9.82987850
_cell_length_b   14.00339838
_cell_length_c   4.94276216
_cell_angle_alpha   90.00000000
_cell_angle_beta   90.00000000
_cell_angle_gamma   90.00000000
_symmetry_Int_Tables_number   1
_chemical_formula_structural   LiCuPO4
_chemical_formula_sum   'Li8 Cu8 P8 O32'
_cell_volume   680.37963707
_cell_formula_units_Z   8
loop_
 _symmetry_equiv_pos_site_id
 _symmetry_equiv_pos_as_xyz
  1  'x, y, z'
loop_
 _atom_site_type_symbol
 _atom_site_label
 _atom_site_symmetry_multiplicity
 _atom_site_fract_x
 _atom_site_fract_y
 _atom_site_fract_z
 _atom_site_occupancy
  Li  Li0  1  0.03322555  0.75181739  0.05253139  1
  Li  Li1  1  0.22016878  0.00319023  0.56138728  1
  Li  Li2  1  0.27983122  0.50319023  0.56138728  1
  Li  Li3  1  0.46677445  0.25181739  0.05253139  1
  Li  Li4  1  0.53322555  0.75181739  0.94746861  1
  Li  Li5  1  0.72016878  0.00319023  0.43861272  1
  Li  Li6  1  0.77983122  0.50319023  0.43861272  1
  Li  Li7  1  0.96677445  0.25181739  0.94746861  1
  Cu  Cu8  1  0.02559147  0.49990698  0.94553605  1
  Cu  Cu9  1  0.22738332  0.75269091  0.54455277  1
  Cu  Cu10  1  0.27261668  0.25269091  0.54455277  1
  Cu  Cu11  1  0.47440853  -0.00009302  0.94553605  1
  Cu  Cu12  1  0.52559147  0.49990698  0.05446395  1
  Cu  Cu13  1  0.72738332  0.75269091  0.45544723  1
  Cu  Cu14  1  0.77261668  0.25269091  0.45544723  1
  Cu  Cu15  1  0.97440853  -0.00009302  0.05446395  1
  P  P16  1  0.03243523  0.37651705  0.44122497  1
  P  P17  1  0.21470171  0.12721331  0.06869226  1
  P  P18  1  0.28529829  0.62721331  0.06869226  1
  P  P19  1  0.46756477  0.87651705  0.44122497  1
  P  P20  1  0.53243523  0.37651705  0.55877503  1
  P  P21  1  0.71470171  0.12721331  0.93130774  1
  P  P22  1  0.78529829  0.62721331  0.93130774  1
  P  P23  1  0.96756477  0.87651705  0.55877503  1
  O  O24  1  0.98958733  0.87618091  0.87169607  1
  O  O25  1  0.96660673  0.46815170  0.55941401  1
  O  O26  1  0.03227604  0.78433907  0.44202968  1
  O  O27  1  0.05785717  0.12610971  0.01810280  1
  O  O28  1  0.18634742  0.37774606  0.51227956  1
  O  O29  1  0.22515606  0.53473695  0.94349732  1
  O  O30  1  0.27411607  0.21942902  0.94263689  1
  O  O31  1  0.24666397  0.12757073  0.37670627  1
  O  O32  1  0.25333603  0.62757073  0.37670627  1
  O  O33  1  0.22588393  0.71942902  0.94263689  1
  O  O34  1  0.27484394  0.03473695  0.94349732  1
  O  O35  1  0.31365258  0.87774606  0.51227956  1
  O  O36  1  0.44214283  0.62610971  0.01810280  1
  O  O37  1  0.46772396  0.28433907  0.44202968  1
  O  O38  1  0.53339327  0.96815170  0.55941401  1
  O  O39  1  0.51041267  0.37618091  0.87169607  1
  O  O40  1  0.48958733  0.87618091  0.12830393  1
  O  O41  1  0.46660673  0.46815170  0.44058599  1
  O  O42  1  0.53227604  0.78433907  0.55797032  1
  O  O43  1  0.55785717  0.12610971  0.98189720  1
  O  O44  1  0.68634742  0.37774606  0.48772044  1
  O  O45  1  0.72515606  0.53473695  0.05650268  1
  O  O46  1  0.77411607  0.21942902  0.05736311  1
  O  O47  1  0.74666397  0.12757073  0.62329373  1
  O  O48  1  0.75333603  0.62757073  0.62329373  1
  O  O49  1  0.72588393  0.71942902  0.05736311  1
  O  O50  1  0.77484394  0.03473695  0.05650268  1
  O  O51  1  0.81365258  0.87774606  0.48772044  1
  O  O52  1  0.94214283  0.62610971  0.98189720  1
  O  O53  1  0.96772396  0.28433907  0.55797032  1
  O  O54  1  0.03339327  0.96815170  0.44058599  1
  O  O55  1  0.01041267  0.37618091  0.12830393  1
