# generated using pymatgen
data_Li3Fe(BO2)5
_symmetry_space_group_name_H-M   'P 1'
_cell_length_a   6.97547431
_cell_length_b   7.12291431
_cell_length_c   9.42600195
_cell_angle_alpha   80.67781783
_cell_angle_beta   68.92474489
_cell_angle_gamma   61.97090192
_symmetry_Int_Tables_number   1
_chemical_formula_structural   Li3Fe(BO2)5
_chemical_formula_sum   'Li6 Fe2 B10 O20'
_cell_volume   385.73873625
_cell_formula_units_Z   2
loop_
 _symmetry_equiv_pos_site_id
 _symmetry_equiv_pos_as_xyz
  1  'x, y, z'
loop_
 _atom_site_type_symbol
 _atom_site_label
 _atom_site_symmetry_multiplicity
 _atom_site_fract_x
 _atom_site_fract_y
 _atom_site_fract_z
 _atom_site_occupancy
  Li  Li0  1  0.23833658  0.49652923  0.24953585  1
  Li  Li1  1  0.80308092  0.00695474  0.16593940  1
  Li  Li2  1  0.02561704  0.18523409  0.46375002  1
  Li  Li3  1  0.97438296  0.81476591  0.53624998  1
  Li  Li4  1  0.19691908  0.99304526  0.83406060  1
  Li  Li5  1  0.76166342  0.50347077  0.75046415  1
  Fe  Fe6  1  0.21485901  0.52454123  0.88200953  1
  Fe  Fe7  1  0.78514099  0.47545877  0.11799047  1
  B  B8  1  0.30708608  0.80854702  0.07260178  1
  B  B9  1  0.41042451  0.85905341  0.29095139  1
  B  B10  1  0.36131548  0.75528630  0.56783576  1
  B  B11  1  0.21831547  0.16884844  0.13570211  1
  B  B12  1  0.74295211  0.71804308  0.39720361  1
  B  B13  1  0.25704789  0.28195692  0.60279639  1
  B  B14  1  0.78168453  0.83115156  0.86429789  1
  B  B15  1  0.63868452  0.24471370  0.43216424  1
  B  B16  1  0.58957549  0.14094659  0.70904861  1
  B  B17  1  0.69291392  0.19145298  0.92739822  1
  O  O18  1  0.27896761  0.69797828  0.98853431  1
  O  O19  1  0.27185248  0.84194485  0.44808798  1
  O  O20  1  0.40773680  0.72290474  0.18675555  1
  O  O21  1  0.21684622  0.75295401  0.70636922  1
  O  O22  1  0.13224495  0.38011957  0.10634132  1
  O  O23  1  0.65551118  0.78302962  0.27351232  1
  O  O24  1  0.05088156  0.30227821  0.62095582  1
  O  O25  1  0.69315619  0.91274752  0.74643002  1
  O  O26  1  0.59768862  0.68365739  0.53827576  1
  O  O27  1  0.77522618  0.97105632  0.95677455  1
  O  O28  1  0.22477382  0.02894368  0.04322545  1
  O  O29  1  0.40231138  0.31634261  0.46172424  1
  O  O30  1  0.30684381  0.08725248  0.25356998  1
  O  O31  1  0.94911844  0.69772179  0.37904418  1
  O  O32  1  0.34448882  0.21697038  0.72648768  1
  O  O33  1  0.86775505  0.61988043  0.89365868  1
  O  O34  1  0.78315378  0.24704599  0.29363078  1
  O  O35  1  0.59226320  0.27709526  0.81324445  1
  O  O36  1  0.72814752  0.15805515  0.55191202  1
  O  O37  1  0.72103239  0.30202172  0.01146569  1
