# generated using pymatgen
data_LiCuPO4
_symmetry_space_group_name_H-M   'P 1'
_cell_length_a   9.85284006
_cell_length_b   9.98333246
_cell_length_c   16.38568857
_cell_angle_alpha   82.19299087
_cell_angle_beta   90.00000000
_cell_angle_gamma   60.43144895
_symmetry_Int_Tables_number   1
_chemical_formula_structural   LiCuPO4
_chemical_formula_sum   'Li16 Cu16 P16 O64'
_cell_volume   1384.65616429
_cell_formula_units_Z   16
loop_
 _symmetry_equiv_pos_site_id
 _symmetry_equiv_pos_as_xyz
  1  'x, y, z'
loop_
 _atom_site_type_symbol
 _atom_site_label
 _atom_site_symmetry_multiplicity
 _atom_site_fract_x
 _atom_site_fract_y
 _atom_site_fract_z
 _atom_site_occupancy
  Li  Li0  1  0.27014438  0.84721412  0.87269856  1
  Li  Li1  1  0.77090367  0.78457646  0.87389906  1
  Li  Li2  1  0.88264250  0.84721412  0.37269856  1
  Li  Li3  1  0.44451987  0.78457646  0.37389906  1
  Li  Li4  1  0.32481547  0.67171894  0.62273696  1
  Li  Li5  1  0.88268542  0.60840917  0.62123032  1
  Li  Li6  1  0.00346560  0.67171894  0.12273696  1
  Li  Li7  1  0.50890541  0.60840917  0.12123032  1
  Li  Li8  1  0.27282058  0.34709592  0.87367256  1
  Li  Li9  1  0.77048874  0.28639353  0.87193629  1
  Li  Li10  1  0.38008349  0.34709592  0.37367256  1
  Li  Li11  1  0.94311773  0.28639353  0.37193629  1
  Li  Li12  1  0.82651879  0.16811524  0.62136090  1
  Li  Li13  1  0.38212951  0.11251326  0.62125415  1
  Li  Li14  1  0.00536597  0.16811524  0.12136090  1
  Li  Li15  1  0.50535723  0.11251326  0.12125415  1
  Cu  Cu16  1  0.81509891  0.98857069  0.99793359  1
  Cu  Cu17  1  0.19633040  0.98857069  0.49793359  1
  Cu  Cu18  1  0.57932560  0.72096618  0.74797660  1
  Cu  Cu19  1  0.07627794  0.67019372  0.75116257  1
  Cu  Cu20  1  0.31398416  0.54404776  0.99959560  1
  Cu  Cu21  1  0.69970822  0.72096618  0.24797660  1
  Cu  Cu22  1  0.81484111  0.48675473  0.99741856  1
  Cu  Cu23  1  0.25352835  0.67019372  0.25116257  1
  Cu  Cu24  1  0.14196808  0.54404776  0.49959560  1
  Cu  Cu25  1  0.69840416  0.48675473  0.49741856  1
  Cu  Cu26  1  0.57256694  0.22593456  0.74808183  1
  Cu  Cu27  1  0.08230579  0.16481379  0.74972054  1
  Cu  Cu28  1  0.31583490  0.04385189  0.99857319  1
  Cu  Cu29  1  0.20149950  0.22593456  0.24808183  1
  Cu  Cu30  1  0.75288042  0.16481379  0.24972054  1
  Cu  Cu31  1  0.64031320  0.04385189  0.49857319  1
  P  P32  1  0.91400970  0.98547740  0.80840150  1
  P  P33  1  0.10051290  0.98547740  0.30840150  1
  P  P34  1  0.98335410  0.85037282  0.55968224  1
  P  P35  1  0.54167068  0.79372796  0.55922940  1
  P  P36  1  0.16627308  0.85037282  0.05968224  1
  P  P37  1  0.66460136  0.79372796  0.05922940  1
  P  P38  1  0.41615814  0.53946547  0.81008585  1
  P  P39  1  0.91701515  0.48252018  0.80805886  1
  P  P40  1  0.04437639  0.53946547  0.31008585  1
  P  P41  1  0.60046367  0.48252018  0.30805886  1
  P  P42  1  0.48263432  0.35154933  0.56052003  1
  P  P43  1  0.04240082  0.29421536  0.55824620  1
  P  P44  1  0.16581634  0.35154933  0.06052003  1
  P  P45  1  0.66338383  0.29421536  0.05824620  1
  P  P46  1  0.41738235  0.03593140  0.80974858  1
  P  P47  1  0.54668625  0.03593140  0.30974858  1
  O  O48  1  0.33873805  0.99894257  0.88458326  1
  O  O49  1  0.07758393  0.96866648  0.79677243  1
  O  O50  1  0.57780845  0.89258869  0.79955096  1
  O  O51  1  0.74328337  0.83544110  0.98559010  1
  O  O52  1  0.66231938  0.99894257  0.38458326  1
  O  O53  1  0.55677709  0.93632541  0.57389505  1
  O  O54  1  0.23527141  0.77506044  0.98194971  1
  O  O55  1  0.92997005  0.82094571  0.81803022  1
  O  O56  1  0.95374859  0.96866648  0.29677243  1
  O  O57  1  0.13257406  0.86413000  0.57258295  1
  O  O58  1  0.52960286  0.89258869  0.29955096  1
  O  O59  1  0.42127453  0.83544110  0.48559010  1
  O  O60  1  0.50689750  0.93632541  0.07389505  1
  O  O61  1  0.48064506  0.74238389  0.63830741  1
  O  O62  1  0.97933294  0.74178132  0.63555859  1
  O  O63  1  0.44218653  0.67678750  0.82240311  1
  O  O64  1  0.98966915  0.77506044  0.48194971  1
  O  O65  1  0.24908424  0.82094571  0.31803022  1
  O  O66  1  0.00329594  0.86413000  0.07258295  1
  O  O67  1  0.70347890  0.66059013  0.54160129  1
  O  O68  1  0.84231273  0.55921185  0.88463505  1
  O  O69  1  0.29977557  0.58653340  0.73308828  1
  O  O70  1  0.80526287  0.58992546  0.73093551  1
  O  O71  1  0.77697105  0.74238389  0.13830741  1
  O  O72  1  0.27888574  0.74178132  0.13555859  1
  O  O73  1  0.88102697  0.67678750  0.32240311  1
  O  O74  1  0.34273573  0.49829994  0.88598029  1
  O  O75  1  0.07932474  0.47021237  0.79852564  1
  O  O76  1  0.33854502  0.51788312  0.55057681  1
  O  O77  1  0.63593097  0.66059013  0.04160129  1
  O  O78  1  0.59847542  0.55921185  0.38463505  1
  O  O79  1  0.11369004  0.58653340  0.23308828  1
  O  O80  1  0.60481167  0.58992546  0.23093551  1
  O  O81  1  0.57537340  0.39617962  0.79752051  1
  O  O82  1  0.74095111  0.33592717  0.98399117  1
  O  O83  1  0.15896433  0.49829994  0.38598029  1
  O  O84  1  0.05807221  0.43562348  0.57369679  1
  O  O85  1  0.23903317  0.27511384  0.98370840  1
  O  O86  1  0.93712785  0.31624979  0.81778607  1
  O  O87  1  0.45046289  0.47021237  0.29852564  1
  O  O88  1  0.14357286  0.51788312  0.05057681  1
  O  O89  1  0.63384646  0.36201789  0.57255444  1
  O  O90  1  0.02844698  0.39617962  0.29752051  1
  O  O91  1  0.92312271  0.33592717  0.48399117  1
  O  O92  1  0.50630531  0.43562348  0.07369679  1
  O  O93  1  0.47732344  0.24470908  0.63760332  1
  O  O94  1  0.97936141  0.24302103  0.63617643  1
  O  O95  1  0.48585300  0.27511384  0.48370840  1
  O  O96  1  0.44075530  0.17478809  0.82270491  1
  O  O97  1  0.74662236  0.31624979  0.31778607  1
  O  O98  1  0.00413565  0.36201789  0.07255444  1
  O  O99  1  0.20494374  0.16076584  0.54087797  1
  O  O100  1  0.84482058  0.06075769  0.88617161  1
  O  O101  1  0.79929040  0.09670730  0.73321993  1
  O  O102  1  0.30672446  0.07878808  0.73064687  1
  O  O103  1  0.27796747  0.24470908  0.13760332  1
  O  O104  1  0.77761755  0.24302103  0.13617643  1
  O  O105  1  0.38445661  0.17478809  0.32270491  1
  O  O106  1  0.63429042  0.16076584  0.04087797  1
  O  O107  1  0.83723693  0.01533483  0.55004197  1
  O  O108  1  0.09442073  0.06075769  0.38617161  1
  O  O109  1  0.10400130  0.09670730  0.23321993  1
  O  O110  1  0.61448846  0.07878808  0.23064687  1
  O  O111  1  0.14742924  0.01533483  0.05004197  1
