# generated using pymatgen
data_Sc16O15
_symmetry_space_group_name_H-M   'P 1'
_cell_length_a   6.33913792
_cell_length_b   6.33913792
_cell_length_c   11.00268072
_cell_angle_alpha   106.74259030
_cell_angle_beta   90.00000000
_cell_angle_gamma   60.00000000
_symmetry_Int_Tables_number   1
_chemical_formula_structural   Sc16O15
_chemical_formula_sum   'Sc16 O15'
_cell_volume   361.09915863
_cell_formula_units_Z   1
loop_
 _symmetry_equiv_pos_site_id
 _symmetry_equiv_pos_as_xyz
  1  'x, y, z'
loop_
 _atom_site_type_symbol
 _atom_site_label
 _atom_site_symmetry_multiplicity
 _atom_site_fract_x
 _atom_site_fract_y
 _atom_site_fract_z
 _atom_site_occupancy
  Sc  Sc0  1  0.49870929  0.49783634  0.99912705  1
  Sc  Sc1  1  0.00345337  0.49783634  0.99912705  1
  Sc  Sc2  1  0.75129071  0.49741957  0.25087295  1
  Sc  Sc3  1  0.25019914  0.49960072  0.24940158  1
  Sc  Sc4  1  0.99980086  0.00039928  0.00059842  1
  Sc  Sc5  1  0.49870929  0.00258043  0.99912705  1
  Sc  Sc6  1  0.49974212  0.49965423  0.49905158  1
  Sc  Sc7  1  0.00060265  0.49965423  0.49905158  1
  Sc  Sc8  1  0.75129071  0.00216366  0.25087295  1
  Sc  Sc9  1  0.24654663  0.00216366  0.25087295  1
  Sc  Sc10  1  0.74963252  0.50073397  0.75110145  1
  Sc  Sc11  1  0.00060265  0.99879370  0.49905158  1
  Sc  Sc12  1  0.24939735  0.50120630  0.75094842  1
  Sc  Sc13  1  0.50036748  0.99926603  0.49889855  1
  Sc  Sc14  1  0.75025788  0.00034577  0.75094842  1
  Sc  Sc15  1  0.24939735  0.00034577  0.75094842  1
  O  O16  1  0.12500000  0.75000000  0.12500000  1
  O  O17  1  0.62500000  0.25000000  0.12500000  1
  O  O18  1  0.87597747  0.75002285  0.37602417  1
  O  O19  1  0.37399868  0.75002285  0.37602417  1
  O  O20  1  0.12500000  0.25000000  0.12500000  1
  O  O21  1  0.62500000  0.75000000  0.62500000  1
  O  O22  1  0.87457968  0.25083964  0.37625996  1
  O  O23  1  0.37399868  0.25200165  0.37602417  1
  O  O24  1  0.12500000  0.75000000  0.62500000  1
  O  O25  1  0.87600132  0.74997715  0.87397583  1
  O  O26  1  0.62500000  0.25000000  0.62500000  1
  O  O27  1  0.37402253  0.74997715  0.87397583  1
  O  O28  1  0.12500000  0.25000000  0.62500000  1
  O  O29  1  0.37542032  0.24916036  0.87374004  1
  O  O30  1  0.87600132  0.24799835  0.87397583  1
