# generated using pymatgen
data_H2RuC3(ClO2)2
_symmetry_space_group_name_H-M   'P 1'
_cell_length_a   6.53774273
_cell_length_b   10.61367845
_cell_length_c   12.38500996
_cell_angle_alpha   90.00000000
_cell_angle_beta   98.00524930
_cell_angle_gamma   90.00000000
_symmetry_Int_Tables_number   1
_chemical_formula_structural   H2RuC3(ClO2)2
_chemical_formula_sum   'H8 Ru4 C12 Cl8 O16'
_cell_volume   851.01515498
_cell_formula_units_Z   4
loop_
 _symmetry_equiv_pos_site_id
 _symmetry_equiv_pos_as_xyz
  1  'x, y, z'
loop_
 _atom_site_type_symbol
 _atom_site_label
 _atom_site_symmetry_multiplicity
 _atom_site_fract_x
 _atom_site_fract_y
 _atom_site_fract_z
 _atom_site_occupancy
  H  H0  1  0.24260012  0.50432232  0.97538396  1
  H  H1  1  0.74260012  0.99567768  0.47538396  1
  H  H2  1  0.75739988  0.49567768  0.02461604  1
  H  H3  1  0.25739988  0.00432232  0.52461604  1
  H  H4  1  0.33973389  0.42215592  0.07153499  1
  H  H5  1  0.83973389  0.07784408  0.57153499  1
  H  H6  1  0.66026611  0.57784408  0.92846501  1
  H  H7  1  0.16026611  0.92215592  0.42846501  1
  Ru  Ru8  1  0.35230591  0.28070432  0.88754019  1
  Ru  Ru9  1  0.85230591  0.21929568  0.38754019  1
  Ru  Ru10  1  0.64769409  0.71929568  0.11245981  1
  Ru  Ru11  1  0.14769409  0.78070432  0.61245981  1
  C  C12  1  0.45876180  0.17024599  0.79097843  1
  C  C13  1  0.95876180  0.32975401  0.29097843  1
  C  C14  1  0.54123820  0.82975401  0.20902157  1
  C  C15  1  0.04123820  0.67024599  0.70902157  1
  C  C16  1  0.09072653  0.28536221  0.79801199  1
  C  C17  1  0.59072653  0.21463779  0.29801199  1
  C  C18  1  0.90927347  0.71463779  0.20198801  1
  C  C19  1  0.40927347  0.78536221  0.70198801  1
  C  C20  1  0.27298191  0.14394369  0.97252245  1
  C  C21  1  0.77298191  0.35605631  0.47252245  1
  C  C22  1  0.72701809  0.85605631  0.02747755  1
  C  C23  1  0.22701809  0.64394369  0.52747755  1
  Cl  Cl24  1  0.68532051  0.28331968  0.00176429  1
  Cl  Cl25  1  0.18532051  0.21668032  0.50176429  1
  Cl  Cl26  1  0.31467949  0.71668032  0.99823571  1
  Cl  Cl27  1  0.81467949  0.78331968  0.49823571  1
  Cl  Cl28  1  0.46151439  0.45924167  0.78811673  1
  Cl  Cl29  1  0.96151439  0.04075833  0.28811673  1
  Cl  Cl30  1  0.53848561  0.54075833  0.21188327  1
  Cl  Cl31  1  0.03848561  0.95924167  0.71188327  1
  O  O32  1  0.53130222  0.10439508  0.73290469  1
  O  O33  1  0.03130222  0.39560492  0.23290469  1
  O  O34  1  0.46869778  0.89560492  0.26709531  1
  O  O35  1  0.96869778  0.60439508  0.76709531  1
  O  O36  1  0.93378539  0.28773448  0.74256969  1
  O  O37  1  0.43378539  0.21226552  0.24256969  1
  O  O38  1  0.06621461  0.71226552  0.25743031  1
  O  O39  1  0.56621461  0.78773448  0.75743031  1
  O  O40  1  0.22891326  0.06064864  0.02436263  1
  O  O41  1  0.72891326  0.43935136  0.52436263  1
  O  O42  1  0.77108674  0.93935136  0.97563737  1
  O  O43  1  0.27108674  0.56064864  0.47563737  1
  O  O44  1  0.24629033  0.41596386  0.00174811  1
  O  O45  1  0.74629033  0.08403614  0.50174811  1
  O  O46  1  0.75370967  0.58403614  0.99825189  1
  O  O47  1  0.25370967  0.91596386  0.49825189  1
