# generated using pymatgen
data_LiCu2(PO3)5
_symmetry_space_group_name_H-M   'P 1'
_cell_length_a   12.17235897
_cell_length_b   8.92785738
_cell_length_c   5.62101247
_cell_angle_alpha   90.00000000
_cell_angle_beta   90.52352100
_cell_angle_gamma   90.00000000
_symmetry_Int_Tables_number   1
_chemical_formula_structural   LiCu2(PO3)5
_chemical_formula_sum   'Li2 Cu4 P10 O30'
_cell_volume   610.82726644
_cell_formula_units_Z   2
loop_
 _symmetry_equiv_pos_site_id
 _symmetry_equiv_pos_as_xyz
  1  'x, y, z'
loop_
 _atom_site_type_symbol
 _atom_site_label
 _atom_site_symmetry_multiplicity
 _atom_site_fract_x
 _atom_site_fract_y
 _atom_site_fract_z
 _atom_site_occupancy
  Li  Li0  1  0.46250696  0.01083068  0.55682930  1
  Li  Li1  1  0.96250696  0.98916932  0.05682930  1
  Cu  Cu2  1  0.06904974  0.69721448  0.20802369  1
  Cu  Cu3  1  0.43686342  0.70392394  0.30640382  1
  Cu  Cu4  1  0.56904974  0.30278552  0.70802369  1
  Cu  Cu5  1  0.93686342  0.29607606  0.80640382  1
  P  P6  1  0.08540676  0.17491805  0.40720053  1
  P  P7  1  0.14426440  0.46721011  0.60305689  1
  P  P8  1  0.24976560  0.94785590  0.25213146  1
  P  P9  1  0.35772998  0.46797638  0.89925283  1
  P  P10  1  0.41304786  0.16994015  0.08652656  1
  P  P11  1  0.58540676  0.82508195  0.90720053  1
  P  P12  1  0.64426440  0.53278989  0.10305689  1
  P  P13  1  0.74976560  0.05214410  0.75213146  1
  P  P14  1  0.85772998  0.53202362  0.39925283  1
  P  P15  1  0.91304786  0.83005985  0.58652656  1
  O  O16  1  0.02785964  0.16370461  0.17287913  1
  O  O17  1  0.02720190  0.14935283  0.63872298  1
  O  O18  1  0.04548567  0.45604274  0.76626471  1
  O  O19  1  0.14351864  0.33718548  0.40718336  1
  O  O20  1  0.16932974  0.85480279  0.11036848  1
  O  O21  1  0.16394434  0.61267801  0.47622005  1
  O  O22  1  0.19022851  0.06198279  0.42928530  1
  O  O23  1  0.25184330  0.42006045  0.74721887  1
  O  O24  1  0.30714497  0.05916889  0.06649573  1
  O  O25  1  0.33750654  0.61119919  0.02858537  1
  O  O26  1  0.33567425  0.86808573  0.40434521  1
  O  O27  1  0.35791000  0.33399066  0.08888757  1
  O  O28  1  0.45707438  0.45759602  0.73653284  1
  O  O29  1  0.46809049  0.14575035  0.84924716  1
  O  O30  1  0.47295192  0.15699890  0.31733718  1
  O  O31  1  0.52785964  0.83629539  0.67287913  1
  O  O32  1  0.52720190  0.85064717  0.13872298  1
  O  O33  1  0.54548567  0.54395726  0.26626471  1
  O  O34  1  0.64351864  0.66281452  0.90718336  1
  O  O35  1  0.66932974  0.14519721  0.61036848  1
  O  O36  1  0.66394434  0.38732199  0.97622005  1
  O  O37  1  0.69022851  0.93801721  0.92928530  1
  O  O38  1  0.75184330  0.57993955  0.24721887  1
  O  O39  1  0.80714497  0.94083111  0.56649573  1
  O  O40  1  0.83750654  0.38880081  0.52858537  1
  O  O41  1  0.83567425  0.13191427  0.90434521  1
  O  O42  1  0.85791000  0.66600934  0.58888757  1
  O  O43  1  0.95707538  0.54240398  0.23653284  1
  O  O44  1  0.96809049  0.85424965  0.34924716  1
  O  O45  1  0.97295192  0.84300110  0.81733718  1
