# generated using pymatgen
data_LiSb(PO3)4
_symmetry_space_group_name_H-M   'P 1'
_cell_length_a   9.89885742
_cell_length_b   13.42274835
_cell_length_c   7.46445725
_cell_angle_alpha   90.00000000
_cell_angle_beta   86.57889219
_cell_angle_gamma   90.00000000
_symmetry_Int_Tables_number   1
_chemical_formula_structural   LiSb(PO3)4
_chemical_formula_sum   'Li4 Sb4 P16 O48'
_cell_volume   990.03400258
_cell_formula_units_Z   4
loop_
 _symmetry_equiv_pos_site_id
 _symmetry_equiv_pos_as_xyz
  1  'x, y, z'
loop_
 _atom_site_type_symbol
 _atom_site_label
 _atom_site_symmetry_multiplicity
 _atom_site_fract_x
 _atom_site_fract_y
 _atom_site_fract_z
 _atom_site_occupancy
  Li  Li0  1  0.04347740  0.21618933  0.11416751  1
  Li  Li1  1  0.45652260  0.71618933  0.38583249  1
  Li  Li2  1  0.54347740  0.28381067  0.61416751  1
  Li  Li3  1  0.95652260  0.78381067  0.88583249  1
  Sb  Sb4  1  0.07157955  0.78703782  0.45061137  1
  Sb  Sb5  1  0.42842045  0.28703682  0.04938863  1
  Sb  Sb6  1  0.57157955  0.71296218  0.95061137  1
  Sb  Sb7  1  0.92842045  0.21296318  0.54938863  1
  P  P8  1  0.20426225  0.37590632  0.37651925  1
  P  P9  1  0.20127249  0.59082899  0.29224697  1
  P  P10  1  0.24306116  0.12524349  0.60228816  1
  P  P11  1  0.22573083  0.91296287  0.72614106  1
  P  P12  1  0.27426917  0.41296287  0.77385894  1
  P  P13  1  0.25693884  0.62524349  0.89771184  1
  P  P14  1  0.29872751  0.09082899  0.20775303  1
  P  P15  1  0.29573775  0.87590632  0.12348075  1
  P  P16  1  0.70426225  0.12409368  0.87651925  1
  P  P17  1  0.70127249  0.90917101  0.79224697  1
  P  P18  1  0.74306116  0.37475651  0.10228816  1
  P  P19  1  0.72573083  0.58703713  0.22614106  1
  P  P20  1  0.77426917  0.08703713  0.27385894  1
  P  P21  1  0.75693884  0.87475651  0.39771184  1
  P  P22  1  0.79872751  0.40917101  0.70775303  1
  P  P23  1  0.79573775  0.62409368  0.62348075  1
  O  O24  1  0.07430696  0.65592917  0.28494233  1
  O  O25  1  0.07359153  0.90326174  0.73939923  1
  O  O26  1  0.09869986  0.15813947  0.66472704  1
  O  O27  1  0.10364457  0.29515311  0.34061787  1
  O  O28  1  0.13991091  0.48059030  0.32201609  1
  O  O29  1  0.14598207  0.69820530  0.89064854  1
  O  O30  1  0.15545903  0.86522877  0.21608254  1
  O  O31  1  0.21178185  0.38717929  0.58516917  1
  O  O32  1  0.20126280  0.35500147  0.92179328  1
  O  O33  1  0.22551794  0.52853107  0.78403081  1
  O  O34  1  0.22529413  0.08005867  0.40384176  1
  O  O35  1  0.19974390  0.12204794  0.07664634  1
  O  O36  1  0.30025610  0.62204794  0.42335366  1
  O  O37  1  0.27470587  0.58005867  0.09615824  1
  O  O38  1  0.27448206  0.02853107  0.71596919  1
  O  O39  1  0.29873720  0.85500147  0.57820672  1
  O  O40  1  0.28821815  0.88717929  0.91483083  1
  O  O41  1  0.34454097  0.36522777  0.28391746  1
  O  O42  1  0.35401793  0.19820530  0.60935146  1
  O  O43  1  0.36008909  0.98059030  0.17798391  1
  O  O44  1  0.39635543  0.79515311  0.15938213  1
  O  O45  1  0.40130014  0.65813947  0.83527296  1
  O  O46  1  0.42640847  0.40326174  0.76060077  1
  O  O47  1  0.42569304  0.15592917  0.21505767  1
  O  O48  1  0.57430696  0.84407083  0.78494233  1
  O  O49  1  0.57359153  0.59673826  0.23939923  1
  O  O50  1  0.59869986  0.34186053  0.16472704  1
  O  O51  1  0.60364457  0.20484689  0.84061787  1
  O  O52  1  0.63991091  0.01940970  0.82201609  1
  O  O53  1  0.64598207  0.80179470  0.39064854  1
  O  O54  1  0.65545903  0.63477123  0.71608254  1
  O  O55  1  0.71178185  0.11282071  0.08516917  1
  O  O56  1  0.70126280  0.14499853  0.42179328  1
  O  O57  1  0.72551794  0.97146893  0.28403081  1
  O  O58  1  0.72529413  0.41994133  0.90384176  1
  O  O59  1  0.69974390  0.37795206  0.57664634  1
  O  O60  1  0.80025610  0.87795206  0.92335366  1
  O  O61  1  0.77470587  0.91994133  0.59615824  1
  O  O62  1  0.77448206  0.47146893  0.21596919  1
  O  O63  1  0.79873720  0.64499853  0.07820672  1
  O  O64  1  0.78821815  0.61282071  0.41483083  1
  O  O65  1  0.84454097  0.13477123  0.78391746  1
  O  O66  1  0.85401793  0.30179470  0.10935146  1
  O  O67  1  0.86008909  0.51940970  0.67798391  1
  O  O68  1  0.89635543  0.70484689  0.65938213  1
  O  O69  1  0.90130014  0.84186053  0.33527296  1
  O  O70  1  0.92640847  0.09673826  0.26060077  1
  O  O71  1  0.92569304  0.34407083  0.71505767  1
