# generated using pymatgen
data_LiTi8O16
_symmetry_space_group_name_H-M   'P 1'
_cell_length_a   7.79155855
_cell_length_b   9.62083912
_cell_length_c   7.79155855
_cell_angle_alpha   90.00000000
_cell_angle_beta   99.87170330
_cell_angle_gamma   90.00000000
_symmetry_Int_Tables_number   1
_chemical_formula_structural   LiTi8O16
_chemical_formula_sum   'Li2 Ti16 O32'
_cell_volume   575.41799486
_cell_formula_units_Z   2
loop_
 _symmetry_equiv_pos_site_id
 _symmetry_equiv_pos_as_xyz
  1  'x, y, z'
loop_
 _atom_site_type_symbol
 _atom_site_label
 _atom_site_symmetry_multiplicity
 _atom_site_fract_x
 _atom_site_fract_y
 _atom_site_fract_z
 _atom_site_occupancy
  Li  Li0  1  0.65411201  0.45638290  0.27911201  1
  Li  Li1  1  0.97088799  0.95638290  0.59588799  1
  Ti  Ti2  1  0.28756193  0.36528656  0.16562124  1
  Ti  Ti3  1  0.04700763  0.35632059  0.42099951  1
  Ti  Ti4  1  0.44466716  0.64416104  0.06966716  1
  Ti  Ti5  1  0.20900476  0.63634555  0.33598417  1
  Ti  Ti6  1  0.66471377  0.13567480  0.28971377  1
  Ti  Ti7  1  0.91401583  0.13634555  0.04099524  1
  Ti  Ti8  1  0.41599524  0.13634555  0.53901583  1
  Ti  Ti9  1  0.18033284  0.14416104  0.80533284  1
  Ti  Ti10  1  0.82900049  0.85632059  0.20299237  1
  Ti  Ti11  1  0.33743807  0.86528656  0.70937876  1
  Ti  Ti12  1  0.08437876  0.86528656  0.96243807  1
  Ti  Ti13  1  0.57799237  0.85632059  0.45400049  1
  Ti  Ti14  1  0.79599951  0.35632059  0.67200763  1
  Ti  Ti15  1  0.54062124  0.36528656  0.91256193  1
  Ti  Ti16  1  0.96028623  0.63567480  0.58528623  1
  Ti  Ti17  1  0.71098417  0.63634555  0.83400476  1
  O  O18  1  0.14808474  0.22585298  0.02591366  1
  O  O19  1  0.03328940  0.96496600  0.15892227  1
  O  O20  1  0.09107773  0.46496600  0.21671060  1
  O  O21  1  0.22408634  0.72585298  0.10191526  1
  O  O22  1  0.53074363  0.28340359  0.15574363  1
  O  O23  1  0.27268658  0.27215096  0.39667668  1
  O  O24  1  0.02493036  0.27168318  0.64993036  1
  O  O25  1  0.16078709  0.53467956  0.53693001  1
  O  O26  1  0.65866652  0.53528699  0.04084427  1
  O  O27  1  0.41584427  0.53528699  0.28366652  1
  O  O28  1  0.46421291  0.03467956  0.33806999  1
  O  O29  1  0.20915573  0.03528699  0.59133348  1
  O  O30  1  0.71306999  0.03467956  0.08921291  1
  O  O31  1  0.60006964  0.77168318  0.22506964  1
  O  O32  1  0.35231342  0.77215096  0.47832332  1
  O  O33  1  0.09425637  0.78340359  0.71925637  1
  O  O34  1  0.89644811  0.22841483  0.27148520  1
  O  O35  1  0.40091366  0.22585298  0.77308474  1
  O  O36  1  0.64648520  0.22841483  0.52144811  1
  O  O37  1  0.53392227  0.96496600  0.65828940  1
  O  O38  1  0.28896867  0.96485916  0.91396867  1
  O  O39  1  0.78568032  0.96363032  0.41068032  1
  O  O40  1  0.59171060  0.46496600  0.71607773  1
  O  O41  1  0.33603133  0.46485916  0.96103133  1
  O  O42  1  0.83931968  0.46363032  0.46431968  1
  O  O43  1  0.72855189  0.72841483  0.60351480  1
  O  O44  1  0.47691526  0.72585298  0.84908634  1
  O  O45  1  0.97851480  0.72841483  0.35355189  1
  O  O46  1  0.77167668  0.27215096  0.89768658  1
  O  O47  1  0.91193001  0.53467956  0.78578709  1
  O  O48  1  0.96633348  0.03528699  0.83415573  1
  O  O49  1  0.85332332  0.77215096  0.97731342  1
