# generated using pymatgen
data_LiSiNiO4
_symmetry_space_group_name_H-M   'P 1'
_cell_length_a   5.72631553
_cell_length_b   5.72631553
_cell_length_c   5.72631553
_cell_angle_alpha   56.27692699
_cell_angle_beta   93.61798763
_cell_angle_gamma   120.52567570
_symmetry_Int_Tables_number   1
_chemical_formula_structural   LiSiNiO4
_chemical_formula_sum   'Li2 Si2 Ni2 O8'
_cell_volume   128.09642478
_cell_formula_units_Z   2
loop_
 _symmetry_equiv_pos_site_id
 _symmetry_equiv_pos_as_xyz
  1  'x, y, z'
loop_
 _atom_site_type_symbol
 _atom_site_label
 _atom_site_symmetry_multiplicity
 _atom_site_fract_x
 _atom_site_fract_y
 _atom_site_fract_z
 _atom_site_occupancy
  Li  Li0  1  0.99824389  0.00000000  0.00175611  1
  Li  Li1  1  0.25175611  0.50000000  0.24824389  1
  Si  Si2  1  0.62500000  0.25000000  0.12500000  1
  Si  Si3  1  0.62500000  0.75000000  0.62500000  1
  Ni  Ni4  1  0.62500000  0.25000000  0.62500000  1
  Ni  Ni5  1  0.12500000  0.75000000  0.62500000  1
  O  O6  1  0.83692940  0.21067160  0.37374221  1
  O  O7  1  0.40690226  0.23174219  0.36135555  1
  O  O8  1  0.84309774  0.73174219  0.42515908  1
  O  O9  1  0.84309774  0.26825781  0.88864445  1
  O  O10  1  0.41307060  0.28932840  0.87625779  1
  O  O11  1  0.83441281  0.71067160  0.87625779  1
  O  O12  1  0.41558719  0.78932840  0.37374221  1
  O  O13  1  0.40690226  0.76825781  0.82484092  1
