# generated using pymatgen
data_Li2Cu3(P2O7)2
_symmetry_space_group_name_H-M   'P 1'
_cell_length_a   5.29778972
_cell_length_b   6.25954270
_cell_length_c   16.74963613
_cell_angle_alpha   81.36281659
_cell_angle_beta   77.53754166
_cell_angle_gamma   71.51263222
_symmetry_Int_Tables_number   1
_chemical_formula_structural   Li2Cu3(P2O7)2
_chemical_formula_sum   'Li4 Cu6 P8 O28'
_cell_volume   512.36213501
_cell_formula_units_Z   2
loop_
 _symmetry_equiv_pos_site_id
 _symmetry_equiv_pos_as_xyz
  1  'x, y, z'
loop_
 _atom_site_type_symbol
 _atom_site_label
 _atom_site_symmetry_multiplicity
 _atom_site_fract_x
 _atom_site_fract_y
 _atom_site_fract_z
 _atom_site_occupancy
  Li  Li0  1  0.05186382  0.23385998  0.98498566  1
  Li  Li1  1  0.35168714  0.72458911  0.12119435  1
  Li  Li2  1  0.64831286  0.27541089  0.87880565  1
  Li  Li3  1  0.94813618  0.76614002  0.01501434  1
  Cu  Cu4  1  0.18041708  0.27910130  0.58625430  1
  Cu  Cu5  1  0.05112880  0.63177729  0.82353446  1
  Cu  Cu6  1  0.24806831  0.97037484  0.33299501  1
  Cu  Cu7  1  0.75193169  0.02962516  0.66700499  1
  Cu  Cu8  1  0.94887120  0.36822271  0.17646554  1
  Cu  Cu9  1  0.81958292  0.72089870  0.41374570  1
  P  P10  1  0.19949602  0.09313435  0.79975894  1
  P  P11  1  0.37161787  0.42992435  0.31738121  1
  P  P12  1  0.53322821  0.24255306  0.06974845  1
  P  P13  1  0.30050127  0.76906750  0.54667046  1
  P  P14  1  0.69949873  0.23093250  0.45332954  1
  P  P15  1  0.46677179  0.75744694  0.93025155  1
  P  P16  1  0.62838213  0.57007565  0.68261879  1
  P  P17  1  0.80050398  0.90686565  0.20024106  1
  O  O18  1  0.00076492  0.04158660  0.19589505  1
  O  O19  1  0.22580946  0.30958907  0.06996024  1
  O  O20  1  0.21743157  0.28574684  0.29352164  1
  O  O21  1  0.02962555  0.31372561  0.84102170  1
  O  O22  1  0.17327659  0.66859193  0.33623970  1
  O  O23  1  0.15588290  0.59304076  0.55107630  1
  O  O24  1  0.57961822  0.02943074  0.14141025  1
  O  O25  1  0.36431091  0.12404263  0.71460773  1
  O  O26  1  0.10204754  0.98428105  0.58618390  1
  O  O27  1  0.71102515  0.13818040  0.99175050  1
  O  O28  1  0.45341355  0.31621790  0.40387585  1
  O  O29  1  0.61419267  0.45964936  0.25601365  1
  O  O30  1  0.56397188  0.16684727  0.54052393  1
  O  O31  1  0.37762912  0.56864419  0.90856388  1
  O  O32  1  0.62237088  0.43135581  0.09143612  1
  O  O33  1  0.43602812  0.83315273  0.45947607  1
  O  O34  1  0.38580733  0.54035064  0.74398635  1
  O  O35  1  0.54658645  0.68378210  0.59612415  1
  O  O36  1  0.28897485  0.86181960  0.00824950  1
  O  O37  1  0.89795246  0.01571895  0.41381610  1
  O  O38  1  0.63568909  0.87595737  0.28539227  1
  O  O39  1  0.42038178  0.97056926  0.85858975  1
  O  O40  1  0.84411710  0.40695924  0.44892370  1
  O  O41  1  0.82672341  0.33140807  0.66376030  1
  O  O42  1  0.97037445  0.68627439  0.15897830  1
  O  O43  1  0.78256843  0.71425316  0.70647836  1
  O  O44  1  0.77419054  0.69041093  0.93003976  1
  O  O45  1  0.99923508  0.95841340  0.80410495  1
