# generated using pymatgen
data_Li2Fe(PO3)4
_symmetry_space_group_name_H-M   'P 1'
_cell_length_a   7.58654345
_cell_length_b   9.44819390
_cell_length_c   7.86137467
_cell_angle_alpha   90.00000000
_cell_angle_beta   111.90986191
_cell_angle_gamma   90.00000000
_symmetry_Int_Tables_number   1
_chemical_formula_structural   Li2Fe(PO3)4
_chemical_formula_sum   'Li4 Fe2 P8 O24'
_cell_volume   522.79632072
_cell_formula_units_Z   2
loop_
 _symmetry_equiv_pos_site_id
 _symmetry_equiv_pos_as_xyz
  1  'x, y, z'
loop_
 _atom_site_type_symbol
 _atom_site_label
 _atom_site_symmetry_multiplicity
 _atom_site_fract_x
 _atom_site_fract_y
 _atom_site_fract_z
 _atom_site_occupancy
  Li  Li0  1  0.12572538  0.65972185  0.35427434  1
  Li  Li1  1  0.62572538  0.84027815  0.85427434  1
  Li  Li2  1  0.37427462  0.15972185  0.14572566  1
  Li  Li3  1  0.87427462  0.34027815  0.64572566  1
  Fe  Fe4  1  0.00000000  0.00000000  0.00000000  1
  Fe  Fe5  1  0.50000000  0.50000000  0.50000000  1
  P  P6  1  0.18600343  0.59423542  0.73228061  1
  P  P7  1  0.31399657  0.09423542  0.76771939  1
  P  P8  1  0.17023542  0.21722714  0.38219828  1
  P  P9  1  0.32976458  0.71722714  0.11780172  1
  P  P10  1  0.67023542  0.28277286  0.88219828  1
  P  P11  1  0.82976458  0.78277286  0.61780172  1
  P  P12  1  0.68600343  0.90576458  0.23228061  1
  P  P13  1  0.81399657  0.40576458  0.26771939  1
  O  O14  1  0.04275919  0.72729789  0.68387131  1
  O  O15  1  0.19982442  0.11254452  0.88768097  1
  O  O16  1  0.08781533  0.45800406  0.73186254  1
  O  O17  1  0.32588809  0.63433192  0.93823177  1
  O  O18  1  0.17411191  0.13433192  0.56176823  1
  O  O19  1  0.18029953  0.11243484  0.24176081  1
  O  O20  1  0.41218467  0.95800406  0.76813746  1
  O  O21  1  0.30017558  0.61254452  0.61231903  1
  O  O22  1  0.18558306  0.83270076  0.07521544  1
  O  O23  1  0.45724081  0.22729789  0.81612869  1
  O  O24  1  0.31441694  0.33270076  0.42478456  1
  O  O25  1  0.31970047  0.61243484  0.25823919  1
  O  O26  1  0.68029953  0.38756516  0.74176081  1
  O  O27  1  0.68558306  0.66729924  0.57521544  1
  O  O28  1  0.54275919  0.77270211  0.18387131  1
  O  O29  1  0.81441694  0.16729924  0.92478456  1
  O  O30  1  0.69982442  0.38745548  0.38768097  1
  O  O31  1  0.58781533  0.04199594  0.23186254  1
  O  O32  1  0.81970047  0.88756516  0.75823919  1
  O  O33  1  0.82588809  0.86566808  0.43823177  1
  O  O34  1  0.67411191  0.36566808  0.06176823  1
  O  O35  1  0.91218467  0.54199594  0.26813746  1
  O  O36  1  0.80017558  0.88745548  0.11231903  1
  O  O37  1  0.95724081  0.27270211  0.31612869  1
