# generated using pymatgen
data_Mn3CrCo2(PO4)6
_symmetry_space_group_name_H-M   'P 1'
_cell_length_a   8.48783922
_cell_length_b   8.57747285
_cell_length_c   8.57747254
_cell_angle_alpha   59.99999969
_cell_angle_beta   59.65005658
_cell_angle_gamma   59.65005299
_symmetry_Int_Tables_number   1
_chemical_formula_structural   Mn3CrCo2(PO4)6
_chemical_formula_sum   'Mn3 Cr1 Co2 P6 O24'
_cell_volume   439.22120703
_cell_formula_units_Z   1
loop_
 _symmetry_equiv_pos_site_id
 _symmetry_equiv_pos_as_xyz
  1  'x, y, z'
loop_
 _atom_site_type_symbol
 _atom_site_label
 _atom_site_symmetry_multiplicity
 _atom_site_fract_x
 _atom_site_fract_y
 _atom_site_fract_z
 _atom_site_occupancy
  Mn  Mn0  1  0.07360597  0.64213134  0.64213134  1
  Mn  Mn1  1  0.42692671  0.85769076  0.85769076  1
  Mn  Mn2  1  0.92782481  0.35739206  0.35739206  1
  Cr  Cr3  1  0.57751351  0.14082916  0.14082916  1
  Co  Co4  1  -0.00035359  0.00011753  0.00011753  1
  Co  Co5  1  0.50194281  0.49935273  0.49935273  1
  P  P6  1  0.24886716  0.24999979  0.54238324  1
  P  P7  1  0.24886716  0.95875081  0.24999979  1
  P  P8  1  0.24886716  0.54238324  0.95875081  1
  P  P9  1  0.75164890  0.45902225  0.03962073  1
  P  P10  1  0.75164890  0.03962073  0.74970712  1
  P  P11  1  0.75164890  0.74970712  0.45902225  1
  O  O12  1  0.06155997  0.11820165  0.30802253  1
  O  O13  1  0.06155997  0.51221585  0.11820165  1
  O  O14  1  0.06155997  0.30802253  0.51221585  1
  O  O15  1  0.22781824  0.08981325  0.74264725  1
  O  O16  1  0.43343126  0.18988495  0.38546606  1
  O  O17  1  0.26759597  0.41714296  0.55564106  1
  O  O18  1  0.22781824  0.93972126  0.08981325  1
  O  O19  1  0.26759597  0.75961901  0.41714296  1
  O  O20  1  0.56438983  0.61798267  0.00955247  1
  O  O21  1  0.26759597  0.55564106  0.75961901  1
  O  O22  1  0.77336452  0.26101753  0.05498360  1
  O  O23  1  0.56438983  0.00955247  0.80807403  1
  O  O24  1  0.43343126  0.99121772  0.18988495  1
  O  O25  1  0.22781824  0.74264725  0.93972126  1
  O  O26  1  0.73119143  0.44476910  0.23829188  1
  O  O27  1  0.43343126  0.38546606  0.99121772  1
  O  O28  1  0.73119143  0.23829188  0.58574759  1
  O  O29  1  0.77336452  0.05498360  0.91063434  1
  O  O30  1  0.73119143  0.58574759  0.44476910  1
  O  O31  1  0.56438983  0.80807403  0.61798267  1
  O  O32  1  0.77336452  0.91063434  0.26101753  1
  O  O33  1  0.93764531  0.68720719  0.49542531  1
  O  O34  1  0.93764531  0.49542531  0.87972318  1
  O  O35  1  0.93764531  0.87972318  0.68720719  1
