# generated using pymatgen
data_Li3V(CO3)3
_symmetry_space_group_name_H-M   'P 1'
_cell_length_a   10.22378468
_cell_length_b   5.97984727
_cell_length_c   5.97984727
_cell_angle_alpha   103.11682176
_cell_angle_beta   90.00000000
_cell_angle_gamma   90.00000000
_symmetry_Int_Tables_number   1
_chemical_formula_structural   Li3V(CO3)3
_chemical_formula_sum   'Li6 V2 C6 O18'
_cell_volume   356.04953899
_cell_formula_units_Z   2
loop_
 _symmetry_equiv_pos_site_id
 _symmetry_equiv_pos_as_xyz
  1  'x, y, z'
loop_
 _atom_site_type_symbol
 _atom_site_label
 _atom_site_symmetry_multiplicity
 _atom_site_fract_x
 _atom_site_fract_y
 _atom_site_fract_z
 _atom_site_occupancy
  Li  Li0  1  0.00000000  0.10555014  0.10555014  1
  Li  Li1  1  0.25000000  0.39793141  0.35706985  1
  Li  Li2  1  0.25000000  0.72483566  0.16818578  1
  Li  Li3  1  0.50000000  0.10555014  0.10555014  1
  Li  Li4  1  0.75000000  0.16818578  0.72483566  1
  Li  Li5  1  0.75000000  0.35706985  0.39793141  1
  V  V6  1  0.25000000  0.11291724  0.68265566  1
  V  V7  1  0.75000000  0.68265566  0.11291724  1
  C  C8  1  0.01599465  0.15928703  0.57425356  1
  C  C9  1  0.25000000  0.70928398  0.74245900  1
  C  C10  1  0.48400535  0.15928703  0.57425356  1
  C  C11  1  0.51599465  0.57425356  0.15928703  1
  C  C12  1  0.75000000  0.74245900  0.70928398  1
  C  C13  1  0.98400535  0.57425356  0.15928703  1
  O  O14  1  0.05296717  0.13208640  0.77612214  1
  O  O15  1  0.11518084  0.15384023  0.42930592  1
  O  O16  1  0.10066915  0.51794045  0.18384632  1
  O  O17  1  0.25000000  0.50405709  0.76556444  1
  O  O18  1  0.25000000  0.88915151  0.91824447  1
  O  O19  1  0.25000000  0.76310625  0.54239428  1
  O  O20  1  0.39933085  0.51794045  0.18384632  1
  O  O21  1  0.38481916  0.15384023  0.42930592  1
  O  O22  1  0.44703283  0.13208640  0.77612214  1
  O  O23  1  0.55296717  0.77612214  0.13208640  1
  O  O24  1  0.61518084  0.42930592  0.15384023  1
  O  O25  1  0.60066915  0.18384632  0.51794045  1
  O  O26  1  0.75000000  0.54239428  0.76310625  1
  O  O27  1  0.75000000  0.76556444  0.50405709  1
  O  O28  1  0.75000000  0.91824447  0.88915151  1
  O  O29  1  0.89933085  0.18384632  0.51794045  1
  O  O30  1  0.88481916  0.42930592  0.15384023  1
  O  O31  1  0.94703283  0.77612214  0.13208640  1
