# generated using pymatgen
data_Li5FeP3O11
_symmetry_space_group_name_H-M   'P 1'
_cell_length_a   5.36501861
_cell_length_b   8.52565049
_cell_length_c   9.61994114
_cell_angle_alpha   95.78585228
_cell_angle_beta   88.70407997
_cell_angle_gamma   94.59831178
_symmetry_Int_Tables_number   1
_chemical_formula_structural   Li5FeP3O11
_chemical_formula_sum   'Li10 Fe2 P6 O22'
_cell_volume   436.32115642
_cell_formula_units_Z   2
loop_
 _symmetry_equiv_pos_site_id
 _symmetry_equiv_pos_as_xyz
  1  'x, y, z'
loop_
 _atom_site_type_symbol
 _atom_site_label
 _atom_site_symmetry_multiplicity
 _atom_site_fract_x
 _atom_site_fract_y
 _atom_site_fract_z
 _atom_site_occupancy
  Li  Li0  1  0.22035747  0.67029496  0.34329608  1
  Li  Li1  1  0.29022822  0.37593383  0.83226500  1
  Li  Li2  1  0.32612736  0.61436627  0.68058126  1
  Li  Li3  1  0.17221299  0.38381940  0.15530545  1
  Li  Li4  1  0.50306127  0.99673514  0.84411342  1
  Li  Li5  1  0.49693873  0.00326486  0.15588658  1
  Li  Li6  1  0.82778701  0.61618060  0.84469455  1
  Li  Li7  1  0.67387264  0.38563373  0.31941874  1
  Li  Li8  1  0.70977178  0.62406617  0.16773500  1
  Li  Li9  1  0.77964253  0.32970504  0.65670392  1
  Fe  Fe10  1  0.00000000  0.00000000  0.00000000  1
  Fe  Fe11  1  0.50000000  0.00000000  0.50000000  1
  P  P12  1  0.03456591  0.04345273  0.31360776  1
  P  P13  1  0.21661650  0.70338233  0.01532146  1
  P  P14  1  0.27070724  0.32688935  0.47646812  1
  P  P15  1  0.72929276  0.67311065  0.52353188  1
  P  P16  1  0.78338350  0.29661767  0.98467854  1
  P  P17  1  0.96543409  0.95654727  0.68639224  1
  O  O18  1  0.94497454  0.74550265  0.05988167  1
  O  O19  1  0.04994536  0.18968517  0.43525297  1
  O  O20  1  0.12433016  0.11883245  0.17962764  1
  O  O21  1  0.20348305  0.59924927  0.87251640  1
  O  O22  1  0.18026516  0.40077560  0.61764203  1
  O  O23  1  0.24118217  0.01632291  0.68637013  1
  O  O24  1  0.22673153  0.92818414  0.34429380  1
  O  O25  1  0.29382160  0.43335302  0.35623947  1
  O  O26  1  0.33701302  0.61854955  0.12941464  1
  O  O27  1  0.36035910  0.86625125  0.99333755  1
  O  O28  1  0.47931949  0.75145850  0.51810817  1
  O  O29  1  0.52068051  0.24854150  0.48189183  1
  O  O30  1  0.63964090  0.13374875  0.00666245  1
  O  O31  1  0.66298698  0.38145045  0.87058536  1
  O  O32  1  0.70617840  0.56664698  0.64376053  1
  O  O33  1  0.77326847  0.07181586  0.65570620  1
  O  O34  1  0.75881783  0.98367709  0.31362987  1
  O  O35  1  0.81973484  0.59922440  0.38235797  1
  O  O36  1  0.79651695  0.40075073  0.12748360  1
  O  O37  1  0.87566984  0.88116755  0.82037236  1
  O  O38  1  0.95005464  0.81031483  0.56474703  1
  O  O39  1  0.05502546  0.25449735  0.94011833  1
