# generated using pymatgen
data_LiMn3O6
_symmetry_space_group_name_H-M   'P 1'
_cell_length_a   6.69489647
_cell_length_b   13.69292429
_cell_length_c   5.85128993
_cell_angle_alpha   77.30158249
_cell_angle_beta   63.04334046
_cell_angle_gamma   96.95014822
_symmetry_Int_Tables_number   1
_chemical_formula_structural   LiMn3O6
_chemical_formula_sum   'Li4 Mn12 O24'
_cell_volume   451.16151237
_cell_formula_units_Z   4
loop_
 _symmetry_equiv_pos_site_id
 _symmetry_equiv_pos_as_xyz
  1  'x, y, z'
loop_
 _atom_site_type_symbol
 _atom_site_label
 _atom_site_symmetry_multiplicity
 _atom_site_fract_x
 _atom_site_fract_y
 _atom_site_fract_z
 _atom_site_occupancy
  Li  Li0  1  0.14468151  0.82184889  0.26868946  1
  Li  Li1  1  0.14217605  0.32112715  0.27803894  1
  Li  Li2  1  0.51969935  0.00812738  0.23957952  1
  Li  Li3  1  0.52064658  0.51250311  0.72960647  1
  Mn  Mn4  1  0.98916366  0.50780906  0.00207959  1
  Mn  Mn5  1  0.33313350  0.67025795  0.49893220  1
  Mn  Mn6  1  0.00362281  0.99888414  0.00280603  1
  Mn  Mn7  1  0.33231864  0.16620645  0.49794219  1
  Mn  Mn8  1  0.33247251  0.66952492  -0.00054047  1
  Mn  Mn9  1  0.66526697  0.83091530  0.50495092  1
  Mn  Mn10  1  0.33193900  0.16660286  0.99846941  1
  Mn  Mn11  1  0.66541639  0.33283511  0.49803576  1
  Mn  Mn12  1  0.68455435  0.82503593  0.99500508  1
  Mn  Mn13  1  0.68759396  0.32497508  0.98998441  1
  Mn  Mn14  1  0.00636621  0.50315339  0.49804901  1
  Mn  Mn15  1  0.97954023  0.00609593  0.51170870  1
  O  O16  1  0.12488122  0.66874505  0.35777660  1
  O  O17  1  0.22149200  0.51574886  0.12307181  1
  O  O18  1  0.12419958  0.17109365  0.35284852  1
  O  O19  1  0.10840958  0.65766118  0.87149386  1
  O  O20  1  0.21672537  0.01548461  0.14353366  1
  O  O21  1  0.23483890  0.52197610  0.64217445  1
  O  O22  1  0.45284779  0.82168293  0.35653067  1
  O  O23  1  0.11019115  0.15197288  0.87031965  1
  O  O24  1  0.54709875  0.67391420  0.13565891  1
  O  O25  1  0.22090225  0.01652451  0.62546020  1
  O  O26  1  0.45134268  0.31610175  0.35388434  1
  O  O27  1  0.42371561  0.81540269  0.86392360  1
  O  O28  1  0.53942361  0.16123135  0.14270507  1
  O  O29  1  0.55299606  0.67654337  0.63158588  1
  O  O30  1  0.75904798  0.98245253  0.37003777  1
  O  O31  1  0.44168885  0.31648926  0.87082092  1
  O  O32  1  0.91897170  0.85056857  0.14702874  1
  O  O33  1  0.55356360  0.17975018  0.62727602  1
  O  O34  1  0.75752264  0.48334414  0.38347175  1
  O  O35  1  0.77407975  0.98235727  0.89115267  1
  O  O36  1  0.90697509  0.35504759  0.13185541  1
  O  O37  1  0.88164916  0.83572372  0.62688143  1
  O  O38  1  0.78605331  0.49436281  0.85275891  1
  O  O39  1  0.89016963  0.33867515  0.61709393  1
