# generated using pymatgen
data_Li2Fe(PO4)2
_symmetry_space_group_name_H-M   'P 1'
_cell_length_a   9.23850958
_cell_length_b   9.15078692
_cell_length_c   13.74193824
_cell_angle_alpha   90.00000000
_cell_angle_beta   90.00000000
_cell_angle_gamma   90.00000000
_symmetry_Int_Tables_number   1
_chemical_formula_structural   Li2Fe(PO4)2
_chemical_formula_sum   'Li16 Fe8 P16 O64'
_cell_volume   1161.73841036
_cell_formula_units_Z   8
loop_
 _symmetry_equiv_pos_site_id
 _symmetry_equiv_pos_as_xyz
  1  'x, y, z'
loop_
 _atom_site_type_symbol
 _atom_site_label
 _atom_site_symmetry_multiplicity
 _atom_site_fract_x
 _atom_site_fract_y
 _atom_site_fract_z
 _atom_site_occupancy
  Li  Li0  1  0.03959885  0.21650970  0.37316701  1
  Li  Li1  1  0.03959885  0.28349030  0.87316701  1
  Li  Li2  1  0.22594977  0.95439459  0.37416376  1
  Li  Li3  1  0.22594977  0.54560541  0.87416376  1
  Li  Li4  1  0.27405023  0.04560541  0.87416376  1
  Li  Li5  1  0.27405023  0.45439459  0.37416376  1
  Li  Li6  1  0.46040115  0.71650970  0.37316701  1
  Li  Li7  1  0.46040115  0.78349030  0.87316701  1
  Li  Li8  1  0.53959885  0.21650970  0.12683299  1
  Li  Li9  1  0.53959885  0.28349030  0.62683299  1
  Li  Li10  1  0.72594977  0.54560541  0.62583624  1
  Li  Li11  1  0.72594977  0.95439459  0.12583624  1
  Li  Li12  1  0.77405023  0.04560541  0.62583624  1
  Li  Li13  1  0.77405023  0.45439459  0.12583624  1
  Li  Li14  1  0.96040115  0.78349030  0.62683299  1
  Li  Li15  1  0.96040115  0.71650970  0.12683299  1
  Fe  Fe16  1  0.14018095  0.10484133  0.12531172  1
  Fe  Fe17  1  0.14018095  0.39515867  0.62531172  1
  Fe  Fe18  1  0.35981905  0.60484133  0.12531172  1
  Fe  Fe19  1  0.35981905  0.89515867  0.62531172  1
  Fe  Fe20  1  0.64018095  0.10484133  0.37468828  1
  Fe  Fe21  1  0.64018095  0.39515867  0.87468828  1
  Fe  Fe22  1  0.85981905  0.60484133  0.37468828  1
  Fe  Fe23  1  0.85981905  0.89515867  0.87468828  1
  P  P24  1  0.07411175  0.06660097  0.72263189  1
  P  P25  1  0.07411175  0.43339903  0.22263189  1
  P  P26  1  0.16118058  0.68668301  0.49033593  1
  P  P27  1  0.16118058  0.81331699  0.99033593  1
  P  P28  1  0.33881942  0.18668301  0.49033593  1
  P  P29  1  0.33881942  0.31331699  0.99033593  1
  P  P30  1  0.42588825  0.56660097  0.72263189  1
  P  P31  1  0.42588825  0.93339903  0.22263189  1
  P  P32  1  0.57411175  0.43339903  0.27736811  1
  P  P33  1  0.57411175  0.06660097  0.77736811  1
  P  P34  1  0.66118058  0.68668301  0.00966407  1
  P  P35  1  0.66118058  0.81331699  0.50966407  1
  P  P36  1  0.83881942  0.18668301  0.00966407  1
  P  P37  1  0.83881942  0.31331699  0.50966407  1
  P  P38  1  0.92588825  0.56660097  0.77736811  1
  P  P39  1  0.92588825  0.93339903  0.27736811  1
  O  O40  1  0.99452242  0.69949419  0.47447580  1
  O  O41  1  0.99452242  0.80050581  0.97447580  1
  O  O42  1  0.02292688  0.00066699  0.35448512  1
  O  O43  1  0.02292688  0.49933301  0.85448512  1
  O  O44  1  0.02048830  0.46646029  0.32905827  1
  O  O45  1  0.02048830  0.03353971  0.82905827  1
  O  O46  1  0.07858312  0.23728296  0.71984556  1
  O  O47  1  0.07858312  0.26271704  0.21984556  1
  O  O48  1  0.18813550  0.72416550  0.08475400  1
  O  O49  1  0.18813550  0.77583450  0.58475400  1
  O  O50  1  0.20194874  0.52402665  0.51054308  1
  O  O51  1  0.20194874  0.97597335  0.01054308  1
  O  O52  1  0.23116609  0.00455939  0.72009870  1
  O  O53  1  0.23116609  0.49544061  0.22009870  1
  O  O54  1  0.24676464  0.73912272  0.40242252  1
  O  O55  1  0.24676464  0.76087728  0.90242252  1
  O  O56  1  0.25323536  0.23912272  0.40242252  1
  O  O57  1  0.25323536  0.26087728  0.90242252  1
  O  O58  1  0.26883391  0.99544061  0.22009870  1
  O  O59  1  0.26883391  0.50455939  0.72009870  1
  O  O60  1  0.29805126  0.02402665  0.51054308  1
  O  O61  1  0.29805126  0.47597335  0.01054308  1
  O  O62  1  0.31186450  0.22416550  0.08475400  1
  O  O63  1  0.31186450  0.27583450  0.58475400  1
  O  O64  1  0.42141688  0.73728296  0.71984556  1
  O  O65  1  0.42141688  0.76271704  0.21984556  1
  O  O66  1  0.47951170  0.53353971  0.82905827  1
  O  O67  1  0.47951170  0.96646029  0.32905827  1
  O  O68  1  0.47707312  0.50066699  0.35448512  1
  O  O69  1  0.47707312  0.99933301  0.85448512  1
  O  O70  1  0.50547758  0.19949419  0.47447580  1
  O  O71  1  0.50547758  0.30050581  0.97447580  1
  O  O72  1  0.49452242  0.69949419  0.02552420  1
  O  O73  1  0.49452242  0.80050581  0.52552420  1
  O  O74  1  0.52292688  0.49933301  0.64551488  1
  O  O75  1  0.52292688  0.00066699  0.14551488  1
  O  O76  1  0.52048830  0.46646029  0.17094173  1
  O  O77  1  0.52048830  0.03353971  0.67094173  1
  O  O78  1  0.57858312  0.23728296  0.78015444  1
  O  O79  1  0.57858312  0.26271704  0.28015444  1
  O  O80  1  0.68813550  0.72416550  0.41524600  1
  O  O81  1  0.68813550  0.77583450  0.91524600  1
  O  O82  1  0.70194874  0.52402665  0.98945692  1
  O  O83  1  0.70194874  0.97597335  0.48945692  1
  O  O84  1  0.73116609  0.49544061  0.27990130  1
  O  O85  1  0.73116609  0.00455939  0.77990130  1
  O  O86  1  0.74676464  0.73912272  0.09757748  1
  O  O87  1  0.74676464  0.76087728  0.59757748  1
  O  O88  1  0.75323536  0.23912272  0.09757748  1
  O  O89  1  0.75323536  0.26087728  0.59757748  1
  O  O90  1  0.76883391  0.50455939  0.77990130  1
  O  O91  1  0.76883391  0.99544061  0.27990130  1
  O  O92  1  0.79805126  0.02402665  0.98945692  1
  O  O93  1  0.79805126  0.47597335  0.48945692  1
  O  O94  1  0.81186450  0.22416550  0.41524600  1
  O  O95  1  0.81186450  0.27583450  0.91524600  1
  O  O96  1  0.92141688  0.73728296  0.78015444  1
  O  O97  1  0.92141688  0.76271704  0.28015444  1
  O  O98  1  0.97951170  0.53353971  0.67094173  1
  O  O99  1  0.97951170  0.96646029  0.17094173  1
  O  O100  1  0.97707312  0.99933301  0.64551488  1
  O  O101  1  0.97707312  0.50066699  0.14551488  1
  O  O102  1  0.00547758  0.19949419  0.02552420  1
  O  O103  1  0.00547758  0.30050581  0.52552420  1
