# generated using pymatgen
data_Li2NbCo3O8
_symmetry_space_group_name_H-M   'P 1'
_cell_length_a   8.23202634
_cell_length_b   8.23168443
_cell_length_c   8.23215717
_cell_angle_alpha   90.00633802
_cell_angle_beta   90.00094631
_cell_angle_gamma   90.00172514
_symmetry_Int_Tables_number   1
_chemical_formula_structural   Li2NbCo3O8
_chemical_formula_sum   'Li8 Nb4 Co12 O32'
_cell_volume   557.83931034
_cell_formula_units_Z   4
loop_
 _symmetry_equiv_pos_site_id
 _symmetry_equiv_pos_as_xyz
  1  'x, y, z'
loop_
 _atom_site_type_symbol
 _atom_site_label
 _atom_site_symmetry_multiplicity
 _atom_site_fract_x
 _atom_site_fract_y
 _atom_site_fract_z
 _atom_site_occupancy
  Li  Li0  1  0.99233832  0.99236123  0.99242408  1
  Li  Li1  1  0.25771514  0.25762241  0.25760777  1
  Li  Li2  1  0.24232571  0.74235551  0.75773116  1
  Li  Li3  1  0.50770830  0.00761869  0.49232110  1
  Li  Li4  1  0.49241836  0.50762912  0.00766696  1
  Li  Li5  1  0.75767059  0.24229962  0.74240759  1
  Li  Li6  1  0.74231569  0.75768146  0.24232347  1
  Li  Li7  1  0.00762061  0.49239514  0.50763437  1
  Nb  Nb8  1  0.12493644  0.87506907  0.37504720  1
  Nb  Nb9  1  0.37500114  0.12498791  0.87500467  1
  Nb  Nb10  1  0.62490505  0.62492498  0.62499436  1
  Nb  Nb11  1  0.87503195  0.37506243  0.12501411  1
  Co  Co12  1  0.12223956  0.12775085  0.62498371  1
  Co  Co13  1  0.12498985  0.37772597  0.87229296  1
  Co  Co14  1  0.12775845  0.62501169  0.12227428  1
  Co  Co15  1  0.37226006  0.37498554  0.62224493  1
  Co  Co16  1  0.37501978  0.62227730  0.37219151  1
  Co  Co17  1  0.37778985  0.87229881  0.12499788  1
  Co  Co18  1  0.62226397  0.37219318  0.37495870  1
  Co  Co19  1  0.62500944  0.12228617  0.12771546  1
  Co  Co20  1  0.62778900  0.87504359  0.87779599  1
  Co  Co21  1  0.87218812  0.12497342  0.37767360  1
  Co  Co22  1  0.87497246  0.87773577  0.62777006  1
  Co  Co23  1  0.87771761  0.62776800  0.87504593  1
  O  O24  1  0.11200375  0.11998851  0.38792599  1
  O  O25  1  0.11202877  0.88793973  0.61994679  1
  O  O26  1  0.10873258  0.60873924  0.89127880  1
  O  O27  1  0.13006830  0.13791674  0.86201840  1
  O  O28  1  0.11994001  0.38792715  0.11208350  1
  O  O29  1  0.14124964  0.35876032  0.64127427  1
  O  O30  1  0.13801049  0.63010405  0.36200117  1
  O  O31  1  0.13798758  0.86200609  0.13009292  1
  O  O32  1  0.36208263  0.13798792  0.63005751  1
  O  O33  1  0.36199411  0.36994674  0.86207332  1
  O  O34  1  0.35877415  0.64126659  0.14120617  1
  O  O35  1  0.38002063  0.61203250  0.61203169  1
  O  O36  1  0.36989153  0.86209915  0.36193689  1
  O  O37  1  0.39127783  0.39124431  0.39123210  1
  O  O38  1  0.38803301  0.11210259  0.11991204  1
  O  O39  1  0.38799761  0.88007563  0.88799007  1
  O  O40  1  0.61207841  0.38000036  0.61200268  1
  O  O41  1  0.61207271  0.61202855  0.38005736  1
  O  O42  1  0.60879766  0.89127096  0.10878673  1
  O  O43  1  0.63007396  0.36203841  0.13798102  1
  O  O44  1  0.61993840  0.11207695  0.88798907  1
  O  O45  1  0.64120689  0.14119110  0.35872110  1
  O  O46  1  0.63800969  0.86989887  0.63800150  1
  O  O47  1  0.63796298  0.63802219  0.86993260  1
  O  O48  1  0.86203397  0.36195877  0.36993318  1
  O  O49  1  0.86196211  0.13008296  0.13789866  1
  O  O50  1  0.85876989  0.85878629  0.85878484  1
  O  O51  1  0.88002483  0.88797387  0.38790741  1
  O  O52  1  0.86986957  0.63795371  0.63808354  1
  O  O53  1  0.89123372  0.10875980  0.60869704  1
  O  O54  1  0.88796969  0.38792759  0.88009108  1
  O  O55  1  0.88791642  0.61997151  0.11208769  1
