# generated using pymatgen
data_Na2Sn4O9
_symmetry_space_group_name_H-M   'P 1'
_cell_length_a   5.50372329
_cell_length_b   5.50371497
_cell_length_c   14.74611736
_cell_angle_alpha   90.00025352
_cell_angle_beta   90.00019927
_cell_angle_gamma   119.99995717
_symmetry_Int_Tables_number   1
_chemical_formula_structural   Na2Sn4O9
_chemical_formula_sum   'Na4 Sn8 O18'
_cell_volume   386.83078592
_cell_formula_units_Z   2
loop_
 _symmetry_equiv_pos_site_id
 _symmetry_equiv_pos_as_xyz
  1  'x, y, z'
loop_
 _atom_site_type_symbol
 _atom_site_label
 _atom_site_symmetry_multiplicity
 _atom_site_fract_x
 _atom_site_fract_y
 _atom_site_fract_z
 _atom_site_occupancy
  Na  Na0  1  0.99999085  -0.00000078  0.14859083  1
  Na  Na1  1  0.99999584  0.99999861  0.35140919  1
  Na  Na2  1  0.99999736  0.99999893  0.64859187  1
  Na  Na3  1  0.99999361  0.99999797  0.85140703  1
  Sn  Sn4  1  0.33332441  0.66666505  0.31239925  1
  Sn  Sn5  1  0.33332537  0.66666631  0.02434203  1
  Sn  Sn6  1  0.33333244  0.66666619  0.81239797  1
  Sn  Sn7  1  0.33333181  0.66666736  0.52434161  1
  Sn  Sn8  1  0.66665536  0.33333197  0.18760257  1
  Sn  Sn9  1  0.66666228  0.33333051  0.68760159  1
  Sn  Sn10  1  0.66666210  0.33333220  0.47565739  1
  Sn  Sn11  1  0.66665668  0.33333744  0.97565895  1
  O  O12  1  0.99999937  0.66022495  0.74999959  1
  O  O13  1  0.04037246  0.64262447  0.42072332  1
  O  O14  1  0.35736971  0.95962668  0.92072151  1
  O  O15  1  0.99998568  0.33977619  0.25000025  1
  O  O16  1  0.04036527  0.39775155  0.92072212  1
  O  O17  1  0.35737326  0.39774997  0.42072340  1
  O  O18  1  0.33977542  0.33977891  0.75000006  1
  O  O19  1  0.39774132  0.35737940  0.07927692  1
  O  O20  1  0.60224106  0.95962630  0.42072325  1
  O  O21  1  0.33976463  0.99999665  0.25000028  1
  O  O22  1  0.39774955  0.04037433  0.57927843  1
  O  O23  1  0.60223923  0.64262400  0.92072288  1
  O  O24  1  0.66020837  0.66021745  0.25000025  1
  O  O25  1  0.64261976  0.60224653  0.57927715  1
  O  O26  1  0.95961504  0.60225066  0.07927720  1
  O  O27  1  0.64261296  0.04037856  0.07927771  1
  O  O28  1  0.66022052  0.00000136  0.74999916  1
  O  O29  1  0.95962031  0.35737728  0.57927826  1
