# generated using pymatgen
data_KCu(CN)2
_symmetry_space_group_name_H-M   'P 1'
_cell_length_a   7.43426753
_cell_length_b   7.67344705
_cell_length_c   7.75034674
_cell_angle_alpha   90.00000000
_cell_angle_beta   90.00000000
_cell_angle_gamma   99.86970110
_symmetry_Int_Tables_number   1
_chemical_formula_structural   KCu(CN)2
_chemical_formula_sum   'K4 Cu4 C8 N8'
_cell_volume   435.58635751
_cell_formula_units_Z   4
loop_
 _symmetry_equiv_pos_site_id
 _symmetry_equiv_pos_as_xyz
  1  'x, y, z'
loop_
 _atom_site_type_symbol
 _atom_site_label
 _atom_site_symmetry_multiplicity
 _atom_site_fract_x
 _atom_site_fract_y
 _atom_site_fract_z
 _atom_site_occupancy
  C  C0  1  0.21202214  0.04933312  0.91575814  1
  C  C1  1  0.28797786  0.95066688  0.41575814  1
  C  C2  1  0.71202214  0.04933312  0.58424186  1
  C  C3  1  0.53958926  0.32523958  0.30387584  1
  C  C4  1  0.96041074  0.67476042  0.80387584  1
  C  C5  1  0.46041074  0.67476042  0.69612416  1
  C  C6  1  0.03958926  0.32523958  0.19612416  1
  C  C7  1  0.78797786  0.95066688  0.08424186  1
  N  N8  1  0.47973837  0.53556432  0.75042914  1
  N  N9  1  0.97973837  0.53556432  0.74957086  1
  N  N10  1  0.52026163  0.46443568  0.24957086  1
  N  N11  1  0.32653283  0.03329098  0.81328291  1
  N  N12  1  0.82653283  0.03329098  0.68671709  1
  N  N13  1  0.67346717  0.96670902  0.18671709  1
  N  N14  1  0.02026163  0.46443568  0.25042914  1
  N  N15  1  0.17346717  0.96670902  0.31328291  1
  K  K16  1  0.18134792  0.31031497  0.57623350  1
  K  K17  1  0.31865208  0.68968503  0.07623350  1
  K  K18  1  0.81865208  0.68968503  0.42376650  1
  K  K19  1  0.68134792  0.31031497  0.92376650  1
  Cu  Cu20  1  0.08340286  0.10083283  0.11894709  1
  Cu  Cu21  1  0.41659714  0.89916717  0.61894709  1
  Cu  Cu22  1  0.91659714  0.89916717  0.88105291  1
  Cu  Cu23  1  0.58340286  0.10083283  0.38105291  1
