# generated using pymatgen
data_Li4Ti3Fe3(TeO8)2
_symmetry_space_group_name_H-M   'P 1'
_cell_length_a   6.10629554
_cell_length_b   5.95958610
_cell_length_c   10.28278885
_cell_angle_alpha   89.91273235
_cell_angle_beta   90.00443322
_cell_angle_gamma   119.68646503
_symmetry_Int_Tables_number   1
_chemical_formula_structural   Li4Ti3Fe3(TeO8)2
_chemical_formula_sum   'Li4 Ti3 Fe3 Te2 O16'
_cell_volume   325.08601377
_cell_formula_units_Z   1
loop_
 _symmetry_equiv_pos_site_id
 _symmetry_equiv_pos_as_xyz
  1  'x, y, z'
loop_
 _atom_site_type_symbol
 _atom_site_label
 _atom_site_symmetry_multiplicity
 _atom_site_fract_x
 _atom_site_fract_y
 _atom_site_fract_z
 _atom_site_occupancy
  Li  Li0  1  0.32892546  0.66424732  0.90468099  1
  Li  Li1  1  0.00476736  0.00286990  0.98565498  1
  Li  Li2  1  0.00246574  0.99757647  0.49560598  1
  Li  Li3  1  0.67067985  0.33764317  0.39718389  1
  Ti  Ti4  1  0.18390102  0.84304339  0.21937459  1
  Ti  Ti5  1  0.18065210  0.34568539  0.21952082  1
  Ti  Ti6  1  0.35552168  0.17106096  0.73104249  1
  Fe  Fe7  1  0.66334824  0.83329588  0.21140609  1
  Fe  Fe8  1  0.82769122  0.65343167  0.71696349  1
  Fe  Fe9  1  0.83538899  0.17482550  0.71605460  1
  Te  Te10  1  0.34053719  0.66638048  0.51017055  1
  Te  Te11  1  0.69351048  0.34848673  0.99587120  1
  O  O12  1  0.16299501  0.82590104  0.60601406  1
  O  O13  1  0.02458236  0.51344946  0.31804148  1
  O  O14  1  0.32282220  0.66295712  0.10943636  1
  O  O15  1  0.99281174  0.99759894  0.31064490  1
  O  O16  1  0.01775054  0.99917286  0.80207466  1
  O  O17  1  0.17145950  0.33146157  0.59989552  1
  O  O18  1  0.48127592  0.98570480  0.31386884  1
  O  O19  1  0.47828600  0.50065237  0.31738579  1
  O  O20  1  0.28310385  0.14497788  0.10978264  1
  O  O21  1  0.67411984  0.82521550  0.59757520  1
  O  O22  1  0.50682401  0.48275267  0.82937823  1
  O  O23  1  0.49840532  0.02102992  0.83237111  1
  O  O24  1  0.64236037  0.32989816  0.60929771  1
  O  O25  1  0.84629338  0.68405116  0.09550595  1
  O  O26  1  0.96060062  0.49077737  0.85858949  1
  O  O27  1  0.84892100  0.16615233  0.09444942  1
