# generated using pymatgen
data_Al(CoO2)2
_symmetry_space_group_name_H-M   'P 1'
_cell_length_a   5.81297491
_cell_length_b   5.81297491
_cell_length_c   5.81297491
_cell_angle_alpha   61.17185752
_cell_angle_beta   88.62634379
_cell_angle_gamma   119.59351393
_symmetry_Int_Tables_number   1
_chemical_formula_structural   Al(CoO2)2
_chemical_formula_sum   'Al2 Co4 O8'
_cell_volume   140.49844542
_cell_formula_units_Z   2
loop_
 _symmetry_equiv_pos_site_id
 _symmetry_equiv_pos_as_xyz
  1  'x, y, z'
loop_
 _atom_site_type_symbol
 _atom_site_label
 _atom_site_symmetry_multiplicity
 _atom_site_fract_x
 _atom_site_fract_y
 _atom_site_fract_z
 _atom_site_occupancy
  Al  Al0  1  0.50000000  0.00000000  0.50000000  1
  Al  Al1  1  0.00000000  0.50000000  0.50000000  1
  Co  Co2  1  0.50000000  0.00000000  0.00000000  1
  Co  Co3  1  0.12827230  0.25000000  0.12172770  1
  Co  Co4  1  0.50000000  0.50000000  0.50000000  1
  Co  Co5  1  0.87172770  0.75000000  0.87827230  1
  O  O6  1  0.73847103  0.03170390  0.72982508  1
  O  O7  1  0.73847103  0.46829610  0.29323187  1
  O  O8  1  0.75257070  0.48433898  0.73176828  1
  O  O9  1  0.28389273  0.01566102  0.73176828  1
  O  O10  1  0.71610727  0.98433898  0.26823172  1
  O  O11  1  0.24742930  0.51566102  0.26823172  1
  O  O12  1  0.26152897  0.96829610  0.27017492  1
  O  O13  1  0.26152897  0.53170390  0.70676813  1
