# generated using pymatgen
data_Li3V3P8O29
_symmetry_space_group_name_H-M   'P 1'
_cell_length_a   9.79065594
_cell_length_b   9.76463585
_cell_length_c   14.49893156
_cell_angle_alpha   90.07868058
_cell_angle_beta   90.33491529
_cell_angle_gamma   60.02405989
_symmetry_Int_Tables_number   1
_chemical_formula_structural   Li3V3P8O29
_chemical_formula_sum   'Li6 V6 P16 O58'
_cell_volume   1200.69195594
_cell_formula_units_Z   2
loop_
 _symmetry_equiv_pos_site_id
 _symmetry_equiv_pos_as_xyz
  1  'x, y, z'
loop_
 _atom_site_type_symbol
 _atom_site_label
 _atom_site_symmetry_multiplicity
 _atom_site_fract_x
 _atom_site_fract_y
 _atom_site_fract_z
 _atom_site_occupancy
  Li  Li0  1  0.30487415  0.77481933  0.55982902  1
  Li  Li1  1  0.30281460  0.92002476  0.05491506  1
  Li  Li2  1  0.69697037  0.21415203  0.45364413  1
  Li  Li3  1  0.78270700  0.29523330  0.04882293  1
  Li  Li4  1  0.91542242  0.31163489  0.56369110  1
  Li  Li5  1  0.91933658  0.77963733  0.05079233  1
  V  V6  1  0.99919680  0.56722022  0.25369586  1
  V  V7  1  0.43462291  0.00218335  0.25186433  1
  V  V8  1  0.42915226  0.56882585  0.75350216  1
  V  V9  1  0.56582070  0.43535533  0.24629427  1
  V  V10  1  0.56956599  0.99576308  0.74553867  1
  V  V11  1  0.00332686  0.43443519  0.74966260  1
  P  P12  1  0.08514486  0.22900213  0.16626323  1
  P  P13  1  0.22723341  0.08577536  0.66308812  1
  P  P14  1  0.08504111  0.68802937  0.65914914  1
  P  P15  1  0.33716932  0.33416083  0.36523710  1
  P  P16  1  0.33678939  0.32840762  0.86560249  1
  P  P17  1  0.22474468  0.68701790  0.16523855  1
  P  P18  1  0.32137806  0.76868649  0.34161795  1
  P  P19  1  0.68534943  0.08434350  0.15919042  1
  P  P20  1  0.31860483  0.91516351  0.84182814  1
  P  P21  1  0.67884794  0.23191551  0.66262383  1
  P  P22  1  0.77174456  0.32057293  0.83787897  1
  P  P23  1  0.66737957  0.66723987  0.13295316  1
  P  P24  1  0.66298904  0.66310438  0.63034863  1
  P  P25  1  0.91045159  0.31896928  0.34383477  1
  P  P26  1  0.77173547  0.91570947  0.33996463  1
  P  P27  1  0.91200865  0.77127748  0.83745314  1
  O  O28  1  0.97752156  0.25751966  0.43625894  1
  O  O29  1  0.08400241  0.25750672  0.66103644  1
  O  O30  1  0.20183917  0.01776100  0.75965507  1
  O  O31  1  0.25160676  0.98402570  0.93281220  1
  O  O32  1  0.09160425  0.38365236  0.18153983  1
  O  O33  1  0.25550324  0.08535446  0.16373716  1
  O  O34  1  0.18353429  0.33622850  0.82155747  1
  O  O35  1  0.09253874  0.52581681  0.67751989  1
  O  O36  1  0.98593486  0.76179647  0.92839182  1
  O  O37  1  0.08011735  0.66199233  0.16326221  1
  O  O38  1  0.33711240  0.18543223  0.32092300  1
  O  O39  1  0.18563509  0.48174180  0.32327922  1
  O  O40  1  0.38194567  0.09129174  0.67499607  1
  O  O41  1  0.34555898  0.32894069  0.46707657  1
  O  O42  1  0.33381535  0.33291517  0.96759857  1
  O  O43  1  0.52490632  0.09237956  0.17702050  1
  O  O44  1  0.33824748  0.47850261  0.82296718  1
  O  O45  1  0.47955766  0.18162060  0.82108199  1
  O  O46  1  0.25751023  0.65915391  0.66430081  1
  O  O47  1  0.20180464  0.78052559  0.26148000  1
  O  O48  1  0.23271950  0.77692590  0.08557074  1
  O  O49  1  0.26419284  0.75925627  0.43346545  1
  O  O50  1  0.37908148  0.52319411  0.17882234  1
  O  O51  1  0.48624130  0.33329645  0.32263113  1
  O  O52  1  0.65518051  0.08720665  0.66505608  1
  O  O53  1  0.33959427  0.74699321  0.82785017  1
  O  O54  1  0.51986416  0.38387992  0.67814324  1
  O  O55  1  0.22636826  0.99087814  0.58354529  1
  O  O56  1  0.76573407  0.00227627  0.42452918  1
  O  O57  1  0.48123329  0.61782681  0.31598899  1
  O  O58  1  0.65961314  0.25573776  0.16042482  1
  O  O59  1  0.78920550  0.00448314  0.25098173  1
  O  O60  1  0.34147373  0.91481534  0.32494018  1
  O  O61  1  0.51368275  0.66427243  0.67225545  1
  O  O62  1  0.61827280  0.48137660  0.81981230  1
  O  O63  1  0.76864325  0.24727229  0.92650858  1
  O  O64  1  0.75984060  0.23963426  0.57658090  1
  O  O65  1  0.78794747  0.20987042  0.75118882  1
  O  O66  1  0.74418206  0.33577894  0.33165392  1
  O  O67  1  0.51814835  0.81664000  0.17240917  1
  O  O68  1  0.47845774  0.90495163  0.82053407  1
  O  O69  1  0.66889814  0.51460487  0.17490099  1
  O  O70  1  0.65485215  0.66650487  0.52785916  1
  O  O71  1  0.66777665  0.65901512  0.03071505  1
  O  O72  1  0.61793330  0.90699956  0.32164026  1
  O  O73  1  0.81558105  0.51255879  0.66818097  1
  O  O74  1  0.66108772  0.81344901  0.67408163  1
  O  O75  1  0.91572153  0.34409227  0.82666350  1
  O  O76  1  0.01485778  0.20325800  0.26222640  1
  O  O77  1  0.98820070  0.23544080  0.08607454  1
  O  O78  1  0.90122880  0.48048936  0.32142493  1
  O  O79  1  0.81675383  0.66719783  0.17422125  1
  O  O80  1  0.74422093  0.91532484  0.82571202  1
  O  O81  1  0.90148219  0.61899664  0.81663232  1
  O  O82  1  0.77078693  0.99335821  0.07668365  1
  O  O83  1  0.91338262  0.74504070  0.33116591  1
  O  O84  1  -0.00025864  0.77197333  0.57539149  1
  O  O85  1  0.01017923  0.78609802  0.75430169  1
