# generated using pymatgen
data_Li3Mn2(PO4)3
_symmetry_space_group_name_H-M   'P 1'
_cell_length_a   8.67501139
_cell_length_b   8.71126515
_cell_length_c   12.22092194
_cell_angle_alpha   90.00000140
_cell_angle_beta   85.96472927
_cell_angle_gamma   89.99999890
_symmetry_Int_Tables_number   1
_chemical_formula_structural   Li3Mn2(PO4)3
_chemical_formula_sum   'Li12 Mn8 P12 O48'
_cell_volume   921.24950867
_cell_formula_units_Z   4
loop_
 _symmetry_equiv_pos_site_id
 _symmetry_equiv_pos_as_xyz
  1  'x, y, z'
loop_
 _atom_site_type_symbol
 _atom_site_label
 _atom_site_symmetry_multiplicity
 _atom_site_fract_x
 _atom_site_fract_y
 _atom_site_fract_z
 _atom_site_occupancy
  Li  Li0  1  0.69320856  0.19699203  0.94935665  1
  Li  Li1  1  0.50000000  0.58356996  0.75000000  1
  Li  Li2  1  0.30679144  0.19699203  0.55064335  1
  Li  Li3  1  0.50000000  0.50000000  0.50000000  1
  Li  Li4  1  0.00000000  0.00000000  0.50000000  1
  Li  Li5  1  0.69320856  0.80300797  0.44935665  1
  Li  Li6  1  1.00000000  0.91156096  0.75000000  1
  Li  Li7  1  0.50000000  0.41643004  0.25000000  1
  Li  Li8  1  0.00000000  0.08843904  0.25000000  1
  Li  Li9  1  0.00000000  0.00000000  0.00000000  1
  Li  Li10  1  0.50000000  0.50000000  0.00000000  1
  Li  Li11  1  0.30679144  0.80300797  0.05064335  1
  Mn  Mn12  1  0.71596214  0.99681016  0.64308887  1
  Mn  Mn13  1  0.79063180  0.50385763  0.85429594  1
  Mn  Mn14  1  0.28403786  0.99681016  0.85691113  1
  Mn  Mn15  1  0.71596214  0.00318984  0.14308887  1
  Mn  Mn16  1  0.28403786  0.00318984  0.35691113  1
  Mn  Mn17  1  0.79063180  0.49614237  0.35429594  1
  Mn  Mn18  1  0.20936820  0.50385763  0.64570406  1
  Mn  Mn19  1  0.20936820  0.49614237  0.14570406  1
  P  P20  1  0.50000000  0.28287095  0.75000000  1
  P  P21  1  0.65083871  0.84906907  0.90105751  1
  P  P22  1  0.83973698  0.64467115  0.60478052  1
  P  P23  1  0.16026302  0.64467115  0.89521948  1
  P  P24  1  0.65083871  0.15093093  0.40105751  1
  P  P25  1  0.00000000  0.20849163  0.75000000  1
  P  P26  1  0.34916129  0.84906907  0.59894249  1
  P  P27  1  0.83973698  0.35532885  0.10478052  1
  P  P28  1  0.16026302  0.35532885  0.39521948  1
  P  P29  1  0.34916129  0.15093093  0.09894249  1
  P  P30  1  0.50000000  0.71712905  0.25000000  1
  P  P31  1  0.00000000  0.79150837  0.25000000  1
  O  O32  1  0.86743594  0.30647067  0.80422686  1
  O  O33  1  0.99558686  0.59110437  0.89377705  1
  O  O34  1  0.94489736  0.09977043  0.65954424  1
  O  O35  1  0.56372095  0.38753481  0.83948235  1
  O  O36  1  0.37764047  0.18265622  0.81215558  1
  O  O37  1  0.66273654  0.67097314  0.91557080  1
  O  O38  1  0.74638999  0.93924054  0.98338883  1
  O  O39  1  0.62235953  0.18265622  0.68784442  1
  O  O40  1  0.25375794  0.59281903  0.99288127  1
  O  O41  1  0.74638999  0.06075946  0.48338883  1
  O  O42  1  0.05510264  0.09977043  0.84045576  1
  O  O43  1  0.73990703  0.59661874  0.70909108  1
  O  O44  1  0.47637259  0.87804361  0.91603436  1
  O  O45  1  0.99558686  0.40889563  0.39377705  1
  O  O46  1  0.72676634  0.90290156  0.78932390  1
  O  O47  1  0.43628005  0.38753481  0.66051765  1
  O  O48  1  0.26009297  0.59661874  0.79090892  1
  O  O49  1  0.72676634  0.09709844  0.28932390  1
  O  O50  1  0.85112459  0.82604199  0.59154747  1
  O  O51  1  0.74624206  0.59281903  0.50711873  1
  O  O52  1  0.47637259  0.12195639  0.41603436  1
  O  O53  1  0.13256406  0.30647067  0.69577314  1
  O  O54  1  0.14887541  0.82604199  0.90845253  1
  O  O55  1  0.66273654  0.32902686  0.41557080  1
  O  O56  1  0.33726346  0.67097314  0.58442920  1
  O  O57  1  0.85112459  0.17395801  0.09154747  1
  O  O58  1  0.86743594  0.69352933  0.30422686  1
  O  O59  1  0.52362741  0.87804361  0.58396564  1
  O  O60  1  0.14887541  0.17395801  0.40845253  1
  O  O61  1  0.25375794  0.40718097  0.49288127  1
  O  O62  1  0.73990703  0.40338126  0.20909108  1
  O  O63  1  0.27323366  0.90290156  0.71067610  1
  O  O64  1  0.56372095  0.61246519  0.33948235  1
  O  O65  1  0.27323366  0.09709844  0.21067610  1
  O  O66  1  0.00441314  0.59110437  0.60622295  1
  O  O67  1  0.52362741  0.12195639  0.08396564  1
  O  O68  1  0.26009297  0.40338126  0.29090892  1
  O  O69  1  0.94489736  0.90022957  0.15954424  1
  O  O70  1  0.25361001  0.93924054  0.51661117  1
  O  O71  1  0.74624206  0.40718097  0.00711873  1
  O  O72  1  0.37764047  0.81734378  0.31215558  1
  O  O73  1  0.33726346  0.32902686  0.08442920  1
  O  O74  1  0.25361001  0.06075946  0.01661117  1
  O  O75  1  0.62235953  0.81734378  0.18784442  1
  O  O76  1  0.43628005  0.61246519  0.16051765  1
  O  O77  1  0.05510264  0.90022957  0.34045576  1
  O  O78  1  0.00441314  0.40889563  0.10622295  1
  O  O79  1  0.13256406  0.69352933  0.19577314  1
