# generated using pymatgen
data_Li3CrP2HO8
_symmetry_space_group_name_H-M   'P 1'
_cell_length_a   5.03340653
_cell_length_b   6.30332484
_cell_length_c   5.12752736
_cell_angle_alpha   87.77222762
_cell_angle_beta   112.68172009
_cell_angle_gamma   89.28419581
_symmetry_Int_Tables_number   1
_chemical_formula_structural   Li3CrP2HO8
_chemical_formula_sum   'Li3 Cr1 P2 H1 O8'
_cell_volume   149.92032863
_cell_formula_units_Z   1
loop_
 _symmetry_equiv_pos_site_id
 _symmetry_equiv_pos_as_xyz
  1  'x, y, z'
loop_
 _atom_site_type_symbol
 _atom_site_label
 _atom_site_symmetry_multiplicity
 _atom_site_fract_x
 _atom_site_fract_y
 _atom_site_fract_z
 _atom_site_occupancy
  Li  Li0  1  0.27662732  0.77093733  0.63167732  1
  Li  Li1  1  0.00000000  0.50000000  0.00000000  1
  Li  Li2  1  0.72337268  0.22906267  0.36832268  1
  Cr  Cr3  1  0.00000000  0.00000000  0.00000000  1
  P  P4  1  0.36211163  0.25459494  0.64951675  1
  P  P5  1  0.63788837  0.74540506  0.35048325  1
  H  H6  1  0.50000000  0.50000000  0.00000000  1
  O  O7  1  0.23890217  0.06289223  0.75655993  1
  O  O8  1  0.29900060  0.46281697  0.78402393  1
  O  O9  1  0.22652898  0.27799203  0.32532861  1
  O  O10  1  0.30410040  0.76983848  0.24990567  1
  O  O11  1  0.69589960  0.23016152  0.75009433  1
  O  O12  1  0.77347102  0.72200797  0.67467139  1
  O  O13  1  0.70099940  0.53718303  0.21597607  1
  O  O14  1  0.76109783  0.93710777  0.24344007  1
