# generated using pymatgen
data_PC2S2N3
_symmetry_space_group_name_H-M   'P 1'
_cell_length_a   8.11208821
_cell_length_b   13.88525117
_cell_length_c   35.07358994
_cell_angle_alpha   90.00000000
_cell_angle_beta   90.00000000
_cell_angle_gamma   101.93358813
_symmetry_Int_Tables_number   1
_chemical_formula_structural   PC2S2N3
_chemical_formula_sum   'P24 C48 S48 N72'
_cell_volume   3865.25110578
_cell_formula_units_Z   24
loop_
 _symmetry_equiv_pos_site_id
 _symmetry_equiv_pos_as_xyz
  1  'x, y, z'
loop_
 _atom_site_type_symbol
 _atom_site_label
 _atom_site_symmetry_multiplicity
 _atom_site_fract_x
 _atom_site_fract_y
 _atom_site_fract_z
 _atom_site_occupancy
  P  P0  1  0.90294358  0.53431477  0.72020478  1
  P  P1  1  0.97005382  0.72768724  0.03363502  1
  P  P2  1  0.78919631  0.12042677  0.71577945  1
  P  P3  1  0.11783684  0.76948576  0.21927328  1
  P  P4  1  0.21080369  0.87957323  0.28422055  1
  P  P5  1  0.84579573  0.81846027  0.97255438  1
  P  P6  1  0.15420427  0.18153973  0.02744562  1
  P  P7  1  0.09705642  0.96568523  0.22020478  1
  P  P8  1  0.92205415  0.63349315  0.96328377  1
  P  P9  1  0.92205415  0.13349315  0.53671623  1
  P  P10  1  0.02994618  0.27231276  0.96636498  1
  P  P11  1  0.90294358  0.03431477  0.77979522  1
  P  P12  1  0.07794585  0.86650685  0.46328377  1
  P  P13  1  0.88216316  0.73051424  0.71927328  1
  P  P14  1  0.02994618  0.77231276  0.53363502  1
  P  P15  1  0.97005382  0.22768724  0.46636498  1
  P  P16  1  0.88216316  0.23051424  0.78072672  1
  P  P17  1  0.11783684  0.26948576  0.28072672  1
  P  P18  1  0.15420427  0.68153973  0.47255438  1
  P  P19  1  0.21080369  0.37957323  0.21577945  1
  P  P20  1  0.84579573  0.31846027  0.52744562  1
  P  P21  1  0.09705642  0.46568523  0.27979522  1
  P  P22  1  0.07794585  0.36650685  0.03671623  1
  P  P23  1  0.78919631  0.62042677  0.78422055  1
  C  C24  1  0.77873185  0.69090322  0.10027125  1
  C  C25  1  0.21507024  0.81016677  0.73431002  1
  C  C26  1  0.00592769  0.52610694  0.42554500  1
  C  C27  1  0.51539802  0.35604866  0.53343500  1
  C  C28  1  0.21485078  0.10525369  0.57287001  1
  C  C29  1  0.67213310  0.46253452  0.96559954  1
  C  C30  1  0.78492976  0.18983323  0.26568998  1
  C  C31  1  0.72878642  0.17839890  0.93092660  1
  C  C32  1  0.19440601  0.64894280  0.16412319  1
  C  C33  1  0.45216293  0.57067253  0.80518925  1
  C  C34  1  0.00592769  0.02610694  0.07445500  1
  C  C35  1  0.23257379  0.53133087  0.70474006  1
  C  C36  1  0.22126815  0.30909678  0.89972875  1
  C  C37  1  0.80559399  0.85105720  0.66412319  1
  C  C38  1  0.80559399  0.35105720  0.83587681  1
  C  C39  1  0.99407231  0.47389306  0.57445500  1
  C  C40  1  0.98924065  0.78134724  0.33664670  1
  C  C41  1  0.32786690  0.03746548  0.46559954  1
  C  C42  1  0.78514922  0.89474631  0.42712999  1
  C  C43  1  0.71421372  0.39265448  0.67162669  1
  C  C44  1  0.27121358  0.32160110  0.43092660  1
  C  C45  1  0.28578628  0.10734552  0.17162669  1
  C  C46  1  0.78514922  0.39474631  0.07287001  1
  C  C47  1  0.48460198  0.14395134  0.03343500  1
  C  C48  1  0.23257379  0.03133087  0.79525994  1
  C  C49  1  0.48460198  0.64395134  0.46656500  1
  C  C50  1  0.01075935  0.71865276  0.83664670  1
  C  C51  1  0.67213310  0.96253452  0.53440046  1
  C  C52  1  0.71421372  0.89265448  0.82837331  1
  C  C53  1  0.98924065  0.28134724  0.16335330  1
  C  C54  1  0.28578628  0.60734552  0.32837331  1
  C  C55  1  0.76742621  0.46866913  0.29525994  1
  C  C56  1  0.51539802  0.85604866  0.96656500  1
  C  C57  1  0.72878642  0.67839890  0.56907340  1
  C  C58  1  0.99407231  0.97389306  0.92554500  1
  C  C59  1  0.27121358  0.82160110  0.06907340  1
  C  C60  1  0.78492976  0.68983323  0.23431002  1
  C  C61  1  0.76742621  0.96866913  0.20474006  1
  C  C62  1  0.22126815  0.80909678  0.60027125  1
  C  C63  1  0.45216293  0.07067253  0.69481075  1
  C  C64  1  0.54783707  0.42932747  0.19481075  1
  C  C65  1  0.21507024  0.31016677  0.76568998  1
  C  C66  1  0.32786690  0.53746548  0.03440046  1
  C  C67  1  0.77873185  0.19090322  0.39972875  1
  C  C68  1  0.19440601  0.14894280  0.33587681  1
  C  C69  1  0.21485078  0.60525369  0.92712999  1
  C  C70  1  0.01075935  0.21865276  0.66335330  1
  C  C71  1  0.54783707  0.92932747  0.30518925  1
  S  S72  1  0.94135264  0.95415476  0.10784810  1
  S  S73  1  0.66266756  0.11975982  0.03903333  1
  S  S74  1  0.39658696  0.59808170  0.91480110  1
  S  S75  1  0.46257183  0.13087161  0.47622607  1
  S  S76  1  0.94135264  0.45415476  0.39215190  1
  S  S77  1  0.40411823  0.81966515  0.74533179  1
  S  S78  1  0.82371499  0.42320929  0.87027526  1
  S  S79  1  0.33733244  0.88024018  0.96096667  1
  S  S80  1  0.41787264  0.06389529  0.80946830  1
  S  S81  1  0.40411823  0.31966515  0.75466821  1
  S  S82  1  0.41787264  0.56389529  0.69053170  1
  S  S83  1  0.85416728  0.69908596  0.35547125  1
  S  S84  1  0.60341304  0.90191830  0.41480110  1
  S  S85  1  0.53742817  0.36912839  0.97622607  1
  S  S86  1  0.53742817  0.86912839  0.52377393  1
  S  S87  1  0.74316528  0.94599636  0.30867896  1
  S  S88  1  0.66266756  0.61975982  0.46096667  1
  S  S89  1  0.82371499  0.92320929  0.62972474  1
  S  S90  1  0.62371630  0.32465177  0.63920840  1
  S  S91  1  0.85416728  0.19908596  0.14452875  1
  S  S92  1  0.37628370  0.67534823  0.36079160  1
  S  S93  1  0.59588177  0.68033485  0.24533179  1
  S  S94  1  0.62371630  0.82465177  0.86079160  1
  S  S95  1  0.57488762  0.61415968  0.58990389  1
  S  S96  1  0.74316528  0.44599636  0.19132104  1
  S  S97  1  0.32579996  0.80670336  0.63739502  1
  S  S98  1  0.67420004  0.69329664  0.13739502  1
  S  S99  1  0.58212736  0.93610471  0.19053170  1
  S  S100  1  0.17628501  0.07679071  0.37027526  1
  S  S101  1  0.17628501  0.57679071  0.12972474  1
  S  S102  1  0.05864736  0.04584524  0.89215190  1
  S  S103  1  0.59588177  0.18033485  0.25466821  1
  S  S104  1  0.32579996  0.30670336  0.86260498  1
  S  S105  1  0.05864736  0.54584524  0.60784810  1
  S  S106  1  0.25683472  0.55400364  0.80867896  1
  S  S107  1  0.67420004  0.19329664  0.36260498  1
  S  S108  1  0.58212736  0.43610471  0.30946830  1
  S  S109  1  0.42511238  0.38584032  0.41009611  1
  S  S110  1  0.25683472  0.05400364  0.69132104  1
  S  S111  1  0.14583272  0.80091404  0.85547125  1
  S  S112  1  0.60341304  0.40191830  0.08519890  1
  S  S113  1  0.57488762  0.11415968  0.91009611  1
  S  S114  1  0.33733244  0.38024018  0.53903333  1
  S  S115  1  0.39658696  0.09808170  0.58519890  1
  S  S116  1  0.46257183  0.63087161  0.02377393  1
  S  S117  1  0.14583272  0.30091404  0.64452875  1
  S  S118  1  0.42511238  0.88584032  0.08990389  1
  S  S119  1  0.37628370  0.17534823  0.13920840  1
  N  N120  1  0.01829692  0.36345900  0.99328510  1
  N  N121  1  0.77413811  0.03407349  0.54492727  1
  N  N122  1  0.39584742  0.91979421  0.30446960  1
  N  N123  1  0.90248465  0.81835727  0.01607010  1
  N  N124  1  0.78078608  0.94153577  0.80190818  1
  N  N125  1  0.09751535  0.18164273  0.98392990  1
  N  N126  1  0.84362180  0.23205365  0.94723545  1
  N  N127  1  0.14298206  0.77395394  0.44642951  1
  N  N128  1  0.93056666  0.69346122  0.22509328  1
  N  N129  1  0.93056666  0.19346122  0.27490672  1
  N  N130  1  0.84912764  0.02998063  0.73590760  1
  N  N131  1  0.78438579  0.71618806  0.75912376  1
  N  N132  1  0.21793226  0.20507641  0.30882375  1
  N  N133  1  0.09751535  0.68164273  0.51607010  1
  N  N134  1  0.15637820  0.76794635  0.05276455  1
  N  N135  1  0.90248465  0.31835727  0.48392990  1
  N  N136  1  0.15087236  0.47001937  0.23590760  1
  N  N137  1  0.85701794  0.72604606  0.94642951  1
  N  N138  1  0.95008177  0.42136185  0.54709108  1
  N  N139  1  0.21561421  0.28381194  0.24087624  1
  N  N140  1  0.77413811  0.53407349  0.95507273  1
  N  N141  1  0.90691779  0.15134144  0.67691893  1
  N  N142  1  0.09383242  0.86625389  0.19682907  1
  N  N143  1  0.14220886  0.31600186  0.92856982  1
  N  N144  1  0.91016591  0.99751249  0.21646930  1
  N  N145  1  0.65125121  0.33570892  0.52848556  1
  N  N146  1  0.90691779  0.65134144  0.82308107  1
  N  N147  1  0.04991823  0.57863815  0.45290892  1
  N  N148  1  0.39584742  0.41979421  0.19553040  1
  N  N149  1  0.91016591  0.49751249  0.28353070  1
  N  N150  1  0.14220886  0.81600186  0.57143018  1
  N  N151  1  0.78206774  0.29492359  0.80882375  1
  N  N152  1  0.85701794  0.22604606  0.55357049  1
  N  N153  1  0.08983409  0.00248751  0.78353070  1
  N  N154  1  0.21793226  0.70507641  0.19117625  1
  N  N155  1  0.07099693  0.60973173  0.93485956  1
  N  N156  1  0.90616758  0.63374611  0.69682907  1
  N  N157  1  0.15087236  0.97001937  0.26409240  1
  N  N158  1  0.15637820  0.26794635  0.44723545  1
  N  N159  1  0.21921392  0.55846423  0.30190818  1
  N  N160  1  0.98170308  0.63654100  0.00671490  1
  N  N161  1  0.34874879  0.66429108  0.47151444  1
  N  N162  1  0.84912764  0.52998063  0.76409240  1
  N  N163  1  0.07099693  0.10973173  0.56514044  1
  N  N164  1  0.78078608  0.44153577  0.69809182  1
  N  N165  1  0.21921392  0.05846423  0.19809182  1
  N  N166  1  0.85779114  0.68399814  0.07143018  1
  N  N167  1  0.60415258  0.58020579  0.80446960  1
  N  N168  1  0.78438579  0.21618806  0.74087624  1
  N  N169  1  0.09308221  0.34865856  0.17691893  1
  N  N170  1  0.08983409  0.50248751  0.71646930  1
  N  N171  1  0.95008177  0.92136185  0.95290892  1
  N  N172  1  0.78206774  0.79492359  0.69117625  1
  N  N173  1  0.98170308  0.13654100  0.49328510  1
  N  N174  1  0.22586189  0.46592651  0.04492727  1
  N  N175  1  0.21561421  0.78381194  0.25912376  1
  N  N176  1  0.92900307  0.39026827  0.06514044  1
  N  N177  1  0.14298206  0.27395394  0.05357049  1
  N  N178  1  0.92900307  0.89026827  0.43485956  1
  N  N179  1  0.06943334  0.80653878  0.72509328  1
  N  N180  1  0.84362180  0.73205365  0.55276455  1
  N  N181  1  0.34874879  0.16429108  0.02848556  1
  N  N182  1  0.09308221  0.84865856  0.32308107  1
  N  N183  1  0.90616758  0.13374611  0.80317093  1
  N  N184  1  0.01829692  0.86345900  0.50671490  1
  N  N185  1  0.85779114  0.18399814  0.42856982  1
  N  N186  1  0.09383242  0.36625389  0.30317093  1
  N  N187  1  0.65125121  0.83570892  0.97151444  1
  N  N188  1  0.06943334  0.30653878  0.77490672  1
  N  N189  1  0.60415258  0.08020579  0.69553040  1
  N  N190  1  0.22586189  0.96592651  0.45507273  1
  N  N191  1  0.04991823  0.07863815  0.04709108  1
