# generated using pymatgen
data_Li2Mn(PO4)2
_symmetry_space_group_name_H-M   'P 1'
_cell_length_a   10.00906155
_cell_length_b   5.78051317
_cell_length_c   4.74792191
_cell_angle_alpha   88.53141012
_cell_angle_beta   89.50766818
_cell_angle_gamma   89.92654598
_symmetry_Int_Tables_number   1
_chemical_formula_structural   Li2Mn(PO4)2
_chemical_formula_sum   'Li4 Mn2 P4 O16'
_cell_volume   274.60242335
_cell_formula_units_Z   2
loop_
 _symmetry_equiv_pos_site_id
 _symmetry_equiv_pos_as_xyz
  1  'x, y, z'
loop_
 _atom_site_type_symbol
 _atom_site_label
 _atom_site_symmetry_multiplicity
 _atom_site_fract_x
 _atom_site_fract_y
 _atom_site_fract_z
 _atom_site_occupancy
  Li  Li0  1  0.00000000  0.00000000  0.00000000  1
  Li  Li1  1  0.22959971  0.75044391  0.47019705  1
  Li  Li2  1  0.50000000  0.50000000  0.50000000  1
  Li  Li3  1  0.77040029  0.24955609  0.52980295  1
  Mn  Mn4  1  0.28025357  0.25253929  0.98886794  1
  Mn  Mn5  1  0.71974643  0.74746071  0.01113206  1
  P  P6  1  0.10217944  0.25230077  0.41394138  1
  P  P7  1  0.40976540  0.75421890  0.93777860  1
  P  P8  1  0.59023460  0.24578110  0.06222140  1
  P  P9  1  0.89782056  0.74769923  0.58605862  1
  O  O10  1  0.04424424  0.75578565  0.65625733  1
  O  O11  1  0.12270841  0.24322545  0.73736318  1
  O  O12  1  0.17519709  0.04709248  0.25163479  1
  O  O13  1  0.18334527  0.45227893  0.25975431  1
  O  O14  1  0.33589854  0.96838067  0.80270122  1
  O  O15  1  0.34010268  0.54094258  0.78972831  1
  O  O16  1  0.40695359  0.73898707  0.25278998  1
  O  O17  1  0.44436560  0.24902738  0.19492560  1
  O  O18  1  0.55563440  0.75097262  0.80507440  1
  O  O19  1  0.59304641  0.26101293  0.74721002  1
  O  O20  1  0.66410146  0.03161933  0.19729878  1
  O  O21  1  0.65989732  0.45905742  0.21027169  1
  O  O22  1  0.81665473  0.54772107  0.74024569  1
  O  O23  1  0.82480291  0.95290752  0.74836521  1
  O  O24  1  0.87729159  0.75677455  0.26263682  1
  O  O25  1  0.95575576  0.24421435  0.34374267  1
