# generated using pymatgen
data_Li3V3P8O29
_symmetry_space_group_name_H-M   'P 1'
_cell_length_a   9.78501858
_cell_length_b   9.77397477
_cell_length_c   14.50300025
_cell_angle_alpha   89.25797817
_cell_angle_beta   89.38482240
_cell_angle_gamma   60.01264321
_symmetry_Int_Tables_number   1
_chemical_formula_structural   Li3V3P8O29
_chemical_formula_sum   'Li6 V6 P16 O58'
_cell_volume   1201.25438219
_cell_formula_units_Z   2
loop_
 _symmetry_equiv_pos_site_id
 _symmetry_equiv_pos_as_xyz
  1  'x, y, z'
loop_
 _atom_site_type_symbol
 _atom_site_label
 _atom_site_symmetry_multiplicity
 _atom_site_fract_x
 _atom_site_fract_y
 _atom_site_fract_z
 _atom_site_occupancy
  Li  Li0  1  0.07340201  0.21723510  0.94711884  1
  Li  Li1  1  0.29977680  0.77900503  0.55269656  1
  Li  Li2  1  0.32120232  0.90976510  0.06062368  1
  Li  Li3  1  0.92504495  0.29318516  0.54567568  1
  Li  Li4  1  0.77901033  0.91931987  0.55457352  1
  Li  Li5  1  0.91705548  0.77878964  0.05982185  1
  V  V6  1  0.00256855  0.56611471  0.25091865  1
  V  V7  1  0.43354189  0.00166381  0.25368210  1
  V  V8  1  0.43559199  0.56428449  0.75409334  1
  V  V9  1  0.56958390  0.43326032  0.24349733  1
  V  V10  1  0.56582568  0.00361715  0.74974090  1
  V  V11  1  0.99629092  0.43593106  0.74788456  1
  P  P12  1  0.09242498  0.22979433  0.15956980  1
  P  P13  1  0.22800583  0.08687255  0.66266983  1
  P  P14  1  0.08921667  0.68639555  0.66623741  1
  P  P15  1  0.33546941  0.33413376  0.36525543  1
  P  P16  1  0.32814791  0.33143685  0.86515114  1
  P  P17  1  0.22667536  0.68954901  0.16318808  1
  P  P18  1  0.31904502  0.76511854  0.34065101  1
  P  P19  1  0.68671040  0.08678891  0.16371141  1
  P  P20  1  0.31860529  0.91248189  0.84098653  1
  P  P21  1  0.68723898  0.23111518  0.66257107  1
  P  P22  1  0.77164000  0.31044063  0.84365324  1
  P  P23  1  0.66671857  0.67286000  0.13078097  1
  P  P24  1  0.66533717  0.66882856  0.63307023  1
  P  P25  1  0.90920172  0.31663411  0.33484534  1
  P  P26  1  0.77074029  0.91072045  0.34099650  1
  P  P27  1  0.91056994  0.76847405  0.84213431  1
  O  O28  1  0.98742903  0.24593387  0.42348694  1
  O  O29  1  0.08252954  0.25745742  0.66113482  1
  O  O30  1  0.20216943  0.01514946  0.75907210  1
  O  O31  1  0.24861996  0.99125136  0.93050817  1
  O  O32  1  0.09852863  0.38250697  0.17865581  1
  O  O33  1  0.26104684  0.08257580  0.16435431  1
  O  O34  1  0.17985202  0.33022641  0.82337146  1
  O  O35  1  0.09720906  0.52325629  0.68029612  1
  O  O36  1  0.97622434  0.75999157  0.93411786  1
  O  O37  1  0.08348667  0.66122045  0.16109450  1
  O  O38  1  0.33715827  0.18331402  0.32277952  1
  O  O39  1  0.18225228  0.48060532  0.32166167  1
  O  O40  1  0.38174639  0.09388730  0.67674584  1
  O  O41  1  0.33040051  0.33327857  0.46705133  1
  O  O42  1  0.32629984  0.32410705  0.96685310  1
  O  O43  1  0.52625684  0.09304559  0.17923583  1
  O  O44  1  0.33192401  0.47943548  0.82269520  1
  O  O45  1  0.47709750  0.18444059  0.81968847  1
  O  O46  1  0.25910614  0.66043697  0.66341501  1
  O  O47  1  0.20048020  0.78195086  0.25968442  1
  O  O48  1  0.22636789  0.78671933  0.08375379  1
  O  O49  1  0.25173773  0.76326937  0.43207498  1
  O  O50  1  0.38122984  0.52854190  0.17398106  1
  O  O51  1  0.47804565  0.33846258  0.31980856  1
  O  O52  1  0.65943742  0.08705206  0.66205038  1
  O  O53  1  0.34051420  0.74525024  0.83074847  1
  O  O54  1  0.52572573  0.38373654  0.68001535  1
  O  O55  1  0.23206004  0.99081805  0.58368241  1
  O  O56  1  0.76654115  0.97875228  0.43210300  1
  O  O57  1  0.47799513  0.61508075  0.31883584  1
  O  O58  1  0.65536075  0.25881578  0.16458594  1
  O  O59  1  0.78441974  0.01414399  0.25908905  1
  O  O60  1  0.34140983  0.91146098  0.32626754  1
  O  O61  1  0.51672863  0.66827209  0.67538518  1
  O  O62  1  0.61775836  0.47397405  0.82222396  1
  O  O63  1  0.76947559  0.23538819  0.93120825  1
  O  O64  1  0.77425646  0.23700744  0.58021301  1
  O  O65  1  0.78857366  0.20477842  0.75474193  1
  O  O66  1  0.74195727  0.33970181  0.32586215  1
  O  O67  1  0.51612085  0.82059812  0.17187529  1
  O  O68  1  0.47977251  0.90287752  0.82008035  1
  O  O69  1  0.66454979  0.52373255  0.17412297  1
  O  O70  1  0.67357359  0.65997767  0.53106636  1
  O  O71  1  0.66117221  0.67641432  0.02833973  1
  O  O72  1  0.61916419  0.90058583  0.32131600  1
  O  O73  1  0.81556943  0.51696776  0.67613444  1
  O  O74  1  0.66615108  0.81850898  0.67106350  1
  O  O75  1  0.91757858  0.33609823  0.83307610  1
  O  O76  1  0.00375494  0.20740466  0.24811601  1
  O  O77  1  0.01510230  0.23517121  0.07124144  1
  O  O78  1  0.90049775  0.47929044  0.31621394  1
  O  O79  1  0.81865165  0.66907709  0.16924845  1
  O  O80  1  0.74493411  0.91482198  0.82401830  1
  O  O81  1  0.90061853  0.61782603  0.81796823  1
  O  O82  1  0.77817186  0.99227662  0.08366139  1
  O  O83  1  0.91565318  0.74325877  0.32648081  1
  O  O84  1  0.99052734  0.77745361  0.58690137  1
  O  O85  1  0.01990319  0.77969263  0.76243067  1
