# generated using pymatgen
data_Li6FeNi9O20
_symmetry_space_group_name_H-M   'P 1'
_cell_length_a   7.55654973
_cell_length_b   7.62690061
_cell_length_c   6.48631725
_cell_angle_alpha   92.60887612
_cell_angle_beta   90.98041455
_cell_angle_gamma   66.30749677
_symmetry_Int_Tables_number   1
_chemical_formula_structural   Li6FeNi9O20
_chemical_formula_sum   'Li6 Fe1 Ni9 O20'
_cell_volume   341.96330291
_cell_formula_units_Z   1
loop_
 _symmetry_equiv_pos_site_id
 _symmetry_equiv_pos_as_xyz
  1  'x, y, z'
loop_
 _atom_site_type_symbol
 _atom_site_label
 _atom_site_symmetry_multiplicity
 _atom_site_fract_x
 _atom_site_fract_y
 _atom_site_fract_z
 _atom_site_occupancy
  Li  Li0  1  0.10000000  0.10000000  0.60000000  1
  Li  Li1  1  0.10000000  0.60000000  0.10000000  1
  Li  Li2  1  0.32122821  0.29751995  0.79547195  1
  Li  Li3  1  0.33205066  0.79731532  0.29997358  1
  Li  Li4  1  0.86794934  0.40268468  0.90002642  1
  Li  Li5  1  0.87877179  0.90248005  0.40452805  1
  Fe  Fe6  1  0.60000000  0.10000000  0.10000000  1
  Ni  Ni7  1  0.19976881  0.19811505  0.20289186  1
  Ni  Ni8  1  0.00023119  0.00188495  0.99710814  1
  Ni  Ni9  1  0.19779920  0.69935626  0.69916465  1
  Ni  Ni10  1  0.39837795  0.39972702  0.40567134  1
  Ni  Ni11  1  0.39743329  0.89761507  0.89927312  1
  Ni  Ni12  1  0.60000000  0.60000000  0.60000000  1
  Ni  Ni13  1  0.80256671  0.30238493  0.30072688  1
  Ni  Ni14  1  0.80162205  0.80027298  0.79432866  1
  Ni  Ni15  1  0.00220080  0.50064374  0.50083535  1
  O  O16  1  0.06112998  0.05745720  0.28403400  1
  O  O17  1  0.13887002  0.14254280  0.91596600  1
  O  O18  1  0.05900368  0.55484244  0.77296638  1
  O  O19  1  0.23412774  0.27910601  0.48924606  1
  O  O20  1  0.14099632  0.64515756  0.42703362  1
  O  O21  1  0.34578486  0.33408645  0.12506862  1
  O  O22  1  0.23194577  0.77141441  0.97359466  1
  O  O23  1  0.54424156  0.04372700  0.83385606  1
  O  O24  1  0.42657417  0.47862750  0.67895979  1
  O  O25  1  0.34140662  0.83657806  0.62711796  1
  O  O26  1  0.65575844  0.15627300  0.36614394  1
  O  O27  1  0.54406848  0.53608626  0.33452958  1
  O  O28  1  0.76837803  0.23041667  0.02699930  1
  O  O29  1  0.43162197  0.96958333  0.17300070  1
  O  O30  1  0.65593152  0.66391374  0.86547042  1
  O  O31  1  0.85859338  0.36342194  0.57288204  1
  O  O32  1  0.77342583  0.72137250  0.52104021  1
  O  O33  1  0.96805423  0.42858559  0.22640534  1
  O  O34  1  0.85421514  0.86591355  0.07493138  1
  O  O35  1  0.96587226  0.92089399  0.71075394  1
