# generated using pymatgen
data_Li2Cr2P2O7F2
_symmetry_space_group_name_H-M   'P 1'
_cell_length_a   10.85367743
_cell_length_b   6.91238647
_cell_length_c   10.59377932
_cell_angle_alpha   90.00000000
_cell_angle_beta   90.00000000
_cell_angle_gamma   90.00000000
_symmetry_Int_Tables_number   1
_chemical_formula_structural   Li2Cr2P2O7F2
_chemical_formula_sum   'Li8 Cr8 P8 O28 F8'
_cell_volume   794.79631263
_cell_formula_units_Z   4
loop_
 _symmetry_equiv_pos_site_id
 _symmetry_equiv_pos_as_xyz
  1  'x, y, z'
loop_
 _atom_site_type_symbol
 _atom_site_label
 _atom_site_symmetry_multiplicity
 _atom_site_fract_x
 _atom_site_fract_y
 _atom_site_fract_z
 _atom_site_occupancy
  Li  Li0  1  0.24924270  0.33307158  0.99901986  1
  Li  Li1  1  0.24924270  0.66692842  0.50098014  1
  Li  Li2  1  0.25075730  0.83307158  0.00098014  1
  Li  Li3  1  0.25075730  0.16692842  0.49901986  1
  Li  Li4  1  0.74924270  0.16692842  0.99901986  1
  Li  Li5  1  0.74924270  0.83307158  0.50098014  1
  Li  Li6  1  0.75075730  0.33307158  0.49901986  1
  Li  Li7  1  0.75075730  0.66692842  0.00098014  1
  Cr  Cr8  1  0.00000000  0.00000000  0.00000000  1
  Cr  Cr9  1  0.00000000  0.00000000  0.50000000  1
  Cr  Cr10  1  0.17627649  0.00000000  0.25000000  1
  Cr  Cr11  1  0.32372351  0.50000000  0.75000000  1
  Cr  Cr12  1  0.50000000  0.50000000  0.00000000  1
  Cr  Cr13  1  0.50000000  0.50000000  0.50000000  1
  Cr  Cr14  1  0.67627649  0.50000000  0.25000000  1
  Cr  Cr15  1  0.82372351  0.00000000  0.75000000  1
  P  P16  1  0.06149361  0.28772999  0.75164794  1
  P  P17  1  0.06149361  0.71227001  0.74835206  1
  P  P18  1  0.43850639  0.78772999  0.24835206  1
  P  P19  1  0.43850639  0.21227001  0.25164794  1
  P  P20  1  0.56149361  0.21227001  0.75164794  1
  P  P21  1  0.56149361  0.78772999  0.74835206  1
  P  P22  1  0.93850639  0.28772999  0.25164794  1
  P  P23  1  0.93850639  0.71227001  0.24835206  1
  O  O24  1  0.03150438  0.16747439  0.32949317  1
  O  O25  1  0.03150438  0.83252561  0.17050683  1
  O  O26  1  0.99513668  0.50000000  0.75000000  1
  O  O27  1  0.07479443  0.21480371  0.61593935  1
  O  O28  1  0.07479443  0.78519629  0.88406065  1
  O  O29  1  0.18554585  0.31264295  0.81726836  1
  O  O30  1  0.18554585  0.68735705  0.68273164  1
  O  O31  1  0.31445415  0.81264295  0.18273164  1
  O  O32  1  0.31445415  0.18735705  0.31726836  1
  O  O33  1  0.42520557  0.28519629  0.11593935  1
  O  O34  1  0.42520557  0.71480371  0.38406065  1
  O  O35  1  0.50486332  0.00000000  0.25000000  1
  O  O36  1  0.46849562  0.66747439  0.67050683  1
  O  O37  1  0.46849562  0.33252561  0.82949317  1
  O  O38  1  0.53150438  0.33252561  0.32949317  1
  O  O39  1  0.53150438  0.66747439  0.17050683  1
  O  O40  1  0.49513668  0.00000000  0.75000000  1
  O  O41  1  0.57479443  0.28519629  0.61593935  1
  O  O42  1  0.57479443  0.71480371  0.88406065  1
  O  O43  1  0.68554585  0.81264295  0.68273164  1
  O  O44  1  0.68554585  0.18735705  0.81726836  1
  O  O45  1  0.81445415  0.31264295  0.31726836  1
  O  O46  1  0.81445415  0.68735705  0.18273164  1
  O  O47  1  0.92520557  0.21480371  0.11593935  1
  O  O48  1  0.92520557  0.78519629  0.38406065  1
  O  O49  1  0.00486332  0.50000000  0.25000000  1
  O  O50  1  0.96849562  0.16747439  0.82949317  1
  O  O51  1  0.96849562  0.83252561  0.67050683  1
  F  F52  1  0.19182909  0.08949104  0.04127789  1
  F  F53  1  0.19182909  0.91050896  0.45872211  1
  F  F54  1  0.30817191  0.41050896  0.54127789  1
  F  F55  1  0.30817191  0.58949104  0.95872211  1
  F  F56  1  0.69182809  0.41050896  0.04127789  1
  F  F57  1  0.69182809  0.58949104  0.45872211  1
  F  F58  1  0.80817191  0.08949104  0.54127789  1
  F  F59  1  0.80817191  0.91050896  0.95872211  1
