# generated using pymatgen
data_Mn2(CO3)3
_symmetry_space_group_name_H-M   'P 1'
_cell_length_a   7.66219903
_cell_length_b   7.58708138
_cell_length_c   7.52188881
_cell_angle_alpha   88.28362295
_cell_angle_beta   93.41082469
_cell_angle_gamma   60.85592975
_symmetry_Int_Tables_number   1
_chemical_formula_structural   Mn2(CO3)3
_chemical_formula_sum   'Mn4 C6 O18'
_cell_volume   380.36715263
_cell_formula_units_Z   2
loop_
 _symmetry_equiv_pos_site_id
 _symmetry_equiv_pos_as_xyz
  1  'x, y, z'
loop_
 _atom_site_type_symbol
 _atom_site_label
 _atom_site_symmetry_multiplicity
 _atom_site_fract_x
 _atom_site_fract_y
 _atom_site_fract_z
 _atom_site_occupancy
  Mn  Mn0  1  0.32652111  0.33766594  0.95645644  1
  Mn  Mn1  1  0.33634500  0.33196322  0.54370923  1
  Mn  Mn2  1  0.66373359  0.66808878  0.45627610  1
  Mn  Mn3  1  0.67343874  0.66225486  0.04356510  1
  C  C4  1  0.34525519  0.06349409  0.25747519  1
  C  C5  1  0.06088612  0.59562487  0.24638508  1
  C  C6  1  0.40936689  0.65061394  0.75357391  1
  C  C7  1  0.59070659  0.34928115  0.24633047  1
  C  C8  1  0.93907003  0.40436985  0.75366125  1
  C  C9  1  0.65473571  0.93651792  0.74269987  1
  O  O10  1  0.27352227  0.15145881  0.10032204  1
  O  O11  1  0.27390062  0.14702964  0.40039527  1
  O  O12  1  0.12850609  0.35952296  0.75713451  1
  O  O13  1  0.14765917  0.57754807  0.40542312  1
  O  O14  1  0.14602491  0.58063150  0.10486242  1
  O  O15  1  0.36178270  0.50476556  0.75419549  1
  O  O16  1  0.50891159  0.12435591  0.73783183  1
  O  O17  1  0.57395649  0.28163204  0.09423937  1
  O  O18  1  0.57314985  0.27851885  0.39464998  1
  O  O19  1  0.42698338  0.72134900  0.60524487  1
  O  O20  1  0.42605375  0.71831707  0.90566412  1
  O  O21  1  0.49102989  0.87564774  0.26227335  1
  O  O22  1  0.63826398  0.49516518  0.24572056  1
  O  O23  1  0.85386970  0.41932485  0.89517120  1
  O  O24  1  0.85236221  0.42246653  0.59460084  1
  O  O25  1  0.87143537  0.64051111  0.24298564  1
  O  O26  1  0.72623191  0.85292625  0.59984735  1
  O  O27  1  0.72636414  0.84858832  0.89990740  1
