# generated using pymatgen
data_Li4Mn2Ni5O12
_symmetry_space_group_name_H-M   'P 1'
_cell_length_a   5.00317686
_cell_length_b   8.82775018
_cell_length_c   9.73656368
_cell_angle_alpha   89.99999948
_cell_angle_beta   100.34017177
_cell_angle_gamma   90.00000073
_symmetry_Int_Tables_number   1
_chemical_formula_structural   Li4Mn2Ni5O12
_chemical_formula_sum   'Li8 Mn4 Ni10 O24'
_cell_volume   423.04883949
_cell_formula_units_Z   2
loop_
 _symmetry_equiv_pos_site_id
 _symmetry_equiv_pos_as_xyz
  1  'x, y, z'
loop_
 _atom_site_type_symbol
 _atom_site_label
 _atom_site_symmetry_multiplicity
 _atom_site_fract_x
 _atom_site_fract_y
 _atom_site_fract_z
 _atom_site_occupancy
  Li  Li0  1  0.24673907  0.08635876  0.99401595  1
  Li  Li1  1  0.75161715  0.07588265  0.50668258  1
  Li  Li2  1  0.49382034  0.41603903  0.75120443  1
  Li  Li3  1  0.75151850  0.41587235  0.50687334  1
  Li  Li4  1  0.25326093  0.58635876  0.50598405  1
  Li  Li5  1  0.74838285  0.57588265  0.99331742  1
  Li  Li6  1  0.00617966  0.91603903  0.74879557  1
  Li  Li7  1  0.74848150  0.91587235  0.99312666  1
  Mn  Mn8  1  0.99896585  0.25456266  0.74754010  1
  Mn  Mn9  1  0.50130891  0.25053399  0.24726471  1
  Mn  Mn10  1  0.99869109  0.75053399  0.25273529  1
  Mn  Mn11  1  0.50103415  0.75456266  0.75245990  1
  Ni  Ni12  1  0.00113289  0.07996241  0.25351831  1
  Ni  Ni13  1  0.49792531  0.08283384  0.74736483  1
  Ni  Ni14  1  0.26102159  0.24915047  0.50489653  1
  Ni  Ni15  1  0.00474834  0.41833179  0.24869674  1
  Ni  Ni16  1  0.74354302  0.25933314  0.99374108  1
  Ni  Ni17  1  0.00207469  0.58283384  0.75263517  1
  Ni  Ni18  1  0.49886711  0.57996241  0.24648169  1
  Ni  Ni19  1  0.23897841  0.74915047  0.99510347  1
  Ni  Ni20  1  0.75645698  0.75933314  0.50625892  1
  Ni  Ni21  1  0.49525166  0.91833179  0.25130326  1
  O  O22  1  0.14027298  0.09976554  0.63773915  1
  O  O23  1  0.38843716  0.09936229  0.36474802  1
  O  O24  1  0.36889362  0.23228440  0.85909876  1
  O  O25  1  0.13015451  0.24007708  0.13833489  1
  O  O26  1  0.61771792  0.09718379  0.13089282  1
  O  O27  1  0.85740325  0.10103591  0.86528585  1
  O  O28  1  0.12116642  0.40379052  0.62894594  1
  O  O29  1  0.64695106  0.24580651  0.62774816  1
  O  O30  1  0.38665799  0.40584169  0.36700737  1
  O  O31  1  0.86802657  0.24911864  0.36403527  1
  O  O32  1  0.62467659  0.40870888  0.13429546  1
  O  O33  1  0.87807107  0.41246864  0.85801412  1
  O  O34  1  0.11156284  0.59936229  0.13525198  1
  O  O35  1  0.35972702  0.59976554  0.86226085  1
  O  O36  1  0.13110638  0.73228440  0.64090124  1
  O  O37  1  0.64259675  0.60103591  0.63471415  1
  O  O38  1  0.36984549  0.74007708  0.36166511  1
  O  O39  1  0.88228208  0.59718379  0.36910718  1
  O  O40  1  0.11334201  0.90584169  0.13299263  1
  O  O41  1  0.85304894  0.74580651  0.87225184  1
  O  O42  1  0.63197343  0.74911864  0.13596473  1
  O  O43  1  0.37883358  0.90379052  0.87105406  1
  O  O44  1  0.62192893  0.91246864  0.64198588  1
  O  O45  1  0.87532341  0.90870888  0.36570454  1
