# generated using pymatgen
data_LiCoPO4
_symmetry_space_group_name_H-M   'P 1'
_cell_length_a   10.68921975
_cell_length_b   6.38064782
_cell_length_c   5.12208264
_cell_angle_alpha   90.00000000
_cell_angle_beta   90.00000000
_cell_angle_gamma   90.00000000
_symmetry_Int_Tables_number   1
_chemical_formula_structural   LiCoPO4
_chemical_formula_sum   'Li4 Co4 P4 O16'
_cell_volume   349.34727576
_cell_formula_units_Z   4
loop_
 _symmetry_equiv_pos_site_id
 _symmetry_equiv_pos_as_xyz
  1  'x, y, z'
loop_
 _atom_site_type_symbol
 _atom_site_label
 _atom_site_symmetry_multiplicity
 _atom_site_fract_x
 _atom_site_fract_y
 _atom_site_fract_z
 _atom_site_occupancy
  Li  Li0  1  0.15994238  0.52038492  0.24968313  1
  Li  Li1  1  0.34005762  0.02038492  0.74968313  1
  Li  Li2  1  0.65994238  0.97961508  0.24968313  1
  Li  Li3  1  0.84005762  0.47961508  0.74968313  1
  Co  Co4  1  0.08365482  0.79781199  0.74809057  1
  Co  Co5  1  0.41634518  0.29781199  0.24809057  1
  Co  Co6  1  0.58365482  0.70218801  0.74809057  1
  Co  Co7  1  0.91634518  0.20218801  0.24809057  1
  P  P8  1  0.17961359  0.02018007  0.24932082  1
  P  P9  1  0.32038641  0.52018007  0.74932082  1
  P  P10  1  0.67961359  0.47981993  0.24932082  1
  P  P11  1  0.82038641  0.97981993  0.74932082  1
  O  O12  1  0.09684102  0.21671235  0.18519001  1
  O  O13  1  0.11825514  0.82026128  0.12971966  1
  O  O14  1  0.18694372  0.55004655  0.63456366  1
  O  O15  1  0.18676464  0.99583274  0.54928115  1
  O  O16  1  0.31323536  0.49583274  0.04928115  1
  O  O17  1  0.31305628  0.05004655  0.13456366  1
  O  O18  1  0.38174486  0.32026128  0.62971966  1
  O  O19  1  0.40315898  0.71671235  0.68519001  1
  O  O20  1  0.59684102  0.28328765  0.18519001  1
  O  O21  1  0.61825514  0.67973872  0.12971966  1
  O  O22  1  0.68694372  0.94995345  0.63456366  1
  O  O23  1  0.68676464  0.50416726  0.54928115  1
  O  O24  1  0.81323536  0.00416726  0.04928115  1
  O  O25  1  0.81305628  0.44995345  0.13456366  1
  O  O26  1  0.88174486  0.17973872  0.62971966  1
  O  O27  1  0.90315898  0.78328765  0.68519001  1
