# generated using pymatgen
data_Li4Mn3Fe2Ni3O16
_symmetry_space_group_name_H-M   'P 1'
_cell_length_a   5.79115821
_cell_length_b   5.81492034
_cell_length_c   9.46148598
_cell_angle_alpha   89.58455770
_cell_angle_beta   89.89390405
_cell_angle_gamma   120.21883472
_symmetry_Int_Tables_number   1
_chemical_formula_structural   Li4Mn3Fe2Ni3O16
_chemical_formula_sum   'Li4 Mn3 Fe2 Ni3 O16'
_cell_volume   275.30687764
_cell_formula_units_Z   1
loop_
 _symmetry_equiv_pos_site_id
 _symmetry_equiv_pos_as_xyz
  1  'x, y, z'
loop_
 _atom_site_type_symbol
 _atom_site_label
 _atom_site_symmetry_multiplicity
 _atom_site_fract_x
 _atom_site_fract_y
 _atom_site_fract_z
 _atom_site_occupancy
  Li  Li0  1  0.33919553  0.66456582  0.88763123  1
  Li  Li1  1  0.99701292  0.99835309  0.99607962  1
  Li  Li2  1  0.99250131  0.99759484  0.49797511  1
  Li  Li3  1  0.66024789  0.32865841  0.39548425  1
  Mn  Mn4  1  0.16923117  0.82950493  0.21400568  1
  Mn  Mn5  1  0.17117184  0.33901246  0.21541232  1
  Mn  Mn6  1  0.33984431  0.17210979  0.71444900  1
  Fe  Fe7  1  0.33602388  0.67924271  0.49390227  1
  Fe  Fe8  1  0.67921315  0.33798913  0.98935317  1
  Ni  Ni9  1  0.66009338  0.83152462  0.21562778  1
  Ni  Ni10  1  0.83241551  0.66067450  0.71583202  1
  Ni  Ni11  1  0.83046255  0.16962124  0.71323379  1
  O  O12  1  0.15777221  0.84021800  0.60470727  1
  O  O13  1  0.03140240  0.51315438  0.33264207  1
  O  O14  1  0.32740509  0.66438008  0.10698347  1
  O  O15  1  0.00491394  0.00017792  0.30948765  1
  O  O16  1  0.00357208  0.01801749  0.80915522  1
  O  O17  1  0.16111215  0.32383536  0.60193911  1
  O  O18  1  0.46152657  0.96472168  0.34313552  1
  O  O19  1  0.47947495  0.52098524  0.33727316  1
  O  O20  1  0.32701529  0.16474112  0.10317177  1
  O  O21  1  0.67358044  0.84508061  0.60376677  1
  O  O22  1  0.52174733  0.47926473  0.83491470  1
  O  O23  1  0.51993805  0.03784728  0.83360949  1
  O  O24  1  0.66212187  0.31694805  0.60618673  1
  O  O25  1  0.85559081  0.67178155  0.09487256  1
  O  O26  1  0.96612368  0.47100606  0.83283462  1
  O  O27  1  0.83928872  0.15928791  0.10417464  1
