# generated using pymatgen
data_FeOF
_symmetry_space_group_name_H-M   'P 1'
_cell_length_a   14.21483957
_cell_length_b   9.48672196
_cell_length_c   3.08998309
_cell_angle_alpha   90.00000000
_cell_angle_beta   90.00000000
_cell_angle_gamma   90.39399514
_symmetry_Int_Tables_number   1
_chemical_formula_structural   FeOF
_chemical_formula_sum   'Fe12 O12 F12'
_cell_volume   416.68126101
_cell_formula_units_Z   12
loop_
 _symmetry_equiv_pos_site_id
 _symmetry_equiv_pos_as_xyz
  1  'x, y, z'
loop_
 _atom_site_type_symbol
 _atom_site_label
 _atom_site_symmetry_multiplicity
 _atom_site_fract_x
 _atom_site_fract_y
 _atom_site_fract_z
 _atom_site_occupancy
  Fe  Fe0  1  0.99961425  0.99912987  0.00000000  1
  Fe  Fe1  1  0.00812148  0.49581276  0.00000000  1
  Fe  Fe2  1  0.14921708  0.24319812  0.50000000  1
  Fe  Fe3  1  0.16461065  0.72147365  0.50000000  1
  Fe  Fe4  1  0.34230819  0.99025187  0.00000000  1
  Fe  Fe5  1  0.33373700  0.51229227  0.00000000  1
  Fe  Fe6  1  0.48951939  0.74483171  0.50000000  1
  Fe  Fe7  1  0.52089107  0.25045596  0.50000000  1
  Fe  Fe8  1  0.67280997  0.00866996  0.00000000  1
  Fe  Fe9  1  0.66994999  0.48823036  0.00000000  1
  Fe  Fe10  1  0.81537032  0.25325532  0.50000000  1
  Fe  Fe11  1  0.83363574  0.78184057  0.50000000  1
  O  O12  1  0.06399801  0.40177333  0.50000000  1
  O  O13  1  0.09823833  0.14300462  0.00000000  1
  O  O14  1  0.09647428  0.65638550  0.00000000  1
  O  O15  1  0.26854973  0.59279079  0.50000000  1
  O  O16  1  0.39771993  0.90350273  0.50000000  1
  O  O17  1  0.43756772  0.64591289  0.00000000  1
  O  O18  1  0.56433976  0.35675319  0.00000000  1
  O  O19  1  0.59979820  0.09356248  0.50000000  1
  O  O20  1  0.73441886  0.41148595  0.50000000  1
  O  O21  1  0.73041901  0.90250208  0.50000000  1
  O  O22  1  0.77071461  0.15540272  0.00000000  1
  O  O23  1  0.90517517  0.85639624  0.00000000  1
  F  F24  1  0.06917760  0.90347893  0.50000000  1
  F  F25  1  0.23161537  0.33690577  0.00000000  1
  F  F26  1  0.22932914  0.85064760  0.00000000  1
  F  F27  1  0.26889515  0.09657024  0.50000000  1
  F  F28  1  0.39427840  0.39455895  0.50000000  1
  F  F29  1  0.43156116  0.15667282  0.00000000  1
  F  F30  1  0.56207353  0.84139058  0.00000000  1
  F  F31  1  0.60664241  0.60645107  0.50000000  1
  F  F32  1  0.77076926  0.65720744  0.00000000  1
  F  F33  1  0.89984328  0.34947263  0.00000000  1
  F  F34  1  0.93728981  0.10321105  0.50000000  1
  F  F35  1  0.93132714  0.59452100  0.50000000  1
