# generated using pymatgen
data_Li4Ti2Co3Ni3O16
_symmetry_space_group_name_H-M   'P 1'
_cell_length_a   5.83924838
_cell_length_b   5.68669202
_cell_length_c   9.40156984
_cell_angle_alpha   89.99751489
_cell_angle_beta   92.28284557
_cell_angle_gamma   119.09967038
_symmetry_Int_Tables_number   1
_chemical_formula_structural   Li4Ti2Co3Ni3O16
_chemical_formula_sum   'Li4 Ti2 Co3 Ni3 O16'
_cell_volume   272.49930699
_cell_formula_units_Z   1
loop_
 _symmetry_equiv_pos_site_id
 _symmetry_equiv_pos_as_xyz
  1  'x, y, z'
loop_
 _atom_site_type_symbol
 _atom_site_label
 _atom_site_symmetry_multiplicity
 _atom_site_fract_x
 _atom_site_fract_y
 _atom_site_fract_z
 _atom_site_occupancy
  Li  Li0  1  0.31568015  0.65790891  0.89695699  1
  Li  Li1  1  -0.00100115  -0.00063496  0.99460482  1
  Li  Li2  1  0.00866263  0.00435220  0.49652158  1
  Li  Li3  1  0.66453188  0.33237315  0.39383553  1
  Ti  Ti4  1  0.33893443  0.66926834  0.49547588  1
  Ti  Ti5  1  0.66105086  0.33073669  0.99571044  1
  Co  Co6  1  0.17596908  0.83315779  0.21606141  1
  Co  Co7  1  0.17560475  0.34247402  0.21586617  1
  Co  Co8  1  0.34234501  0.17114559  0.71634794  1
  Ni  Ni9  1  0.66418819  0.83204694  0.21139891  1
  Ni  Ni10  1  0.83053008  0.66244933  0.71388008  1
  Ni  Ni11  1  0.83051007  0.16805932  0.71390302  1
  O  O12  1  0.18674616  0.84642327  0.59841706  1
  O  O13  1  0.03750100  0.51858444  0.33329684  1
  O  O14  1  0.30694902  0.65367220  0.11010765  1
  O  O15  1  0.02265308  0.01112478  0.30533075  1
  O  O16  1  0.01456469  0.00733685  0.80446927  1
  O  O17  1  0.18677700  0.34033653  0.59847251  1
  O  O18  1  0.46100008  0.95920991  0.34101722  1
  O  O19  1  0.46109697  0.50207214  0.34074232  1
  O  O20  1  0.33035826  0.16555120  0.10416390  1
  O  O21  1  0.68082105  0.84041871  0.59148806  1
  O  O22  1  0.49940616  0.46868865  0.84163804  1
  O  O23  1  0.49943552  0.03071271  0.84163768  1
  O  O24  1  0.65639098  0.32818102  0.61428410  1
  O  O25  1  0.84921136  0.66797590  0.09155272  1
  O  O26  1  0.95070367  0.47532711  0.83895231  1
  O  O27  1  0.84937804  0.18134626  0.09170381  1
