# generated using pymatgen
data_Li2V3O6
_symmetry_space_group_name_H-M   'P 1'
_cell_length_a   6.06832103
_cell_length_b   3.02933756
_cell_length_c   6.60021790
_cell_angle_alpha   76.88072600
_cell_angle_beta   104.00788032
_cell_angle_gamma   89.95541505
_symmetry_Int_Tables_number   1
_chemical_formula_structural   Li2V3O6
_chemical_formula_sum   'Li2 V3 O6'
_cell_volume   114.45152517
_cell_formula_units_Z   1
loop_
 _symmetry_equiv_pos_site_id
 _symmetry_equiv_pos_as_xyz
  1  'x, y, z'
loop_
 _atom_site_type_symbol
 _atom_site_label
 _atom_site_symmetry_multiplicity
 _atom_site_fract_x
 _atom_site_fract_y
 _atom_site_fract_z
 _atom_site_occupancy
  Li  Li0  1  0.01731949  0.99492111  0.01406291  1
  Li  Li1  1  0.64961022  0.67154088  0.65336385  1
  V  V2  1  0.48666705  0.99090655  0.01280884  1
  V  V3  1  0.83298051  0.33353939  0.33353773  1
  V  V4  1  0.18030223  0.67508888  0.65344646  1
  O  O5  1  0.73729763  0.48266107  0.02510439  1
  O  O6  1  0.04680728  0.83113571  0.33637340  1
  O  O7  1  0.41285826  0.15609571  0.68906808  1
  O  O8  1  0.61904109  0.83539387  0.33024043  1
  O  O9  1  0.92946523  0.18252127  0.64154875  1
  O  O10  1  0.25431699  0.51286157  0.97711217  1
