# generated using pymatgen
data_VOF
_symmetry_space_group_name_H-M   'P 1'
_cell_length_a   4.69786966
_cell_length_b   10.53102166
_cell_length_c   5.64379485
_cell_angle_alpha   83.27782332
_cell_angle_beta   90.00045703
_cell_angle_gamma   89.99969184
_symmetry_Int_Tables_number   1
_chemical_formula_structural   VOF
_chemical_formula_sum   'V8 O8 F8'
_cell_volume   277.29803068
_cell_formula_units_Z   8
loop_
 _symmetry_equiv_pos_site_id
 _symmetry_equiv_pos_as_xyz
  1  'x, y, z'
loop_
 _atom_site_type_symbol
 _atom_site_label
 _atom_site_symmetry_multiplicity
 _atom_site_fract_x
 _atom_site_fract_y
 _atom_site_fract_z
 _atom_site_occupancy
  V  V0  1  0.48075089  0.26479662  0.74407199  1
  V  V1  1  0.51924911  0.98520338  0.50592801  1
  V  V2  1  0.51730086  0.73576693  0.25498332  1
  V  V3  1  0.48269914  0.51423307  0.99501668  1
  V  V4  1  0.98270677  0.23576251  0.25497962  1
  V  V5  1  0.01925057  0.76479046  0.74409647  1
  V  V6  1  0.98074943  0.48520954  0.50590353  1
  V  V7  1  0.01729323  0.01423749  0.99502038  1
  O  O8  1  0.80161553  0.31868476  0.52279634  1
  O  O9  1  0.80025254  0.07106479  0.27335630  1
  O  O10  1  0.69838143  0.81867625  0.52281579  1
  O  O11  1  0.69975371  0.57107282  0.27334634  1
  O  O12  1  0.30161857  0.43132375  0.72718421  1
  O  O13  1  0.30024629  0.67892718  0.97665366  1
  O  O14  1  0.19838447  0.93131524  0.72720366  1
  O  O15  1  0.19974746  0.17893521  0.97664370  1
  F  F16  1  0.80606669  0.58130764  0.77443222  1
  F  F17  1  0.80301066  0.83482702  0.02185186  1
  F  F18  1  0.69393790  0.08131435  0.77443326  1
  F  F19  1  0.69698825  0.33482903  0.02184687  1
  F  F20  1  0.30301175  0.91517097  0.22815313  1
  F  F21  1  0.30606210  0.16868565  0.47556674  1
  F  F22  1  0.19393331  0.66869236  0.47556778  1
  F  F23  1  0.19698934  0.41517298  0.22814814  1
