# generated using pymatgen
data_Li3Cr2P2(CO7)2
_symmetry_space_group_name_H-M   'P 1'
_cell_length_a   8.30207156
_cell_length_b   5.09126012
_cell_length_c   6.38192605
_cell_angle_alpha   89.67823419
_cell_angle_beta   90.17449030
_cell_angle_gamma   84.83034979
_symmetry_Int_Tables_number   1
_chemical_formula_structural   Li3Cr2P2(CO7)2
_chemical_formula_sum   'Li3 Cr2 P2 C2 O14'
_cell_volume   268.64806658
_cell_formula_units_Z   1
loop_
 _symmetry_equiv_pos_site_id
 _symmetry_equiv_pos_as_xyz
  1  'x, y, z'
loop_
 _atom_site_type_symbol
 _atom_site_label
 _atom_site_symmetry_multiplicity
 _atom_site_fract_x
 _atom_site_fract_y
 _atom_site_fract_z
 _atom_site_occupancy
  Li  Li0  1  0.27605608  0.24916725  0.45592901  1
  Li  Li1  1  0.72713470  0.74549178  0.96997301  1
  Li  Li2  1  0.90691848  0.23159666  0.74496779  1
  Cr  Cr3  1  0.32346235  0.79698062  0.75461368  1
  Cr  Cr4  1  0.67561104  0.20162072  0.25795322  1
  P  P5  1  0.41633468  0.72826254  0.25188567  1
  P  P6  1  0.57861075  0.27724914  0.75158818  1
  C  C7  1  0.04323768  0.69575445  0.75050816  1
  C  C8  1  0.95482265  0.29789769  0.25056177  1
  O  O9  1  0.09446962  0.35859563  0.27682914  1
  O  O10  1  0.08095022  0.94069894  0.75325070  1
  O  O11  1  0.16883184  0.52236125  0.72784252  1
  O  O12  1  0.31257055  0.79636847  0.05835108  1
  O  O13  1  0.31919538  0.83354008  0.44292325  1
  O  O14  1  0.42320421  0.14136508  0.73200239  1
  O  O15  1  0.46279371  0.42630292  0.27627376  1
  O  O16  1  0.53897963  0.57846704  0.77538529  1
  O  O17  1  0.57747332  0.86704206  0.23197800  1
  O  O18  1  0.68944426  0.17084382  0.93729038  1
  O  O19  1  0.69511850  0.21513411  0.56189955  1
  O  O20  1  0.82682645  0.47709159  0.22182904  1
  O  O21  1  0.90842068  0.05829047  0.25530306  1
  O  O22  1  0.90209321  0.62695968  0.77254935  1
