# generated using pymatgen
data_SiO2
_symmetry_space_group_name_H-M   'P 1'
_cell_length_a   2.82969482
_cell_length_b   11.67876787
_cell_length_c   11.62551088
_cell_angle_alpha   89.23349380
_cell_angle_beta   82.98407873
_cell_angle_gamma   83.38803892
_symmetry_Int_Tables_number   1
_chemical_formula_structural   SiO2
_chemical_formula_sum   'Si8 O16'
_cell_volume   378.77926126
_cell_formula_units_Z   8
loop_
 _symmetry_equiv_pos_site_id
 _symmetry_equiv_pos_as_xyz
  1  'x, y, z'
loop_
 _atom_site_type_symbol
 _atom_site_label
 _atom_site_symmetry_multiplicity
 _atom_site_fract_x
 _atom_site_fract_y
 _atom_site_fract_z
 _atom_site_occupancy
  Si  Si0  1  0.40950419  0.91504009  0.33521488  1
  Si  Si1  1  0.66112936  0.08182254  0.64397360  1
  Si  Si2  1  0.31373125  0.18378113  0.29405528  1
  Si  Si3  1  0.76319348  0.81077305  0.68265937  1
  Si  Si4  1  0.57668822  0.69364441  0.17612641  1
  Si  Si5  1  0.49417600  0.30169228  0.80248299  1
  Si  Si6  1  0.72526221  0.65344727  0.90480861  1
  Si  Si7  1  0.34391161  0.34501566  0.07394670  1
  O  O8  1  0.88114989  0.89743027  0.40844618  1
  O  O9  1  0.18827873  0.10174061  0.57172783  1
  O  O10  1  0.79959583  0.41760116  0.09275392  1
  O  O11  1  0.26942774  0.58098373  0.88594670  1
  O  O12  1  0.38729508  0.04410504  0.28172783  1
  O  O13  1  0.69358361  0.95026803  0.69166009  1
  O  O14  1  0.63658555  0.70468737  0.03562684  1
  O  O15  1  0.43171058  0.29403349  0.94311313  1
  O  O16  1  0.49742356  0.82363064  0.22884265  1
  O  O17  1  0.57920821  0.17017251  0.75326708  1
  O  O18  1  0.35124810  0.23789035  0.16380535  1
  O  O19  1  0.71540975  0.76043300  0.81442124  1
  O  O20  1  0.31413361  0.76937735  0.62063970  1
  O  O21  1  0.76326932  0.22295986  0.35701939  1
  O  O22  1  0.08625866  0.63138421  0.21651961  1
  O  O23  1  0.98571547  0.36331598  0.76090464  1
