# generated using pymatgen
data_NbFe3Co2(PO4)6
_symmetry_space_group_name_H-M   'P 1'
_cell_length_a   8.58044610
_cell_length_b   8.69140017
_cell_length_c   8.69140012
_cell_angle_alpha   59.99999782
_cell_angle_beta   59.57131588
_cell_angle_gamma   59.57131141
_symmetry_Int_Tables_number   1
_chemical_formula_structural   NbFe3Co2(PO4)6
_chemical_formula_sum   'Nb1 Fe3 Co2 P6 O24'
_cell_volume   455.33360010
_cell_formula_units_Z   1
loop_
 _symmetry_equiv_pos_site_id
 _symmetry_equiv_pos_as_xyz
  1  'x, y, z'
loop_
 _atom_site_type_symbol
 _atom_site_label
 _atom_site_symmetry_multiplicity
 _atom_site_fract_x
 _atom_site_fract_y
 _atom_site_fract_z
 _atom_site_occupancy
  Nb  Nb0  1  0.57334794  0.14221769  0.14221769  1
  Fe  Fe1  1  0.06650928  0.64449691  0.64449691  1
  Fe  Fe2  1  0.43893984  0.85368672  0.85368672  1
  Fe  Fe3  1  0.93223565  0.35592112  0.35592112  1
  Co  Co4  1  0.02121518  0.99292861  0.99292861  1
  Co  Co5  1  0.50107419  0.49964194  0.49964194  1
  P  P6  1  0.24314451  0.25360184  0.55067847  1
  P  P7  1  0.24314451  0.95257518  0.25360184  1
  P  P8  1  0.24314451  0.55067847  0.95257518  1
  P  P9  1  0.75020866  0.46109256  0.04556100  1
  P  P10  1  0.75020866  0.04556100  0.74313778  1
  P  P11  1  0.75020866  0.74313778  0.46109256  1
  O  O12  1  0.06738462  0.11126794  0.31695307  1
  O  O13  1  0.06738462  0.50439336  0.11126794  1
  O  O14  1  0.06738462  0.31695307  0.50439336  1
  O  O15  1  0.22898325  0.08999076  0.74194353  1
  O  O16  1  0.42566583  0.18351199  0.38567280  1
  O  O17  1  0.27721224  0.40874074  0.55569245  1
  O  O18  1  0.22898325  0.93908345  0.08999076  1
  O  O19  1  0.27721224  0.75835457  0.40874074  1
  O  O20  1  0.56775277  0.61215152  0.00419186  1
  O  O21  1  0.27721224  0.55569245  0.75835457  1
  O  O22  1  0.76859143  0.26094362  0.06263911  1
  O  O23  1  0.56775277  0.00419186  0.81590385  1
  O  O24  1  0.42566583  0.00514938  0.18351199  1
  O  O25  1  0.22898325  0.74194353  0.93908345  1
  O  O26  1  0.72696425  0.44206199  0.24220785  1
  O  O27  1  0.42566583  0.38567280  0.00514938  1
  O  O28  1  0.72696425  0.24220785  0.58876492  1
  O  O29  1  0.76859143  0.06263911  0.90782584  1
  O  O30  1  0.72696425  0.58876492  0.44206199  1
  O  O31  1  0.56775277  0.81590385  0.61215152  1
  O  O32  1  0.76859143  0.90782584  0.26094362  1
  O  O33  1  0.93298240  0.68520902  0.49443104  1
  O  O34  1  0.93298240  0.49443104  0.88737754  1
  O  O35  1  0.93298240  0.88737754  0.68520902  1
