# generated using pymatgen
data_Li4V3P8O29
_symmetry_space_group_name_H-M   'P 1'
_cell_length_a   9.79703631
_cell_length_b   9.78357253
_cell_length_c   14.09911559
_cell_angle_alpha   89.97791772
_cell_angle_beta   89.90893020
_cell_angle_gamma   60.06010477
_symmetry_Int_Tables_number   1
_chemical_formula_structural   Li4V3P8O29
_chemical_formula_sum   'Li8 V6 P16 O58'
_cell_volume   1171.05369052
_cell_formula_units_Z   2
loop_
 _symmetry_equiv_pos_site_id
 _symmetry_equiv_pos_as_xyz
  1  'x, y, z'
loop_
 _atom_site_type_symbol
 _atom_site_label
 _atom_site_symmetry_multiplicity
 _atom_site_fract_x
 _atom_site_fract_y
 _atom_site_fract_z
 _atom_site_occupancy
  Li  Li0  1  0.09392812  0.22362127  0.94238916  1
  Li  Li1  1  0.22840322  0.08557192  0.43934374  1
  Li  Li2  1  0.09364294  0.68226147  0.44245520  1
  Li  Li3  1  0.22703826  0.68705532  0.93939297  1
  Li  Li4  1  0.77212807  0.31423186  0.06087936  1
  Li  Li5  1  0.90672141  0.31688433  0.55741423  1
  Li  Li6  1  0.77128394  0.91436679  0.56091103  1
  Li  Li7  1  0.90598056  0.77672703  0.05726752  1
  V  V8  1  0.00007307  0.56979578  0.25013931  1
  V  V9  1  0.43675810  0.99405276  0.24427216  1
  V  V10  1  0.43665614  0.56909091  0.74450393  1
  V  V11  1  0.56320997  0.43088273  0.25569071  1
  V  V12  1  0.56322338  0.00618259  0.75604228  1
  V  V13  1  0.99973488  0.43024479  0.74921866  1
  P  P14  1  0.08998623  0.23179860  0.15986974  1
  P  P15  1  0.23421034  0.08546084  0.65539051  1
  P  P16  1  0.08976915  0.67876200  0.66020617  1
  P  P17  1  0.32991623  0.33111144  0.37128140  1
  P  P18  1  0.32975199  0.33881463  0.87147366  1
  P  P19  1  0.23378876  0.68052210  0.15571867  1
  P  P20  1  0.31509444  0.77124605  0.33935198  1
  P  P21  1  0.68495789  0.08655098  0.16086391  1
  P  P22  1  0.31514481  0.91344477  0.83910816  1
  P  P23  1  0.68502419  0.22851558  0.66077684  1
  P  P24  1  0.76643698  0.31948287  0.84414515  1
  P  P25  1  0.67002088  0.66150997  0.12872339  1
  P  P26  1  0.66943827  0.66928273  0.62867588  1
  P  P27  1  0.91031387  0.32133808  0.33992982  1
  P  P28  1  0.76611901  0.91428972  0.34451012  1
  P  P29  1  0.90993998  0.76802364  0.84018380  1
  O  O30  1  0.99669848  0.24221527  0.42922766  1
  O  O31  1  0.08507187  0.25192253  0.66072794  1
  O  O32  1  0.21481458  0.99147727  0.74366043  1
  O  O33  1  0.23081775  0.00642062  0.92433772  1
  O  O34  1  0.09962343  0.38156920  0.17673183  1
  O  O35  1  0.25662122  0.08461723  0.16623899  1
  O  O36  1  0.18528417  0.32861353  0.83278437  1
  O  O37  1  0.09885497  0.51893206  0.67708941  1
  O  O38  1  0.99603160  0.76183997  0.92936318  1
  O  O39  1  0.08483060  0.66262826  0.16170681  1
  O  O40  1  0.33043286  0.18200244  0.32925184  1
  O  O41  1  0.18500439  0.48594265  0.33238255  1
  O  O42  1  0.38351049  0.09596427  0.68022697  1
  O  O43  1  0.33477291  0.33054423  0.47662703  1
  O  O44  1  0.33655533  0.33486470  0.97676690  1
  O  O45  1  0.52240448  0.09534690  0.17664220  1
  O  O46  1  0.32996421  0.48746156  0.82877551  1
  O  O47  1  0.48069703  0.18712169  0.82578329  1
  O  O48  1  0.25663111  0.65829123  0.66620761  1
  O  O49  1  0.21481857  0.79369080  0.24381804  1
  O  O50  1  0.24514219  0.74794012  0.06385405  1
  O  O51  1  0.23119158  0.76157013  0.42457821  1
  O  O52  1  0.38345322  0.52070771  0.17981241  1
  O  O53  1  0.48039250  0.33221445  0.32538472  1
  O  O54  1  0.66067733  0.08375579  0.66168341  1
  O  O55  1  0.33891437  0.74432729  0.83818617  1
  O  O56  1  0.52272425  0.38248384  0.67668535  1
  O  O57  1  0.24695630  0.00589029  0.56375122  1
  O  O58  1  0.75409691  0.99315383  0.43634349  1
  O  O59  1  0.47762707  0.61752355  0.32337612  1
  O  O60  1  0.66108111  0.25559284  0.16173458  1
  O  O61  1  0.78516908  0.00866783  0.25640297  1
  O  O62  1  0.33904283  0.91630607  0.33850467  1
  O  O63  1  0.51911323  0.66838779  0.67496681  1
  O  O64  1  0.61652714  0.47910221  0.82031356  1
  O  O65  1  0.75629912  0.25232291  0.93633029  1
  O  O66  1  0.76921623  0.23764148  0.57559814  1
  O  O67  1  0.78527855  0.20585297  0.75642087  1
  O  O68  1  0.74347147  0.34142107  0.33383056  1
  O  O69  1  0.51936928  0.81286988  0.17462334  1
  O  O70  1  0.47789947  0.90420559  0.82341642  1
  O  O71  1  0.66947460  0.51276318  0.17067430  1
  O  O72  1  0.66416879  0.66916825  0.52333847  1
  O  O73  1  0.66450937  0.66653904  0.02339447  1
  O  O74  1  0.61660173  0.90399367  0.32004594  1
  O  O75  1  0.81492682  0.51397035  0.66723918  1
  O  O76  1  0.66979830  0.81803912  0.67035402  1
  O  O77  1  0.91518537  0.33782955  0.83739671  1
  O  O78  1  0.99990930  0.21014424  0.24986622  1
  O  O79  1  0.00384535  0.23870011  0.07056106  1
  O  O80  1  0.90101544  0.48086957  0.32309557  1
  O  O81  1  0.81475091  0.67126491  0.16780742  1
  O  O82  1  0.74338356  0.91552931  0.83372254  1
  O  O83  1  0.89989319  0.61889359  0.82319131  1
  O  O84  1  0.76906712  0.99341438  0.07558289  1
  O  O85  1  0.91519347  0.74766019  0.33870010  1
  O  O86  1  0.00370658  0.75723757  0.57073050  1
  O  O87  1  0.00003776  0.78985841  0.75005319  1
