# generated using pymatgen
data_LiP4WO12
_symmetry_space_group_name_H-M   'P 1'
_cell_length_a   7.86086999
_cell_length_b   7.86086999
_cell_length_c   9.70307735
_cell_angle_alpha   85.49936497
_cell_angle_beta   94.50063503
_cell_angle_gamma   55.61736109
_symmetry_Int_Tables_number   1
_chemical_formula_structural   LiP4WO12
_chemical_formula_sum   'Li2 P8 W2 O24'
_cell_volume   487.77813259
_cell_formula_units_Z   2
loop_
 _symmetry_equiv_pos_site_id
 _symmetry_equiv_pos_as_xyz
  1  'x, y, z'
loop_
 _atom_site_type_symbol
 _atom_site_label
 _atom_site_symmetry_multiplicity
 _atom_site_fract_x
 _atom_site_fract_y
 _atom_site_fract_z
 _atom_site_occupancy
  Li  Li0  1  0.03941934  0.03941934  0.75000000  1
  Li  Li1  1  0.96058066  0.96058066  0.25000000  1
  P  P2  1  0.21299698  0.70389310  0.54161309  1
  P  P3  1  0.73407445  0.56590731  0.01167961  1
  P  P4  1  0.56590731  0.73407445  0.48832039  1
  P  P5  1  0.29610690  0.78700302  0.04161309  1
  P  P6  1  0.70389310  0.21299698  0.95838691  1
  P  P7  1  0.43409269  0.26592555  0.51167961  1
  P  P8  1  0.26592555  0.43409269  0.98832039  1
  P  P9  1  0.78700302  0.29610690  0.45838691  1
  W  W10  1  0.81752377  0.81752377  0.75000000  1
  W  W11  1  0.18247623  0.18247623  0.25000000  1
  O  O12  1  0.25713939  0.86746429  0.89180129  1
  O  O13  1  0.08080634  0.53187710  0.87603347  1
  O  O14  1  0.05928413  0.81345045  0.64257646  1
  O  O15  1  0.13253571  0.74286061  0.39180129  1
  O  O16  1  0.67722260  0.74822461  0.90694005  1
  O  O17  1  0.46812290  0.91919366  0.37603347  1
  O  O18  1  0.75201800  0.38763163  0.92663383  1
  O  O19  1  0.35381532  0.45750269  0.59799374  1
  O  O20  1  0.18654955  0.94071587  0.14257646  1
  O  O21  1  0.45750269  0.35381532  0.90200626  1
  O  O22  1  0.38763163  0.75201800  0.57336617  1
  O  O23  1  0.25177539  0.32277740  0.40694005  1
  O  O24  1  0.74822461  0.67722260  0.59305995  1
  O  O25  1  0.61236837  0.24798200  0.42663383  1
  O  O26  1  0.54249731  0.64618468  0.09799374  1
  O  O27  1  0.81345045  0.05928413  0.85742354  1
  O  O28  1  0.64618468  0.54249731  0.40200626  1
  O  O29  1  0.24798200  0.61236837  0.07336617  1
  O  O30  1  0.53187710  0.08080634  0.62396653  1
  O  O31  1  0.32277740  0.25177539  0.09305995  1
  O  O32  1  0.86746429  0.25713939  0.60819871  1
  O  O33  1  0.94071587  0.18654955  0.35742354  1
  O  O34  1  0.91919366  0.46812290  0.12396653  1
  O  O35  1  0.74286061  0.13253571  0.10819871  1
