# generated using pymatgen
data_LiV(PO3)3
_symmetry_space_group_name_H-M   'P 1'
_cell_length_a   5.22871426
_cell_length_b   12.24352927
_cell_length_c   13.20258798
_cell_angle_alpha   90.00000000
_cell_angle_beta   90.00000000
_cell_angle_gamma   90.00000000
_symmetry_Int_Tables_number   1
_chemical_formula_structural   LiV(PO3)3
_chemical_formula_sum   'Li4 V4 P12 O36'
_cell_volume   845.20216943
_cell_formula_units_Z   4
loop_
 _symmetry_equiv_pos_site_id
 _symmetry_equiv_pos_as_xyz
  1  'x, y, z'
loop_
 _atom_site_type_symbol
 _atom_site_label
 _atom_site_symmetry_multiplicity
 _atom_site_fract_x
 _atom_site_fract_y
 _atom_site_fract_z
 _atom_site_occupancy
  Li  Li0  1  0.00249536  0.01178431  0.25000000  1
  Li  Li1  1  0.00249536  0.48821569  0.75000000  1
  Li  Li2  1  0.99750464  0.51178431  0.25000000  1
  Li  Li3  1  0.99750464  0.98821569  0.75000000  1
  V  V4  1  0.00000000  0.00000000  0.00000000  1
  V  V5  1  0.00000000  0.50000000  0.00000000  1
  V  V6  1  0.00000000  0.00000000  0.50000000  1
  V  V7  1  0.00000000  0.50000000  0.50000000  1
  P  P8  1  0.24779559  0.75000000  0.00000000  1
  P  P9  1  0.24779559  0.75000000  0.50000000  1
  P  P10  1  0.50610867  0.08728474  0.63962034  1
  P  P11  1  0.50610867  0.41271526  0.13962034  1
  P  P12  1  0.50610867  0.08728474  0.86037966  1
  P  P13  1  0.50610867  0.41271526  0.36037966  1
  P  P14  1  0.49389133  0.58728474  0.63962034  1
  P  P15  1  0.49389133  0.91271526  0.36037966  1
  P  P16  1  0.49389133  0.91271526  0.13962034  1
  P  P17  1  0.49389133  0.58728474  0.86037966  1
  P  P18  1  0.75220441  0.25000000  0.00000000  1
  P  P19  1  0.75220441  0.25000000  0.50000000  1
  O  O20  1  0.10284822  0.66143433  0.05277433  1
  O  O21  1  0.10284822  0.66143433  0.44722567  1
  O  O22  1  0.10284822  0.83856567  0.55277433  1
  O  O23  1  0.10284822  0.83856567  0.94722567  1
  O  O24  1  0.23317818  0.45065940  0.13216922  1
  O  O25  1  0.23317818  0.04934060  0.63216922  1
  O  O26  1  0.23317818  0.45065940  0.36783078  1
  O  O27  1  0.23317818  0.04934060  0.86783078  1
  O  O28  1  0.28419923  0.99555822  0.12105635  1
  O  O29  1  0.28419923  0.99555822  0.37894365  1
  O  O30  1  0.28419923  0.50444178  0.87894365  1
  O  O31  1  0.28419923  0.50444178  0.62105635  1
  O  O32  1  0.44892189  0.86125864  0.25000000  1
  O  O33  1  0.44892189  0.63874136  0.75000000  1
  O  O34  1  0.45743486  0.80394417  0.07566441  1
  O  O35  1  0.45743486  0.69605583  0.57566441  1
  O  O36  1  0.45743486  0.69605583  0.92433559  1
  O  O37  1  0.45743486  0.80394417  0.42433559  1
  O  O38  1  0.54256514  0.19605583  0.57566441  1
  O  O39  1  0.54256514  0.30394417  0.07566441  1
  O  O40  1  0.54256514  0.30394417  0.42433559  1
  O  O41  1  0.54256514  0.19605583  0.92433559  1
  O  O42  1  0.55107811  0.13874136  0.75000000  1
  O  O43  1  0.55107811  0.36125864  0.25000000  1
  O  O44  1  0.71580077  0.49555822  0.37894365  1
  O  O45  1  0.71580077  0.00444178  0.62105635  1
  O  O46  1  0.71580077  0.49555822  0.12105635  1
  O  O47  1  0.71580077  0.00444178  0.87894365  1
  O  O48  1  0.76682182  0.54934060  0.86783078  1
  O  O49  1  0.76682182  0.54934060  0.63216922  1
  O  O50  1  0.76682182  0.95065940  0.36783078  1
  O  O51  1  0.76682182  0.95065940  0.13216922  1
  O  O52  1  0.89715178  0.16143433  0.44722567  1
  O  O53  1  0.89715178  0.33856567  0.55277433  1
  O  O54  1  0.89715178  0.16143433  0.05277433  1
  O  O55  1  0.89715178  0.33856567  0.94722567  1
