# generated using pymatgen
data_Li3Co2(CO3)4
_symmetry_space_group_name_H-M   'P 1'
_cell_length_a   6.28624992
_cell_length_b   7.70725437
_cell_length_c   5.23385537
_cell_angle_alpha   89.07123985
_cell_angle_beta   115.63003867
_cell_angle_gamma   89.93349062
_symmetry_Int_Tables_number   1
_chemical_formula_structural   Li3Co2(CO3)4
_chemical_formula_sum   'Li3 Co2 C4 O12'
_cell_volume   228.58876351
_cell_formula_units_Z   1
loop_
 _symmetry_equiv_pos_site_id
 _symmetry_equiv_pos_as_xyz
  1  'x, y, z'
loop_
 _atom_site_type_symbol
 _atom_site_label
 _atom_site_symmetry_multiplicity
 _atom_site_fract_x
 _atom_site_fract_y
 _atom_site_fract_z
 _atom_site_occupancy
  Li  Li0  1  0.29777516  0.93992533  0.60790639  1
  Li  Li1  1  0.69821786  0.06806243  0.38624415  1
  Li  Li2  1  0.80735506  0.55721273  0.61663228  1
  Co  Co3  1  0.00135658  0.99606264  0.99555114  1
  Co  Co4  1  0.48628902  0.50132043  0.98131298  1
  C  C5  1  0.11541145  0.25651480  0.86024315  1
  C  C6  1  0.63635401  0.23301215  0.85783478  1
  C  C7  1  0.37725407  0.77160190  0.14613701  1
  C  C8  1  0.87872774  0.73981522  0.14732222  1
  O  O9  1  0.08042554  0.11312521  0.71050588  1
  O  O10  1  0.14795532  0.40417096  0.77602441  1
  O  O11  1  0.37610225  0.76386864  0.89819705  1
  O  O12  1  0.09957127  0.22937098  0.09698909  1
  O  O13  1  0.32349321  0.91910356  0.23180467  1
  O  O14  1  0.43714262  0.63838560  0.30998576  1
  O  O15  1  0.61254024  0.37429535  0.71490917  1
  O  O16  1  0.68024028  0.08402985  0.76615241  1
  O  O17  1  0.89630955  0.75437271  0.90758027  1
  O  O18  1  0.60264476  0.23638458  0.08418378  1
  O  O19  1  0.82871787  0.60192849  0.23868695  1
  O  O20  1  0.92238814  0.88759344  0.28578144  1
