# generated using pymatgen
data_LiP2WO8
_symmetry_space_group_name_H-M   'P 1'
_cell_length_a   5.02887900
_cell_length_b   13.02663412
_cell_length_c   10.65989622
_cell_angle_alpha   90.00000000
_cell_angle_beta   97.46879456
_cell_angle_gamma   90.00000000
_symmetry_Int_Tables_number   1
_chemical_formula_structural   LiP2WO8
_chemical_formula_sum   'Li4 P8 W4 O32'
_cell_volume   692.39834189
_cell_formula_units_Z   4
loop_
 _symmetry_equiv_pos_site_id
 _symmetry_equiv_pos_as_xyz
  1  'x, y, z'
loop_
 _atom_site_type_symbol
 _atom_site_label
 _atom_site_symmetry_multiplicity
 _atom_site_fract_x
 _atom_site_fract_y
 _atom_site_fract_z
 _atom_site_occupancy
  Li  Li0  1  0.38093004  0.88117472  0.47069307  1
  Li  Li1  1  0.11906996  0.38117472  0.02930693  1
  Li  Li2  1  0.88093004  0.61882528  0.97069307  1
  Li  Li3  1  0.61906996  0.11882528  0.52930693  1
  P  P4  1  0.18812609  0.08534699  0.88235773  1
  P  P5  1  0.20838012  0.75375365  0.78890577  1
  P  P6  1  0.29161988  0.25375365  0.71109423  1
  P  P7  1  0.31187391  0.58534699  0.61764227  1
  P  P8  1  0.68812609  0.41465301  0.38235773  1
  P  P9  1  0.70838012  0.74624635  0.28890577  1
  P  P10  1  0.79161988  0.24624635  0.21109423  1
  P  P11  1  0.81187391  0.91465301  0.11764227  1
  W  W12  1  0.19331200  0.57418461  0.29003479  1
  W  W13  1  0.30668800  0.07418461  0.20996521  1
  W  W14  1  0.69331200  0.92581539  0.79003479  1
  W  W15  1  0.80668800  0.42581539  0.70996521  1
  O  O16  1  0.01788964  0.84385263  0.74896313  1
  O  O17  1  0.00393548  0.29433266  0.67019972  1
  O  O18  1  0.08359458  0.51275172  0.63511078  1
  O  O19  1  0.12286161  0.67759494  0.87905913  1
  O  O20  1  0.06994169  0.94265065  0.20535319  1
  O  O21  1  0.04505657  0.56413139  0.12925344  1
  O  O22  1  0.13973652  0.09331623  0.02033297  1
  O  O23  1  0.23030689  0.69973923  0.65180511  1
  O  O24  1  0.26969311  0.19973923  0.84819489  1
  O  O25  1  0.37713839  0.17759494  0.62094087  1
  O  O26  1  0.36026348  0.59331623  0.47966703  1
  O  O27  1  0.41640542  0.01275172  0.86488922  1
  O  O28  1  0.45494343  0.06413139  0.37074656  1
  O  O29  1  0.49606452  0.79433266  0.82980028  1
  O  O30  1  0.48211036  0.34385263  0.75103687  1
  O  O31  1  0.43005831  0.44265065  0.29464681  1
  O  O32  1  0.56994169  0.55734935  0.70535319  1
  O  O33  1  0.51788964  0.65614737  0.24896313  1
  O  O34  1  0.50393548  0.20566734  0.17019972  1
  O  O35  1  0.54505657  0.93586861  0.62925344  1
  O  O36  1  0.58359458  0.98724828  0.13511078  1
  O  O37  1  0.63973652  0.40668377  0.52033297  1
  O  O38  1  0.62286161  0.82240506  0.37905913  1
  O  O39  1  0.73030689  0.80026077  0.15180511  1
  O  O40  1  0.76969311  0.30026077  0.34819489  1
  O  O41  1  0.86026348  0.90668377  0.97966703  1
  O  O42  1  0.95494343  0.43586861  0.87074656  1
  O  O43  1  0.93005831  0.05734935  0.79464681  1
  O  O44  1  0.87713839  0.32240506  0.12094087  1
  O  O45  1  0.91640542  0.48724828  0.36488922  1
  O  O46  1  0.99606452  0.70566734  0.32980028  1
  O  O47  1  0.98211036  0.15614737  0.25103687  1
