# generated using pymatgen
data_LiP3W2O13
_symmetry_space_group_name_H-M   'P 1'
_cell_length_a   6.48691931
_cell_length_b   22.63665393
_cell_length_c   7.11866121
_cell_angle_alpha   90.00000000
_cell_angle_beta   80.80656180
_cell_angle_gamma   90.00000000
_symmetry_Int_Tables_number   1
_chemical_formula_structural   LiP3W2O13
_chemical_formula_sum   'Li4 P12 W8 O52'
_cell_volume   1031.89191942
_cell_formula_units_Z   4
loop_
 _symmetry_equiv_pos_site_id
 _symmetry_equiv_pos_as_xyz
  1  'x, y, z'
loop_
 _atom_site_type_symbol
 _atom_site_label
 _atom_site_symmetry_multiplicity
 _atom_site_fract_x
 _atom_site_fract_y
 _atom_site_fract_z
 _atom_site_occupancy
  Li  Li0  1  0.23475558  0.34960903  0.78990582  1
  Li  Li1  1  0.26524442  0.84960903  0.71009418  1
  Li  Li2  1  0.73475558  0.15039097  0.28990582  1
  Li  Li3  1  0.76524442  0.65039097  0.21009418  1
  P  P4  1  0.11769178  0.08396898  0.34609506  1
  P  P5  1  0.27687918  0.79582327  0.08024700  1
  P  P6  1  0.22312082  0.29582327  0.41975300  1
  P  P7  1  0.21901994  0.59935785  0.80076118  1
  P  P8  1  0.38230822  0.58396898  0.15390494  1
  P  P9  1  0.28098006  0.09935785  0.69923882  1
  P  P10  1  0.71901994  0.90064215  0.30076118  1
  P  P11  1  0.61769178  0.41603102  0.84609506  1
  P  P12  1  0.78098006  0.40064215  0.19923882  1
  P  P13  1  0.77687918  0.70417673  0.58024700  1
  P  P14  1  0.72312082  0.20417673  0.91975300  1
  P  P15  1  0.88230822  0.91603102  0.65390494  1
  W  W16  1  0.21250491  0.20802975  0.04237856  1
  W  W17  1  0.22266168  0.93520539  0.22190394  1
  W  W18  1  0.27733832  0.43520539  0.27809606  1
  W  W19  1  0.28749509  0.70802975  0.45762144  1
  W  W20  1  0.71250491  0.29197025  0.54237856  1
  W  W21  1  0.72266168  0.56479461  0.72190394  1
  W  W22  1  0.77733832  0.06479461  0.77809606  1
  W  W23  1  0.78749509  0.79197025  0.95762144  1
  O  O24  1  0.01896145  0.30795084  0.56262917  1
  O  O25  1  0.13841428  0.12492968  0.17396836  1
  O  O26  1  0.01594929  0.56610606  0.79509257  1
  O  O27  1  0.10482531  0.91542112  0.54117000  1
  O  O28  1  0.22363354  0.61233888  0.02245292  1
  O  O29  1  0.09544716  0.05933373  0.77194579  1
  O  O30  1  0.19754219  0.23726439  0.31720790  1
  O  O31  1  0.22439103  0.84474548  0.23033258  1
  O  O32  1  0.20648439  0.02298780  0.28989698  1
  O  O33  1  0.11160301  0.79435196  0.94561201  1
  O  O34  1  0.21224224  0.43641269  0.52562056  1
  O  O35  1  0.29351561  0.52298780  0.21010302  1
  O  O36  1  0.27560897  0.34474548  0.26966742  1
  O  O37  1  0.30245781  0.73726439  0.18279210  1
  O  O38  1  0.27910338  0.77901027  0.55854518  1
  O  O39  1  0.27636646  0.11233888  0.47754708  1
  O  O40  1  0.23124476  0.66036831  0.70764764  1
  O  O41  1  0.26875524  0.16036831  0.79235236  1
  O  O42  1  0.36158572  0.62492968  0.32603164  1
  O  O43  1  0.22089662  0.27901027  0.94145482  1
  O  O44  1  0.28775776  0.93641269  0.97437944  1
  O  O45  1  0.38839699  0.29435196  0.55438799  1
  O  O46  1  0.51896145  0.19204916  0.06262917  1
  O  O47  1  0.40455284  0.55933373  0.72805421  1
  O  O48  1  0.51594929  0.93389394  0.29509257  1
  O  O49  1  0.39517469  0.41542112  0.95883000  1
  O  O50  1  0.60482531  0.58457888  0.04117000  1
  O  O51  1  0.48405071  0.06610606  0.70490743  1
  O  O52  1  0.59544716  0.44066627  0.27194579  1
  O  O53  1  0.48103855  0.80795084  0.93737083  1
  O  O54  1  0.61160301  0.70564804  0.44561201  1
  O  O55  1  0.71224224  0.06358731  0.02562056  1
  O  O56  1  0.77910338  0.72098973  0.05854518  1
  O  O57  1  0.63841428  0.37507032  0.67396836  1
  O  O58  1  0.73124476  0.83963169  0.20764764  1
  O  O59  1  0.76875524  0.33963169  0.29235236  1
  O  O60  1  0.72363354  0.88766112  0.52245292  1
  O  O61  1  0.72089662  0.22098973  0.44145482  1
  O  O62  1  0.69754219  0.26273561  0.81720790  1
  O  O63  1  0.72439103  0.65525452  0.73033258  1
  O  O64  1  0.70648439  0.47701220  0.78989698  1
  O  O65  1  0.78775776  0.56358731  0.47437944  1
  O  O66  1  0.88839699  0.20564804  0.05438799  1
  O  O67  1  0.79351561  0.97701220  0.71010302  1
  O  O68  1  0.77560897  0.15525452  0.76966742  1
  O  O69  1  0.80245781  0.76273561  0.68279210  1
  O  O70  1  0.90455284  0.94066627  0.22805421  1
  O  O71  1  0.77636646  0.38766112  0.97754708  1
  O  O72  1  0.89517469  0.08457888  0.45883000  1
  O  O73  1  0.98405071  0.43389394  0.20490743  1
  O  O74  1  0.86158572  0.87507032  0.82603164  1
  O  O75  1  0.98103855  0.69204916  0.43737083  1
