# generated using pymatgen
data_SiO2
_symmetry_space_group_name_H-M   'P 1'
_cell_length_a   9.74869808
_cell_length_b   20.48621833
_cell_length_c   20.59819551
_cell_angle_alpha   90.00000000
_cell_angle_beta   90.00000000
_cell_angle_gamma   90.00000000
_symmetry_Int_Tables_number   1
_chemical_formula_structural   SiO2
_chemical_formula_sum   'Si64 O128'
_cell_volume   4113.74713854
_cell_formula_units_Z   64
loop_
 _symmetry_equiv_pos_site_id
 _symmetry_equiv_pos_as_xyz
  1  'x, y, z'
loop_
 _atom_site_type_symbol
 _atom_site_label
 _atom_site_symmetry_multiplicity
 _atom_site_fract_x
 _atom_site_fract_y
 _atom_site_fract_z
 _atom_site_occupancy
  Si  Si0  1  0.50000000  0.42243351  0.32269085  1
  Si  Si1  1  0.16349387  0.42725115  0.10411933  1
  Si  Si2  1  0.35258021  0.39258292  0.20801870  1
  Si  Si3  1  0.64602042  0.31236572  0.90161656  1
  Si  Si4  1  0.83650613  0.42725115  0.89588067  1
  Si  Si5  1  0.83650613  0.42725115  0.10411933  1
  Si  Si6  1  0.35397958  0.68763428  0.09838344  1
  Si  Si7  1  0.64602042  0.68763428  0.09838344  1
  Si  Si8  1  0.64719763  0.20980135  0.60595805  1
  Si  Si9  1  0.50000000  0.92510180  0.18829446  1
  Si  Si10  1  0.50000000  0.32585574  0.42299243  1
  Si  Si11  1  0.16349387  0.57274885  0.10411933  1
  Si  Si12  1  0.50000000  0.67414426  0.42299243  1
  Si  Si13  1  0.35258021  0.60741708  0.79198130  1
  Si  Si14  1  0.50000000  0.81294649  0.07387953  1
  Si  Si15  1  0.50000000  0.42243351  0.67730915  1
  Si  Si16  1  0.35280237  0.20980135  0.60595805  1
  Si  Si17  1  0.64601987  0.10006331  0.68682539  1
  Si  Si18  1  0.50000000  0.32585574  0.57700757  1
  Si  Si19  1  0.64601987  0.89993669  0.68682539  1
  Si  Si20  1  0.35280237  0.20980135  0.39404195  1
  Si  Si21  1  0.35258021  0.39258292  0.79198130  1
  Si  Si22  1  0.83650482  0.89496503  0.57240685  1
  Si  Si23  1  0.64719763  0.79019865  0.39404195  1
  Si  Si24  1  0.83650482  0.10503497  0.57240685  1
  Si  Si25  1  0.16349518  0.89496503  0.42759315  1
  Si  Si26  1  0.16349518  0.10503497  0.57240685  1
  Si  Si27  1  0.35398013  0.10006331  0.68682539  1
  Si  Si28  1  0.50000000  0.57756649  0.67730915  1
  Si  Si29  1  0.64741979  0.39258292  0.79198130  1
  Si  Si30  1  0.50000000  0.67414426  0.57700757  1
  Si  Si31  1  0.50000000  0.07489820  0.81170554  1
  Si  Si32  1  0.50000000  0.92510180  0.81170554  1
  Si  Si33  1  0.35398013  0.89993669  0.68682539  1
  Si  Si34  1  0.50000000  0.18705351  0.07387953  1
  Si  Si35  1  0.16349387  0.57274885  0.89588067  1
  Si  Si36  1  0.50000000  0.81294649  0.92612047  1
  Si  Si37  1  0.64602042  0.31236572  0.09838344  1
  Si  Si38  1  0.64719763  0.79019865  0.60595805  1
  Si  Si39  1  0.50000000  0.18705351  0.92612047  1
  Si  Si40  1  0.50000000  0.07489820  0.18829446  1
  Si  Si41  1  0.64741979  0.60741708  0.79198130  1
  Si  Si42  1  0.35280237  0.79019865  0.60595805  1
  Si  Si43  1  0.35397958  0.31236572  0.09838344  1
  Si  Si44  1  0.35280237  0.79019865  0.39404195  1
  Si  Si45  1  0.35397958  0.68763428  0.90161656  1
  Si  Si46  1  0.64741979  0.39258292  0.20801870  1
  Si  Si47  1  0.64741979  0.60741708  0.20801870  1
  Si  Si48  1  0.16349387  0.42725115  0.89588067  1
  Si  Si49  1  0.83650482  0.10503497  0.42759315  1
  Si  Si50  1  0.35258021  0.60741708  0.20801870  1
  Si  Si51  1  0.64601987  0.89993669  0.31317461  1
  Si  Si52  1  0.35398013  0.10006331  0.31317461  1
  Si  Si53  1  0.64719763  0.20980135  0.39404195  1
  Si  Si54  1  0.83650482  0.89496503  0.42759315  1
  Si  Si55  1  0.35398013  0.89993669  0.31317461  1
  Si  Si56  1  0.16349518  0.10503497  0.42759315  1
  Si  Si57  1  0.16349518  0.89496503  0.57240685  1
  Si  Si58  1  0.64601987  0.10006331  0.31317461  1
  Si  Si59  1  0.35397958  0.31236572  0.90161656  1
  Si  Si60  1  0.64602042  0.68763428  0.90161656  1
  Si  Si61  1  0.83650613  0.57274885  0.10411933  1
  Si  Si62  1  0.83650613  0.57274885  0.89588067  1
  Si  Si63  1  0.50000000  0.57756649  0.32269085  1
  O  O64  1  0.36027402  0.08309234  0.23484648  1
  O  O65  1  0.65516716  0.18014749  0.68019008  1
  O  O66  1  0.23600618  0.63722330  0.06984541  1
  O  O67  1  0.22003318  0.43104209  0.82086784  1
  O  O68  1  0.50000000  0.84320970  0.00000000  1
  O  O69  1  0.22003318  0.43104209  0.17913216  1
  O  O70  1  0.36018781  0.23383874  0.08100716  1
  O  O71  1  0.50000000  0.42516565  0.81611518  1
  O  O72  1  0.77996682  0.56895791  0.17913216  1
  O  O73  1  0.23578209  0.92900202  0.63690982  1
  O  O74  1  0.35990000  0.60519591  0.28689259  1
  O  O75  1  0.50000000  0.07299138  0.65793049  1
  O  O76  1  0.50000000  0.65805142  0.92802410  1
  O  O77  1  0.50000000  0.59988786  0.60260776  1
  O  O78  1  0.34404781  0.68182885  0.82189100  1
  O  O79  1  0.63972598  0.08309234  0.23484648  1
  O  O80  1  0.00000000  0.10391923  0.41407034  1
  O  O81  1  0.76421791  0.92900202  0.36309018  1
  O  O82  1  0.50000000  0.59988786  0.39739224  1
  O  O83  1  0.50000000  0.12795035  0.12813872  1
  O  O84  1  0.50000000  0.32888321  0.50000000  1
  O  O85  1  0.36018781  0.76616126  0.91899284  1
  O  O86  1  0.35990000  0.39480409  0.28689259  1
  O  O87  1  0.65595219  0.68182885  0.17810900  1
  O  O88  1  0.50000000  0.15679030  0.00000000  1
  O  O89  1  0.77974351  0.81965787  0.43193828  1
  O  O90  1  0.22003318  0.56895791  0.17913216  1
  O  O91  1  0.76399382  0.63722330  0.06984541  1
  O  O92  1  0.50000000  0.81493587  0.57388958  1
  O  O93  1  0.50000000  0.92700862  0.65793049  1
  O  O94  1  0.64010000  0.60519591  0.71310741  1
  O  O95  1  0.76421791  0.92900202  0.63690982  1
  O  O96  1  0.50000000  0.57483435  0.81611518  1
  O  O97  1  0.35990000  0.60519591  0.71310741  1
  O  O98  1  0.34404781  0.31817115  0.82189100  1
  O  O99  1  0.34483284  0.18014749  0.68019008  1
  O  O100  1  0.23600618  0.36277670  0.06984541  1
  O  O101  1  0.65516716  0.81985251  0.68019008  1
  O  O102  1  0.50000000  0.18506413  0.42611042  1
  O  O103  1  0.00000000  0.58609260  0.10295535  1
  O  O104  1  0.50000000  0.50000000  0.67817856  1
  O  O105  1  0.34483284  0.81985251  0.31980992  1
  O  O106  1  0.50000000  0.00000000  0.84031288  1
  O  O107  1  0.65516716  0.81985251  0.31980992  1
  O  O108  1  0.77974351  0.18034213  0.56806172  1
  O  O109  1  0.35992124  0.71098249  0.60315131  1
  O  O110  1  0.63981219  0.76616126  0.91899284  1
  O  O111  1  0.50000000  0.67111679  0.50000000  1
  O  O112  1  0.00000000  0.41390740  0.10295535  1
  O  O113  1  0.34404781  0.68182885  0.17810900  1
  O  O114  1  0.22025649  0.81965787  0.43193828  1
  O  O115  1  0.00000000  0.58609260  0.89704465  1
  O  O116  1  0.76399382  0.36277670  0.06984541  1
  O  O117  1  0.36018781  0.76616126  0.08100716  1
  O  O118  1  0.35990000  0.39480409  0.71310741  1
  O  O119  1  0.50000000  0.40011214  0.39739224  1
  O  O120  1  0.65516716  0.18014749  0.31980992  1
  O  O121  1  0.76421791  0.07099798  0.36309018  1
  O  O122  1  0.63981219  0.76616126  0.08100716  1
  O  O123  1  0.63981219  0.23383874  0.08100716  1
  O  O124  1  0.35992124  0.71098249  0.39684869  1
  O  O125  1  0.64007876  0.71098249  0.39684869  1
  O  O126  1  0.00000000  0.41390740  0.89704465  1
  O  O127  1  0.22025649  0.18034213  0.43193828  1
  O  O128  1  0.36027402  0.91690766  0.23484648  1
  O  O129  1  0.64007876  0.28901751  0.39684869  1
  O  O130  1  0.50000000  0.34194858  0.92802410  1
  O  O131  1  0.64010000  0.60519591  0.28689259  1
  O  O132  1  0.77974351  0.81965787  0.56806172  1
  O  O133  1  0.65595219  0.31817115  0.82189100  1
  O  O134  1  0.76421791  0.07099798  0.63690982  1
  O  O135  1  0.63972598  0.91690766  0.23484648  1
  O  O136  1  0.19303299  0.50000000  0.07200990  1
  O  O137  1  0.63981219  0.23383874  0.91899284  1
  O  O138  1  0.22025649  0.81965787  0.56806172  1
  O  O139  1  0.80696701  0.50000000  0.92799010  1
  O  O140  1  0.23600618  0.63722330  0.93015459  1
  O  O141  1  0.77996682  0.56895791  0.82086784  1
  O  O142  1  0.80695920  0.92728909  0.50000000  1
  O  O143  1  0.00000000  0.10391923  0.58592966  1
  O  O144  1  0.36027402  0.08309234  0.76515352  1
  O  O145  1  0.36018781  0.23383874  0.91899284  1
  O  O146  1  0.50000000  0.57483435  0.18388482  1
  O  O147  1  0.77974351  0.18034213  0.43193828  1
  O  O148  1  0.50000000  0.07299138  0.34206951  1
  O  O149  1  0.50000000  0.92700862  0.34206951  1
  O  O150  1  0.50000000  0.00000000  0.15968712  1
  O  O151  1  0.65595219  0.31817115  0.17810900  1
  O  O152  1  0.65595219  0.68182885  0.82189100  1
  O  O153  1  0.50000000  0.50000000  0.32182144  1
  O  O154  1  0.34404781  0.31817115  0.17810900  1
  O  O155  1  0.34483284  0.81985251  0.68019008  1
  O  O156  1  0.19303299  0.50000000  0.92799010  1
  O  O157  1  0.50000000  0.81493587  0.42611042  1
  O  O158  1  0.76399382  0.63722330  0.93015459  1
  O  O159  1  0.80695920  0.07271091  0.50000000  1
  O  O160  1  0.50000000  0.87204965  0.87186128  1
  O  O161  1  0.34483284  0.18014749  0.31980992  1
  O  O162  1  0.22025649  0.18034213  0.56806172  1
  O  O163  1  0.64007876  0.28901751  0.60315131  1
  O  O164  1  0.23578209  0.07099798  0.36309018  1
  O  O165  1  0.64010000  0.39480409  0.71310741  1
  O  O166  1  0.50000000  0.18506413  0.57388958  1
  O  O167  1  0.80696701  0.50000000  0.07200990  1
  O  O168  1  0.77996682  0.43104209  0.17913216  1
  O  O169  1  0.50000000  0.42516565  0.18388482  1
  O  O170  1  0.00000000  0.89608077  0.58592966  1
  O  O171  1  0.64007876  0.71098249  0.60315131  1
  O  O172  1  0.23600618  0.36277670  0.93015459  1
  O  O173  1  0.19304080  0.07271091  0.50000000  1
  O  O174  1  0.00000000  0.89608077  0.41407034  1
  O  O175  1  0.50000000  0.40011214  0.60260776  1
  O  O176  1  0.22003318  0.56895791  0.82086784  1
  O  O177  1  0.50000000  0.34194858  0.07197590  1
  O  O178  1  0.77996682  0.43104209  0.82086784  1
  O  O179  1  0.23578209  0.07099798  0.63690982  1
  O  O180  1  0.35992124  0.28901751  0.39684869  1
  O  O181  1  0.63972598  0.08309234  0.76515352  1
  O  O182  1  0.50000000  0.65805142  0.07197590  1
  O  O183  1  0.35992124  0.28901751  0.60315131  1
  O  O184  1  0.76399382  0.36277670  0.93015459  1
  O  O185  1  0.63972598  0.91690766  0.76515352  1
  O  O186  1  0.23578209  0.92900202  0.36309018  1
  O  O187  1  0.36027402  0.91690766  0.76515352  1
  O  O188  1  0.19304080  0.92728909  0.50000000  1
  O  O189  1  0.50000000  0.12795035  0.87186128  1
  O  O190  1  0.64010000  0.39480409  0.28689259  1
  O  O191  1  0.50000000  0.87204965  0.12813872  1
