# generated using pymatgen
data_Mn3O5F
_symmetry_space_group_name_H-M   'P 1'
_cell_length_a   4.53567111
_cell_length_b   13.59994413
_cell_length_c   3.00765700
_cell_angle_alpha   90.00005822
_cell_angle_beta   89.99997619
_cell_angle_gamma   90.00064799
_symmetry_Int_Tables_number   1
_chemical_formula_structural   Mn3O5F
_chemical_formula_sum   'Mn6 O10 F2'
_cell_volume   185.52694214
_cell_formula_units_Z   2
loop_
 _symmetry_equiv_pos_site_id
 _symmetry_equiv_pos_as_xyz
  1  'x, y, z'
loop_
 _atom_site_type_symbol
 _atom_site_label
 _atom_site_symmetry_multiplicity
 _atom_site_fract_x
 _atom_site_fract_y
 _atom_site_fract_z
 _atom_site_occupancy
  Mn  Mn0  1  0.98092598  0.99903743  -0.00000305  1
  Mn  Mn1  1  0.02355647  0.33934944  0.00000255  1
  Mn  Mn2  1  0.02490022  0.65989173  0.00000237  1
  Mn  Mn3  1  0.47517329  0.15994193  0.50000606  1
  Mn  Mn4  1  0.51904833  0.49905941  0.49999429  1
  Mn  Mn5  1  0.47641404  0.83933248  0.50000144  1
  O  O6  1  0.19838154  0.26915742  0.49999900  1
  O  O7  1  0.20561298  0.59949730  0.50000022  1
  O  O8  1  0.18385241  0.93747152  0.49999941  1
  O  O9  1  0.29442870  0.09951858  0.00000108  1
  O  O10  1  0.30157728  0.76914411  0.00000140  1
  O  O11  1  0.31614296  0.43747315  0.99999904  1
  O  O12  1  0.70138156  0.56649528  0.99999845  1
  O  O13  1  0.68802711  0.89635276  0.00000090  1
  O  O14  1  0.79861261  0.06649710  0.49999803  1
  O  O15  1  0.81196022  0.39636769  0.49999960  1
  F  F16  1  0.69874748  0.23271376  -0.00000017  1
  F  F17  1  0.80125683  0.73269893  0.49999938  1
