# generated using pymatgen
data_Li4V5(P3O11)2
_symmetry_space_group_name_H-M   'P 1'
_cell_length_a   12.81198602
_cell_length_b   6.67362825
_cell_length_c   10.86575864
_cell_angle_alpha   90.00000000
_cell_angle_beta   103.72798130
_cell_angle_gamma   90.00000000
_symmetry_Int_Tables_number   1
_chemical_formula_structural   Li4V5(P3O11)2
_chemical_formula_sum   'Li8 V10 P12 O44'
_cell_volume   902.50896677
_cell_formula_units_Z   2
loop_
 _symmetry_equiv_pos_site_id
 _symmetry_equiv_pos_as_xyz
  1  'x, y, z'
loop_
 _atom_site_type_symbol
 _atom_site_label
 _atom_site_symmetry_multiplicity
 _atom_site_fract_x
 _atom_site_fract_y
 _atom_site_fract_z
 _atom_site_occupancy
  Li  Li0  1  0.18518456  0.14603093  0.55650405  1
  Li  Li1  1  0.18518456  0.35396907  0.05650405  1
  Li  Li2  1  0.34492030  0.52385152  0.88013703  1
  Li  Li3  1  0.34492030  0.97614848  0.38013703  1
  Li  Li4  1  0.65507970  0.02385152  0.61986297  1
  Li  Li5  1  0.65507970  0.47614848  0.11986297  1
  Li  Li6  1  0.81481544  0.64603093  0.94349595  1
  Li  Li7  1  0.81481544  0.85396907  0.44349595  1
  V  V8  1  0.00000000  0.50000000  0.50000000  1
  V  V9  1  0.13190966  0.75482488  0.78200255  1
  V  V10  1  0.00000000  0.00000000  0.00000000  1
  V  V11  1  0.13190966  0.74517512  0.28200255  1
  V  V12  1  0.33595568  0.98360724  0.80348513  1
  V  V13  1  0.33595568  0.51639276  0.30348513  1
  V  V14  1  0.66404432  0.48360724  0.69651487  1
  V  V15  1  0.66404432  0.01639276  0.19651487  1
  V  V16  1  0.86809034  0.25482488  0.71799745  1
  V  V17  1  0.86809034  0.24517512  0.21799745  1
  P  P18  1  0.09222735  0.26139495  0.77709661  1
  P  P19  1  0.09222735  0.23860505  0.27709561  1
  P  P20  1  0.26471389  0.60519106  0.56706822  1
  P  P21  1  0.26471389  0.89480894  0.06706822  1
  P  P22  1  0.41655405  0.27655100  0.58161192  1
  P  P23  1  0.41655405  0.22344900  0.08161192  1
  P  P24  1  0.58344595  0.77655100  0.91838808  1
  P  P25  1  0.58344595  0.72344900  0.41838808  1
  P  P26  1  0.73528611  0.10519106  0.93293178  1
  P  P27  1  0.73528611  0.39480894  0.43293178  1
  P  P28  1  0.90777265  0.76139495  0.72290339  1
  P  P29  1  0.90777265  0.73860505  0.22290339  1
  O  O30  1  0.01371692  0.22241200  0.86520162  1
  O  O31  1  0.00972905  0.29384105  0.64696833  1
  O  O32  1  0.01371692  0.27758800  0.36520162  1
  O  O33  1  0.00972905  0.20615895  0.14696833  1
  O  O34  1  0.16494282  0.44078276  0.83074939  1
  O  O35  1  0.16325243  0.07992750  0.75660222  1
  O  O36  1  0.17592477  0.44825065  0.54305808  1
  O  O37  1  0.27506592  0.79026153  0.94284475  1
  O  O38  1  0.16494282  0.05921724  0.33074939  1
  O  O39  1  0.16325243  0.42007250  0.25660222  1
  O  O40  1  0.25194922  0.75436677  0.67007553  1
  O  O41  1  0.17592477  0.05174935  0.04305808  1
  O  O42  1  0.27506592  0.70973847  0.44284475  1
  O  O43  1  0.38939964  0.23052754  0.93584425  1
  O  O44  1  0.25194922  0.74563323  0.17007553  1
  O  O45  1  0.34771687  0.12093550  0.62965909  1
  O  O46  1  0.37839770  0.49635559  0.62427541  1
  O  O47  1  0.46418212  0.76490173  0.85504261  1
  O  O48  1  0.38939964  0.26947246  0.43584425  1
  O  O49  1  0.34771687  0.37906450  0.12965909  1
  O  O50  1  0.37839770  0.00364441  0.12427541  1
  O  O51  1  0.46418212  0.73509827  0.35504261  1
  O  O52  1  0.53581788  0.26490173  0.64495739  1
  O  O53  1  0.62160230  0.99635559  0.87572459  1
  O  O54  1  0.65228313  0.62093550  0.87034091  1
  O  O55  1  0.61060036  0.73052754  0.56415575  1
  O  O56  1  0.53581788  0.23509827  0.14495739  1
  O  O57  1  0.62160230  0.50364441  0.37572459  1
  O  O58  1  0.65228313  0.87906450  0.37034091  1
  O  O59  1  0.74805078  0.25436677  0.82992447  1
  O  O60  1  0.61060036  0.76947246  0.06415575  1
  O  O61  1  0.72493408  0.29026153  0.55715525  1
  O  O62  1  0.82407523  0.94825065  0.95694192  1
  O  O63  1  0.74805078  0.24563323  0.32992447  1
  O  O64  1  0.83674757  0.57992750  0.74339778  1
  O  O65  1  0.83505718  0.94078276  0.66925061  1
  O  O66  1  0.72493408  0.20973847  0.05715525  1
  O  O67  1  0.82407523  0.55174935  0.45694192  1
  O  O68  1  0.83674757  0.92007250  0.24339778  1
  O  O69  1  0.83505718  0.55921724  0.16925061  1
  O  O70  1  0.99027095  0.79384105  0.85303167  1
  O  O71  1  0.98628308  0.72241200  0.63479838  1
  O  O72  1  0.99027095  0.70615895  0.35303167  1
  O  O73  1  0.98628308  0.77758800  0.13479838  1
