# generated using pymatgen
data_Li4V3P8O29
_symmetry_space_group_name_H-M   'P 1'
_cell_length_a   9.76571385
_cell_length_b   9.76507618
_cell_length_c   14.15267625
_cell_angle_alpha   90.14818231
_cell_angle_beta   90.22191067
_cell_angle_gamma   59.81164683
_symmetry_Int_Tables_number   1
_chemical_formula_structural   Li4V3P8O29
_chemical_formula_sum   'Li8 V6 P16 O58'
_cell_volume   1166.58945583
_cell_formula_units_Z   2
loop_
 _symmetry_equiv_pos_site_id
 _symmetry_equiv_pos_as_xyz
  1  'x, y, z'
loop_
 _atom_site_type_symbol
 _atom_site_label
 _atom_site_symmetry_multiplicity
 _atom_site_fract_x
 _atom_site_fract_y
 _atom_site_fract_z
 _atom_site_occupancy
  Li  Li0  1  0.76598211  0.33021299  0.05456669  1
  Li  Li1  1  0.32313202  0.91081567  0.05586033  1
  Li  Li2  1  0.67159792  0.23427073  0.44462904  1
  Li  Li3  1  0.32907421  0.76414747  0.56215317  1
  Li  Li4  1  0.23230538  0.66618929  0.94021969  1
  Li  Li5  1  0.23254180  0.09897288  0.45175189  1
  Li  Li6  1  0.95135798  0.00706955  0.98812945  1
  Li  Li7  1  0.96317814  0.98421263  0.51010755  1
  V  V8  1  0.56806766  0.43362565  0.25279154  1
  V  V9  1  0.43469173  0.56345712  0.74989088  1
  V  V10  1  0.56993023  0.99692087  0.75420556  1
  V  V11  1  0.44025913  0.00234985  0.24681436  1
  V  V12  1  0.99879211  0.56509059  0.25012278  1
  V  V13  1  0.00091345  0.43745002  0.74638249  1
  P  P14  1  0.91908852  0.77803237  0.84040216  1
  P  P15  1  0.78083188  0.91481492  0.33875061  1
  P  P16  1  0.92002295  0.30625436  0.34446398  1
  P  P17  1  0.66678139  0.66477076  0.13232016  1
  P  P18  1  0.66277309  0.67113326  0.63146855  1
  P  P19  1  0.78005328  0.31261955  0.83848886  1
  P  P20  1  0.68882154  0.21969503  0.65929405  1
  P  P21  1  0.31297581  0.91157078  0.84455678  1
  P  P22  1  0.69610214  0.08473798  0.15398929  1
  P  P23  1  0.31610676  0.77818653  0.34240429  1
  P  P24  1  0.22559224  0.68617688  0.16227170  1
  P  P25  1  0.33286345  0.33159294  0.36717587  1
  P  P26  1  0.33119629  0.33343873  0.86800696  1
  P  P27  1  0.08234836  0.69598723  0.65423326  1
  P  P28  1  0.22654334  0.08656212  0.66286712  1
  P  P29  1  0.08180481  0.22390292  0.15745532  1
  O  O30  1  0.00633426  0.79269258  0.56943284  1
  O  O31  1  0.91502706  0.74080529  0.33477309  1
  O  O32  1  0.78635178  0.00726525  0.06758286  1
  O  O33  1  0.74405174  0.91387651  0.83725370  1
  O  O34  1  0.92613859  0.61731054  0.82968352  1
  O  O35  1  0.81108989  0.66786712  0.17990287  1
  O  O36  1  0.92010617  0.46393845  0.32909562  1
  O  O37  1  0.99355919  0.21204438  0.07458241  1
  O  O38  1  0.91639114  0.34856522  0.82888214  1
  O  O39  1  0.66328415  0.81608038  0.68128554  1
  O  O40  1  0.61883457  0.92049199  0.32538081  1
  O  O41  1  0.81136477  0.52499170  0.67790349  1
  O  O42  1  0.66014057  0.67171523  0.02746339  1
  O  O43  1  0.66258948  0.67740161  0.52696664  1
  O  O44  1  0.67341092  0.51232407  0.17108353  1
  O  O45  1  0.46960297  0.91166239  0.82979476  1
  O  O46  1  0.51287353  0.81457958  0.17483590  1
  O  O47  1  0.74765348  0.33791288  0.34212591  1
  O  O48  1  0.79971780  0.20196104  0.74922015  1
  O  O49  1  0.77666942  0.19990178  0.56938502  1
  O  O50  1  0.79297578  0.22773006  0.92860405  1
  O  O51  1  0.61892614  0.46785061  0.82581683  1
  O  O52  1  0.51126716  0.67366247  0.66972075  1
  O  O53  1  0.65834348  0.25934813  0.16306585  1
  O  O54  1  0.47299878  0.61953439  0.32702973  1
  O  O55  1  0.34540812  0.92085623  0.33363230  1
  O  O56  1  0.80137243  0.99780871  0.24617715  1
  O  O57  1  0.78695761  0.00428919  0.42272896  1
  O  O58  1  0.22308130  0.00055594  0.57493385  1
  O  O59  1  0.65729280  0.08000535  0.67151398  1
  O  O60  1  0.53436897  0.37745300  0.67012977  1
  O  O61  1  0.34055923  0.74059905  0.83851198  1
  O  O62  1  0.48868869  0.32544978  0.33420793  1
  O  O63  1  0.38035516  0.52990241  0.17609412  1
  O  O64  1  0.22231368  0.77199450  0.07322907  1
  O  O65  1  0.23561035  0.78946663  0.43366507  1
  O  O66  1  0.20451557  0.79751302  0.25301657  1
  O  O67  1  0.25894679  0.65595512  0.66226197  1
  O  O68  1  0.47898209  0.18601038  0.82351490  1
  O  O69  1  0.53843347  0.08176655  0.16934372  1
  O  O70  1  0.32743756  0.48726759  0.83077171  1
  O  O71  1  0.32582322  0.33239802  0.97260908  1
  O  O72  1  0.32457722  0.31825246  0.47143036  1
  O  O73  1  0.18934071  0.47777539  0.31962445  1
  O  O74  1  0.38390693  0.08421908  0.67516236  1
  O  O75  1  0.33073219  0.18417370  0.31910152  1
  O  O76  1  0.08306418  0.65816290  0.16821626  1
  O  O77  1  0.99891790  0.80080002  0.74697900  1
  O  O78  1  0.00568490  0.79513068  0.92300523  1
  O  O79  1  0.07643622  0.54139679  0.66653994  1
  O  O80  1  0.18566185  0.33643319  0.81677242  1
  O  O81  1  0.07779771  0.38370900  0.17038924  1
  O  O82  1  0.25774235  0.08444679  0.15924584  1
  O  O83  1  0.22788978  0.98883779  0.93356655  1
  O  O84  1  0.20301427  0.00070260  0.75330241  1
  O  O85  1  0.08571309  0.25890990  0.66447224  1
  O  O86  1  0.00987449  0.21085446  0.42811228  1
  O  O87  1  0.00233059  0.20113145  0.25109399  1
