# generated using pymatgen
data_Li3Fe2Co3O10
_symmetry_space_group_name_H-M   'P 1'
_cell_length_a   5.25802789
_cell_length_b   2.87658367
_cell_length_c   23.33946382
_cell_angle_alpha   90.00000000
_cell_angle_beta   93.93938153
_cell_angle_gamma   90.00000000
_symmetry_Int_Tables_number   1
_chemical_formula_structural   Li3Fe2Co3O10
_chemical_formula_sum   'Li6 Fe4 Co6 O20'
_cell_volume   352.17899199
_cell_formula_units_Z   2
loop_
 _symmetry_equiv_pos_site_id
 _symmetry_equiv_pos_as_xyz
  1  'x, y, z'
loop_
 _atom_site_type_symbol
 _atom_site_label
 _atom_site_symmetry_multiplicity
 _atom_site_fract_x
 _atom_site_fract_y
 _atom_site_fract_z
 _atom_site_occupancy
  Li  Li0  1  0.19809620  0.00000000  0.60416560  1
  Li  Li1  1  0.20594638  0.50000000  0.10085169  1
  Li  Li2  1  0.56378311  0.00000000  0.78774587  1
  Li  Li3  1  0.84021543  0.50000000  0.91288397  1
  Li  Li4  1  0.57113357  0.50000000  0.28652839  1
  Li  Li5  1  0.83126006  0.00000000  0.41115519  1
  Fe  Fe6  1  0.09713240  0.00000000  0.30145162  1
  Fe  Fe7  1  0.50059488  0.00000000  0.50390687  1
  Fe  Fe8  1  0.69403777  0.00000000  0.09582857  1
  Fe  Fe9  1  0.90798181  0.50000000  0.19847129  1
  Co  Co10  1  0.09202071  0.50000000  0.80049330  1
  Co  Co11  1  0.30608594  0.00000000  0.89612302  1
  Co  Co12  1  0.48919218  0.50000000  0.99509908  1
  Co  Co13  1  0.31155833  0.50000000  0.40181582  1
  Co  Co14  1  0.70337313  0.50000000  0.60442566  1
  Co  Co15  1  0.89711513  0.00000000  0.70196886  1
  O  O16  1  0.00087613  0.50000000  0.65317418  1
  O  O17  1  0.20640211  0.50000000  0.94255748  1
  O  O18  1  0.19105363  0.00000000  0.75457867  1
  O  O19  1  0.02107748  0.00000000  0.14482024  1
  O  O20  1  0.19476306  0.00000000  0.44649565  1
  O  O21  1  0.40544094  0.50000000  0.84635730  1
  O  O22  1  0.21986286  0.50000000  0.25436676  1
  O  O23  1  0.39276553  0.50000000  0.55769472  1
  O  O24  1  0.60576072  0.00000000  0.94733285  1
  O  O25  1  0.43027308  0.00000000  0.35620147  1
  O  O26  1  0.59914114  0.00000000  0.64999687  1
  O  O27  1  0.37120669  0.00000000  0.03986318  1
  O  O28  1  0.61608391  0.50000000  0.45006819  1
  O  O29  1  0.79103746  0.50000000  0.75057705  1
  O  O30  1  0.57456762  0.50000000  0.14242458  1
  O  O31  1  0.81710356  0.00000000  0.55939132  1
  O  O32  1  0.98978048  0.00000000  0.84895678  1
  O  O33  1  0.77757312  0.00000000  0.25130188  1
  O  O34  1  0.78460474  0.50000000  0.04295373  1
  O  O35  1  0.99873572  0.50000000  0.35791129  1
