# generated using pymatgen
data_K4Li3(FeO4)2
_symmetry_space_group_name_H-M   'P 1'
_cell_length_a   5.57798981
_cell_length_b   8.78759568
_cell_length_c   10.77936139
_cell_angle_alpha   87.60953890
_cell_angle_beta   80.15897892
_cell_angle_gamma   86.94595015
_symmetry_Int_Tables_number   1
_chemical_formula_structural   K4Li3(FeO4)2
_chemical_formula_sum   'K8 Li6 Fe4 O16'
_cell_volume   519.57374610
_cell_formula_units_Z   2
loop_
 _symmetry_equiv_pos_site_id
 _symmetry_equiv_pos_as_xyz
  1  'x, y, z'
loop_
 _atom_site_type_symbol
 _atom_site_label
 _atom_site_symmetry_multiplicity
 _atom_site_fract_x
 _atom_site_fract_y
 _atom_site_fract_z
 _atom_site_occupancy
  K  K0  1  0.18591691  0.96338141  0.15644451  1
  K  K1  1  0.15617388  0.21989697  0.61852652  1
  K  K2  1  0.40744757  0.52110235  0.33230147  1
  K  K3  1  0.30576910  0.77097911  0.86875373  1
  K  K4  1  0.67201187  0.24963122  0.11767745  1
  K  K5  1  0.63107646  0.46920937  0.65792694  1
  K  K6  1  0.90114777  0.70797661  0.38252384  1
  K  K7  1  0.76919432  0.04100043  0.85636048  1
  Li  Li8  1  0.10015996  0.24223708  0.30448171  1
  Li  Li9  1  0.26743755  0.51641559  0.07142404  1
  Li  Li10  1  0.59914236  0.97775017  0.29938011  1
  Li  Li11  1  0.72144222  0.50543797  0.92498075  1
  Li  Li12  1  0.80843797  0.97429605  0.55325359  1
  Li  Li13  1  0.89761661  0.74415801  0.70991112  1
  Fe  Fe14  1  0.20418672  0.28608331  0.94267064  1
  Fe  Fe15  1  0.32816899  0.79569753  0.56171008  1
  Fe  Fe16  1  0.67612087  0.21330223  0.43464604  1
  Fe  Fe17  1  0.77403839  0.72709297  0.06535415  1
  O  O18  1  0.16088302  0.29259538  0.11094313  1
  O  O19  1  0.05001714  0.68491223  0.12797121  1
  O  O20  1  0.09181210  0.91809513  0.63984802  1
  O  O21  1  0.17452451  0.62567488  0.59961893  1
  O  O22  1  0.41959933  0.21042957  0.35020884  1
  O  O23  1  0.41791743  0.81627590  0.39879400  1
  O  O24  1  0.29862882  0.09658892  0.92075186  1
  O  O25  1  0.38783574  0.44312862  0.89159566  1
  O  O26  1  0.60272917  0.55647934  0.09983677  1
  O  O27  1  0.69108109  0.91946155  0.11747525  1
  O  O28  1  0.66964537  0.17771938  0.59964601  1
  O  O29  1  0.61466579  0.78931669  0.61471295  1
  O  O30  1  0.82225091  0.39287280  0.40344096  1
  O  O31  1  0.86764023  0.04814060  0.37069118  1
  O  O32  1  0.94478613  0.33018533  0.87340792  1
  O  O33  1  0.79354873  0.72769128  0.88958713  1
