# generated using pymatgen
data_Fe2(CO3)3
_symmetry_space_group_name_H-M   'P 1'
_cell_length_a   7.60028316
_cell_length_b   7.63254791
_cell_length_c   7.64403972
_cell_angle_alpha   109.28700846
_cell_angle_beta   108.85537711
_cell_angle_gamma   109.04295584
_symmetry_Int_Tables_number   1
_chemical_formula_structural   Fe2(CO3)3
_chemical_formula_sum   'Fe4 C6 O18'
_cell_volume   346.42456465
_cell_formula_units_Z   2
loop_
 _symmetry_equiv_pos_site_id
 _symmetry_equiv_pos_as_xyz
  1  'x, y, z'
loop_
 _atom_site_type_symbol
 _atom_site_label
 _atom_site_symmetry_multiplicity
 _atom_site_fract_x
 _atom_site_fract_y
 _atom_site_fract_z
 _atom_site_occupancy
  Fe  Fe0  1  0.04155409  0.53910789  0.16974143  1
  Fe  Fe1  1  0.17074426  0.03942465  0.53691834  1
  Fe  Fe2  1  0.46043744  0.45348024  0.46010609  1
  Fe  Fe3  1  0.53674733  0.16830640  0.03788886  1
  C  C4  1  0.17498764  0.25775420  0.94124419  1
  C  C5  1  0.25632039  0.94211739  0.17282614  1
  C  C6  1  0.41258805  0.80429484  0.59778128  1
  C  C7  1  0.60496951  0.41496815  0.80574033  1
  C  C8  1  0.80312856  0.60107088  0.41420265  1
  C  C9  1  0.94270857  0.17529825  0.25888691  1
  O  O10  1  0.06746321  0.35624091  0.94354938  1
  O  O11  1  0.08454805  0.77373619  0.10784621  1
  O  O12  1  0.10938216  0.08737233  0.77116244  1
  O  O13  1  0.10777815  0.35172073  0.31902560  1
  O  O14  1  0.40861162  0.97845047  0.70179890  1
  O  O15  1  0.34612430  0.73001973  0.39516872  1
  O  O16  1  0.47775362  0.70896092  0.68819367  1
  O  O17  1  0.35361548  0.94323127  0.06441167  1
  O  O18  1  0.40055344  0.34841286  0.72349352  1
  O  O19  1  0.35178497  0.32084096  0.10663822  1
  O  O20  1  0.32299086  0.10842312  0.35165179  1
  O  O21  1  0.70263365  0.40646435  0.97740308  1
  O  O22  1  0.71204413  0.69547559  0.48534380  1
  O  O23  1  0.70166252  0.48579445  0.71656889  1
  O  O24  1  0.72225408  0.39699248  0.34708072  1
  O  O25  1  0.97565175  0.70064242  0.40611035  1
  O  O26  1  0.94779771  0.07204581  0.36081562  1
  O  O27  1  0.77067744  0.10506052  0.08884820  1
