# generated using pymatgen
data_Li6MnV3(PO4)6
_symmetry_space_group_name_H-M   'P 1'
_cell_length_a   8.56008778
_cell_length_b   8.62783513
_cell_length_c   8.57894826
_cell_angle_alpha   62.14862127
_cell_angle_beta   62.42670773
_cell_angle_gamma   62.26031655
_symmetry_Int_Tables_number   1
_chemical_formula_structural   Li6MnV3(PO4)6
_chemical_formula_sum   'Li6 Mn1 V3 P6 O24'
_cell_volume   470.80369874
_cell_formula_units_Z   1
loop_
 _symmetry_equiv_pos_site_id
 _symmetry_equiv_pos_as_xyz
  1  'x, y, z'
loop_
 _atom_site_type_symbol
 _atom_site_label
 _atom_site_symmetry_multiplicity
 _atom_site_fract_x
 _atom_site_fract_y
 _atom_site_fract_z
 _atom_site_occupancy
  Li  Li0  1  0.01862796  0.00227513  0.99064628  1
  Li  Li1  1  0.76083173  0.13951204  0.34725885  1
  Li  Li2  1  0.47164270  0.50631272  0.49956619  1
  Li  Li3  1  0.22348629  0.84758803  0.65898222  1
  Li  Li4  1  0.66378590  0.22613306  0.84202066  1
  Li  Li5  1  0.84291146  0.66147631  0.22363111  1
  Mn  Mn6  1  0.84936575  0.84806816  0.84795752  1
  V  V7  1  0.14137973  0.14310047  0.13779240  1
  V  V8  1  0.35704786  0.36171698  0.35227188  1
  V  V9  1  0.64528084  0.64728154  0.64564114  1
  P  P10  1  0.05577431  0.75087577  0.44615020  1
  P  P11  1  0.44377376  0.05870973  0.75014101  1
  P  P12  1  0.74942048  0.44864156  0.05399911  1
  P  P13  1  0.25452908  0.54056215  0.95715465  1
  P  P14  1  0.54291912  0.96326943  0.25372921  1
  P  P15  1  0.95718473  0.25363278  0.53551358  1
  O  O16  1  0.12339301  0.31722620  0.47597768  1
  O  O17  1  0.33080353  0.48936595  0.11407195  1
  O  O18  1  0.04790443  0.91756331  0.26409994  1
  O  O19  1  0.51679572  0.11882692  0.31635540  1
  O  O20  1  0.24377763  0.59229235  0.41311143  1
  O  O21  1  0.04819776  0.80199601  0.59924067  1
  O  O22  1  0.25440046  0.07454413  0.90699462  1
  O  O23  1  0.42538643  0.24419368  0.58163888  1
  O  O24  1  0.59222495  0.41962172  0.24750081  1
  O  O25  1  0.19550293  0.38260422  0.99304944  1
  O  O26  1  0.09659665  0.72778951  0.95204422  1
  O  O27  1  0.37392474  0.00257868  0.20752388  1
  O  O28  1  0.60018594  0.04552465  0.80174773  1
  O  O29  1  0.89995948  0.25418429  0.07379962  1
  O  O30  1  0.80736161  0.59877981  0.03960670  1
  O  O31  1  0.40842312  0.56817645  0.76239628  1
  O  O32  1  0.56681318  0.77036421  0.41135741  1
  O  O33  1  0.72927486  0.94629993  0.09337431  1
  O  O34  1  0.97282948  0.19720778  0.38075489  1
  O  O35  1  0.76682420  0.41022246  0.56519615  1
  O  O36  1  0.48737572  0.89255226  0.69684434  1
  O  O37  1  0.95430641  0.09467936  0.72311861  1
  O  O38  1  0.69130082  0.49182447  0.88971995  1
  O  O39  1  0.88847627  0.69142479  0.49901809  1
