# generated using pymatgen
data_Li4Fe7O12
_symmetry_space_group_name_H-M   'P 1'
_cell_length_a   5.18540802
_cell_length_b   9.01641347
_cell_length_c   9.83936416
_cell_angle_alpha   90.00000260
_cell_angle_beta   100.76098250
_cell_angle_gamma   89.99999845
_symmetry_Int_Tables_number   1
_chemical_formula_structural   Li4Fe7O12
_chemical_formula_sum   'Li8 Fe14 O24'
_cell_volume   451.93773895
_cell_formula_units_Z   2
loop_
 _symmetry_equiv_pos_site_id
 _symmetry_equiv_pos_as_xyz
  1  'x, y, z'
loop_
 _atom_site_type_symbol
 _atom_site_label
 _atom_site_symmetry_multiplicity
 _atom_site_fract_x
 _atom_site_fract_y
 _atom_site_fract_z
 _atom_site_occupancy
  Li  Li0  1  0.24571787  0.08374156  0.99442761  1
  Li  Li1  1  0.75819780  0.07981804  0.50828299  1
  Li  Li2  1  0.49268540  0.41763053  0.75315764  1
  Li  Li3  1  0.75327648  0.41662471  0.50556596  1
  Li  Li4  1  0.25428213  0.58374156  0.50557239  1
  Li  Li5  1  0.74180220  0.57981804  0.99171701  1
  Li  Li6  1  0.00731460  0.91763053  0.74684236  1
  Li  Li7  1  0.74672352  0.91662471  0.99443404  1
  Fe  Fe8  1  0.99719211  0.07947295  0.25406667  1
  Fe  Fe9  1  0.01145756  0.25226730  0.75732539  1
  Fe  Fe10  1  0.50106956  0.07634358  0.74564826  1
  Fe  Fe11  1  0.26091058  0.24854051  0.50714598  1
  Fe  Fe12  1  0.49499840  0.25299270  0.24239160  1
  Fe  Fe13  1  0.00784500  0.42170111  0.24674649  1
  Fe  Fe14  1  0.73668589  0.25820625  0.99150206  1
  Fe  Fe15  1  0.99893044  0.57634358  0.75435174  1
  Fe  Fe16  1  0.00500160  0.75299270  0.25760840  1
  Fe  Fe17  1  0.50280789  0.57947295  0.24593333  1
  Fe  Fe18  1  0.23908942  0.74854051  0.99285402  1
  Fe  Fe19  1  0.48854244  0.75226730  0.74267461  1
  Fe  Fe20  1  0.76331411  0.75820625  0.50849794  1
  Fe  Fe21  1  0.49215500  0.92170111  0.25325351  1
  O  O22  1  0.13545802  0.10229997  0.63165821  1
  O  O23  1  0.36159961  0.08936797  0.36550455  1
  O  O24  1  0.38514614  0.23326871  0.87106269  1
  O  O25  1  0.09404734  0.24370652  0.13177057  1
  O  O26  1  0.86209978  0.09826577  0.87322989  1
  O  O27  1  0.63778411  0.08023266  0.12950268  1
  O  O28  1  0.12139724  0.40904531  0.63205000  1
  O  O29  1  0.61646160  0.23978935  0.62276347  1
  O  O30  1  0.36680146  0.41862089  0.37198115  1
  O  O31  1  0.89933784  0.25121152  0.37197224  1
  O  O32  1  0.64890169  0.41948438  0.12925625  1
  O  O33  1  0.86085061  0.40941272  0.86493882  1
  O  O34  1  0.36454198  0.60229997  0.86834179  1
  O  O35  1  0.13840039  0.58936797  0.13449545  1
  O  O36  1  0.11485386  0.73326871  0.62893731  1
  O  O37  1  0.63790022  0.59826577  0.62677011  1
  O  O38  1  0.40595266  0.74370652  0.36822943  1
  O  O39  1  0.86221589  0.58023266  0.37049732  1
  O  O40  1  0.88353840  0.73978935  0.87723653  1
  O  O41  1  0.60066216  0.75121152  0.12802776  1
  O  O42  1  0.13319854  0.91862089  0.12801885  1
  O  O43  1  0.37860276  0.90904531  0.86795000  1
  O  O44  1  0.63914939  0.90941272  0.63506118  1
  O  O45  1  0.85109831  0.91948438  0.37074375  1
