# generated using pymatgen
data_Li2Fe(PO3)4
_symmetry_space_group_name_H-M   'P 1'
_cell_length_a   7.14896934
_cell_length_b   7.56636058
_cell_length_c   5.01109963
_cell_angle_alpha   82.96386971
_cell_angle_beta   109.10532105
_cell_angle_gamma   114.90127481
_symmetry_Int_Tables_number   1
_chemical_formula_structural   Li2Fe(PO3)4
_chemical_formula_sum   'Li2 Fe1 P4 O12'
_cell_volume   232.28029156
_cell_formula_units_Z   1
loop_
 _symmetry_equiv_pos_site_id
 _symmetry_equiv_pos_as_xyz
  1  'x, y, z'
loop_
 _atom_site_type_symbol
 _atom_site_label
 _atom_site_symmetry_multiplicity
 _atom_site_fract_x
 _atom_site_fract_y
 _atom_site_fract_z
 _atom_site_occupancy
  Li  Li0  1  0.24753232  0.44899558  0.98423219  1
  Li  Li1  1  0.75246768  0.55100442  0.01576781  1
  Fe  Fe2  1  0.00000000  0.00000000  0.00000000  1
  P  P3  1  0.19101045  0.78466686  0.55825846  1
  P  P4  1  0.59475630  0.78112422  0.43455427  1
  P  P5  1  0.40524370  0.21887578  0.56544573  1
  P  P6  1  0.80898955  0.21533314  0.44174154  1
  O  O7  1  0.12494667  0.64391846  0.77665088  1
  O  O8  1  0.31901885  0.00319675  0.70146811  1
  O  O9  1  0.98177341  0.20906781  0.71316309  1
  O  O10  1  0.36887214  0.75584817  0.46239501  1
  O  O11  1  0.24944790  0.21246338  0.27162453  1
  O  O12  1  0.45131182  0.36564959  0.77520720  1
  O  O13  1  0.54868818  0.63435041  0.22479280  1
  O  O14  1  0.75055210  0.78753662  0.72837547  1
  O  O15  1  0.63112786  0.24415183  0.53760499  1
  O  O16  1  0.01822659  0.79093219  0.28683691  1
  O  O17  1  0.68098115  0.99680325  0.29853189  1
  O  O18  1  0.87505333  0.35608154  0.22334912  1
