# generated using pymatgen
data_Li3P3(WO6)2
_symmetry_space_group_name_H-M   'P 1'
_cell_length_a   8.70716661
_cell_length_b   9.06925155
_cell_length_c   12.41174808
_cell_angle_alpha   90.00000000
_cell_angle_beta   90.29498903
_cell_angle_gamma   90.00000000
_symmetry_Int_Tables_number   1
_chemical_formula_structural   Li3P3(WO6)2
_chemical_formula_sum   'Li12 P12 W8 O48'
_cell_volume   980.11153072
_cell_formula_units_Z   4
loop_
 _symmetry_equiv_pos_site_id
 _symmetry_equiv_pos_as_xyz
  1  'x, y, z'
loop_
 _atom_site_type_symbol
 _atom_site_label
 _atom_site_symmetry_multiplicity
 _atom_site_fract_x
 _atom_site_fract_y
 _atom_site_fract_z
 _atom_site_occupancy
  Li  Li0  1  0.06651933  0.51350997  0.65188909  1
  Li  Li1  1  0.08566188  0.08675361  0.31428636  1
  Li  Li2  1  0.17728141  0.78270860  0.82147651  1
  Li  Li3  1  0.32271859  0.28270860  0.67852349  1
  Li  Li4  1  0.41433812  0.58675361  0.18571364  1
  Li  Li5  1  0.43348067  0.01350997  0.84811091  1
  Li  Li6  1  0.56651933  0.98649003  0.15188909  1
  Li  Li7  1  0.58566188  0.41324639  0.81428636  1
  Li  Li8  1  0.67728141  0.71729140  0.32147651  1
  Li  Li9  1  0.82271859  0.21729140  0.17852349  1
  Li  Li10  1  0.91433812  0.91324639  0.68571364  1
  Li  Li11  1  0.93348067  0.48649003  0.34811091  1
  P  P12  1  0.04394196  0.25187263  0.50987412  1
  P  P13  1  0.11049282  0.38025744  0.15573424  1
  P  P14  1  0.11488811  0.10913079  0.84862447  1
  P  P15  1  0.38511189  0.60913079  0.65137553  1
  P  P16  1  0.38950718  0.88025744  0.34426576  1
  P  P17  1  0.45605804  0.75187263  0.99012588  1
  P  P18  1  0.54394196  0.24812737  0.00987412  1
  P  P19  1  0.61049282  0.11974256  0.65573424  1
  P  P20  1  0.61488811  0.39086921  0.34862447  1
  P  P21  1  0.88511189  0.89086921  0.15137553  1
  P  P22  1  0.88950718  0.61974256  0.84426576  1
  P  P23  1  0.95605804  0.74812737  0.49012588  1
  W  W24  1  0.24354651  0.03060738  0.10570072  1
  W  W25  1  0.24397864  0.46365093  0.89172059  1
  W  W26  1  0.25602136  0.96365093  0.60827941  1
  W  W27  1  0.25645349  0.53060738  0.39429928  1
  W  W28  1  0.74354651  0.46939262  0.60570072  1
  W  W29  1  0.74397864  0.03634907  0.39172059  1
  W  W30  1  0.75602136  0.53634907  0.10827941  1
  W  W31  1  0.75645349  0.96939262  0.89429928  1
  O  O32  1  0.04422268  0.86984150  0.55124323  1
  O  O33  1  0.04630558  0.88462558  0.10488975  1
  O  O34  1  0.04894624  0.66872555  0.40103035  1
  O  O35  1  0.05732118  0.57680577  0.80717036  1
  O  O36  1  0.09116938  0.36151712  0.41997414  1
  O  O37  1  0.11766007  0.99659907  0.75190350  1
  O  O38  1  0.11570847  0.21118174  0.18025033  1
  O  O39  1  0.13086523  0.40621615  0.03609388  1
  O  O40  1  0.17577053  0.26088827  0.80896699  1
  O  O41  1  0.19165796  0.18654946  0.56179918  1
  O  O42  1  0.22783658  0.47224170  0.22231716  1
  O  O43  1  0.23566943  0.04479104  0.93027685  1
  O  O44  1  0.26433057  0.54479104  0.56972315  1
  O  O45  1  0.27216342  0.97224170  0.27768284  1
  O  O46  1  0.30834204  0.68654946  0.93820082  1
  O  O47  1  0.32422947  0.76088827  0.69103301  1
  O  O48  1  0.36913477  0.90621615  0.46390612  1
  O  O49  1  0.38429153  0.71118174  0.31974967  1
  O  O50  1  0.38233993  0.49659907  0.74809650  1
  O  O51  1  0.40883062  0.86151712  0.08002586  1
  O  O52  1  0.44267882  0.07680577  0.69282964  1
  O  O53  1  0.45105376  0.16872555  0.09896965  1
  O  O54  1  0.45369442  0.38462558  0.39511025  1
  O  O55  1  0.45577732  0.36984150  0.94875677  1
  O  O56  1  0.54422268  0.63015850  0.05124323  1
  O  O57  1  0.54630558  0.61537442  0.60488975  1
  O  O58  1  0.54894624  0.83127445  0.90103035  1
  O  O59  1  0.55732118  0.92319423  0.30717036  1
  O  O60  1  0.59116938  0.13848288  0.91997414  1
  O  O61  1  0.61766007  0.50340093  0.25190350  1
  O  O62  1  0.61570847  0.28881826  0.68025033  1
  O  O63  1  0.63086523  0.09378385  0.53609388  1
  O  O64  1  0.67577053  0.23911173  0.30896699  1
  O  O65  1  0.69165796  0.31345054  0.06179918  1
  O  O66  1  0.72783658  0.02775830  0.72231716  1
  O  O67  1  0.73566943  0.45520896  0.43027685  1
  O  O68  1  0.76433057  0.95520896  0.06972315  1
  O  O69  1  0.77216342  0.52775830  0.77768284  1
  O  O70  1  0.80834204  0.81345054  0.43820082  1
  O  O71  1  0.82422947  0.73911173  0.19103301  1
  O  O72  1  0.86913477  0.59378385  0.96390612  1
  O  O73  1  0.88429153  0.78881826  0.81974967  1
  O  O74  1  0.88233993  0.00340093  0.24809650  1
  O  O75  1  0.90883062  0.63848288  0.58002586  1
  O  O76  1  0.94267882  0.42319423  0.19282964  1
  O  O77  1  0.95105376  0.33127445  0.59896965  1
  O  O78  1  0.95369442  0.11537442  0.89511025  1
  O  O79  1  0.95577732  0.13015850  0.44875677  1
