# generated using pymatgen
data_LiP3W2O13
_symmetry_space_group_name_H-M   'P 1'
_cell_length_a   9.59885238
_cell_length_b   19.29378411
_cell_length_c   6.50937542
_cell_angle_alpha   90.00000000
_cell_angle_beta   106.75346163
_cell_angle_gamma   90.00000000
_symmetry_Int_Tables_number   1
_chemical_formula_structural   LiP3W2O13
_chemical_formula_sum   'Li4 P12 W8 O52'
_cell_volume   1154.35476011
_cell_formula_units_Z   4
loop_
 _symmetry_equiv_pos_site_id
 _symmetry_equiv_pos_as_xyz
  1  'x, y, z'
loop_
 _atom_site_type_symbol
 _atom_site_label
 _atom_site_symmetry_multiplicity
 _atom_site_fract_x
 _atom_site_fract_y
 _atom_site_fract_z
 _atom_site_occupancy
  Li  Li0  1  0.38027023  0.27607145  0.58500536  1
  Li  Li1  1  0.38027023  0.22392855  0.08500536  1
  Li  Li2  1  0.61973077  0.77607145  0.91499464  1
  Li  Li3  1  0.61973077  0.72392855  0.41499464  1
  P  P4  1  0.02418208  0.67388042  0.65610781  1
  P  P5  1  0.02418208  0.82611958  0.15610781  1
  P  P6  1  0.29699634  0.90521573  0.76803595  1
  P  P7  1  0.29912501  0.02991756  0.51107410  1
  P  P8  1  0.29699634  0.59478427  0.26803595  1
  P  P9  1  0.29912501  0.47008244  0.01107410  1
  P  P10  1  0.70087499  0.52991756  0.98892590  1
  P  P11  1  0.70300366  0.40521573  0.73196405  1
  P  P12  1  0.70087499  0.97008244  0.48892590  1
  P  P13  1  0.70300366  0.09478427  0.23196405  1
  P  P14  1  0.97581792  0.17388042  0.84389219  1
  P  P15  1  0.97581792  0.32611958  0.34389219  1
  W  W16  1  0.06920952  0.33846901  0.88175260  1
  W  W17  1  0.06920952  0.16153099  0.38175260  1
  W  W18  1  0.38611475  0.62640513  0.81336755  1
  W  W19  1  0.38611475  0.87359487  0.31336755  1
  W  W20  1  0.61388525  0.12640513  0.68663245  1
  W  W21  1  0.61388525  0.37359487  0.18663245  1
  W  W22  1  0.93079048  0.83846901  0.61824740  1
  W  W23  1  0.93079048  0.66153099  0.11824740  1
  O  O24  1  0.06400960  0.15175759  0.69079516  1
  O  O25  1  0.06152723  0.75187222  0.67252768  1
  O  O26  1  0.07130633  0.34705165  0.56933711  1
  O  O27  1  0.14792124  0.43875451  0.91520964  1
  O  O28  1  0.13793105  0.88464622  0.71409790  1
  O  O29  1  0.06400960  0.34824241  0.19079516  1
  O  O30  1  0.22993704  0.28669051  0.94707536  1
  O  O31  1  0.16886305  0.63410884  0.71059180  1
  O  O32  1  0.06152723  0.74812778  0.17252768  1
  O  O33  1  0.07130633  0.15294835  0.06933711  1
  O  O34  1  0.14792124  0.06124549  0.41520964  1
  O  O35  1  0.13793105  0.61535378  0.21409790  1
  O  O36  1  0.22993704  0.21330949  0.44707536  1
  O  O37  1  0.16886305  0.86589116  0.21059180  1
  O  O38  1  0.29884237  0.98730841  0.72489991  1
  O  O39  1  0.33980804  0.51993941  0.85675402  1
  O  O40  1  0.38324212  0.86908063  0.63260009  1
  O  O41  1  0.29884237  0.51269159  0.22489991  1
  O  O42  1  0.33980804  0.98006059  0.35675402  1
  O  O43  1  0.45100912  0.71296148  0.82311786  1
  O  O44  1  0.38395970  0.60368950  0.50410989  1
  O  O45  1  0.40614781  0.08900367  0.59213095  1
  O  O46  1  0.38324212  0.63091937  0.13260009  1
  O  O47  1  0.45100912  0.78703852  0.32311786  1
  O  O48  1  0.38395970  0.89631050  0.00410989  1
  O  O49  1  0.40614781  0.41099633  0.09213095  1
  O  O50  1  0.59385219  0.58900367  0.90786905  1
  O  O51  1  0.61604030  0.10368950  0.99589011  1
  O  O52  1  0.54899088  0.21296148  0.67688214  1
  O  O53  1  0.61675788  0.36908063  0.86739991  1
  O  O54  1  0.59385219  0.91099633  0.40786905  1
  O  O55  1  0.61604030  0.39631050  0.49589011  1
  O  O56  1  0.54899088  0.28703852  0.17688214  1
  O  O57  1  0.66019196  0.01993941  0.64324598  1
  O  O58  1  0.70115763  0.48730841  0.77510009  1
  O  O59  1  0.61675788  0.13091937  0.36739991  1
  O  O60  1  0.66019196  0.48006059  0.14324598  1
  O  O61  1  0.70115763  0.01269159  0.27510009  1
  O  O62  1  0.83113695  0.13410884  0.78940820  1
  O  O63  1  0.77006296  0.78669051  0.55292464  1
  O  O64  1  0.86206895  0.38464622  0.78590210  1
  O  O65  1  0.85207876  0.93875451  0.58479036  1
  O  O66  1  0.92869367  0.84705165  0.93066289  1
  O  O67  1  0.93847277  0.25187222  0.82747232  1
  O  O68  1  0.83113695  0.36589116  0.28940820  1
  O  O69  1  0.77006296  0.71330949  0.05292464  1
  O  O70  1  0.93599040  0.65175759  0.80920484  1
  O  O71  1  0.86206895  0.11535378  0.28590210  1
  O  O72  1  0.85207876  0.56124549  0.08479036  1
  O  O73  1  0.92869367  0.65294835  0.43066289  1
  O  O74  1  0.93847277  0.24812778  0.32747232  1
  O  O75  1  0.93599040  0.84824241  0.30920484  1
