# generated using pymatgen
data_Li10Co(SiO5)2
_symmetry_space_group_name_H-M   'P 1'
_cell_length_a   6.17534188
_cell_length_b   15.40061706
_cell_length_c   5.18435330
_cell_angle_alpha   79.71040298
_cell_angle_beta   89.99801582
_cell_angle_gamma   78.39114106
_symmetry_Int_Tables_number   1
_chemical_formula_structural   Li10Co(SiO5)2
_chemical_formula_sum   'Li20 Co2 Si4 O20'
_cell_volume   474.87002247
_cell_formula_units_Z   2
loop_
 _symmetry_equiv_pos_site_id
 _symmetry_equiv_pos_as_xyz
  1  'x, y, z'
loop_
 _atom_site_type_symbol
 _atom_site_label
 _atom_site_symmetry_multiplicity
 _atom_site_fract_x
 _atom_site_fract_y
 _atom_site_fract_z
 _atom_site_occupancy
  Li  Li0  1  0.50917077  0.98114898  0.75271989  1
  Li  Li1  1  0.36144616  0.86489446  0.24360627  1
  Li  Li2  1  0.76863027  0.86596881  0.23887698  1
  Li  Li3  1  0.13029356  0.73602361  0.48645756  1
  Li  Li4  1  0.34577650  0.73752242  0.01815162  1
  Li  Li5  1  0.91284585  0.73782261  0.01915394  1
  Li  Li6  1  0.67696107  0.65116765  0.41640516  1
  Li  Li7  1  0.43937238  0.60989481  0.78441150  1
  Li  Li8  1  0.95186900  0.60998966  0.78566307  1
  Li  Li9  1  0.73026159  0.53921402  0.13534928  1
  Li  Li10  1  0.26985860  0.45978017  0.86272079  1
  Li  Li11  1  0.04847122  0.38891232  0.21209882  1
  Li  Li12  1  0.56151993  0.38975776  0.21251768  1
  Li  Li13  1  0.32680785  0.34810213  0.57920302  1
  Li  Li14  1  0.08768035  0.26106350  0.97794036  1
  Li  Li15  1  0.65481742  0.26125537  0.97926493  1
  Li  Li16  1  0.86980251  0.26302555  0.51295748  1
  Li  Li17  1  0.64363764  0.13361075  0.75879294  1
  Li  Li18  1  0.22779766  0.13279173  0.76377724  1
  Li  Li19  1  0.49146258  0.01857321  0.24591940  1
  Co  Co20  1  0.03633630  0.93001441  0.94303182  1
  Co  Co21  1  0.96329030  0.07142306  0.06284400  1
  Si  Si22  1  0.59894816  0.79964898  0.69041354  1
  Si  Si23  1  0.21893207  0.56220276  0.30661440  1
  Si  Si24  1  0.78191170  0.43660004  0.69162820  1
  Si  Si25  1  0.40142752  0.19973443  0.30873774  1
  O  O26  1  0.55016033  0.89933290  0.49539813  1
  O  O27  1  0.09062390  0.81472167  0.13221517  1
  O  O28  1  0.59345991  0.80885640  0.00476112  1
  O  O29  1  0.41150410  0.74259460  0.63023021  1
  O  O30  1  0.84265729  0.74158043  0.63217003  1
  O  O31  1  0.41750454  0.61282848  0.16663286  1
  O  O32  1  0.96913115  0.61337208  0.16855010  1
  O  O33  1  0.21399265  0.57324250  0.61658929  1
  O  O34  1  0.72913966  0.54354519  0.73427508  1
  O  O35  1  0.27103544  0.45618118  0.26344793  1
  O  O36  1  0.78684948  0.42594133  0.38196989  1
  O  O37  1  0.58323649  0.38659466  0.83143711  1
  O  O38  1  0.03113230  0.38616416  0.83012617  1
  O  O39  1  0.15665641  0.25741391  0.36551292  1
  O  O40  1  0.58708202  0.25735256  0.36815094  1
  O  O41  1  0.40751178  0.18987204  0.99443120  1
  O  O42  1  0.90945490  0.18541855  0.86722184  1
  O  O43  1  0.45090210  0.09988383  0.50470510  1
  O  O44  1  0.25184712  0.99895903  0.00028644  1
  O  O45  1  0.75024749  0.99883830  0.99941983  1
