# generated using pymatgen
data_Li3P2WO9
_symmetry_space_group_name_H-M   'P 1'
_cell_length_a   5.08590693
_cell_length_b   15.98615776
_cell_length_c   8.76740326
_cell_angle_alpha   90.00000000
_cell_angle_beta   101.95563265
_cell_angle_gamma   90.00000000
_symmetry_Int_Tables_number   1
_chemical_formula_structural   Li3P2WO9
_chemical_formula_sum   'Li12 P8 W4 O36'
_cell_volume   697.36352100
_cell_formula_units_Z   4
loop_
 _symmetry_equiv_pos_site_id
 _symmetry_equiv_pos_as_xyz
  1  'x, y, z'
loop_
 _atom_site_type_symbol
 _atom_site_label
 _atom_site_symmetry_multiplicity
 _atom_site_fract_x
 _atom_site_fract_y
 _atom_site_fract_z
 _atom_site_occupancy
  Li  Li0  1  0.24761812  0.62731031  0.57185316  1
  Li  Li1  1  0.22513272  0.61476253  0.95907683  1
  Li  Li2  1  0.27113399  0.18095980  0.57609197  1
  Li  Li3  1  0.24761812  0.87268969  0.07185316  1
  Li  Li4  1  0.22513272  0.88523747  0.45907683  1
  Li  Li5  1  0.27113399  0.31904020  0.07609197  1
  Li  Li6  1  0.72886601  0.68095980  0.92390803  1
  Li  Li7  1  0.77486728  0.11476253  0.54092317  1
  Li  Li8  1  0.75238188  0.12731031  0.92814684  1
  Li  Li9  1  0.72886601  0.81904020  0.42390803  1
  Li  Li10  1  0.77486728  0.38523747  0.04092317  1
  Li  Li11  1  0.75238188  0.37268969  0.42814684  1
  P  P12  1  0.18172848  0.77323148  0.75816934  1
  P  P13  1  0.18172848  0.72676852  0.25816934  1
  P  P14  1  0.22226665  0.03970487  0.81019668  1
  P  P15  1  0.22226665  0.46029513  0.31019668  1
  P  P16  1  0.77773335  0.53970487  0.68980332  1
  P  P17  1  0.77773335  0.96029513  0.18980332  1
  P  P18  1  0.81827152  0.27323148  0.74183066  1
  P  P19  1  0.81827152  0.22676852  0.24183066  1
  W  W20  1  0.29443177  0.39801876  0.69020328  1
  W  W21  1  0.29443177  0.10198124  0.19020328  1
  W  W22  1  0.70556823  0.89801876  0.80979672  1
  W  W23  1  0.70556823  0.60198124  0.30979672  1
  O  O24  1  0.91498459  0.78606615  0.82649123  1
  O  O25  1  0.91498459  0.71393385  0.32649123  1
  O  O26  1  0.06114170  0.95894270  0.82852200  1
  O  O27  1  0.06114170  0.54105730  0.32852200  1
  O  O28  1  0.41614897  0.39657795  0.89556595  1
  O  O29  1  0.41614897  0.10342205  0.39556595  1
  O  O30  1  0.13510430  0.07875593  0.65181718  1
  O  O31  1  0.13510430  0.42124407  0.15181718  1
  O  O32  1  0.18352448  0.10107317  0.94277511  1
  O  O33  1  0.18352448  0.39892683  0.44277511  1
  O  O34  1  0.11724948  0.80214928  0.59091347  1
  O  O35  1  0.11724948  0.69785072  0.09091347  1
  O  O36  1  0.29183669  0.68333285  0.77875319  1
  O  O37  1  0.29183669  0.81666715  0.27875319  1
  O  O38  1  0.47068893  0.51496377  0.65772712  1
  O  O39  1  0.39980872  0.82907880  0.86981043  1
  O  O40  1  0.47068893  0.98503623  0.15772712  1
  O  O41  1  0.39980872  0.67092120  0.36981043  1
  O  O42  1  0.60019128  0.32907880  0.63018957  1
  O  O43  1  0.52931107  0.01496377  0.84227288  1
  O  O44  1  0.60019128  0.17092120  0.13018957  1
  O  O45  1  0.52931107  0.48503623  0.34227288  1
  O  O46  1  0.70816331  0.18333285  0.72124681  1
  O  O47  1  0.70816331  0.31666715  0.22124681  1
  O  O48  1  0.88275052  0.30214928  0.90908653  1
  O  O49  1  0.88275052  0.19785072  0.40908653  1
  O  O50  1  0.81647552  0.60107317  0.55722489  1
  O  O51  1  0.81647552  0.89892683  0.05722489  1
  O  O52  1  0.86489570  0.57875593  0.84818282  1
  O  O53  1  0.86489570  0.92124407  0.34818282  1
  O  O54  1  0.58385103  0.89657795  0.60443405  1
  O  O55  1  0.58385103  0.60342205  0.10443405  1
  O  O56  1  0.93885830  0.45894270  0.67147800  1
  O  O57  1  0.93885830  0.04105730  0.17147800  1
  O  O58  1  0.08501541  0.28606615  0.67350877  1
  O  O59  1  0.08501541  0.21393385  0.17350877  1
