# generated using pymatgen
data_Sn2P3O10
_symmetry_space_group_name_H-M   'P 1'
_cell_length_a   12.62585013
_cell_length_b   8.03846240
_cell_length_c   9.77470479
_cell_angle_alpha   90.00000000
_cell_angle_beta   103.42518106
_cell_angle_gamma   90.00000000
_symmetry_Int_Tables_number   1
_chemical_formula_structural   Sn2P3O10
_chemical_formula_sum   'Sn8 P12 O40'
_cell_volume   964.94940286
_cell_formula_units_Z   4
loop_
 _symmetry_equiv_pos_site_id
 _symmetry_equiv_pos_as_xyz
  1  'x, y, z'
loop_
 _atom_site_type_symbol
 _atom_site_label
 _atom_site_symmetry_multiplicity
 _atom_site_fract_x
 _atom_site_fract_y
 _atom_site_fract_z
 _atom_site_occupancy
  Sn  Sn0  1  0.14722432  0.55228394  0.45204201  1
  Sn  Sn1  1  0.85277568  0.44771606  0.54795799  1
  Sn  Sn2  1  0.40897219  0.10783128  0.76643853  1
  Sn  Sn3  1  0.85277568  0.05228394  0.04795799  1
  Sn  Sn4  1  0.14722432  0.94771606  0.95204201  1
  Sn  Sn5  1  0.59102781  0.60783128  0.73356147  1
  Sn  Sn6  1  0.40897219  0.39216872  0.26643853  1
  Sn  Sn7  1  0.59102781  0.89216872  0.23356147  1
  P  P8  1  0.05292095  0.58089270  0.77234958  1
  P  P9  1  0.05292095  0.91910730  0.27234958  1
  P  P10  1  0.35098797  0.78205215  0.95500513  1
  P  P11  1  0.26462725  0.07458616  0.40801738  1
  P  P12  1  0.64901203  0.21794785  0.04499487  1
  P  P13  1  0.26462725  0.42541384  0.90801738  1
  P  P14  1  0.35098797  0.71794785  0.45500513  1
  P  P15  1  0.94707905  0.08089270  0.72765042  1
  P  P16  1  0.94707905  0.41910730  0.22765042  1
  P  P17  1  0.64901203  0.28205215  0.54499487  1
  P  P18  1  0.73537275  0.57458616  0.09198262  1
  P  P19  1  0.73537275  0.92541384  0.59198262  1
  O  O20  1  0.31175037  0.60315281  0.87856809  1
  O  O21  1  0.28733922  0.69184676  0.57075373  1
  O  O22  1  0.52654489  0.21986400  0.00211736  1
  O  O23  1  0.30700734  0.30199326  0.81684606  1
  O  O24  1  0.28733922  0.80815324  0.07075373  1
  O  O25  1  0.71841188  0.61354373  0.93800933  1
  O  O26  1  0.30144984  0.91730049  0.84179242  1
  O  O27  1  0.52654489  0.28013600  0.50211736  1
  O  O28  1  0.30144984  0.58269951  0.34179242  1
  O  O29  1  0.06424646  0.02181074  0.73679959  1
  O  O30  1  0.69855016  0.41730049  0.65820758  1
  O  O31  1  0.28158812  0.11354373  0.56199067  1
  O  O32  1  0.06734394  0.89113146  0.12187471  1
  O  O33  1  0.69855016  0.08269951  0.15820758  1
  O  O34  1  0.68824963  0.39684719  0.12143191  1
  O  O35  1  0.93575354  0.97818926  0.26320041  1
  O  O36  1  0.71266078  0.19184676  0.92924627  1
  O  O37  1  0.69299266  0.69800674  0.18315394  1
  O  O38  1  0.31175037  0.89684719  0.37856809  1
  O  O39  1  0.93265606  0.10886854  0.87812529  1
  O  O40  1  0.47345511  0.71986400  0.49788264  1
  O  O41  1  0.91923177  0.22412585  0.62481943  1
  O  O42  1  0.08076823  0.77587415  0.37518057  1
  O  O43  1  0.86477844  0.93286994  0.65722546  1
  O  O44  1  0.06734394  0.60886854  0.62187471  1
  O  O45  1  0.71266078  0.30815324  0.42924627  1
  O  O46  1  0.47345511  0.78013600  0.99788264  1
  O  O47  1  0.91923177  0.27587415  0.12481943  1
  O  O48  1  0.28158812  0.38645627  0.06199067  1
  O  O49  1  0.06424646  0.47818926  0.23679959  1
  O  O50  1  0.71841188  0.88645627  0.43800933  1
  O  O51  1  0.13522156  0.06713006  0.34277454  1
  O  O52  1  0.86477844  0.56713006  0.15722546  1
  O  O53  1  0.93575354  0.52181074  0.76320041  1
  O  O54  1  0.08076823  0.72412585  0.87518057  1
  O  O55  1  0.13522156  0.43286994  0.84277454  1
  O  O56  1  0.69299266  0.80199326  0.68315394  1
  O  O57  1  0.30700734  0.19800674  0.31684606  1
  O  O58  1  0.68824963  0.10315281  0.62143191  1
  O  O59  1  0.93265606  0.39113146  0.37812529  1
