# generated using pymatgen
data_Li3V3P8O29
_symmetry_space_group_name_H-M   'P 1'
_cell_length_a   9.73175736
_cell_length_b   9.79870814
_cell_length_c   14.21052974
_cell_angle_alpha   90.16108151
_cell_angle_beta   89.65793211
_cell_angle_gamma   60.03530427
_symmetry_Int_Tables_number   1
_chemical_formula_structural   Li3V3P8O29
_chemical_formula_sum   'Li6 V6 P16 O58'
_cell_volume   1173.91846416
_cell_formula_units_Z   2
loop_
 _symmetry_equiv_pos_site_id
 _symmetry_equiv_pos_as_xyz
  1  'x, y, z'
loop_
 _atom_site_type_symbol
 _atom_site_label
 _atom_site_symmetry_multiplicity
 _atom_site_fract_x
 _atom_site_fract_y
 _atom_site_fract_z
 _atom_site_occupancy
  Li  Li0  1  0.77717031  0.91636856  0.55561840  1
  Li  Li1  1  0.76527176  0.33195346  0.05951512  1
  Li  Li2  1  0.30654325  0.77720465  0.55567089  1
  Li  Li3  1  0.23284813  0.67208151  0.94665004  1
  Li  Li4  1  0.22428214  0.09224311  0.44170213  1
  Li  Li5  1  0.00219386  0.99907491  0.00648888  1
  V  V6  1  0.56652363  0.43151238  0.25676344  1
  V  V7  1  0.43796029  0.56080428  0.74760990  1
  V  V8  1  0.56420647  0.00183877  0.75987356  1
  V  V9  1  0.43911664  0.99594506  0.23846653  1
  V  V10  1  0.99640217  0.56678985  0.24997867  1
  V  V11  1  0.00204893  0.43405173  0.74856836  1
  P  P12  1  0.91995880  0.77306976  0.84158308  1
  P  P13  1  0.76823128  0.91323817  0.34034600  1
  P  P14  1  0.91553823  0.31385837  0.34411341  1
  P  P15  1  0.67016230  0.65855929  0.13039403  1
  P  P16  1  0.66578551  0.67199461  0.63322938  1
  P  P17  1  0.77497366  0.31381983  0.84044834  1
  P  P18  1  0.68910937  0.22241991  0.65903880  1
  P  P19  1  0.30388128  0.91265422  0.84227337  1
  P  P20  1  0.69855160  0.08616064  0.15870441  1
  P  P21  1  0.31779902  0.77484357  0.33978701  1
  P  P22  1  0.22786505  0.68339307  0.16084688  1
  P  P23  1  0.32892988  0.32918927  0.36744260  1
  P  P24  1  0.32964177  0.33867197  0.86835793  1
  P  P25  1  0.08578579  0.68512924  0.65587431  1
  P  P26  1  0.23264190  0.08641982  0.66049437  1
  P  P27  1  0.08117341  0.22517561  0.15867756  1
  O  O28  1  0.99549084  0.76785523  0.57109339  1
  O  O29  1  0.91149539  0.74377639  0.33002040  1
  O  O30  1  0.79930967  0.00779806  0.07520164  1
  O  O31  1  0.74454624  0.90998754  0.83491767  1
  O  O32  1  0.92202488  0.61490735  0.83000639  1
  O  O33  1  0.81218640  0.66549571  0.17691818  1
  O  O34  1  0.90760064  0.47362379  0.32516997  1
  O  O35  1  0.99598238  0.20699739  0.07692468  1
  O  O36  1  0.91420183  0.34587261  0.82785135  1
  O  O37  1  0.66136614  0.82115352  0.67783409  1
  O  O38  1  0.61621689  0.90648508  0.31501659  1
  O  O39  1  0.81450845  0.52833957  0.67842645  1
  O  O40  1  0.67175806  0.65647925  0.02602732  1
  O  O41  1  0.66153024  0.67586233  0.52898263  1
  O  O42  1  0.67341645  0.50790338  0.17112309  1
  O  O43  1  0.46236788  0.91756818  0.83142618  1
  O  O44  1  0.51608968  0.81021145  0.17206473  1
  O  O45  1  0.74244105  0.34461088  0.33599759  1
  O  O46  1  0.79067345  0.20139083  0.75432963  1
  O  O47  1  0.76540893  0.23462105  0.57245449  1
  O  O48  1  0.77760673  0.24223725  0.93289084  1
  O  O49  1  0.61744402  0.47231987  0.82269567  1
  O  O50  1  0.51441533  0.66877554  0.67438601  1
  O  O51  1  0.65770583  0.26156396  0.16521017  1
  O  O52  1  0.47989828  0.62107982  0.32069325  1
  O  O53  1  0.34068876  0.92021656  0.33398651  1
  O  O54  1  0.78973341  0.01056982  0.25600576  1
  O  O55  1  0.75600066  0.98925882  0.43230676  1
  O  O56  1  0.24663334  0.00186284  0.56980484  1
  O  O57  1  0.66086286  0.07966343  0.66531330  1
  O  O58  1  0.52546412  0.37814684  0.68013561  1
  O  O59  1  0.34311226  0.73765670  0.83526122  1
  O  O60  1  0.47682592  0.33764484  0.32368705  1
  O  O61  1  0.38592465  0.52852221  0.17578192  1
  O  O62  1  0.21726868  0.76607774  0.07087865  1
  O  O63  1  0.24694373  0.76567264  0.43057815  1
  O  O64  1  0.20817743  0.79366614  0.25067390  1
  O  O65  1  0.25774331  0.65885876  0.65833438  1
  O  O66  1  0.48331137  0.18917625  0.82702574  1
  O  O67  1  0.53902639  0.08231046  0.16742365  1
  O  O68  1  0.32630936  0.49054247  0.82577881  1
  O  O69  1  0.32766245  0.34786301  0.97248069  1
  O  O70  1  0.32785296  0.33178486  0.47164336  1
  O  O71  1  0.18226043  0.47252067  0.32081823  1
  O  O72  1  0.38445678  0.09363943  0.68254940  1
  O  O73  1  0.33681286  0.17811201  0.32451520  1
  O  O74  1  0.08851186  0.65052519  0.17051239  1
  O  O75  1  0.00239262  0.79281746  0.74786578  1
  O  O76  1  0.00506761  0.78762772  0.92424147  1
  O  O77  1  0.09371886  0.52523481  0.67500173  1
  O  O78  1  0.18702802  0.33321485  0.82240621  1
  O  O79  1  0.07680981  0.38408713  0.16810728  1
  O  O80  1  0.25745177  0.08976454  0.16458821  1
  O  O81  1  0.20427436  0.99195674  0.92583461  1
  O  O82  1  0.21064811  0.98978464  0.74493426  1
  O  O83  1  0.08911964  0.25516121  0.66650515  1
  O  O84  1  0.00346474  0.23219383  0.42950662  1
  O  O85  1  0.00174376  0.20381773  0.25323036  1
