# generated using pymatgen
data_Li3V3P8O29
_symmetry_space_group_name_H-M   'P 1'
_cell_length_a   9.77706395
_cell_length_b   9.75332713
_cell_length_c   14.20128982
_cell_angle_alpha   89.69386590
_cell_angle_beta   89.76234268
_cell_angle_gamma   60.06890901
_symmetry_Int_Tables_number   1
_chemical_formula_structural   Li3V3P8O29
_chemical_formula_sum   'Li6 V6 P16 O58'
_cell_volume   1173.58345456
_cell_formula_units_Z   2
loop_
 _symmetry_equiv_pos_site_id
 _symmetry_equiv_pos_as_xyz
  1  'x, y, z'
loop_
 _atom_site_type_symbol
 _atom_site_label
 _atom_site_symmetry_multiplicity
 _atom_site_fract_x
 _atom_site_fract_y
 _atom_site_fract_z
 _atom_site_occupancy
  Li  Li0  1  0.91213927  0.77688670  0.05861492  1
  Li  Li1  1  0.90542944  0.32649816  0.55279093  1
  Li  Li2  1  0.32055170  0.90802774  0.05967505  1
  Li  Li3  1  0.32787554  0.76565743  0.55655782  1
  Li  Li4  1  0.08046160  0.22178128  0.94399442  1
  Li  Li5  1  0.97020677  0.98177358  0.49488726  1
  V  V6  1  0.56728886  0.43233452  0.24545199  1
  V  V7  1  0.43723250  0.56279082  0.75559585  1
  V  V8  1  0.56896340  0.99853507  0.74438029  1
  V  V9  1  0.43662062  0.00394725  0.25695524  1
  V  V10  1  0.00341280  0.56396699  0.25448173  1
  V  V11  1  0.99818735  0.43951364  0.74723151  1
  P  P12  1  0.91021093  0.77371674  0.84103142  1
  P  P13  1  0.77909461  0.91639503  0.34258498  1
  P  P14  1  0.91035904  0.31164833  0.33916544  1
  P  P15  1  0.66664044  0.67139649  0.13165492  1
  P  P16  1  0.66454340  0.66567259  0.63079977  1
  P  P17  1  0.77415420  0.31163527  0.84565979  1
  P  P18  1  0.69271366  0.22673329  0.66066489  1
  P  P19  1  0.31975523  0.91340592  0.84183317  1
  P  P20  1  0.68635392  0.08558435  0.15846738  1
  P  P21  1  0.31469141  0.77047366  0.34226625  1
  P  P22  1  0.22658361  0.68740258  0.16030848  1
  P  P23  1  0.33538246  0.33555171  0.36946786  1
  P  P24  1  0.33273085  0.32777496  0.86687431  1
  P  P25  1  0.08893036  0.69391841  0.65986178  1
  P  P26  1  0.22358520  0.08497734  0.65936393  1
  P  P27  1  0.09201777  0.22808099  0.15956467  1
  O  O28  1  0.00738230  0.78858448  0.57569026  1
  O  O29  1  0.91277239  0.74128472  0.33018995  1
  O  O30  1  0.76720983  0.99450084  0.07324891  1
  O  O31  1  0.74224049  0.91629425  0.82854189  1
  O  O32  1  0.90196470  0.62009509  0.81719880  1
  O  O33  1  0.81941359  0.66512828  0.17186477  1
  O  O34  1  0.91014738  0.47115185  0.32572636  1
  O  O35  1  0.01233947  0.23683412  0.06930793  1
  O  O36  1  0.91792166  0.34033978  0.83611293  1
  O  O37  1  0.66971900  0.81136770  0.67374734  1
  O  O38  1  0.61826167  0.91977373  0.33231615  1
  O  O39  1  0.81427788  0.51050991  0.67134796  1
  O  O40  1  0.66100572  0.67329366  0.02700465  1
  O  O41  1  0.66532961  0.66053892  0.52620549  1
  O  O42  1  0.66003714  0.52535968  0.17670844  1
  O  O43  1  0.47864032  0.90506275  0.82070877  1
  O  O44  1  0.52003812  0.82048268  0.17535252  1
  O  O45  1  0.73994060  0.34351905  0.32888375  1
  O  O46  1  0.79424587  0.20449977  0.75448654  1
  O  O47  1  0.78932384  0.21687958  0.57695456  1
  O  O48  1  0.76640703  0.23860078  0.93467924  1
  O  O49  1  0.61962156  0.47430550  0.82330783  1
  O  O50  1  0.51258039  0.67196655  0.67307932  1
  O  O51  1  0.65517213  0.25773211  0.16371101  1
  O  O52  1  0.47017119  0.61412122  0.32679710  1
  O  O53  1  0.34737848  0.91069430  0.32921016  1
  O  O54  1  0.79504533  0.00294185  0.25024463  1
  O  O55  1  0.79876451  0.98970236  0.42818035  1
  O  O56  1  0.21408385  0.99171607  0.57978050  1
  O  O57  1  0.65502281  0.08969417  0.66517575  1
  O  O58  1  0.53551738  0.38509122  0.67356311  1
  O  O59  1  0.34363911  0.74436763  0.83372888  1
  O  O60  1  0.48094237  0.33366483  0.32322578  1
  O  O61  1  0.38012594  0.52643909  0.17560809  1
  O  O62  1  0.23340373  0.77622722  0.07714212  1
  O  O63  1  0.23369989  0.78485226  0.43379653  1
  O  O64  1  0.20060267  0.78814316  0.25630576  1
  O  O65  1  0.26353074  0.65539476  0.66505545  1
  O  O66  1  0.47483020  0.18193342  0.81939034  1
  O  O67  1  0.52673866  0.09211750  0.17955286  1
  O  O68  1  0.33757960  0.47551882  0.82309145  1
  O  O69  1  0.32613113  0.32612194  0.97088664  1
  O  O70  1  0.32920521  0.33620980  0.47350049  1
  O  O71  1  0.18465347  0.48485283  0.32493223  1
  O  O72  1  0.38280772  0.08265153  0.66925594  1
  O  O73  1  0.33119494  0.18755698  0.32551192  1
  O  O74  1  0.08262175  0.66058580  0.16033826  1
  O  O75  1  0.01100594  0.78967266  0.75650171  1
  O  O76  1  0.98619645  0.75772782  0.93319640  1
  O  O77  1  0.08532370  0.53528751  0.67323555  1
  O  O78  1  0.17947851  0.33436580  0.82285083  1
  O  O79  1  0.09732467  0.38129201  0.18122005  1
  O  O80  1  0.26118476  0.08245052  0.16449209  1
  O  O81  1  0.24776881  0.99544112  0.93267579  1
  O  O82  1  0.20054420  0.01376609  0.75833164  1
  O  O83  1  0.08351928  0.25900768  0.65947258  1
  O  O84  1  0.98378045  0.23121506  0.42964451  1
  O  O85  1  0.00233391  0.20500236  0.24922907  1
