# generated using pymatgen
data_Li3V3P8O29
_symmetry_space_group_name_H-M   'P 1'
_cell_length_a   9.79618023
_cell_length_b   9.73813134
_cell_length_c   14.20857357
_cell_angle_alpha   89.54711852
_cell_angle_beta   90.07190430
_cell_angle_gamma   59.82144544
_symmetry_Int_Tables_number   1
_chemical_formula_structural   Li3V3P8O29
_chemical_formula_sum   'Li6 V6 P16 O58'
_cell_volume   1171.67667113
_cell_formula_units_Z   2
loop_
 _symmetry_equiv_pos_site_id
 _symmetry_equiv_pos_as_xyz
  1  'x, y, z'
loop_
 _atom_site_type_symbol
 _atom_site_label
 _atom_site_symmetry_multiplicity
 _atom_site_fract_x
 _atom_site_fract_y
 _atom_site_fract_z
 _atom_site_occupancy
  Li  Li0  1  0.91729929  0.76813376  0.06004318  1
  Li  Li1  1  0.66333884  0.66749697  0.89546356  1
  Li  Li2  1  0.67169853  0.23384280  0.44029137  1
  Li  Li3  1  0.33329033  0.76308505  0.55644725  1
  Li  Li4  1  0.01597537  0.03937033  0.99650118  1
  Li  Li5  1  0.99990087  0.99697738  0.49906819  1
  V  V6  1  0.56515310  0.43805115  0.24043860  1
  V  V7  1  0.43101329  0.56432597  0.75531201  1
  V  V8  1  0.56608484  0.00016184  0.74838156  1
  V  V9  1  0.43451309  0.00232361  0.24803137  1
  V  V10  1  0.00356536  0.55781297  0.25788068  1
  V  V11  1  0.99947177  0.43224315  0.74315445  1
  P  P12  1  0.90976525  0.77313929  0.84267570  1
  P  P13  1  0.77582050  0.91629792  0.34169530  1
  P  P14  1  0.91339011  0.30072750  0.34265992  1
  P  P15  1  0.67018846  0.67117167  0.13106547  1
  P  P16  1  0.66085121  0.66814622  0.63102459  1
  P  P17  1  0.78436268  0.30572176  0.83977322  1
  P  P18  1  0.68722891  0.22771715  0.65800451  1
  P  P19  1  0.30807876  0.91381529  0.84624102  1
  P  P20  1  0.69311613  0.08246861  0.15636108  1
  P  P21  1  0.31523969  0.77291910  0.34072241  1
  P  P22  1  0.21578368  0.69610562  0.15994202  1
  P  P23  1  0.34255351  0.32884055  0.36716324  1
  P  P24  1  0.32893946  0.33029185  0.86864452  1
  P  P25  1  0.08188547  0.69990436  0.65983053  1
  P  P26  1  0.22373661  0.07962213  0.65960113  1
  P  P27  1  0.08275648  0.22369988  0.15855501  1
  O  O28  1  0.00613670  0.80249406  0.57666012  1
  O  O29  1  0.90937281  0.73896509  0.33335271  1
  O  O30  1  0.78938008  0.99783002  0.07339304  1
  O  O31  1  0.73708642  0.91618767  0.83093115  1
  O  O32  1  0.89650049  0.62242907  0.82626218  1
  O  O33  1  0.81928631  0.66903508  0.17095702  1
  O  O34  1  0.91988889  0.45869699  0.33102335  1
  O  O35  1  0.00866117  0.20922461  0.07205169  1
  O  O36  1  0.91880187  0.34672609  0.83028481  1
  O  O37  1  0.66074282  0.81348958  0.67993166  1
  O  O38  1  0.61589494  0.92269947  0.33033884  1
  O  O39  1  0.81137521  0.51976724  0.67450475  1
  O  O40  1  0.66812089  0.67320288  0.02606221  1
  O  O41  1  0.65412719  0.67517396  0.52700296  1
  O  O42  1  0.66804975  0.52046377  0.17236842  1
  O  O43  1  0.47115370  0.90337733  0.83499954  1
  O  O44  1  0.52382994  0.81560326  0.17559293  1
  O  O45  1  0.73693320  0.34550570  0.33304389  1
  O  O46  1  0.80228433  0.20873537  0.74336834  1
  O  O47  1  0.76172632  0.21823633  0.56560733  1
  O  O48  1  0.80288912  0.20693306  0.92311211  1
  O  O49  1  0.62649366  0.47059692  0.83074545  1
  O  O50  1  0.51278393  0.66763270  0.67381686  1
  O  O51  1  0.65249948  0.25911971  0.16409821  1
  O  O52  1  0.47078648  0.61484225  0.32245821  1
  O  O53  1  0.34905040  0.91124730  0.32734976  1
  O  O54  1  0.79808612  0.99982651  0.24923348  1
  O  O55  1  0.79379921  0.99943653  0.42425239  1
  O  O56  1  0.20997367  0.99296115  0.57784248  1
  O  O57  1  0.65245039  0.08862703  0.67055547  1
  O  O58  1  0.53226347  0.38451706  0.67683161  1
  O  O59  1  0.34795063  0.73625988  0.83349516  1
  O  O60  1  0.48940581  0.33034364  0.32438523  1
  O  O61  1  0.37931583  0.53711592  0.17148159  1
  O  O62  1  0.20003228  0.79225337  0.07575019  1
  O  O63  1  0.24008588  0.78148221  0.43307104  1
  O  O64  1  0.19713577  0.79136270  0.25669964  1
  O  O65  1  0.25980661  0.65606926  0.66647877  1
  O  O66  1  0.46991830  0.18113806  0.82189969  1
  O  O67  1  0.53672456  0.08103683  0.16916675  1
  O  O68  1  0.34055134  0.47480919  0.82383933  1
  O  O69  1  0.32847304  0.33326501  0.97209197  1
  O  O70  1  0.34624465  0.32710628  0.47135113  1
  O  O71  1  0.18929720  0.47868811  0.32331536  1
  O  O72  1  0.38262563  0.07590504  0.67135730  1
  O  O73  1  0.33822238  0.18610604  0.32030450  1
  O  O74  1  0.08266799  0.65322269  0.16643332  1
  O  O75  1  0.00647902  0.79258980  0.75739787  1
  O  O76  1  0.98050448  0.77784508  0.93377244  1
  O  O77  1  0.07383403  0.54479679  0.67012814  1
  O  O78  1  0.17898465  0.34541631  0.81912653  1
  O  O79  1  0.07691090  0.38475512  0.17511029  1
  O  O80  1  0.25923846  0.09090780  0.16961016  1
  O  O81  1  0.21320220  0.98734948  0.93030393  1
  O  O82  1  0.20250455  0.00154724  0.75436572  1
  O  O83  1  0.08800944  0.25658531  0.66413970  1
  O  O84  1  0.98731695  0.20453111  0.42833522  1
  O  O85  1  0.99638283  0.20155107  0.24931499  1
