# generated using pymatgen
data_Cu2Se
_symmetry_space_group_name_H-M   'P 1'
_cell_length_a   4.21107423
_cell_length_b   4.20435356
_cell_length_c   16.45042346
_cell_angle_alpha   59.25924724
_cell_angle_beta   60.19424195
_cell_angle_gamma   60.05278397
_symmetry_Int_Tables_number   1
_chemical_formula_structural   Cu2Se
_chemical_formula_sum   'Cu8 Se4'
_cell_volume   205.14541732
_cell_formula_units_Z   4
loop_
 _symmetry_equiv_pos_site_id
 _symmetry_equiv_pos_as_xyz
  1  'x, y, z'
loop_
 _atom_site_type_symbol
 _atom_site_label
 _atom_site_symmetry_multiplicity
 _atom_site_fract_x
 _atom_site_fract_y
 _atom_site_fract_z
 _atom_site_occupancy
  Cu  Cu0  1  0.26193112  0.26135252  0.05384096  1
  Cu  Cu1  1  0.27331990  0.24095815  0.31119095  1
  Cu  Cu2  1  0.26137167  0.23408653  0.56761382  1
  Cu  Cu3  1  0.02670771  0.66169601  0.16247507  1
  Cu  Cu4  1  0.27027699  0.23473209  0.81506471  1
  Cu  Cu5  1  0.02356118  0.65701450  0.41560246  1
  Cu  Cu6  1  0.50532729  0.50444443  0.87144596  1
  Cu  Cu7  1  0.99446115  0.66427438  0.66924752  1
  Se  Se8  1  0.98006103  0.01488899  0.99754025  1
  Se  Se9  1  0.96438192  0.01519820  0.25130542  1
  Se  Se10  1  0.95403630  0.01749327  0.50274429  1
  Se  Se11  1  0.98426374  0.99396094  0.75695359  1
