# generated using pymatgen
data_Li3V2OF7
_symmetry_space_group_name_H-M   'P 1'
_cell_length_a   5.91354511
_cell_length_b   6.07880318
_cell_length_c   6.07718853
_cell_angle_alpha   61.20282883
_cell_angle_beta   59.18491376
_cell_angle_gamma   59.11900475
_symmetry_Int_Tables_number   1
_chemical_formula_structural   Li3V2OF7
_chemical_formula_sum   'Li3 V2 O1 F7'
_cell_volume   153.76289642
_cell_formula_units_Z   1
loop_
 _symmetry_equiv_pos_site_id
 _symmetry_equiv_pos_as_xyz
  1  'x, y, z'
loop_
 _atom_site_type_symbol
 _atom_site_label
 _atom_site_symmetry_multiplicity
 _atom_site_fract_x
 _atom_site_fract_y
 _atom_site_fract_z
 _atom_site_occupancy
  Li  Li0  1  0.13261442  0.11941529  0.11936101  1
  Li  Li1  1  0.50793793  0.49414137  0.49391346  1
  Li  Li2  1  0.85789709  0.88539788  0.88620611  1
  V  V3  1  0.51468288  0.01077540  0.48858301  1
  V  V4  1  0.51494465  0.48847359  0.01044102  1
  O  O5  1  0.71937605  0.24677095  0.24710110  1
  F  F6  1  0.27052287  0.25021479  0.24950226  1
  F  F7  1  0.27959795  0.22835361  0.73424569  1
  F  F8  1  0.27987342  0.73435597  0.22780869  1
  F  F9  1  0.27734823  0.75385798  0.75346010  1
  F  F10  1  0.70495846  0.27285881  0.76642846  1
  F  F11  1  0.70468394  0.76633635  0.27335166  1
  F  F12  1  0.73472312  0.75066600  0.75107443  1
