# generated using pymatgen
data_Mn6O7F5
_symmetry_space_group_name_H-M   'P 1'
_cell_length_a   4.72254579
_cell_length_b   4.72254579
_cell_length_c   9.11144258
_cell_angle_alpha   90.00000000
_cell_angle_beta   90.00000000
_cell_angle_gamma   96.82714458
_symmetry_Int_Tables_number   1
_chemical_formula_structural   Mn6O7F5
_chemical_formula_sum   'Mn6 O7 F5'
_cell_volume   201.76650763
_cell_formula_units_Z   1
loop_
 _symmetry_equiv_pos_site_id
 _symmetry_equiv_pos_as_xyz
  1  'x, y, z'
loop_
 _atom_site_type_symbol
 _atom_site_label
 _atom_site_symmetry_multiplicity
 _atom_site_fract_x
 _atom_site_fract_y
 _atom_site_fract_z
 _atom_site_occupancy
  Mn  Mn0  1  0.01036560  0.98963440  0.00818312  1
  Mn  Mn1  1  0.01036560  0.98963440  0.32514988  1
  Mn  Mn2  1  0.99941983  0.00058017  0.66666700  1
  Mn  Mn3  1  0.50219548  0.49780452  0.83437467  1
  Mn  Mn4  1  0.48034092  0.51965908  0.16666700  1
  Mn  Mn5  1  0.50219548  0.49780452  0.49895833  1
  O  O6  1  0.19119535  0.80880465  0.16666700  1
  O  O7  1  0.29986041  0.30988102  0.00199968  1
  O  O8  1  0.29986041  0.30988102  0.33133332  1
  O  O9  1  0.30681619  0.29886127  0.66666700  1
  O  O10  1  0.69011898  0.70013959  0.00199968  1
  O  O11  1  0.69011898  0.70013959  0.33133332  1
  O  O12  1  0.70113873  0.69318381  0.66666700  1
  F  F13  1  0.19391035  0.80608965  0.50125537  1
  F  F14  1  0.19391035  0.80608965  0.83207763  1
  F  F15  1  0.79096146  0.20903854  0.16666700  1
  F  F16  1  0.81861195  0.18138805  0.49130786  1
  F  F17  1  0.81861195  0.18138805  0.84202514  1
