# generated using pymatgen
data_Li3V3P8O29
_symmetry_space_group_name_H-M   'P 1'
_cell_length_a   9.76319557
_cell_length_b   9.75595063
_cell_length_c   14.27359681
_cell_angle_alpha   90.23335624
_cell_angle_beta   90.61877474
_cell_angle_gamma   60.29940390
_symmetry_Int_Tables_number   1
_chemical_formula_structural   Li3V3P8O29
_chemical_formula_sum   'Li6 V6 P16 O58'
_cell_volume   1180.87034211
_cell_formula_units_Z   2
loop_
 _symmetry_equiv_pos_site_id
 _symmetry_equiv_pos_as_xyz
  1  'x, y, z'
loop_
 _atom_site_type_symbol
 _atom_site_label
 _atom_site_symmetry_multiplicity
 _atom_site_fract_x
 _atom_site_fract_y
 _atom_site_fract_z
 _atom_site_occupancy
  Li  Li0  1  0.31467038  0.90845679  0.05979366  1
  Li  Li1  1  0.32732176  0.77110775  0.55584852  1
  Li  Li2  1  0.69433223  0.08168760  0.94348031  1
  Li  Li3  1  0.09017313  0.67362291  0.43997888  1
  Li  Li4  1  0.08542968  0.22421964  0.94136849  1
  Li  Li5  1  0.93375550  0.08049975  0.48906119  1
  V  V6  1  0.56699856  0.43034117  0.24967120  1
  V  V7  1  0.43535185  0.56182970  0.75518418  1
  V  V8  1  0.56985840  0.99487421  0.74267372  1
  V  V9  1  0.43439470  0.00590739  0.26024242  1
  V  V10  1  0.99870224  0.56506203  0.24552658  1
  V  V11  1  0.99621822  0.43816331  0.74618497  1
  P  P12  1  0.91605866  0.77313985  0.84027361  1
  P  P13  1  0.78392168  0.91375465  0.34020916  1
  P  P14  1  0.91645777  0.30712926  0.33787552  1
  P  P15  1  0.65813414  0.67091823  0.13340524  1
  P  P16  1  0.66308296  0.66535753  0.63055533  1
  P  P17  1  0.77427794  0.31317122  0.84122621  1
  P  P18  1  0.68987684  0.22832574  0.65793812  1
  P  P19  1  0.32263107  0.91109356  0.84201004  1
  P  P20  1  0.68128555  0.08682212  0.15858432  1
  P  P21  1  0.31595588  0.76914389  0.34185073  1
  P  P22  1  0.22724512  0.68524110  0.16000688  1
  P  P23  1  0.33113802  0.34109813  0.36979183  1
  P  P24  1  0.33578097  0.32419840  0.86756039  1
  P  P25  1  0.08908139  0.68595888  0.65840195  1
  P  P26  1  0.22131334  0.08544917  0.66150222  1
  P  P27  1  0.09138356  0.22552467  0.15792903  1
  O  O28  1  0.01930335  0.75708756  0.56618893  1
  O  O29  1  0.91808939  0.73781409  0.33575556  1
  O  O30  1  0.74295873  0.01249115  0.06709724  1
  O  O31  1  0.74444126  0.91691815  0.83409622  1
  O  O32  1  0.90826214  0.61864677  0.81818671  1
  O  O33  1  0.81453873  0.65910038  0.17872845  1
  O  O34  1  0.92371688  0.46167259  0.32711609  1
  O  O35  1  0.01737742  0.23385854  0.06547801  1
  O  O36  1  0.91802863  0.34049720  0.83974326  1
  O  O37  1  0.67089343  0.81162007  0.67548994  1
  O  O38  1  0.62074685  0.91849694  0.33181713  1
  O  O39  1  0.81166575  0.51638511  0.67515171  1
  O  O40  1  0.65727869  0.67198140  0.02975093  1
  O  O41  1  0.66099528  0.67188429  0.52697984  1
  O  O42  1  0.65557116  0.52540199  0.17782323  1
  O  O43  1  0.48101053  0.90285808  0.82044267  1
  O  O44  1  0.51635121  0.82189778  0.17676255  1
  O  O45  1  0.74115470  0.34788712  0.32952503  1
  O  O46  1  0.79737612  0.20960937  0.74865410  1
  O  O47  1  0.77859735  0.21286545  0.57261134  1
  O  O48  1  0.76430179  0.23028360  0.92494764  1
  O  O49  1  0.62107064  0.47575490  0.82307106  1
  O  O50  1  0.51143274  0.67244080  0.67142120  1
  O  O51  1  0.65735743  0.25558600  0.16931295  1
  O  O52  1  0.47189507  0.61426681  0.32834352  1
  O  O53  1  0.34678300  0.91070502  0.33488153  1
  O  O54  1  0.80047589  0.98729448  0.24247445  1
  O  O55  1  0.80569806  0.99424989  0.42205835  1
  O  O56  1  0.21004672  0.99474913  0.58100990  1
  O  O57  1  0.65161928  0.09141622  0.66990875  1
  O  O58  1  0.53464474  0.38689576  0.67234826  1
  O  O59  1  0.34627393  0.74205151  0.83321760  1
  O  O60  1  0.47941073  0.33386344  0.32307236  1
  O  O61  1  0.38040434  0.52567350  0.17632332  1
  O  O62  1  0.23012792  0.77395313  0.07728710  1
  O  O63  1  0.23374571  0.77189901  0.43090094  1
  O  O64  1  0.20271417  0.78988460  0.25461391  1
  O  O65  1  0.26044457  0.65763178  0.66711457  1
  O  O66  1  0.48220714  0.17733376  0.82470118  1
  O  O67  1  0.52209990  0.09555554  0.18437993  1
  O  O68  1  0.34261633  0.47073315  0.82091058  1
  O  O69  1  0.33989318  0.32530254  0.97126602  1
  O  O70  1  0.33226827  0.34335509  0.47355942  1
  O  O71  1  0.18299326  0.49195650  0.32883011  1
  O  O72  1  0.38284734  0.08165505  0.67046713  1
  O  O73  1  0.32797816  0.19002070  0.32754208  1
  O  O74  1  0.08523540  0.65479345  0.16581722  1
  O  O75  1  0.99540079  0.79588846  0.74485470  1
  O  O76  1  0.00276090  0.76615857  0.92622131  1
  O  O77  1  0.09178534  0.52590557  0.67589658  1
  O  O78  1  0.18230843  0.33089264  0.82677781  1
  O  O79  1  0.09986057  0.37881220  0.17921485  1
  O  O80  1  0.26008055  0.07994578  0.16647602  1
  O  O81  1  0.25161591  0.99263853  0.93223764  1
  O  O82  1  0.20258011  0.01034814  0.75870791  1
  O  O83  1  0.08597194  0.25856539  0.66677801  1
  O  O84  1  0.99461593  0.20889848  0.42109625  1
  O  O85  1  0.99511773  0.20776716  0.24252320  1
