# generated using pymatgen
data_MnOF
_symmetry_space_group_name_H-M   'P 1'
_cell_length_a   4.81254189
_cell_length_b   14.26241731
_cell_length_c   3.07522778
_cell_angle_alpha   90.00000000
_cell_angle_beta   90.00000000
_cell_angle_gamma   93.96598695
_symmetry_Int_Tables_number   1
_chemical_formula_structural   MnOF
_chemical_formula_sum   'Mn6 O6 F6'
_cell_volume   210.57348865
_cell_formula_units_Z   6
loop_
 _symmetry_equiv_pos_site_id
 _symmetry_equiv_pos_as_xyz
  1  'x, y, z'
loop_
 _atom_site_type_symbol
 _atom_site_label
 _atom_site_symmetry_multiplicity
 _atom_site_fract_x
 _atom_site_fract_y
 _atom_site_fract_z
 _atom_site_occupancy
  Mn  Mn0  1  0.90700764  0.00192018  0.00000000  1
  Mn  Mn1  1  0.09299236  0.33141382  0.00000000  1
  Mn  Mn2  1  0.00000000  0.66666700  0.00000000  1
  Mn  Mn3  1  0.50000000  0.16666700  0.50000000  1
  Mn  Mn4  1  0.54506316  0.50009458  0.50000000  1
  Mn  Mn5  1  0.45493684  0.83323842  0.50000000  1
  O  O6  1  0.24821270  0.26994752  0.50000000  1
  O  O7  1  0.27959845  0.76722336  0.00000000  1
  O  O8  1  0.36319291  0.43431973  0.00000000  1
  O  O9  1  0.72040155  0.56611064  0.00000000  1
  O  O10  1  0.63680709  0.89901327  0.00000000  1
  O  O11  1  0.75178730  0.06338648  0.50000000  1
  F  F12  1  0.19932306  0.60264819  0.50000000  1
  F  F13  1  0.12123585  0.94196478  0.50000000  1
  F  F14  1  0.25813164  0.10257891  0.00000000  1
  F  F15  1  0.74186836  0.23075409  0.00000000  1
  F  F16  1  0.87876415  0.39136822  0.50000000  1
  F  F17  1  0.80067694  0.73068481  0.50000000  1
