# generated using pymatgen
data_Mn3(OF2)2
_symmetry_space_group_name_H-M   'P 1'
_cell_length_a   4.83564814
_cell_length_b   4.83564814
_cell_length_c   9.45642175
_cell_angle_alpha   90.06167818
_cell_angle_beta   90.06167818
_cell_angle_gamma   95.60685979
_symmetry_Int_Tables_number   1
_chemical_formula_structural   Mn3(OF2)2
_chemical_formula_sum   'Mn6 O4 F8'
_cell_volume   220.06596638
_cell_formula_units_Z   2
loop_
 _symmetry_equiv_pos_site_id
 _symmetry_equiv_pos_as_xyz
  1  'x, y, z'
loop_
 _atom_site_type_symbol
 _atom_site_label
 _atom_site_symmetry_multiplicity
 _atom_site_fract_x
 _atom_site_fract_y
 _atom_site_fract_z
 _atom_site_occupancy
  Mn  Mn0  1  0.00000000  0.00000000  0.00000000  1
  Mn  Mn1  1  0.97280518  0.97280518  0.33140731  1
  Mn  Mn2  1  0.02719482  0.02719482  0.66859269  1
  Mn  Mn3  1  0.49675282  0.49675282  0.84194314  1
  Mn  Mn4  1  0.50324718  0.50324718  0.15805686  1
  Mn  Mn5  1  0.50000000  0.50000000  0.50000000  1
  O  O6  1  0.30253317  0.30253317  0.00155197  1
  O  O7  1  0.32238852  0.32238852  0.67128714  1
  O  O8  1  0.69746683  0.69746683  0.99844803  1
  O  O9  1  0.67761148  0.67761148  0.32871286  1
  F  F10  1  0.18719966  0.80361418  0.16668039  1
  F  F11  1  0.19489864  0.80510136  0.50000000  1
  F  F12  1  0.19638582  0.81280034  0.83331961  1
  F  F13  1  0.28889930  0.28889930  0.32530446  1
  F  F14  1  0.71110070  0.71110070  0.67469554  1
  F  F15  1  0.80361418  0.18719966  0.16668039  1
  F  F16  1  0.80510136  0.19489864  0.50000000  1
  F  F17  1  0.81280034  0.19638582  0.83331961  1
