# generated using pymatgen
data_Li3V3P8O29
_symmetry_space_group_name_H-M   'P 1'
_cell_length_a   9.78809037
_cell_length_b   9.72834789
_cell_length_c   14.24775491
_cell_angle_alpha   89.70111017
_cell_angle_beta   90.37120850
_cell_angle_gamma   59.87668846
_symmetry_Int_Tables_number   1
_chemical_formula_structural   Li3V3P8O29
_chemical_formula_sum   'Li6 V6 P16 O58'
_cell_volume   1173.39225670
_cell_formula_units_Z   2
loop_
 _symmetry_equiv_pos_site_id
 _symmetry_equiv_pos_as_xyz
  1  'x, y, z'
loop_
 _atom_site_type_symbol
 _atom_site_label
 _atom_site_symmetry_multiplicity
 _atom_site_fract_x
 _atom_site_fract_y
 _atom_site_fract_z
 _atom_site_occupancy
  Li  Li0  1  0.66591324  0.67676719  0.90119573  1
  Li  Li1  1  0.67002642  0.23595743  0.43731988  1
  Li  Li2  1  0.32905450  0.76688414  0.55327028  1
  Li  Li3  1  0.09303175  0.22783124  0.94748446  1
  Li  Li4  1  0.98639987  0.95608247  0.00964123  1
  Li  Li5  1  0.00338890  0.00141248  0.48467542  1
  V  V6  1  0.56344920  0.43813795  0.24196951  1
  V  V7  1  0.43063921  0.56533963  0.75664574  1
  V  V8  1  0.56904000  0.00072629  0.74882853  1
  V  V9  1  0.43648341  0.00280737  0.24926415  1
  V  V10  1  0.00265864  0.56298211  0.25599234  1
  V  V11  1  0.99920984  0.43573754  0.74108718  1
  P  P12  1  0.91505542  0.77678819  0.84163469  1
  P  P13  1  0.78012897  0.91636974  0.33997091  1
  P  P14  1  0.91430363  0.30085795  0.33998610  1
  P  P15  1  0.66963272  0.66916755  0.13389496  1
  P  P16  1  0.65814385  0.67054915  0.63216506  1
  P  P17  1  0.78320694  0.30803299  0.83918737  1
  P  P18  1  0.68573452  0.23025033  0.65775288  1
  P  P19  1  0.31151629  0.91397403  0.84354240  1
  P  P20  1  0.69453495  0.08255134  0.15479049  1
  P  P21  1  0.31487497  0.77522684  0.34050955  1
  P  P22  1  0.21309145  0.69865730  0.16044787  1
  P  P23  1  0.33991302  0.33174354  0.36809145  1
  P  P24  1  0.32976170  0.32916583  0.86840955  1
  P  P25  1  0.08250912  0.70005090  0.65750298  1
  P  P26  1  0.22590233  0.08028130  0.65822673  1
  P  P27  1  0.08659992  0.22624647  0.15904151  1
  O  O28  1  0.00896387  0.79270101  0.57115995  1
  O  O29  1  0.91308664  0.73938134  0.33646503  1
  O  O30  1  0.78728347  0.01323160  0.06965925  1
  O  O31  1  0.73796664  0.91385321  0.83194763  1
  O  O32  1  0.90703013  0.62177276  0.82733476  1
  O  O33  1  0.81754195  0.66113562  0.17992832  1
  O  O34  1  0.92458689  0.45506378  0.33249683  1
  O  O35  1  0.01708524  0.22034669  0.06737106  1
  O  O36  1  0.92147183  0.34577625  0.83525809  1
  O  O37  1  0.66340787  0.81343798  0.67928347  1
  O  O38  1  0.61937912  0.92302569  0.32986290  1
  O  O39  1  0.81052705  0.52054109  0.67639223  1
  O  O40  1  0.67165508  0.66611070  0.02938785  1
  O  O41  1  0.65241642  0.67279081  0.52837963  1
  O  O42  1  0.66508333  0.51926240  0.17384239  1
  O  O43  1  0.47636843  0.89911091  0.83231496  1
  O  O44  1  0.52331505  0.81527179  0.17595122  1
  O  O45  1  0.73684144  0.34607265  0.33296672  1
  O  O46  1  0.80338018  0.21358564  0.74154541  1
  O  O47  1  0.75503604  0.22493319  0.56472825  1
  O  O48  1  0.79544039  0.21136540  0.92186256  1
  O  O49  1  0.62589613  0.47415417  0.82827409  1
  O  O50  1  0.51049363  0.67044888  0.67546185  1
  O  O51  1  0.64870795  0.26094771  0.16819812  1
  O  O52  1  0.46867077  0.61568104  0.32485380  1
  O  O53  1  0.35256029  0.91153386  0.32903990  1
  O  O54  1  0.80301690  0.99435891  0.24556915  1
  O  O55  1  0.79723832  0.00430918  0.42061579  1
  O  O56  1  0.21069058  0.99709826  0.57516549  1
  O  O57  1  0.65670474  0.08737931  0.67153722  1
  O  O58  1  0.52898613  0.38474753  0.67925156  1
  O  O59  1  0.34471431  0.73860027  0.83729433  1
  O  O60  1  0.48741544  0.33280393  0.32621955  1
  O  O61  1  0.37722410  0.54114414  0.17027475  1
  O  O62  1  0.19060003  0.79767496  0.07665747  1
  O  O63  1  0.23515228  0.78825560  0.43170442  1
  O  O64  1  0.19753903  0.79675110  0.25553001  1
  O  O65  1  0.25925785  0.65833336  0.66732789  1
  O  O66  1  0.47223705  0.18220836  0.82086176  1
  O  O67  1  0.53980840  0.07765594  0.16763680  1
  O  O68  1  0.33806670  0.47614079  0.82563289  1
  O  O69  1  0.32845830  0.32466955  0.97193068  1
  O  O70  1  0.34659601  0.32457233  0.47214294  1
  O  O71  1  0.18860235  0.48016099  0.32567822  1
  O  O72  1  0.38375583  0.07789214  0.67164075  1
  O  O73  1  0.33976614  0.18647797  0.31944588  1
  O  O74  1  0.08305923  0.65315270  0.17167366  1
  O  O75  1  0.99953503  0.79900358  0.75040489  1
  O  O76  1  0.99128328  0.79115042  0.92709166  1
  O  O77  1  0.07927823  0.54084716  0.67186629  1
  O  O78  1  0.17929533  0.33761537  0.82292309  1
  O  O79  1  0.08640414  0.38316122  0.17740101  1
  O  O80  1  0.25996442  0.08709328  0.17027467  1
  O  O81  1  0.21636283  0.00261921  0.92546122  1
  O  O82  1  0.20652698  0.99643708  0.75063854  1
  O  O83  1  0.08811988  0.25699100  0.66573503  1
  O  O84  1  0.99047529  0.19517966  0.42233869  1
  O  O85  1  0.99099624  0.20476922  0.24351342  1
