# generated using pymatgen
data_Mn6O7F5
_symmetry_space_group_name_H-M   'P 1'
_cell_length_a   4.76298183
_cell_length_b   7.70982374
_cell_length_c   5.64280467
_cell_angle_alpha   95.45334273
_cell_angle_beta   96.60020067
_cell_angle_gamma   85.30233826
_symmetry_Int_Tables_number   1
_chemical_formula_structural   Mn6O7F5
_chemical_formula_sum   'Mn6 O7 F5'
_cell_volume   204.38021911
_cell_formula_units_Z   1
loop_
 _symmetry_equiv_pos_site_id
 _symmetry_equiv_pos_as_xyz
  1  'x, y, z'
loop_
 _atom_site_type_symbol
 _atom_site_label
 _atom_site_symmetry_multiplicity
 _atom_site_fract_x
 _atom_site_fract_y
 _atom_site_fract_z
 _atom_site_occupancy
  Mn  Mn0  1  0.53443169  0.01113266  0.47949060  1
  Mn  Mn1  1  0.49879045  0.66583006  0.16767853  1
  Mn  Mn2  1  0.49231423  0.33152844  0.83557268  1
  Mn  Mn3  1  0.00207787  0.66860897  0.66641338  1
  Mn  Mn4  1  0.98376691  0.32231468  0.33643283  1
  Mn  Mn5  1  0.99634131  0.00293037  0.00857737  1
  O  O6  1  0.81034977  0.10155986  0.28860147  1
  O  O7  1  0.69945196  0.10303537  0.79322207  1
  O  O8  1  0.69314200  0.76865775  0.46868923  1
  O  O9  1  0.69329169  0.43405068  0.12886748  1
  O  O10  1  0.30452852  0.56756872  0.86711010  1
  O  O11  1  0.31038787  0.22974231  0.52985682  1
  O  O12  1  0.30655726  0.90001164  0.20865672  1
  F  F13  1  0.80563846  0.43944534  0.63473711  1
  F  F14  1  0.81267790  0.76735882  0.96069022  1
  F  F15  1  0.17629674  0.55220762  0.37284894  1
  F  F16  1  0.19458268  0.23144805  0.03352799  1
  F  F17  1  0.18537369  0.90256867  0.71902647  1
