# generated using pymatgen
data_Li6V5O12
_symmetry_space_group_name_H-M   'P 1'
_cell_length_a   5.05675812
_cell_length_b   5.04650998
_cell_length_c   9.54114811
_cell_angle_alpha   93.68366145
_cell_angle_beta   86.66084552
_cell_angle_gamma   63.85733516
_symmetry_Int_Tables_number   1
_chemical_formula_structural   Li6V5O12
_chemical_formula_sum   'Li6 V5 O12'
_cell_volume   217.10022949
_cell_formula_units_Z   1
loop_
 _symmetry_equiv_pos_site_id
 _symmetry_equiv_pos_as_xyz
  1  'x, y, z'
loop_
 _atom_site_type_symbol
 _atom_site_label
 _atom_site_symmetry_multiplicity
 _atom_site_fract_x
 _atom_site_fract_y
 _atom_site_fract_z
 _atom_site_occupancy
  Li  Li0  1  0.76054063  0.75364169  0.24973415  1
  Li  Li1  1  0.34649078  0.83910053  0.49450811  1
  Li  Li2  1  0.13139566  0.68837087  0.00959591  1
  Li  Li3  1  0.83945823  0.34753473  0.00527810  1
  Li  Li4  1  0.68824450  0.12829690  0.49068700  1
  Li  Li5  1  0.07873317  0.07890033  0.24999552  1
  V  V6  1  0.92539912  0.92708963  0.74721897  1
  V  V7  1  0.56923462  0.57220079  0.75055830  1
  V  V8  1  0.42283855  0.42530014  0.24273823  1
  V  V9  1  0.00361156  0.48763780  0.49137398  1
  V  V10  1  0.48328647  0.01143834  -0.00019065  1
  O  O11  1  0.67681930  0.82013177  0.61867816  1
  O  O12  1  0.82675078  0.68409691  0.87725486  1
  O  O13  1  0.21840478  0.92830225  0.87219747  1
  O  O14  1  0.45371209  0.70304870  0.13666483  1
  O  O15  1  0.07370227  0.74822382  0.37088929  1
  O  O16  1  0.72959354  0.45314169  0.38026235  1
  O  O17  1  0.24822390  0.58236097  0.63156297  1
  O  O18  1  0.92975456  0.21063728  0.62851261  1
  O  O19  1  0.59065985  0.26480986  0.86732425  1
  O  O20  1  0.15986864  0.35676444  0.12011583  1
  O  O21  1  0.74657991  0.07427371  0.13338849  1
  O  O22  1  0.35756308  0.17559085  0.38166226  1
