# generated using pymatgen
data_Li5Fe8(BO3)8
_symmetry_space_group_name_H-M   'P 1'
_cell_length_a   5.25726086
_cell_length_b   8.98026812
_cell_length_c   10.34804203
_cell_angle_alpha   90.36829722
_cell_angle_beta   91.49102448
_cell_angle_gamma   89.81904710
_symmetry_Int_Tables_number   1
_chemical_formula_structural   Li5Fe8(BO3)8
_chemical_formula_sum   'Li5 Fe8 B8 O24'
_cell_volume   488.37005557
_cell_formula_units_Z   1
loop_
 _symmetry_equiv_pos_site_id
 _symmetry_equiv_pos_as_xyz
  1  'x, y, z'
loop_
 _atom_site_type_symbol
 _atom_site_label
 _atom_site_symmetry_multiplicity
 _atom_site_fract_x
 _atom_site_fract_y
 _atom_site_fract_z
 _atom_site_occupancy
  Li  Li0  1  0.33705996  0.01347251  0.83294361  1
  Li  Li1  1  0.65225180  0.01457724  0.08974757  1
  Li  Li2  1  0.83993487  0.50919911  0.84480751  1
  Li  Li3  1  0.34204026  0.98898687  0.33501631  1
  Li  Li4  1  0.65467069  0.99242418  0.58317460  1
  Fe  Fe5  1  0.15616059  0.17211816  0.11557530  1
  Fe  Fe6  1  0.84950773  0.18075736  0.36887262  1
  Fe  Fe7  1  0.33416508  0.34395341  0.87054608  1
  Fe  Fe8  1  0.65631031  0.33306098  0.62555528  1
  Fe  Fe9  1  0.33318729  0.65523677  0.36068214  1
  Fe  Fe10  1  0.15863213  0.81995920  0.61737197  1
  Fe  Fe11  1  0.66586439  0.65991308  0.11901565  1
  Fe  Fe12  1  0.84841001  0.84057076  0.87120474  1
  B  B13  1  0.16784737  0.16554299  0.62753989  1
  B  B14  1  0.33833229  0.32687182  0.37903278  1
  B  B15  1  0.83328375  0.16699742  0.87000623  1
  B  B16  1  0.65635866  0.32999636  0.12035493  1
  B  B17  1  0.33611718  0.67285344  0.87668080  1
  B  B18  1  0.65480483  0.67130568  0.62139206  1
  B  B19  1  0.17057744  0.83102031  0.12715233  1
  B  B20  1  0.82331254  0.83362654  0.36529895  1
  O  O21  1  0.29616262  0.03147494  0.63367572  1
  O  O22  1  0.09008676  0.16145444  0.90085293  1
  O  O23  1  0.68380293  0.04261165  0.88968458  1
  O  O24  1  0.22474224  0.19480472  0.33763178  1
  O  O25  1  0.29763810  0.29529814  0.65942515  1
  O  O26  1  0.78001233  0.20090422  0.16482634  1
  O  O27  1  0.90865914  0.17000685  0.59320743  1
  O  O28  1  0.41619997  0.31860870  0.06814765  1
  O  O29  1  0.21979082  0.46055874  0.35995418  1
  O  O30  1  0.58026728  0.31860894  0.43726585  1
  O  O31  1  0.72135644  0.29843582  0.82382168  1
  O  O32  1  0.19484764  0.54724656  0.86970512  1
  O  O33  1  0.77928431  0.46487131  0.12626193  1
  O  O34  1  0.29785919  0.69866542  0.15899050  1
  O  O35  1  0.42649298  0.68455015  0.55091077  1
  O  O36  1  0.75003865  0.53668296  0.65597520  1
  O  O37  1  0.59302874  0.67055556  0.92245113  1
  O  O38  1  0.08654918  0.82173693  0.39055727  1
  O  O39  1  0.23034196  0.80809822  0.83656832  1
  O  O40  1  0.69118047  0.70843493  0.31773217  1
  O  O41  1  0.77897584  0.80270987  0.66100789  1
  O  O42  1  0.29941457  0.96302945  0.13551682  1
  O  O43  1  0.91280982  0.82713286  0.08924237  1
  O  O44  1  0.69919682  0.96422943  0.38865688  1
