# generated using pymatgen
data_Li4V3(OF2)4
_symmetry_space_group_name_H-M   'P 1'
_cell_length_a   5.68102108
_cell_length_b   6.54811583
_cell_length_c   5.76522743
_cell_angle_alpha   98.03954052
_cell_angle_beta   95.51483187
_cell_angle_gamma   100.15264610
_symmetry_Int_Tables_number   1
_chemical_formula_structural   Li4V3(OF2)4
_chemical_formula_sum   'Li4 V3 O4 F8'
_cell_volume   207.42283468
_cell_formula_units_Z   1
loop_
 _symmetry_equiv_pos_site_id
 _symmetry_equiv_pos_as_xyz
  1  'x, y, z'
loop_
 _atom_site_type_symbol
 _atom_site_label
 _atom_site_symmetry_multiplicity
 _atom_site_fract_x
 _atom_site_fract_y
 _atom_site_fract_z
 _atom_site_occupancy
  Li  Li0  1  0.12014875  0.53606497  0.31968087  1
  Li  Li1  1  0.31096338  0.16066006  0.60075703  1
  Li  Li2  1  0.59785089  0.33172746  0.13935834  1
  Li  Li3  1  0.84247923  0.38912035  0.63312123  1
  V  V4  1  0.39953322  0.66914843  0.86614745  1
  V  V5  1  0.68641567  0.86890109  0.40838567  1
  V  V6  1  0.99513153  0.00833028  0.98500155  1
  O  O7  1  0.13383425  0.75395202  0.91832567  1
  O  O8  1  0.45647918  0.79161371  0.57529953  1
  O  O9  1  0.66597798  0.86230524  0.06878110  1
  O  O10  1  0.88644301  0.01041620  0.69840700  1
  F  F11  1  0.06725977  0.98911526  0.32218883  1
  F  F12  1  0.18032748  0.42157870  0.61722279  1
  F  F13  1  0.38686425  0.54020645  0.15883736  1
  F  F14  1  0.61308484  0.46769440  0.81087120  1
  F  F15  1  0.31755971  0.14653029  0.95048020  1
  F  F16  1  0.82013385  0.60998496  0.40297625  1
  F  F17  1  0.59525378  0.15880171  0.41800247  1
  F  F18  1  0.92426022  0.28384942  0.10615645  1
