# generated using pymatgen
data_LiFe2(BO3)2
_symmetry_space_group_name_H-M   'P 1'
_cell_length_a   5.23980062
_cell_length_b   9.12593720
_cell_length_c   10.16698215
_cell_angle_alpha   90.60134315
_cell_angle_beta   90.23835227
_cell_angle_gamma   90.09079644
_symmetry_Int_Tables_number   1
_chemical_formula_structural   LiFe2(BO3)2
_chemical_formula_sum   'Li4 Fe8 B8 O24'
_cell_volume   486.13405451
_cell_formula_units_Z   4
loop_
 _symmetry_equiv_pos_site_id
 _symmetry_equiv_pos_as_xyz
  1  'x, y, z'
loop_
 _atom_site_type_symbol
 _atom_site_label
 _atom_site_symmetry_multiplicity
 _atom_site_fract_x
 _atom_site_fract_y
 _atom_site_fract_z
 _atom_site_occupancy
  Li  Li0  1  0.84696981  0.82587605  0.65643806  1
  Li  Li1  1  0.66686541  0.67204528  0.38224199  1
  Li  Li2  1  0.34305761  0.32160747  0.66748045  1
  Li  Li3  1  0.31411233  0.32819206  0.16315053  1
  Fe  Fe4  1  0.85143163  0.15681272  0.62618485  1
  Fe  Fe5  1  0.82214514  0.50920013  0.12621488  1
  Fe  Fe6  1  0.66741330  0.00769084  0.87898007  1
  Fe  Fe7  1  0.68014676  0.33206697  0.37981531  1
  Fe  Fe8  1  0.34499626  0.66075152  0.62932124  1
  Fe  Fe9  1  0.32450178  0.98840796  0.12932809  1
  Fe  Fe10  1  0.15127260  0.84887750  0.38143267  1
  Fe  Fe11  1  0.16897078  0.50871598  0.88209988  1
  B  B12  1  0.83762792  0.49688350  0.62362631  1
  B  B13  1  0.82970424  0.16667462  0.12956255  1
  B  B14  1  0.65509601  0.00062883  0.37647834  1
  B  B15  1  0.67336963  0.33722535  0.87326878  1
  B  B16  1  0.33698977  0.99678502  0.63425141  1
  B  B17  1  0.33520589  0.66776497  0.13321616  1
  B  B18  1  0.18090479  0.50644116  0.37634879  1
  B  B19  1  0.16841787  0.83564167  0.87776530  1
  O  O20  1  0.91656955  0.49805408  0.35151688  1
  O  O21  1  0.91893956  0.86122136  0.85363339  1
  O  O22  1  0.77779532  0.20378978  0.83546422  1
  O  O23  1  0.76209947  0.13210512  0.42114803  1
  O  O24  1  0.77981749  0.87174790  0.39691063  1
  O  O25  1  0.82694588  0.44757581  0.92411671  1
  O  O26  1  0.72182696  0.63131632  0.61325017  1
  O  O27  1  0.67485205  0.05575870  0.07605286  1
  O  O28  1  0.70498902  0.36934190  0.58281222  1
  O  O29  1  0.70538029  0.29228838  0.17821323  1
  O  O30  1  0.58575086  0.66582828  0.15979592  1
  O  O31  1  0.59152447  0.98424807  0.67946945  1
  O  O32  1  0.41490489  0.00221170  0.31769135  1
  O  O33  1  0.41722791  0.35997600  0.85638326  1
  O  O34  1  0.27855697  0.70334060  0.84005488  1
  O  O35  1  0.28704796  0.63711723  0.41963187  1
  O  O36  1  0.32921630  0.38481641  0.35261391  1
  O  O37  1  0.32590158  0.94433815  0.93233696  1
  O  O38  1  0.20862129  0.53942285  0.08304852  1
  O  O39  1  0.22405475  0.13093776  0.63040522  1
  O  O40  1  0.20888904  0.87068086  0.59405661  1
  O  O41  1  0.18758043  0.79297255  0.15846413  1
  O  O42  1  0.08883455  0.15442676  0.13156002  1
  O  O43  1  0.08698990  0.48415186  0.67303688  1
