# generated using pymatgen
data_Cu2Se
_symmetry_space_group_name_H-M   'P 1'
_cell_length_a   4.07181574
_cell_length_b   8.35866028
_cell_length_c   7.26274521
_cell_angle_alpha   29.67024855
_cell_angle_beta   55.89964943
_cell_angle_gamma   60.84740418
_symmetry_Int_Tables_number   1
_chemical_formula_structural   Cu2Se
_chemical_formula_sum   'Cu4 Se2'
_cell_volume   101.32056671
_cell_formula_units_Z   2
loop_
 _symmetry_equiv_pos_site_id
 _symmetry_equiv_pos_as_xyz
  1  'x, y, z'
loop_
 _atom_site_type_symbol
 _atom_site_label
 _atom_site_symmetry_multiplicity
 _atom_site_fract_x
 _atom_site_fract_y
 _atom_site_fract_z
 _atom_site_occupancy
  Cu  Cu0  1  0.31591610  0.50000000  0.30928173  1
  Cu  Cu1  1  0.26286117  0.00000000  0.24616282  1
  Cu  Cu2  1  0.75518682  0.50000000  0.75383718  1
  Cu  Cu3  1  0.93447956  0.00000000  0.69071827  1
  Se  Se4  1  0.98343519  0.00000000  0.00634298  1
  Se  Se5  1  0.99612116  0.50000000  0.99365702  1
