# generated using pymatgen
data_Li3MnF5
_symmetry_space_group_name_H-M   'P 1'
_cell_length_a   5.15961571
_cell_length_b   5.98789479
_cell_length_c   7.93688731
_cell_angle_alpha   112.95130764
_cell_angle_beta   92.90151183
_cell_angle_gamma   61.77565922
_symmetry_Int_Tables_number   1
_chemical_formula_structural   Li3MnF5
_chemical_formula_sum   'Li6 Mn2 F10'
_cell_volume   196.22930455
_cell_formula_units_Z   2
loop_
 _symmetry_equiv_pos_site_id
 _symmetry_equiv_pos_as_xyz
  1  'x, y, z'
loop_
 _atom_site_type_symbol
 _atom_site_label
 _atom_site_symmetry_multiplicity
 _atom_site_fract_x
 _atom_site_fract_y
 _atom_site_fract_z
 _atom_site_occupancy
  Li  Li0  1  0.77180527  0.45575050  0.91324048  1
  Li  Li1  1  0.62520881  0.74351991  0.71234406  1
  Li  Li2  1  0.61794427  0.74178975  0.30172235  1
  Li  Li3  1  0.38205918  0.25820151  0.69827907  1
  Li  Li4  1  0.37479950  0.25647716  0.28766467  1
  Li  Li5  1  0.22822026  0.54424874  0.08675653  1
  Mn  Mn6  1  -0.00003112  0.00002096  0.99999930  1
  Mn  Mn7  1  0.00001076  0.99998567  0.49998757  1
  F  F8  1  0.74646233  0.83326708  0.54324908  1
  F  F9  1  0.98546314  0.39498806  0.13648124  1
  F  F10  1  0.64257839  0.40196070  0.67238553  1
  F  F11  1  0.41621286  0.78740382  0.06841817  1
  F  F12  1  0.81401572  0.98912395  0.24185381  1
  F  F13  1  0.58377992  0.21258381  0.93158224  1
  F  F14  1  0.35742414  0.59803304  0.32761516  1
  F  F15  1  0.01454831  0.60502126  0.86351169  1
  F  F16  1  0.25351997  0.16673561  0.45675647  1
  F  F17  1  0.18598031  0.01087248  0.75814856  1
