# generated using pymatgen
data_Li5VO4F
_symmetry_space_group_name_H-M   'P 1'
_cell_length_a   5.24274234
_cell_length_b   5.37772818
_cell_length_c   8.91983626
_cell_angle_alpha   90.00000000
_cell_angle_beta   90.00000000
_cell_angle_gamma   65.73046796
_symmetry_Int_Tables_number   1
_chemical_formula_structural   Li5VO4F
_chemical_formula_sum   'Li10 V2 O8 F2'
_cell_volume   229.26039148
_cell_formula_units_Z   2
loop_
 _symmetry_equiv_pos_site_id
 _symmetry_equiv_pos_as_xyz
  1  'x, y, z'
loop_
 _atom_site_type_symbol
 _atom_site_label
 _atom_site_symmetry_multiplicity
 _atom_site_fract_x
 _atom_site_fract_y
 _atom_site_fract_z
 _atom_site_occupancy
  Li  Li0  1  0.29197230  0.01880538  0.93344282  1
  Li  Li1  1  0.24644650  0.08355191  0.55931361  1
  Li  Li2  1  0.18466443  0.46118494  0.74758165  1
  Li  Li3  1  0.20141300  0.57604384  0.45976884  1
  Li  Li4  1  0.29277243  0.47240058  0.04621320  1
  Li  Li5  1  0.70722757  0.52759942  0.54621320  1
  Li  Li6  1  0.79858700  0.42395616  0.95976884  1
  Li  Li7  1  0.81533557  0.53881506  0.24758165  1
  Li  Li8  1  0.75355350  0.91644809  0.05931361  1
  Li  Li9  1  0.70802770  0.98119462  0.43344282  1
  V  V10  1  0.23495576  0.93391903  0.23084254  1
  V  V11  1  0.76504424  0.06608097  0.73084254  1
  O  O12  1  0.10068453  0.23873116  0.11490362  1
  O  O13  1  0.05454605  0.16588110  0.75669945  1
  O  O14  1  0.50378916  0.29021739  0.58888649  1
  O  O15  1  0.55944671  0.19868097  0.90420624  1
  O  O16  1  0.44055329  0.80131903  0.40420624  1
  O  O17  1  0.49621084  0.70978261  0.08888649  1
  O  O18  1  0.94545395  0.83411890  0.25669945  1
  O  O19  1  0.89931547  0.76126884  0.61490362  1
  F  F20  1  0.00176095  0.31940183  0.41757656  1
  F  F21  1  0.99823905  0.68059817  0.91757656  1
