# generated using pymatgen
data_VOF3
_symmetry_space_group_name_H-M   'P 1'
_cell_length_a   4.91421846
_cell_length_b   5.65022373
_cell_length_c   10.07165869
_cell_angle_alpha   90.00000000
_cell_angle_beta   90.00000000
_cell_angle_gamma   90.00000000
_symmetry_Int_Tables_number   1
_chemical_formula_structural   VOF3
_chemical_formula_sum   'V4 O4 F12'
_cell_volume   279.65404384
_cell_formula_units_Z   4
loop_
 _symmetry_equiv_pos_site_id
 _symmetry_equiv_pos_as_xyz
  1  'x, y, z'
loop_
 _atom_site_type_symbol
 _atom_site_label
 _atom_site_symmetry_multiplicity
 _atom_site_fract_x
 _atom_site_fract_y
 _atom_site_fract_z
 _atom_site_occupancy
  V  V0  1  0.46868311  0.36475159  0.25978815  1
  V  V1  1  0.46868311  0.63524841  0.75978815  1
  V  V2  1  0.96868311  0.86475159  0.24021185  1
  V  V3  1  0.96868311  0.13524841  0.74021185  1
  O  O4  1  0.26090431  0.43769039  0.81557858  1
  O  O5  1  0.26090431  0.56230961  0.31557858  1
  O  O6  1  0.76090431  0.06230961  0.18442142  1
  O  O7  1  0.76090431  0.93769039  0.68442142  1
  F  F8  1  0.17524472  0.80495767  0.09939763  1
  F  F9  1  0.17524472  0.19504233  0.59939763  1
  F  F10  1  0.24526395  0.07517530  0.31056932  1
  F  F11  1  0.24526395  0.92482470  0.81056932  1
  F  F12  1  0.34686590  0.30830444  0.09716659  1
  F  F13  1  0.34686590  0.69169556  0.59716659  1
  F  F14  1  0.67524472  0.30495767  0.40060237  1
  F  F15  1  0.67524472  0.69504233  0.90060237  1
  F  F16  1  0.74526395  0.57517530  0.18943068  1
  F  F17  1  0.74526395  0.42482470  0.68943068  1
  F  F18  1  0.84686590  0.19169556  0.90283341  1
  F  F19  1  0.84686590  0.80830444  0.40283341  1
