# generated using pymatgen
data_LiFe2(BO3)2
_symmetry_space_group_name_H-M   'P 1'
_cell_length_a   5.27598940
_cell_length_b   9.04774063
_cell_length_c   10.17428023
_cell_angle_alpha   89.89262759
_cell_angle_beta   91.05752342
_cell_angle_gamma   89.59043779
_symmetry_Int_Tables_number   1
_chemical_formula_structural   LiFe2(BO3)2
_chemical_formula_sum   'Li4 Fe8 B8 O24'
_cell_volume   485.58113077
_cell_formula_units_Z   4
loop_
 _symmetry_equiv_pos_site_id
 _symmetry_equiv_pos_as_xyz
  1  'x, y, z'
loop_
 _atom_site_type_symbol
 _atom_site_label
 _atom_site_symmetry_multiplicity
 _atom_site_fract_x
 _atom_site_fract_y
 _atom_site_fract_z
 _atom_site_occupancy
  Li  Li0  1  0.81373734  0.83566418  0.15652268  1
  Li  Li1  1  0.66537576  0.67230359  0.87833178  1
  Li  Li2  1  0.34556072  0.32164882  0.66149674  1
  Li  Li3  1  0.30806396  0.33280997  0.16992199  1
  Fe  Fe4  1  0.85258198  0.15205771  0.63118279  1
  Fe  Fe5  1  0.81495031  0.50302813  0.13017272  1
  Fe  Fe6  1  0.67580421  0.01122163  0.88025629  1
  Fe  Fe7  1  0.68146995  0.33601360  0.38186942  1
  Fe  Fe8  1  0.32021144  0.66566873  0.63180831  1
  Fe  Fe9  1  0.31230890  0.00562246  0.12422191  1
  Fe  Fe10  1  0.17975017  0.84077231  0.37750187  1
  Fe  Fe11  1  0.17041866  0.49245795  0.88639984  1
  B  B12  1  0.82070999  0.49708431  0.62991488  1
  B  B13  1  0.82448841  0.16996418  0.13016612  1
  B  B14  1  0.66997410  0.00342456  0.37163535  1
  B  B15  1  0.67215586  0.33763086  0.87315671  1
  B  B16  1  0.35291517  0.00195272  0.63041756  1
  B  B17  1  0.32721594  0.66534400  0.12871305  1
  B  B18  1  0.16988311  0.50451004  0.37995887  1
  B  B19  1  0.17124673  0.83503427  0.87821486  1
  O  O20  1  0.91747245  0.49233883  0.34202872  1
  O  O21  1  0.91198558  0.84267095  0.88796079  1
  O  O22  1  0.80896997  0.20740908  0.84616141  1
  O  O23  1  0.75443978  0.13306110  0.42712567  1
  O  O24  1  0.83280045  0.88760980  0.34932422  1
  O  O25  1  0.79706533  0.46271358  0.92051208  1
  O  O26  1  0.67018949  0.61678793  0.65744038  1
  O  O27  1  0.69734930  0.04352438  0.08326200  1
  O  O28  1  0.71042200  0.36707008  0.58169987  1
  O  O29  1  0.67691635  0.28894703  0.17712103  1
  O  O30  1  0.58357530  0.67868230  0.11057981  1
  O  O31  1  0.59461288  0.99412969  0.68707096  1
  O  O32  1  0.41758768  0.99069218  0.33231060  1
  O  O33  1  0.41891395  0.34001736  0.84854843  1
  O  O34  1  0.28679638  0.70592797  0.82848434  1
  O  O35  1  0.25743777  0.63766904  0.43378602  1
  O  O36  1  0.33401412  0.39019201  0.36010447  1
  O  O37  1  0.32789203  0.94651596  0.92236278  1
  O  O38  1  0.20334748  0.53439800  0.09697150  1
  O  O39  1  0.21997914  0.12967464  0.62336439  1
  O  O40  1  0.24912832  0.87043732  0.57720433  1
  O  O41  1  0.18424297  0.78574183  0.17586415  1
  O  O42  1  0.08007714  0.17701461  0.13253608  1
  O  O43  1  0.08313843  0.49729530  0.65519122  1
