# generated using pymatgen
data_Mn3OF5
_symmetry_space_group_name_H-M   'P 1'
_cell_length_a   10.99957984
_cell_length_b   6.96456699
_cell_length_c   3.22821637
_cell_angle_alpha   90.00000000
_cell_angle_beta   90.00000000
_cell_angle_gamma   108.65769048
_symmetry_Int_Tables_number   1
_chemical_formula_structural   Mn3OF5
_chemical_formula_sum   'Mn6 O2 F10'
_cell_volume   234.30829970
_cell_formula_units_Z   2
loop_
 _symmetry_equiv_pos_site_id
 _symmetry_equiv_pos_as_xyz
  1  'x, y, z'
loop_
 _atom_site_type_symbol
 _atom_site_label
 _atom_site_symmetry_multiplicity
 _atom_site_fract_x
 _atom_site_fract_y
 _atom_site_fract_z
 _atom_site_occupancy
  Mn  Mn0  1  0.99375337  0.01336350  0.00000000  1
  Mn  Mn1  1  0.33032472  0.16484538  0.50000000  1
  Mn  Mn2  1  0.00583601  0.48311519  0.50000000  1
  Mn  Mn3  1  0.66948567  0.33479589  0.00000000  1
  Mn  Mn4  1  0.35052119  0.67561982  0.00000000  1
  Mn  Mn5  1  0.65391732  0.82621236  0.50000000  1
  O  O6  1  0.00214913  0.30996819  0.00000000  1
  O  O7  1  0.46729744  0.73349690  0.50000000  1
  F  F8  1  0.12405486  0.05695831  0.50000000  1
  F  F9  1  0.32910273  0.36056736  0.00000000  1
  F  F10  1  0.00204575  0.69275728  0.00000000  1
  F  F11  1  0.66687491  0.02768436  0.00000000  1
  F  F12  1  0.53587814  0.26756206  0.50000000  1
  F  F13  1  0.21807571  0.61221655  0.50000000  1
  F  F14  1  0.79943867  0.40718327  0.50000000  1
  F  F15  1  0.66576058  0.63886940  0.00000000  1
  F  F16  1  0.32971567  0.96882484  0.00000000  1
  F  F17  1  0.85576813  0.92595833  0.50000000  1
