# generated using pymatgen
data_Li2Si2NiO6
_symmetry_space_group_name_H-M   'P 1'
_cell_length_a   5.11639699
_cell_length_b   10.43934070
_cell_length_c   5.14153312
_cell_angle_alpha   103.17617931
_cell_angle_beta   85.75008993
_cell_angle_gamma   76.93440231
_symmetry_Int_Tables_number   1
_chemical_formula_structural   Li2Si2NiO6
_chemical_formula_sum   'Li4 Si4 Ni2 O12'
_cell_volume   258.17143926
_cell_formula_units_Z   2
loop_
 _symmetry_equiv_pos_site_id
 _symmetry_equiv_pos_as_xyz
  1  'x, y, z'
loop_
 _atom_site_type_symbol
 _atom_site_label
 _atom_site_symmetry_multiplicity
 _atom_site_fract_x
 _atom_site_fract_y
 _atom_site_fract_z
 _atom_site_occupancy
  Li  Li0  1  0.54920307  0.83199013  0.91471650  1
  Li  Li1  1  0.13146736  0.66949250  0.83243745  1
  Li  Li2  1  0.82282806  0.33238613  0.12677324  1
  Li  Li3  1  0.91044790  0.16959811  0.54603784  1
  Si  Si4  1  0.14793396  0.83716419  0.40812546  1
  Si  Si5  1  0.73575793  0.66283479  0.32272301  1
  Si  Si6  1  0.31973882  0.33852297  0.73413397  1
  Si  Si7  1  0.40498803  0.16502368  0.14641192  1
  Ni  Ni8  1  0.73973325  0.50132692  0.73742938  1
  Ni  Ni9  1  0.98864688  0.00036386  0.98427481  1
  O  O10  1  0.05850457  0.99075249  0.59937627  1
  O  O11  1  0.18110317  0.83103513  0.08681806  1
  O  O12  1  0.93486675  0.74870454  0.49278698  1
  O  O13  1  0.43321295  0.75157116  0.49172826  1
  O  O14  1  0.76408411  0.66962568  0.00815481  1
  O  O15  1  0.79985742  0.50948540  0.36161662  1
  O  O16  1  0.36369411  0.49095947  0.79789985  1
  O  O17  1  0.00227085  0.33266264  0.75861250  1
  O  O18  1  0.48816983  0.24801248  0.43371114  1
  O  O19  1  0.48633380  0.25590870  0.93837863  1
  O  O20  1  0.08205644  0.16968058  0.17510877  1
  O  O21  1  0.60101074  0.01255945  0.05414254  1
