# generated using pymatgen
data_LiVFeP2(HO5)2
_symmetry_space_group_name_H-M   'P 1'
_cell_length_a   14.50610102
_cell_length_b   7.36368565
_cell_length_c   5.21020834
_cell_angle_alpha   74.54616585
_cell_angle_beta   85.85410764
_cell_angle_gamma   91.92338798
_symmetry_Int_Tables_number   1
_chemical_formula_structural   LiVFeP2(HO5)2
_chemical_formula_sum   'Li3 V3 Fe3 P6 H6 O30'
_cell_volume   534.21213517
_cell_formula_units_Z   3
loop_
 _symmetry_equiv_pos_site_id
 _symmetry_equiv_pos_as_xyz
  1  'x, y, z'
loop_
 _atom_site_type_symbol
 _atom_site_label
 _atom_site_symmetry_multiplicity
 _atom_site_fract_x
 _atom_site_fract_y
 _atom_site_fract_z
 _atom_site_occupancy
  Li  Li0  1  0.18741630  0.03670769  0.74131363  1
  Li  Li1  1  0.47850053  0.63046472  0.59243565  1
  Li  Li2  1  0.81287824  0.96448303  0.25937549  1
  V  V3  1  0.16646020  0.66000334  0.33807110  1
  V  V4  1  0.49919295  0.00606849  0.99647367  1
  V  V5  1  0.83368265  0.33841797  0.66257303  1
  Fe  Fe6  1  0.99982724  0.99947998  0.00083288  1
  Fe  Fe7  1  0.33325852  0.33316339  0.66694101  1
  Fe  Fe8  1  0.66641438  0.66249204  0.33406587  1
  P  P9  1  0.04272297  0.26602407  0.40651184  1
  P  P10  1  0.29174957  0.06655457  0.25631603  1
  P  P11  1  0.37448556  0.59994676  0.07776948  1
  P  P12  1  0.62390661  0.39898866  0.92650115  1
  P  P13  1  0.70849609  0.93851778  0.74278939  1
  P  P14  1  0.95735711  0.73278479  0.59469278  1
  H  H15  1  0.09614489  0.74466822  0.90266133  1
  H  H16  1  0.23141309  0.56430827  0.78292999  1
  H  H17  1  0.43531990  0.10239747  0.55117484  1
  H  H18  1  0.56960965  0.92036522  0.43195900  1
  H  H19  1  0.77028884  0.42709501  0.21871979  1
  H  H20  1  0.90383511  0.25515706  0.09911382  1
  O  O21  1  0.05815955  0.13095899  0.23276375  1
  O  O22  1  0.07326111  0.18152787  0.68815940  1
  O  O23  1  0.06220118  0.68608380  0.58709518  1
  O  O24  1  0.10155610  0.45324515  0.27099004  1
  O  O25  1  0.26537062  0.14454161  0.96693502  1
  O  O26  1  0.11052215  0.82574817  0.02053340  1
  O  O27  1  0.23089497  0.50695988  0.63180807  1
  O  O28  1  0.27486221  0.20423896  0.42954789  1
  O  O29  1  0.39567310  0.01530285  0.25808187  1
  O  O30  1  0.22840092  0.88828095  0.40051801  1
  O  O31  1  0.27081006  0.65125349  0.07612582  1
  O  O32  1  0.39183162  0.46293703  0.90362208  1
  O  O33  1  0.43542829  0.15949539  0.70252557  1
  O  O34  1  0.40128619  0.52181951  0.36670322  1
  O  O35  1  0.43818293  0.77843618  0.93366111  1
  O  O36  1  0.56463182  0.21299092  0.06363371  1
  O  O37  1  0.59260842  0.48475017  0.64587858  1
  O  O38  1  0.55555503  0.83933634  0.31367847  1
  O  O39  1  0.60962316  0.53647500  0.09717323  1
  O  O40  1  0.72801167  0.35004481  0.91719792  1
  O  O41  1  0.77146998  0.11580960  0.59371534  1
  O  O42  1  0.60371594  0.98423067  0.74034727  1
  O  O43  1  0.72553190  0.79910923  0.57193726  1
  O  O44  1  0.77257096  0.48786704  0.36605957  1
  O  O45  1  0.88947185  0.17344414  0.98211268  1
  O  O46  1  0.73464382  0.86406305  0.03105387  1
  O  O47  1  0.89843906  0.54642920  0.73003677  1
  O  O48  1  0.93821220  0.31245417  0.41440219  1
  O  O49  1  0.92687868  0.81757619  0.31278219  1
  O  O50  1  0.94203712  0.86876315  0.76720779  1
