# generated using pymatgen
data_LiNiOF
_symmetry_space_group_name_H-M   'P 1'
_cell_length_a   2.95292103
_cell_length_b   2.95292293
_cell_length_c   12.63850247
_cell_angle_alpha   89.99998825
_cell_angle_beta   89.99997474
_cell_angle_gamma   89.99998642
_symmetry_Int_Tables_number   1
_chemical_formula_structural   LiNiOF
_chemical_formula_sum   'Li3 Ni3 O3 F3'
_cell_volume   110.20455953
_cell_formula_units_Z   3
loop_
 _symmetry_equiv_pos_site_id
 _symmetry_equiv_pos_as_xyz
  1  'x, y, z'
loop_
 _atom_site_type_symbol
 _atom_site_label
 _atom_site_symmetry_multiplicity
 _atom_site_fract_x
 _atom_site_fract_y
 _atom_site_fract_z
 _atom_site_occupancy
  Li  Li0  1  0.49999962  0.50000022  0.99907718  1
  Li  Li1  1  0.49999981  0.49999983  0.66759075  1
  Li  Li2  1  0.99999966  0.00000001  0.83333467  1
  Ni  Ni3  1  0.99999995  0.00000226  0.16701627  1
  Ni  Ni4  1  0.49999892  0.49999975  0.33332238  1
  Ni  Ni5  1  0.00000156  0.99999740  0.49966837  1
  O  O6  1  0.50000008  0.50000006  0.16439984  1
  O  O7  1  0.00000137  0.00000150  0.33333340  1
  O  O8  1  0.50000118  0.49999931  0.50226502  1
  F  F9  1  -0.00000012  0.99999992  0.99400445  1
  F  F10  1  0.99999887  -0.00000027  0.67265565  1
  F  F11  1  0.49999911  0.50000002  0.83333000  1
