# generated using pymatgen
data_Li6V5O12
_symmetry_space_group_name_H-M   'P 1'
_cell_length_a   5.18552582
_cell_length_b   8.80550677
_cell_length_c   9.92596808
_cell_angle_alpha   98.40716575
_cell_angle_beta   95.63040613
_cell_angle_gamma   90.16071948
_symmetry_Int_Tables_number   1
_chemical_formula_structural   Li6V5O12
_chemical_formula_sum   'Li12 V10 O24'
_cell_volume   446.13020761
_cell_formula_units_Z   2
loop_
 _symmetry_equiv_pos_site_id
 _symmetry_equiv_pos_as_xyz
  1  'x, y, z'
loop_
 _atom_site_type_symbol
 _atom_site_label
 _atom_site_symmetry_multiplicity
 _atom_site_fract_x
 _atom_site_fract_y
 _atom_site_fract_z
 _atom_site_occupancy
  Li  Li0  1  0.01898846  0.82499798  0.51431098  1
  Li  Li1  1  0.24760810  0.74882756  0.98032711  1
  Li  Li2  1  0.22690925  0.40430646  0.98661761  1
  Li  Li3  1  0.37515009  0.86927511  0.74361780  1
  Li  Li4  1  0.26992002  0.07993066  0.99040630  1
  Li  Li5  1  0.50779203  0.34055305  0.51306975  1
  Li  Li6  1  0.50942926  0.98588330  0.52084215  1
  Li  Li7  1  0.74091446  0.56113920  0.98151872  1
  Li  Li8  1  0.74243417  0.91719011  0.98612644  1
  Li  Li9  1  0.87821484  0.37119947  0.75597890  1
  Li  Li10  1  0.98127297  0.50094214  0.50863908  1
  Li  Li11  1  0.00759488  0.17412081  0.52028704  1
  V  V12  1  0.11757189  0.29211658  0.24732916  1
  V  V13  1  0.12410282  0.62526599  0.24930419  1
  V  V14  1  0.12644002  0.95376362  0.25312475  1
  V  V15  1  0.62477610  0.12556444  0.25104650  1
  V  V16  1  0.61958970  0.45747672  0.24743194  1
  V  V17  1  0.62442430  0.79033529  0.25190813  1
  V  V18  1  0.35600589  0.54084456  0.73980221  1
  V  V19  1  0.40258715  0.20493856  0.76204909  1
  V  V20  1  0.85097124  0.70090170  0.73901689  1
  V  V21  1  0.89685542  0.04406189  0.76050027  1
  O  O22  1  0.03931787  0.89775099  0.86556694  1
  O  O23  1  0.09382870  0.21427872  0.86529081  1
  O  O24  1  0.05875623  0.57318311  0.85948103  1
  O  O25  1  0.19349199  0.03728818  0.64108821  1
  O  O26  1  0.15917736  0.67640370  0.63487133  1
  O  O27  1  0.21312800  0.35925756  0.63528876  1
  O  O28  1  0.30379594  0.14114202  0.36118704  1
  O  O29  1  0.29547353  0.46096889  0.35751654  1
  O  O30  1  0.30597548  0.82109601  0.36432405  1
  O  O31  1  0.52994133  0.38934867  0.85819025  1
  O  O32  1  0.43231535  0.60706432  0.13700206  1
  O  O33  1  0.42989513  0.93929329  0.13825702  1
  O  O34  1  0.42277475  0.27004053  0.14222521  1
  O  O35  1  0.55516869  0.70599990  0.85832685  1
  O  O36  1  0.57615427  0.06199290  0.86366844  1
  O  O37  1  0.67614261  0.52498745  0.63706456  1
  O  O38  1  0.69773389  0.16993563  0.64187728  1
  O  O39  1  0.72303132  0.85356315  0.64215483  1
  O  O40  1  0.81827860  0.97590165  0.36163239  1
  O  O41  1  0.81284329  0.31114301  0.36293044  1
  O  O42  1  0.81978941  0.64194403  0.35712110  1
  O  O43  1  0.93970129  0.43856714  0.13750367  1
  O  O44  1  0.93835331  0.78123341  0.13656178  1
  O  O45  1  0.95507960  0.10450256  0.14605941  1
