# generated using pymatgen
data_Li8NiO5F
_symmetry_space_group_name_H-M   'P 1'
_cell_length_a   5.28564980
_cell_length_b   5.86898166
_cell_length_c   5.30415221
_cell_angle_alpha   112.57019247
_cell_angle_beta   66.08404801
_cell_angle_gamma   118.32875122
_symmetry_Int_Tables_number   1
_chemical_formula_structural   Li8NiO5F
_chemical_formula_sum   'Li8 Ni1 O5 F1'
_cell_volume   128.59915769
_cell_formula_units_Z   1
loop_
 _symmetry_equiv_pos_site_id
 _symmetry_equiv_pos_as_xyz
  1  'x, y, z'
loop_
 _atom_site_type_symbol
 _atom_site_label
 _atom_site_symmetry_multiplicity
 _atom_site_fract_x
 _atom_site_fract_y
 _atom_site_fract_z
 _atom_site_occupancy
  Li  Li0  1  0.10932274  0.35264566  0.46768797  1
  Li  Li1  1  0.53379899  0.66228093  0.23031957  1
  Li  Li2  1  0.23829292  0.64991510  0.89470351  1
  Li  Li3  1  0.29489306  0.01702613  0.36559659  1
  Li  Li4  1  0.65978262  0.97300877  0.67716293  1
  Li  Li5  1  0.76984168  0.34300116  0.09273082  1
  Li  Li6  1  0.46607084  0.36127674  0.79255903  1
  Li  Li7  1  0.89716439  0.65936631  0.52277813  1
  Ni  Ni8  1  0.02459911  0.97443591  0.96205811  1
  O  O9  1  0.26443493  0.76315437  0.58682707  1
  O  O10  1  0.36282397  0.23182391  0.10527252  1
  O  O11  1  0.06663327  0.22550131  0.77262872  1
  O  O12  1  0.93852336  0.75692887  0.20551655  1
  O  O13  1  0.64487107  0.75433327  0.88593786  1
  F  F14  1  0.72894506  0.27530155  0.43822261  1
