# generated using pymatgen
data_WOF4
_symmetry_space_group_name_H-M   'P 1'
_cell_length_a   5.79615117
_cell_length_b   10.26231459
_cell_length_c   14.76457154
_cell_angle_alpha   107.45015557
_cell_angle_beta   101.31984562
_cell_angle_gamma   73.59651542
_symmetry_Int_Tables_number   1
_chemical_formula_structural   WOF4
_chemical_formula_sum   'W8 O8 F32'
_cell_volume   797.70768974
_cell_formula_units_Z   8
loop_
 _symmetry_equiv_pos_site_id
 _symmetry_equiv_pos_as_xyz
  1  'x, y, z'
loop_
 _atom_site_type_symbol
 _atom_site_label
 _atom_site_symmetry_multiplicity
 _atom_site_fract_x
 _atom_site_fract_y
 _atom_site_fract_z
 _atom_site_occupancy
  W  W0  1  0.52072687  0.96033304  0.18174143  1
  W  W1  1  0.96171783  0.87922318  0.61227579  1
  W  W2  1  0.29931847  0.53966696  0.31825857  1
  W  W3  1  0.77133478  0.37922318  0.11227579  1
  W  W4  1  0.22866522  0.62077682  0.88772421  1
  W  W5  1  0.70068153  0.46033304  0.68174143  1
  W  W6  1  0.03828217  0.12077682  0.38772421  1
  W  W7  1  0.47927313  0.03966696  0.81825857  1
  O  O8  1  0.75120641  0.85645934  0.11710622  1
  O  O9  1  0.72144824  0.87084470  0.52436473  1
  O  O10  1  0.49055953  0.64354066  0.38289378  1
  O  O11  1  0.93207179  0.37084470  0.02436473  1
  O  O12  1  0.06792821  0.62915530  0.97563527  1
  O  O13  1  0.50944047  0.35645934  0.61710622  1
  O  O14  1  0.27855176  0.12915530  0.47563527  1
  O  O15  1  0.24879359  0.14354066  0.88289378  1
  F  F16  1  0.27293991  0.86687116  0.12304795  1
  F  F17  1  0.07863634  0.92450010  0.33559639  1
  F  F18  1  0.57662287  0.88163540  0.28666119  1
  F  F19  1  0.19841955  0.87622231  0.54043096  1
  F  F20  1  0.30427474  0.89917600  0.73286683  1
  F  F21  1  0.79467688  0.89032726  0.72028308  1
  F  F22  1  0.62301440  0.90177521  0.88608723  1
  F  F23  1  0.17159808  0.61836460  0.21333881  1
  F  F24  1  0.66754005  0.57549990  0.16440361  1
  F  F25  1  0.01676311  0.63312884  0.37695205  1
  F  F26  1  0.17499748  0.81077343  0.88822607  1
  F  F27  1  0.09754584  0.68922657  0.61177393  1
  F  F28  1  0.63870337  0.59822479  0.61391277  1
  F  F29  1  0.46578910  0.37622231  0.04043096  1
  F  F30  1  0.96472106  0.60967274  0.77971692  1
  F  F31  1  0.47058390  0.60082400  0.76713317  1
  F  F32  1  0.52941610  0.39917600  0.23286683  1
  F  F33  1  0.03527894  0.39032726  0.22028308  1
  F  F34  1  0.53421090  0.62377769  0.95956904  1
  F  F35  1  0.36129663  0.40177521  0.38608723  1
  F  F36  1  0.90245416  0.31077343  0.38822607  1
  F  F37  1  0.82500252  0.18922657  0.11177393  1
  F  F38  1  0.98323689  0.36687116  0.62304795  1
  F  F39  1  0.33245995  0.42450010  0.83559639  1
  F  F40  1  0.82840192  0.38163540  0.78666119  1
  F  F41  1  0.37698560  0.09822479  0.11391277  1
  F  F42  1  0.20532312  0.10967274  0.27971692  1
  F  F43  1  0.69572526  0.10082400  0.26713317  1
  F  F44  1  0.80158045  0.12377769  0.45956904  1
  F  F45  1  0.42337713  0.11836460  0.71333881  1
  F  F46  1  0.92136366  0.07549990  0.66440361  1
  F  F47  1  0.72706009  0.13312884  0.87695205  1
