# generated using pymatgen
data_LiMn2O3F
_symmetry_space_group_name_H-M   'P 1'
_cell_length_a   6.14660373
_cell_length_b   5.98987581
_cell_length_c   5.98987581
_cell_angle_alpha   61.73877652
_cell_angle_beta   90.00000000
_cell_angle_gamma   120.86938826
_symmetry_Int_Tables_number   1
_chemical_formula_structural   LiMn2O3F
_chemical_formula_sum   'Li2 Mn4 O6 F2'
_cell_volume   157.88449843
_cell_formula_units_Z   2
loop_
 _symmetry_equiv_pos_site_id
 _symmetry_equiv_pos_as_xyz
  1  'x, y, z'
loop_
 _atom_site_type_symbol
 _atom_site_label
 _atom_site_symmetry_multiplicity
 _atom_site_fract_x
 _atom_site_fract_y
 _atom_site_fract_z
 _atom_site_occupancy
  Li  Li0  1  0.10627467  0.21254933  0.10627467  1
  Li  Li1  1  0.89372533  0.78745067  0.89372533  1
  Mn  Mn2  1  0.50000000  0.00000000  0.00000000  1
  Mn  Mn3  1  0.50000000  0.00000000  0.50000000  1
  Mn  Mn4  1  0.50000000  0.50000000  0.50000000  1
  Mn  Mn5  1  0.00000000  0.50000000  0.50000000  1
  O  O6  1  0.74202710  0.04693915  0.74202710  1
  O  O7  1  0.74202710  0.48405519  0.30491206  1
  O  O8  1  0.30491206  0.04693915  0.74202710  1
  O  O9  1  0.69508794  0.95306085  0.25797290  1
  O  O10  1  0.25797290  0.95306085  0.25797290  1
  O  O11  1  0.25797290  0.51594481  0.69508794  1
  F  F12  1  0.76259614  0.52519127  0.76259614  1
  F  F13  1  0.23740386  0.47480873  0.23740386  1
