# generated using pymatgen
data_Li3V3P8O29
_symmetry_space_group_name_H-M   'P 1'
_cell_length_a   9.76599005
_cell_length_b   9.73239267
_cell_length_c   14.37332908
_cell_angle_alpha   90.31329184
_cell_angle_beta   90.70755813
_cell_angle_gamma   60.14043665
_symmetry_Int_Tables_number   1
_chemical_formula_structural   Li3V3P8O29
_chemical_formula_sum   'Li6 V6 P16 O58'
_cell_volume   1184.68665879
_cell_formula_units_Z   2
loop_
 _symmetry_equiv_pos_site_id
 _symmetry_equiv_pos_as_xyz
  1  'x, y, z'
loop_
 _atom_site_type_symbol
 _atom_site_label
 _atom_site_symmetry_multiplicity
 _atom_site_fract_x
 _atom_site_fract_y
 _atom_site_fract_z
 _atom_site_occupancy
  Li  Li0  1  0.78370995  0.29168918  0.04890863  1
  Li  Li1  1  0.30818072  0.91827459  0.06250975  1
  Li  Li2  1  0.67339138  0.23072577  0.44774789  1
  Li  Li3  1  0.32837898  0.76926931  0.55634106  1
  Li  Li4  1  0.21910238  0.69219965  0.94800256  1
  Li  Li5  1  0.00233979  -0.00019163  0.50812543  1
  V  V6  1  0.56832058  0.43189361  0.24993411  1
  V  V7  1  0.43502204  0.56544970  0.74812597  1
  V  V8  1  0.56886192  0.99388517  0.75226440  1
  V  V9  1  0.43567972  0.00859024  0.25210055  1
  V  V10  1  0.99937553  0.56333180  0.25549614  1
  V  V11  1  0.99840513  0.43823553  0.74233476  1
  P  P12  1  0.91723410  0.77257313  0.83807889  1
  P  P13  1  0.78002666  0.91817045  0.33669689  1
  P  P14  1  0.92006105  0.29951868  0.34515422  1
  P  P15  1  0.66496343  0.66652724  0.13432797  1
  P  P16  1  0.66090614  0.66937553  0.63199828  1
  P  P17  1  0.77623207  0.32035103  0.83608354  1
  P  P18  1  0.68534007  0.22165447  0.66081508  1
  P  P19  1  0.31808906  0.91041646  0.84627838  1
  P  P20  1  0.68788664  0.08434365  0.15302467  1
  P  P21  1  0.31812339  0.77536981  0.34004124  1
  P  P22  1  0.22513166  0.67977292  0.16420992  1
  P  P23  1  0.33719817  0.33568205  0.36760312  1
  P  P24  1  0.33189354  0.33500880  0.86404960  1
  P  P25  1  0.08079500  0.70149237  0.65496466  1
  P  P26  1  0.22139610  0.08183561  0.66546067  1
  P  P27  1  0.08346013  0.22785397  0.16183295  1
  O  O28  1  0.01097576  0.80439695  0.57239716  1
  O  O29  1  0.91276627  0.74256765  0.33388188  1
  O  O30  1  0.76088898  0.00782840  0.06477556  1
  O  O31  1  0.74446868  0.91290614  0.83313488  1
  O  O32  1  0.91009218  0.61915018  0.81774870  1
  O  O33  1  0.81353459  0.65745790  0.18377799  1
  O  O34  1  0.92601850  0.45642714  0.33406471  1
  O  O35  1  0.99297666  0.23366028  0.07725484  1
  O  O36  1  0.91985781  0.34469711  0.82693361  1
  O  O37  1  0.66836906  0.81187545  0.67827753  1
  O  O38  1  0.61819774  0.92162578  0.32641277  1
  O  O39  1  0.80814174  0.51818519  0.67284807  1
  O  O40  1  0.66794116  0.65000805  0.03174698  1
  O  O41  1  0.64498857  0.67509644  0.52906477  1
  O  O42  1  0.66046369  0.51830733  0.17903532  1
  O  O43  1  0.47789123  0.90096067  0.82486552  1
  O  O44  1  0.51711480  0.81896600  0.17146268  1
  O  O45  1  0.74257783  0.34095450  0.33469273  1
  O  O46  1  0.79426058  0.20602651  0.74940841  1
  O  O47  1  0.76536244  0.21157422  0.57140838  1
  O  O48  1  0.76388627  0.25283561  0.92524160  1
  O  O49  1  0.62224900  0.48112132  0.81474056  1
  O  O50  1  0.50611751  0.67668295  0.67337422  1
  O  O51  1  0.66128801  0.25725670  0.16318826  1
  O  O52  1  0.47357221  0.61646413  0.32526262  1
  O  O53  1  0.34994048  0.91493722  0.32617739  1
  O  O54  1  0.79917110  0.99439456  0.24238869  1
  O  O55  1  0.79115890  0.00750964  0.41784864  1
  O  O56  1  0.20127432  0.99106498  0.58756986  1
  O  O57  1  0.65237879  0.08296103  0.67141070  1
  O  O58  1  0.52834295  0.38126685  0.67386376  1
  O  O59  1  0.33741640  0.74122258  0.83654448  1
  O  O60  1  0.49187930  0.32548636  0.32616937  1
  O  O61  1  0.37867757  0.51880858  0.18207833  1
  O  O62  1  0.23825759  0.75528245  0.07669958  1
  O  O63  1  0.24021887  0.78699720  0.43010609  1
  O  O64  1  0.20615228  0.79190092  0.25217409  1
  O  O65  1  0.25955014  0.65632982  0.66418898  1
  O  O66  1  0.47395316  0.18268303  0.82168039  1
  O  O67  1  0.52667872  0.09409486  0.17700333  1
  O  O68  1  0.33981560  0.48237667  0.82228660  1
  O  O69  1  0.32783564  0.34586793  0.96687157  1
  O  O70  1  0.35036560  0.32747922  0.47042205  1
  O  O71  1  0.19018587  0.48449898  0.32541860  1
  O  O72  1  0.38360444  0.07289266  0.67233487  1
  O  O73  1  0.33052199  0.19007868  0.32141746  1
  O  O74  1  0.08089195  0.65636006  0.16931819  1
  O  O75  1  0.00102861  0.79899850  0.74886271  1
  O  O76  1  0.00607175  0.76656205  0.92339469  1
  O  O77  1  0.07180149  0.54660702  0.66326303  1
  O  O78  1  0.18305579  0.34597448  0.81458507  1
  O  O79  1  0.09020465  0.38174433  0.18144341  1
  O  O80  1  0.25567223  0.08529193  0.16256025  1
  O  O81  1  0.25260874  0.97936738  0.93844386  1
  O  O82  1  0.19933298  0.01257491  0.76357298  1
  O  O83  1  0.08825808  0.25810911  0.66522918  1
  O  O84  1  0.99038881  0.20039761  0.42882679  1
  O  O85  1  0.00339062  0.20041473  0.25222790  1
