# generated using pymatgen
data_Li5Mn(CO3)4
_symmetry_space_group_name_H-M   'P 1'
_cell_length_a   11.14218152
_cell_length_b   9.59703151
_cell_length_c   8.39933646
_cell_angle_alpha   90.00000000
_cell_angle_beta   91.27431227
_cell_angle_gamma   90.00000000
_symmetry_Int_Tables_number   1
_chemical_formula_structural   Li5Mn(CO3)4
_chemical_formula_sum   'Li20 Mn4 C16 O48'
_cell_volume   897.93459901
_cell_formula_units_Z   4
loop_
 _symmetry_equiv_pos_site_id
 _symmetry_equiv_pos_as_xyz
  1  'x, y, z'
loop_
 _atom_site_type_symbol
 _atom_site_label
 _atom_site_symmetry_multiplicity
 _atom_site_fract_x
 _atom_site_fract_y
 _atom_site_fract_z
 _atom_site_occupancy
  Li  Li0  1  0.06896554  0.63669256  0.56313573  1
  Li  Li1  1  0.06896554  0.86330744  0.06313573  1
  Li  Li2  1  0.12248652  0.13396697  0.57444041  1
  Li  Li3  1  0.12248652  0.36603303  0.07444041  1
  Li  Li4  1  0.21760436  0.89233828  0.69768313  1
  Li  Li5  1  0.21760436  0.60766172  0.19768313  1
  Li  Li6  1  0.34165974  0.66838003  0.52425834  1
  Li  Li7  1  0.34165974  0.83161997  0.02425834  1
  Li  Li8  1  0.39845274  0.09797074  0.56123956  1
  Li  Li9  1  0.39845274  0.40202926  0.06123956  1
  Li  Li10  1  0.60154726  0.59797074  0.93876044  1
  Li  Li11  1  0.60154726  0.90202926  0.43876044  1
  Li  Li12  1  0.65834026  0.16838003  0.97574166  1
  Li  Li13  1  0.65834026  0.33161997  0.47574166  1
  Li  Li14  1  0.78239564  0.39233828  0.80231687  1
  Li  Li15  1  0.78239564  0.10766172  0.30231687  1
  Li  Li16  1  0.87751348  0.63396697  0.92555959  1
  Li  Li17  1  0.87751348  0.86603303  0.42555959  1
  Li  Li18  1  0.93103446  0.13669256  0.93686427  1
  Li  Li19  1  0.93103446  0.36330744  0.43686427  1
  Mn  Mn20  1  0.27077734  0.39415367  0.72686346  1
  Mn  Mn21  1  0.27077734  0.10584633  0.22686346  1
  Mn  Mn22  1  0.72922266  0.89415367  0.77313654  1
  Mn  Mn23  1  0.72922266  0.60584633  0.27313654  1
  C  C24  1  0.02081448  0.38722090  0.75569683  1
  C  C25  1  0.02081448  0.11277910  0.25569683  1
  C  C26  1  0.20432130  0.63791318  0.86375250  1
  C  C27  1  0.20432130  0.86208682  0.36375250  1
  C  C28  1  0.28630869  0.13150250  0.87937124  1
  C  C29  1  0.28630869  0.36849750  0.37937124  1
  C  C30  1  0.48595338  0.84634322  0.73628219  1
  C  C31  1  0.48595338  0.65365678  0.23628219  1
  C  C32  1  0.51404662  0.34634322  0.76371781  1
  C  C33  1  0.51404662  0.15365678  0.26371781  1
  C  C34  1  0.71369131  0.63150250  0.62062876  1
  C  C35  1  0.71369131  0.86849750  0.12062876  1
  C  C36  1  0.79567870  0.13791318  0.63624750  1
  C  C37  1  0.79567870  0.36208682  0.13624750  1
  C  C38  1  0.97918552  0.88722090  0.74430317  1
  C  C39  1  0.97918552  0.61277910  0.24430317  1
  O  O40  1  0.00460653  0.82291456  0.61663962  1
  O  O41  1  0.00460653  0.67708544  0.11663962  1
  O  O42  1  0.03402368  0.99653666  0.79404281  1
  O  O43  1  0.03402368  0.50346334  0.29404281  1
  O  O44  1  0.10882392  0.33579241  0.66331058  1
  O  O45  1  0.10882392  0.16420759  0.16331058  1
  O  O46  1  0.19590957  0.76738353  0.90153110  1
  O  O47  1  0.19590957  0.73261647  0.40153110  1
  O  O48  1  0.20239680  0.53721762  0.96467150  1
  O  O49  1  0.20239680  0.96278238  0.46467150  1
  O  O50  1  0.21803240  0.60530888  0.71290020  1
  O  O51  1  0.21803240  0.89469112  0.21290020  1
  O  O52  1  0.28026641  0.09302697  0.73392392  1
  O  O53  1  0.27183798  0.26340228  0.91598825  1
  O  O54  1  0.28026641  0.40697303  0.23392392  1
  O  O55  1  0.27183798  0.23659772  0.41598825  1
  O  O56  1  0.30614571  0.04416614  0.99347123  1
  O  O57  1  0.30614571  0.45583386  0.49347123  1
  O  O58  1  0.39194119  0.83883956  0.64781964  1
  O  O59  1  0.39194119  0.66116044  0.14781964  1
  O  O60  1  0.43115787  0.43942321  0.81222483  1
  O  O61  1  0.43115787  0.06057679  0.31222483  1
  O  O62  1  0.49326047  0.27642343  0.63743617  1
  O  O63  1  0.49326047  0.22357657  0.13743617  1
  O  O64  1  0.50673953  0.77642343  0.86256383  1
  O  O65  1  0.50673953  0.72357657  0.36256383  1
  O  O66  1  0.56884213  0.93942321  0.68777517  1
  O  O67  1  0.56884213  0.56057679  0.18777517  1
  O  O68  1  0.60805881  0.33883956  0.85218036  1
  O  O69  1  0.60805881  0.16116044  0.35218036  1
  O  O70  1  0.69385429  0.54416614  0.50652877  1
  O  O71  1  0.69385429  0.95583386  0.00652877  1
  O  O72  1  0.72816202  0.76340228  0.58401175  1
  O  O73  1  0.71973359  0.59302697  0.76607608  1
  O  O74  1  0.72816202  0.73659772  0.08401175  1
  O  O75  1  0.71973359  0.90697303  0.26607608  1
  O  O76  1  0.78196760  0.10530888  0.78709980  1
  O  O77  1  0.78196760  0.39469112  0.28709980  1
  O  O78  1  0.79760320  0.03721762  0.53532850  1
  O  O79  1  0.79760320  0.46278238  0.03532850  1
  O  O80  1  0.80409043  0.26738353  0.59846890  1
  O  O81  1  0.80409043  0.23261647  0.09846890  1
  O  O82  1  0.89117608  0.83579241  0.83668942  1
  O  O83  1  0.89117608  0.66420759  0.33668942  1
  O  O84  1  0.96597632  0.49653666  0.70595719  1
  O  O85  1  0.96597632  0.00346334  0.20595719  1
  O  O86  1  0.99539347  0.32291456  0.88336038  1
  O  O87  1  0.99539347  0.17708544  0.38336038  1
