# generated using pymatgen
data_U12O19
_symmetry_space_group_name_H-M   'P 1'
_cell_length_a   3.85025321
_cell_length_b   3.85009408
_cell_length_c   45.63447802
_cell_angle_alpha   59.58825710
_cell_angle_beta   59.59185102
_cell_angle_gamma   59.99834325
_symmetry_Int_Tables_number   1
_chemical_formula_structural   U12O19
_chemical_formula_sum   'U12 O19'
_cell_volume   475.35092556
_cell_formula_units_Z   1
loop_
 _symmetry_equiv_pos_site_id
 _symmetry_equiv_pos_as_xyz
  1  'x, y, z'
loop_
 _atom_site_type_symbol
 _atom_site_label
 _atom_site_symmetry_multiplicity
 _atom_site_fract_x
 _atom_site_fract_y
 _atom_site_fract_z
 _atom_site_occupancy
  U  U0  1  0.00168208  0.00170716  0.99957386  1
  U  U1  1  0.99578827  0.99587367  0.08436473  1
  U  U2  1  0.00071700  0.00073758  0.16648511  1
  U  U3  1  0.00580633  0.00578231  0.24854937  1
  U  U4  1  0.99702490  0.99706784  0.33407474  1
  U  U5  1  0.99583449  0.99598331  0.50103061  1
  U  U6  1  0.00304846  0.00298023  0.41592589  1
  U  U7  1  0.99964384  0.99960616  0.58341553  1
  U  U8  1  0.00430403  0.00430922  0.66557873  1
  U  U9  1  0.99800665  0.99799420  0.75049792  1
  U  U10  1  0.99532128  0.99531447  0.91785180  1
  U  U11  1  0.00376064  0.00370730  0.83240691  1
  O  O12  1  0.23415705  0.23418023  0.02479339  1
  O  O13  1  0.26990136  0.26985632  0.09920129  1
  O  O14  1  0.24990433  0.24990090  0.18752330  1
  O  O15  1  0.75070406  0.75070440  0.14565424  1
  O  O16  1  0.24898222  0.24897951  0.35441557  1
  O  O17  1  0.73050063  0.73052294  0.23403818  1
  O  O18  1  0.23398129  0.23399092  0.44151036  1
  O  O19  1  0.76454728  0.76451666  0.30886131  1
  O  O20  1  0.27039455  0.27029983  0.51574235  1
  O  O21  1  0.75108380  0.75107021  0.39557167  1
  O  O22  1  0.24977171  0.24973396  0.60422312  1
  O  O23  1  0.75083104  0.75088664  0.56227847  1
  O  O24  1  0.73003055  0.73004316  0.65082962  1
  O  O25  1  0.25057790  0.25058320  0.77068477  1
  O  O26  1  0.76657364  0.76657366  0.72502269  1
  O  O27  1  0.73387902  0.73392219  0.81652207  1
  O  O28  1  0.24829237  0.24824748  0.93793470  1
  O  O29  1  0.76494403  0.76490878  0.89210577  1
  O  O30  1  0.75000522  0.75001558  0.97916493  1
