# generated using pymatgen
data_Li8VO5F
_symmetry_space_group_name_H-M   'P 1'
_cell_length_a   5.42294264
_cell_length_b   6.01172966
_cell_length_c   5.45319222
_cell_angle_alpha   116.14755576
_cell_angle_beta   61.62988815
_cell_angle_gamma   117.54168401
_symmetry_Int_Tables_number   1
_chemical_formula_structural   Li8VO5F
_chemical_formula_sum   'Li8 V1 O5 F1'
_cell_volume   133.02196226
_cell_formula_units_Z   1
loop_
 _symmetry_equiv_pos_site_id
 _symmetry_equiv_pos_as_xyz
  1  'x, y, z'
loop_
 _atom_site_type_symbol
 _atom_site_label
 _atom_site_symmetry_multiplicity
 _atom_site_fract_x
 _atom_site_fract_y
 _atom_site_fract_z
 _atom_site_occupancy
  Li  Li0  1  0.12001008  0.36230487  0.48133542  1
  Li  Li1  1  0.52274552  0.65347359  0.23453795  1
  Li  Li2  1  0.23443223  0.64151610  0.89520756  1
  Li  Li3  1  0.29424369  0.01100229  0.34601048  1
  Li  Li4  1  0.65385206  0.96255604  0.67799985  1
  Li  Li5  1  0.76999210  0.35723451  0.09059026  1
  Li  Li6  1  0.47395230  0.36223074  0.78353340  1
  Li  Li7  1  0.90053307  0.65326882  0.51649288  1
  V  V8  1  0.01469253  0.98331328  0.97660285  1
  O  O9  1  0.24683300  0.76057662  0.60505723  1
  O  O10  1  0.37950596  0.23872921  0.09433189  1
  O  O11  1  0.08126382  0.23384483  0.76594068  1
  O  O12  1  0.92278705  0.76292033  0.22857226  1
  O  O13  1  0.62520638  0.75503261  0.90158630  1
  F  F14  1  0.75995021  0.26199616  0.40220097  1
