# generated using pymatgen
data_Li3MnFe3O8
_symmetry_space_group_name_H-M   'P 1'
_cell_length_a   5.88202857
_cell_length_b   5.88165007
_cell_length_c   9.57266196
_cell_angle_alpha   89.99895544
_cell_angle_beta   90.00248937
_cell_angle_gamma   119.99992028
_symmetry_Int_Tables_number   1
_chemical_formula_structural   Li3MnFe3O8
_chemical_formula_sum   'Li6 Mn2 Fe6 O16'
_cell_volume   286.80717719
_cell_formula_units_Z   2
loop_
 _symmetry_equiv_pos_site_id
 _symmetry_equiv_pos_as_xyz
  1  'x, y, z'
loop_
 _atom_site_type_symbol
 _atom_site_label
 _atom_site_symmetry_multiplicity
 _atom_site_fract_x
 _atom_site_fract_y
 _atom_site_fract_z
 _atom_site_occupancy
  Li  Li0  1  0.17316390  0.82685079  0.05702105  1
  Li  Li1  1  0.65352832  0.82677296  0.05707562  1
  Li  Li2  1  0.17318695  0.34642521  0.05704153  1
  Li  Li3  1  0.82673089  0.65351273  0.55695275  1
  Li  Li4  1  0.34635802  0.17317372  0.55692728  1
  Li  Li5  1  0.82673373  0.17325611  0.55696544  1
  Mn  Mn6  1  0.33329949  0.66664719  0.51391780  1
  Mn  Mn7  1  0.66667608  0.33335094  0.01388755  1
  Fe  Fe8  1  0.16813363  0.83186795  0.78874326  1
  Fe  Fe9  1  0.66370990  0.83185218  0.78876779  1
  Fe  Fe10  1  0.16812366  0.33626871  0.78875242  1
  Fe  Fe11  1  0.83185623  0.66372021  0.28875330  1
  Fe  Fe12  1  0.33628597  0.16814356  0.28873316  1
  Fe  Fe13  1  0.83186471  0.16815196  0.28875850  1
  O  O14  1  0.16862882  0.83135322  0.40685584  1
  O  O15  1  0.47910684  0.95826319  0.64889004  1
  O  O16  1  0.04174624  0.52087530  0.64887473  1
  O  O17  1  0.33333112  0.66667389  0.90447284  1
  O  O18  1  0.66268436  0.83134955  0.40685739  1
  O  O19  1  0.47909135  0.52083407  0.64888387  1
  O  O20  1  0.16863224  0.33729317  0.40685416  1
  O  O21  1  0.83133922  0.66267889  0.90683636  1
  O  O22  1  0.52088592  0.47913606  0.14888558  1
  O  O23  1  0.95824078  0.47914522  0.14888297  1
  O  O24  1  0.66663905  0.33331550  0.40449977  1
  O  O25  1  0.00000820  0.00003247  0.17804748  1
  O  O26  1  0.33731701  0.16866245  0.90683940  1
  O  O27  1  0.99993288  0.99996355  0.67808030  1
  O  O28  1  0.52087472  0.04174193  0.14889093  1
  O  O29  1  0.83133377  0.16867535  0.90683687  1
