# generated using pymatgen
data_Li5V2OF11
_symmetry_space_group_name_H-M   'P 1'
_cell_length_a   9.14322310
_cell_length_b   5.58768122
_cell_length_c   8.91008128
_cell_angle_alpha   106.95027801
_cell_angle_beta   79.91698257
_cell_angle_gamma   95.49901662
_symmetry_Int_Tables_number   1
_chemical_formula_structural   Li5V2OF11
_chemical_formula_sum   'Li10 V4 O2 F22'
_cell_volume   428.22533694
_cell_formula_units_Z   2
loop_
 _symmetry_equiv_pos_site_id
 _symmetry_equiv_pos_as_xyz
  1  'x, y, z'
loop_
 _atom_site_type_symbol
 _atom_site_label
 _atom_site_symmetry_multiplicity
 _atom_site_fract_x
 _atom_site_fract_y
 _atom_site_fract_z
 _atom_site_occupancy
  Li  Li0  1  0.21927616  0.16380490  0.80873949  1
  Li  Li1  1  0.10295393  0.67297458  0.94295458  1
  Li  Li2  1  0.01383227  0.97414547  0.35977574  1
  Li  Li3  1  0.56398936  0.13237462  0.93807841  1
  Li  Li4  1  0.47234409  0.57762070  0.71586482  1
  Li  Li5  1  0.51848327  0.46433404  0.34277424  1
  Li  Li6  1  0.36510216  0.91234489  0.38812887  1
  Li  Li7  1  0.76586278  0.68275970  0.80924779  1
  Li  Li8  1  0.90212098  0.29131892  0.03918302  1
  Li  Li9  1  0.86946948  0.41657994  0.40620503  1
  V  V10  1  0.13307298  0.60708607  0.56926927  1
  V  V11  1  0.24179217  0.27563647  0.17802979  1
  V  V12  1  0.63627205  0.09986580  0.57126778  1
  V  V13  1  0.74621000  0.77524780  0.18291122  1
  O  O14  1  0.25816468  0.50972851  0.37430362  1
  O  O15  1  0.76162224  0.00549602  0.37462310  1
  F  F16  1  0.01902338  0.29957158  0.52216330  1
  F  F17  1  0.02607627  0.27543559  0.21520918  1
  F  F18  1  0.04931508  0.32927626  0.88631314  1
  F  F19  1  0.22735976  0.00519089  0.97986783  1
  F  F20  1  0.25876745  0.52804142  0.69130292  1
  F  F21  1  0.26470274  0.48824692  0.05529767  1
  F  F22  1  0.23200219  0.93287546  0.59962806  1
  F  F23  1  0.45403397  0.24552100  0.14794799  1
  F  F24  1  0.49533249  0.21619268  0.47178270  1
  F  F25  1  0.22407449  0.00984681  0.27795870  1
  F  F26  1  0.49153346  0.23658331  0.76282359  1
  F  F27  1  0.75167651  0.03728166  0.69753411  1
  F  F28  1  0.76971230  0.99287733  0.05396782  1
  F  F29  1  0.52884165  0.78047704  0.53471058  1
  F  F30  1  0.53579658  0.75665454  0.23035420  1
  F  F31  1  0.56805679  0.79111938  0.86235114  1
  F  F32  1  0.72391849  0.43607171  0.60157845  1
  F  F33  1  0.73891784  0.49899038  0.27729664  1
  F  F34  1  0.74334406  0.49904531  0.98964132  1
  F  F35  1  0.95867475  0.75274176  0.15001158  1
  F  F36  1  0.99311021  0.72376183  0.47341752  1
  F  F37  1  0.99696290  0.72468272  0.76748277  1
