# generated using pymatgen
data_Nb16N9
_symmetry_space_group_name_H-M   'P 1'
_cell_length_a   17.42335689
_cell_length_b   6.12517315
_cell_length_c   8.22442024
_cell_angle_alpha   67.83288115
_cell_angle_beta   36.87013834
_cell_angle_gamma   45.26742088
_symmetry_Int_Tables_number   1
_chemical_formula_structural   Nb16N9
_chemical_formula_sum   'Nb16 N9'
_cell_volume   336.73701553
_cell_formula_units_Z   1
loop_
 _symmetry_equiv_pos_site_id
 _symmetry_equiv_pos_as_xyz
  1  'x, y, z'
loop_
 _atom_site_type_symbol
 _atom_site_label
 _atom_site_symmetry_multiplicity
 _atom_site_fract_x
 _atom_site_fract_y
 _atom_site_fract_z
 _atom_site_occupancy
  Nb  Nb0  1  0.12624888  0.00086748  0.00145825  1
  Nb  Nb1  1  0.12664840  0.49023657  0.00199411  1
  Nb  Nb2  1  0.99222033  0.25868135  0.51451093  1
  Nb  Nb3  1  0.37142039  0.00101809  0.00189565  1
  Nb  Nb4  1  0.37149723  0.51147758  0.00157766  1
  Nb  Nb5  1  0.24736390  0.25501758  0.50006917  1
  Nb  Nb6  1  0.62075626  0.01133160  0.00193385  1
  Nb  Nb7  1  0.24715653  0.75122966  0.50749119  1
  Nb  Nb8  1  0.62136871  0.50162025  0.00129230  1
  Nb  Nb9  1  0.49975820  0.25105893  0.49900937  1
  Nb  Nb10  1  0.87453230  0.99615340  0.00170877  1
  Nb  Nb11  1  0.50411977  0.74547718  0.49046485  1
  Nb  Nb12  1  0.87402829  0.50436853  0.00199350  1
  Nb  Nb13  1  0.75283163  0.24623682  0.49571632  1
  Nb  Nb14  1  0.74588050  0.75633965  0.50348393  1
  Nb  Nb15  1  0.99723293  0.75302533  0.50403359  1
  N  N16  1  0.12427244  0.25036217  0.50036530  1
  N  N17  1  0.12433881  0.75163914  0.50017375  1
  N  N18  1  0.37262496  0.25200101  0.50290018  1
  N  N19  1  0.37262785  0.75388563  0.50267293  1
  N  N20  1  0.62288434  0.25280202  0.50319807  1
  N  N21  1  0.62272158  0.75199322  0.50331508  1
  N  N22  1  0.87397860  0.25244969  0.50028581  1
  N  N23  1  0.87379344  0.75129153  0.50046684  1
  N  N24  1  0.74744674  0.50375058  0.00171360  1
