# generated using pymatgen
data_Na11Mn13O32
_symmetry_space_group_name_H-M   'P 1'
_cell_length_a   6.06473024
_cell_length_b   6.06473024
_cell_length_c   21.09443653
_cell_angle_alpha   96.53812962
_cell_angle_beta   91.52299505
_cell_angle_gamma   120.76451084
_symmetry_Int_Tables_number   1
_chemical_formula_structural   Na11Mn13O32
_chemical_formula_sum   'Na11 Mn13 O32'
_cell_volume   659.07668527
_cell_formula_units_Z   1
loop_
 _symmetry_equiv_pos_site_id
 _symmetry_equiv_pos_as_xyz
  1  'x, y, z'
loop_
 _atom_site_type_symbol
 _atom_site_label
 _atom_site_symmetry_multiplicity
 _atom_site_fract_x
 _atom_site_fract_y
 _atom_site_fract_z
 _atom_site_occupancy
  Na  Na0  1  0.21875000  0.93750000  0.15625000  1
  Na  Na1  1  0.00977722  0.99871360  0.00849082  1
  Na  Na2  1  0.69503974  0.37116812  0.06620787  1
  Na  Na3  1  0.42772278  0.87628640  0.30400918  1
  Na  Na4  1  0.74246026  0.50383188  0.24629213  1
  Na  Na5  1  0.18186477  0.37843869  0.56030346  1
  Na  Na6  1  0.84184443  0.68449576  0.52634020  1
  Na  Na7  1  0.50390998  0.99324746  0.49715744  1
  Na  Na8  1  0.25563523  0.49656131  0.75219654  1
  Na  Na9  1  0.93359002  0.88175254  0.81534256  1
  Na  Na10  1  0.59565557  0.19050424  0.78615980  1
  Mn  Mn11  1  0.35667388  0.67926177  0.03593565  1
  Mn  Mn12  1  0.71875000  0.93750000  0.15625000  1
  Mn  Mn13  1  0.21875000  0.43750000  0.15625000  1
  Mn  Mn14  1  0.08082612  0.19573823  0.27656435  1
  Mn  Mn15  1  0.46662881  0.43506471  0.39666775  1
  Mn  Mn16  1  0.21875000  0.93750000  0.65625000  1
  Mn  Mn17  1  0.96160204  0.93003894  0.39666775  1
  Mn  Mn18  1  0.96209733  0.43539308  0.39749041  1
  Mn  Mn19  1  0.71875000  0.93750000  0.65625000  1
  Mn  Mn20  1  0.47589796  0.94496106  0.91583225  1
  Mn  Mn21  1  0.71875000  0.43750000  0.65625000  1
  Mn  Mn22  1  0.47540267  0.43960692  0.91500959  1
  Mn  Mn23  1  0.97087119  0.43993529  0.91583225  1
  O  O24  1  0.09594794  0.55445735  0.09011310  1
  O  O25  1  0.42023244  0.78117380  0.20140624  1
  O  O26  1  0.52034662  0.58337707  0.10372370  1
  O  O27  1  0.01726756  0.09382620  0.11109376  1
  O  O28  1  0.90184425  0.88083384  0.22238690  1
  O  O29  1  0.34155206  0.32054265  0.22238690  1
  O  O30  1  0.11729775  0.78203200  0.44248916  1
  O  O31  1  0.24699689  0.51569996  0.34332540  1
  O  O32  1  0.53565575  0.99416616  0.09011310  1
  O  O33  1  0.24567219  0.09465443  0.34032562  1
  O  O34  1  0.15002544  0.29523899  0.44526544  1
  O  O35  1  0.01565091  0.59366385  0.60931476  1
  O  O36  1  0.66384513  0.77837090  0.44221503  1
  O  O37  1  0.91715338  0.29162293  0.20877630  1
  O  O38  1  0.77931371  0.57067335  0.34998606  1
  O  O39  1  0.66045715  0.32519140  0.44248916  1
  O  O40  1  0.42335717  0.83950830  0.70357777  1
  O  O41  1  0.82762544  0.09632851  0.34332540  1
  O  O42  1  0.01414283  0.03549170  0.60892223  1
  O  O43  1  0.57343153  0.59477940  0.60892223  1
  O  O44  1  0.90502692  0.80115780  0.70618472  1
  O  O45  1  0.42184909  0.28133615  0.70318524  1
  O  O46  1  0.28747456  0.57976101  0.86723456  1
  O  O47  1  0.19182781  0.78034557  0.97217438  1
  O  O48  1  0.53247308  0.07384220  0.60631528  1
  O  O49  1  0.19050311  0.35930004  0.96917460  1
  O  O50  1  0.60987456  0.77867149  0.96917460  1
  O  O51  1  0.86406847  0.28021960  0.70357777  1
  O  O52  1  0.32020225  0.09296800  0.87001084  1
  O  O53  1  0.77704285  0.54980860  0.87001084  1
  O  O54  1  0.77365487  0.09662910  0.87028497  1
  O  O55  1  0.65818629  0.30432665  0.96251394  1
