# generated using pymatgen
data_Mn6O11F
_symmetry_space_group_name_H-M   'P 1'
_cell_length_a   9.99676271
_cell_length_b   6.42175655
_cell_length_c   2.96935419
_cell_angle_alpha   90.00000000
_cell_angle_beta   90.00000000
_cell_angle_gamma   108.72310982
_symmetry_Int_Tables_number   1
_chemical_formula_structural   Mn6O11F
_chemical_formula_sum   'Mn6 O11 F1'
_cell_volume   180.53536788
_cell_formula_units_Z   1
loop_
 _symmetry_equiv_pos_site_id
 _symmetry_equiv_pos_as_xyz
  1  'x, y, z'
loop_
 _atom_site_type_symbol
 _atom_site_label
 _atom_site_symmetry_multiplicity
 _atom_site_fract_x
 _atom_site_fract_y
 _atom_site_fract_z
 _atom_site_occupancy
  Mn  Mn0  1  0.00030576  0.99875734  0.00000000  1
  Mn  Mn1  1  0.33281023  0.16681832  0.50000000  1
  Mn  Mn2  1  0.00053557  0.50062413  0.50000000  1
  Mn  Mn3  1  0.66666537  0.34538946  0.00000000  1
  Mn  Mn4  1  0.33303386  0.66519908  0.00000000  1
  Mn  Mn5  1  0.66668825  0.81749458  0.50000000  1
  O  O6  1  0.12929531  0.06482320  0.50000000  1
  O  O7  1  0.99922376  0.30536021  0.00000000  1
  O  O8  1  0.33433120  0.36187693  0.00000000  1
  O  O9  1  0.99894114  0.69413142  0.00000000  1
  O  O10  1  0.53750510  0.26612502  0.50000000  1
  O  O11  1  0.20403486  0.60244167  0.50000000  1
  O  O12  1  0.46457968  0.73612756  0.50000000  1
  O  O13  1  0.79585394  0.39527662  0.50000000  1
  O  O14  1  0.66667508  0.63499221  0.00000000  1
  O  O15  1  0.33413092  0.97287900  0.00000000  1
  O  O16  1  0.86874456  0.93833122  0.50000000  1
  F  F17  1  0.66664639  0.03335102  0.00000000  1
