# generated using pymatgen
data_LiFeSi3O8
_symmetry_space_group_name_H-M   'P 1'
_cell_length_a   7.78626662
_cell_length_b   7.78626662
_cell_length_c   14.60299381
_cell_angle_alpha   76.07128110
_cell_angle_beta   103.92871890
_cell_angle_gamma   61.65250341
_symmetry_Int_Tables_number   1
_chemical_formula_structural   LiFeSi3O8
_chemical_formula_sum   'Li4 Fe4 Si12 O32'
_cell_volume   687.84074050
_cell_formula_units_Z   4
loop_
 _symmetry_equiv_pos_site_id
 _symmetry_equiv_pos_as_xyz
  1  'x, y, z'
loop_
 _atom_site_type_symbol
 _atom_site_label
 _atom_site_symmetry_multiplicity
 _atom_site_fract_x
 _atom_site_fract_y
 _atom_site_fract_z
 _atom_site_occupancy
  Li  Li0  1  0.26762857  0.73489785  0.57234046  1
  Li  Li1  1  0.73489785  0.26762857  0.92765954  1
  Li  Li2  1  0.26510215  0.73237143  0.07234046  1
  Li  Li3  1  0.73237143  0.26510215  0.42765954  1
  Fe  Fe4  1  0.22342323  0.55690993  0.83375179  1
  Fe  Fe5  1  0.44309007  0.77657677  0.33375179  1
  Fe  Fe6  1  0.55690993  0.22342323  0.66624821  1
  Fe  Fe7  1  0.77657677  0.44309007  0.16624821  1
  Si  Si8  1  0.44878781  0.79191069  0.83687299  1
  Si  Si9  1  0.82698322  0.84953359  0.89671199  1
  Si  Si10  1  0.16715534  0.17109055  0.88584149  1
  Si  Si11  1  0.17109055  0.16715534  0.61415851  1
  Si  Si12  1  0.84953359  0.82698322  0.60328801  1
  Si  Si13  1  0.20808931  0.55121219  0.33687299  1
  Si  Si14  1  0.79191069  0.44878781  0.66312701  1
  Si  Si15  1  0.82890945  0.83284466  0.38584149  1
  Si  Si16  1  0.15046641  0.17301678  0.39671199  1
  Si  Si17  1  0.17301678  0.15046641  0.10328801  1
  Si  Si18  1  0.83284466  0.82890945  0.11415851  1
  Si  Si19  1  0.55121219  0.20808931  0.16312701  1
  O  O20  1  0.05824597  0.69566600  0.89801182  1
  O  O21  1  0.29577316  0.93196800  0.88637442  1
  O  O22  1  0.09634546  0.69338788  0.68790739  1
  O  O23  1  0.33052706  0.92626547  0.71018518  1
  O  O24  1  0.47654545  0.56106454  0.86828904  1
  O  O25  1  0.30582911  0.27225475  0.88309219  1
  O  O26  1  0.68630310  0.74647616  0.88219637  1
  O  O27  1  0.06803200  0.70422684  0.38637442  1
  O  O28  1  0.30433400  0.94175403  0.39801182  1
  O  O29  1  0.74647616  0.68630310  0.61780363  1
  O  O30  1  0.27225475  0.30582911  0.61690781  1
  O  O31  1  0.30661212  0.90365454  0.18790739  1
  O  O32  1  0.07373453  0.66947294  0.21018518  1
  O  O33  1  0.56106454  0.47654545  0.63171096  1
  O  O34  1  0.13199691  0.11726099  0.51020451  1
  O  O35  1  0.86800309  0.88273901  0.48979549  1
  O  O36  1  0.43893546  0.52345455  0.36828904  1
  O  O37  1  0.69338788  0.09634546  0.81209261  1
  O  O38  1  0.92626547  0.33052706  0.78981482  1
  O  O39  1  0.25352384  0.31369690  0.38219637  1
  O  O40  1  0.72774525  0.69417089  0.38309219  1
  O  O41  1  0.69566600  0.05824597  0.60198818  1
  O  O42  1  0.93196800  0.29577316  0.61362558  1
  O  O43  1  0.69417089  0.72774525  0.11690781  1
  O  O44  1  0.31369690  0.25352384  0.11780363  1
  O  O45  1  0.52345455  0.43893546  0.13171096  1
  O  O46  1  0.11726099  0.13199691  0.98979549  1
  O  O47  1  0.88273901  0.86800309  0.01020451  1
  O  O48  1  0.90365454  0.30661212  0.31209261  1
  O  O49  1  0.66947294  0.07373453  0.28981482  1
  O  O50  1  0.70422684  0.06803200  0.11362558  1
  O  O51  1  0.94175403  0.30433400  0.10198818  1
