# generated using pymatgen
data_NaV2O5
_symmetry_space_group_name_H-M   'P 1'
_cell_length_a   3.69130770
_cell_length_b   5.89915622
_cell_length_c   11.42386295
_cell_angle_alpha   90.00000000
_cell_angle_beta   90.00000000
_cell_angle_gamma   108.23212044
_symmetry_Int_Tables_number   1
_chemical_formula_structural   NaV2O5
_chemical_formula_sum   'Na2 V4 O10'
_cell_volume   236.27285791
_cell_formula_units_Z   2
loop_
 _symmetry_equiv_pos_site_id
 _symmetry_equiv_pos_as_xyz
  1  'x, y, z'
loop_
 _atom_site_type_symbol
 _atom_site_label
 _atom_site_symmetry_multiplicity
 _atom_site_fract_x
 _atom_site_fract_y
 _atom_site_fract_z
 _atom_site_occupancy
  Na  Na0  1  0.09654664  0.19309428  0.75000000  1
  Na  Na1  1  0.90345336  0.80690572  0.25000000  1
  V  V2  1  0.20415935  0.40831971  0.40033027  1
  V  V3  1  0.20415935  0.40831971  0.09966973  1
  V  V4  1  0.79584065  0.59168029  0.59966973  1
  V  V5  1  0.79584065  0.59168029  0.90033027  1
  O  O6  1  0.05909645  0.11819389  0.11650186  1
  O  O7  1  0.05909645  0.11819389  0.38349814  1
  O  O8  1  0.26802930  0.53605960  0.25000000  1
  O  O9  1  0.24320176  0.48640353  0.57086078  1
  O  O10  1  0.24320176  0.48640353  0.92913922  1
  O  O11  1  0.73197070  0.46394040  0.75000000  1
  O  O12  1  0.75679824  0.51359647  0.07086078  1
  O  O13  1  0.75679824  0.51359647  0.42913922  1
  O  O14  1  0.94090355  0.88180611  0.61650186  1
  O  O15  1  0.94090355  0.88180611  0.88349814  1
