# generated using pymatgen
data_LiCo2OF3
_symmetry_space_group_name_H-M   'P 1'
_cell_length_a   6.02703401
_cell_length_b   6.02703401
_cell_length_c   6.13753445
_cell_angle_alpha   60.59380311
_cell_angle_beta   90.00000000
_cell_angle_gamma   120.00000000
_symmetry_Int_Tables_number   1
_chemical_formula_structural   LiCo2OF3
_chemical_formula_sum   'Li2 Co4 O2 F6'
_cell_volume   159.04733906
_cell_formula_units_Z   2
loop_
 _symmetry_equiv_pos_site_id
 _symmetry_equiv_pos_as_xyz
  1  'x, y, z'
loop_
 _atom_site_type_symbol
 _atom_site_label
 _atom_site_symmetry_multiplicity
 _atom_site_fract_x
 _atom_site_fract_y
 _atom_site_fract_z
 _atom_site_occupancy
  Li  Li0  1  0.49905486  0.99810971  0.00283543  1
  Li  Li1  1  0.13945567  0.27891035  0.08163398  1
  Co  Co2  1  0.49645808  0.99291616  0.49683421  1
  Co  Co3  1  0.49645808  0.50670771  0.49683421  1
  Co  Co4  1  0.85358850  0.70717799  0.93923351  1
  Co  Co5  1  0.01024963  0.50670771  0.49683421  1
  O  O6  1  0.72855795  0.45711591  0.31432714  1
  O  O7  1  0.26857986  0.53715873  0.69426141  1
  F  F8  1  0.74129915  0.99836232  0.76033853  1
  F  F9  1  0.74129915  0.48259831  0.76033853  1
  F  F10  1  0.25706316  0.99836232  0.76033853  1
  F  F11  1  0.26357745  0.52715390  0.23206410  1
  F  F12  1  0.74078199  0.00435944  0.23206410  1
  F  F13  1  0.26357745  0.00435944  0.23206410  1
