# generated using pymatgen
data_Li4Fe2O5
_symmetry_space_group_name_H-M   'P 1'
_cell_length_a   5.25706029
_cell_length_b   8.53456322
_cell_length_c   11.69543711
_cell_angle_alpha   65.04829098
_cell_angle_beta   90.00000000
_cell_angle_gamma   90.00000000
_symmetry_Int_Tables_number   1
_chemical_formula_structural   Li4Fe2O5
_chemical_formula_sum   'Li16 Fe8 O20'
_cell_volume   475.75890539
_cell_formula_units_Z   4
loop_
 _symmetry_equiv_pos_site_id
 _symmetry_equiv_pos_as_xyz
  1  'x, y, z'
loop_
 _atom_site_type_symbol
 _atom_site_label
 _atom_site_symmetry_multiplicity
 _atom_site_fract_x
 _atom_site_fract_y
 _atom_site_fract_z
 _atom_site_occupancy
  Li  Li0  1  0.12259391  0.12488505  0.99682241  1
  Li  Li1  1  0.32423925  0.91204897  0.58777510  1
  Li  Li2  1  0.47699968  0.10644983  0.88490802  1
  Li  Li3  1  0.33655091  0.21128349  0.67475303  1
  Li  Li4  1  0.83655091  0.28871651  0.82524697  1
  Li  Li5  1  0.62259391  0.37511495  0.50317759  1
  Li  Li6  1  0.97699968  0.39355017  0.61509198  1
  Li  Li7  1  0.17576910  0.41206375  0.08777474  1
  Li  Li8  1  0.82423925  0.58795103  0.91222490  1
  Li  Li9  1  0.02302341  0.60644327  0.38491528  1
  Li  Li10  1  0.37742716  0.62487694  0.49682367  1
  Li  Li11  1  0.16345734  0.71128676  0.17475619  1
  Li  Li12  1  0.66345734  0.78871324  0.32524381  1
  Li  Li13  1  0.52302341  0.89355673  0.11508472  1
  Li  Li14  1  0.67576910  0.08793625  0.41222526  1
  Li  Li15  1  0.87742716  0.87512306  0.00317633  1
  Fe  Fe16  1  0.66924715  0.19044907  0.11764963  1
  Fe  Fe17  1  0.16924715  0.30955093  0.38235037  1
  Fe  Fe18  1  0.83077085  0.69044189  0.61764765  1
  Fe  Fe19  1  0.33077085  0.80955811  0.88235235  1
  Fe  Fe20  1  0.82979488  0.99455772  0.71209612  1
  Fe  Fe21  1  0.67019090  0.49455180  0.21210396  1
  Fe  Fe22  1  0.32979488  0.50544228  0.78790388  1
  Fe  Fe23  1  0.17019090  0.00544820  0.28789604  1
  O  O24  1  0.30152190  0.16967332  0.12669713  1
  O  O25  1  0.19812632  0.97703985  0.72333618  1
  O  O26  1  0.28636665  0.08454434  0.41143145  1
  O  O27  1  0.78636665  0.41545566  0.08856855  1
  O  O28  1  0.71135921  0.21382936  0.68745457  1
  O  O29  1  0.74912406  0.10586328  0.99582608  1
  O  O30  1  0.80152190  0.33032668  0.37330287  1
  O  O31  1  0.24912406  0.39413672  0.50417392  1
  O  O32  1  0.21135921  0.28617064  0.81254543  1
  O  O33  1  0.30186592  0.47704080  0.22334077  1
  O  O34  1  0.69812632  0.52296015  0.77666382  1
  O  O35  1  0.78864238  0.71382160  0.18745505  1
  O  O36  1  0.75089002  0.60585698  0.49582643  1
  O  O37  1  0.19848538  0.66966071  0.62669776  1
  O  O38  1  0.25089002  0.89414302  0.00417357  1
  O  O39  1  0.28864238  0.78617840  0.31254395  1
  O  O40  1  0.21363363  0.58455769  0.91142938  1
  O  O41  1  0.71363363  0.91544231  0.58857062  1
  O  O42  1  0.80186592  0.02295920  0.27665923  1
  O  O43  1  0.69848538  0.83033929  0.87330224  1
