# generated using pymatgen
data_LiCoPO4
_symmetry_space_group_name_H-M   'P 1'
_cell_length_a   8.39524689
_cell_length_b   5.29911693
_cell_length_c   7.97630607
_cell_angle_alpha   90.00000000
_cell_angle_beta   104.98803807
_cell_angle_gamma   90.00000000
_symmetry_Int_Tables_number   1
_chemical_formula_structural   LiCoPO4
_chemical_formula_sum   'Li4 Co4 P4 O16'
_cell_volume   342.77319199
_cell_formula_units_Z   4
loop_
 _symmetry_equiv_pos_site_id
 _symmetry_equiv_pos_as_xyz
  1  'x, y, z'
loop_
 _atom_site_type_symbol
 _atom_site_label
 _atom_site_symmetry_multiplicity
 _atom_site_fract_x
 _atom_site_fract_y
 _atom_site_fract_z
 _atom_site_occupancy
  Li  Li0  1  0.20847349  0.34446489  0.86928002  1
  Li  Li1  1  0.38802389  0.82955264  0.36557463  1
  Li  Li2  1  0.70847349  0.65553511  0.86928002  1
  Li  Li3  1  0.88802389  0.17044736  0.36557463  1
  Co  Co4  1  0.07235751  0.85037957  0.96896565  1
  Co  Co5  1  0.27042750  0.33132204  0.48960443  1
  Co  Co6  1  0.57235751  0.14962043  0.96896565  1
  Co  Co7  1  0.77042750  0.66867796  0.48960443  1
  P  P8  1  0.01147996  0.66969706  0.25203517  1
  P  P9  1  0.32884989  0.82753788  0.73783871  1
  P  P10  1  0.51147996  0.33030294  0.25203517  1
  P  P11  1  0.82884989  0.17246212  0.73783871  1
  O  O12  1  0.99925225  0.18239296  0.87419952  1
  O  O13  1  0.05369375  0.39708838  0.32076936  1
  O  O14  1  0.19543196  0.70346504  0.81450177  1
  O  O15  1  0.28609699  0.11095520  0.69667858  1
  O  O16  1  0.16810811  0.80508666  0.22533695  1
  O  O17  1  0.34072179  0.67936827  0.57558998  1
  O  O18  1  0.49925225  0.81760704  0.87419952  1
  O  O19  1  0.43684444  0.18529803  0.38223778  1
  O  O20  1  0.39403748  0.32210620  0.06618846  1
  O  O21  1  0.55369375  0.60291162  0.32076936  1
  O  O22  1  0.69543196  0.29653496  0.81450177  1
  O  O23  1  0.78609699  0.88904480  0.69667858  1
  O  O24  1  0.66810811  0.19491334  0.22533695  1
  O  O25  1  0.84072179  0.32063173  0.57558998  1
  O  O26  1  0.93684444  0.81470197  0.38223778  1
  O  O27  1  0.89403748  0.67789380  0.06618846  1
