# generated using pymatgen
data_LiSnP2O7
_symmetry_space_group_name_H-M   'P 1'
_cell_length_a   8.48746863
_cell_length_b   5.26884657
_cell_length_c   14.04348471
_cell_angle_alpha   87.54026915
_cell_angle_beta   75.21783791
_cell_angle_gamma   88.50251479
_symmetry_Int_Tables_number   1
_chemical_formula_structural   LiSnP2O7
_chemical_formula_sum   'Li4 Sn4 P8 O28'
_cell_volume   606.59313520
_cell_formula_units_Z   4
loop_
 _symmetry_equiv_pos_site_id
 _symmetry_equiv_pos_as_xyz
  1  'x, y, z'
loop_
 _atom_site_type_symbol
 _atom_site_label
 _atom_site_symmetry_multiplicity
 _atom_site_fract_x
 _atom_site_fract_y
 _atom_site_fract_z
 _atom_site_occupancy
  Li  Li0  1  0.28256860  0.74908207  0.16925710  1
  Li  Li1  1  0.34541385  0.80177964  0.66439269  1
  Li  Li2  1  0.65458615  0.19822036  0.33560731  1
  Li  Li3  1  0.71743140  0.25091793  0.83074290  1
  Sn  Sn4  1  0.09237243  0.22453148  0.64533033  1
  Sn  Sn5  1  0.60970089  0.24529417  0.12043845  1
  Sn  Sn6  1  0.39029911  0.75470583  0.87956155  1
  Sn  Sn7  1  0.90762757  0.77546852  0.35466967  1
  P  P8  1  0.98950760  0.28797986  0.21015042  1
  P  P9  1  0.27557848  0.25655628  0.04375505  1
  P  P10  1  0.21299433  0.72590988  0.48570780  1
  P  P11  1  0.50611935  0.71198042  0.31399237  1
  P  P12  1  0.49388065  0.28801958  0.68600763  1
  P  P13  1  0.78700567  0.27409012  0.51429220  1
  P  P14  1  0.72442152  0.74344372  0.95624495  1
  P  P15  1  0.01049240  0.71202014  0.78984958  1
  O  O16  1  0.04019348  0.01824300  0.24421633  1
  O  O17  1  0.08134335  0.32258733  0.09682328  1
  O  O18  1  0.04891853  0.50095669  0.26775575  1
  O  O19  1  0.10096271  0.80359807  0.42088833  1
  O  O20  1  0.29950294  0.96959829  0.05235966  1
  O  O21  1  0.20126554  0.44528510  0.52312988  1
  O  O22  1  0.36386293  0.40722377  0.10634658  1
  O  O23  1  0.19156506  0.89063503  0.57681172  1
  O  O24  1  0.18925283  0.68197932  0.77997021  1
  O  O25  1  0.43204479  0.87176140  0.24489771  1
  O  O26  1  0.39790479  0.76968014  0.42834243  1
  O  O27  1  0.50281369  0.42783039  0.30443749  1
  O  O28  1  0.32308481  0.18053536  0.68247605  1
  O  O29  1  0.30193487  0.35939184  0.93822118  1
  O  O30  1  0.69806513  0.64060816  0.06177882  1
  O  O31  1  0.67691519  0.81946464  0.31752395  1
  O  O32  1  0.49718631  0.57216961  0.69556251  1
  O  O33  1  0.60209521  0.23031986  0.57165757  1
  O  O34  1  0.56795521  0.12823860  0.75510229  1
  O  O35  1  0.81074717  0.31802068  0.22002979  1
  O  O36  1  0.80843494  0.10936497  0.42318828  1
  O  O37  1  0.63613707  0.59277623  0.89365342  1
  O  O38  1  0.79873446  0.55471490  0.47687012  1
  O  O39  1  0.70049706  0.03040171  0.94764034  1
  O  O40  1  0.89903729  0.19640193  0.57911167  1
  O  O41  1  0.95108147  0.49904331  0.73224425  1
  O  O42  1  0.91865665  0.67741267  0.90317672  1
  O  O43  1  0.95980652  0.98175700  0.75578367  1
