# generated using pymatgen
data_Li4V3P8O29
_symmetry_space_group_name_H-M   'P 1'
_cell_length_a   9.76575568
_cell_length_b   9.77176513
_cell_length_c   14.14337304
_cell_angle_alpha   90.17565646
_cell_angle_beta   90.50847333
_cell_angle_gamma   60.16056047
_symmetry_Int_Tables_number   1
_chemical_formula_structural   Li4V3P8O29
_chemical_formula_sum   'Li8 V6 P16 O58'
_cell_volume   1170.69901932
_cell_formula_units_Z   2
loop_
 _symmetry_equiv_pos_site_id
 _symmetry_equiv_pos_as_xyz
  1  'x, y, z'
loop_
 _atom_site_type_symbol
 _atom_site_label
 _atom_site_symmetry_multiplicity
 _atom_site_fract_x
 _atom_site_fract_y
 _atom_site_fract_z
 _atom_site_occupancy
  Li  Li0  1  0.91615886  0.77429968  0.05867457  1
  Li  Li1  1  0.77127130  0.32320202  0.05978541  1
  Li  Li2  1  0.31066487  0.91247861  0.06343639  1
  Li  Li3  1  0.66862948  0.23337178  0.43718896  1
  Li  Li4  1  0.33335823  0.76797881  0.55602426  1
  Li  Li5  1  0.68316162  0.08805382  0.94015888  1
  Li  Li6  1  0.09634702  0.67031994  0.44190956  1
  Li  Li7  1  0.98948544  0.04311907  0.49568023  1
  V  V8  1  0.56601768  0.43271336  0.24776715  1
  V  V9  1  0.43194628  0.56555094  0.75504620  1
  V  V10  1  0.56671209  0.99208907  0.74225551  1
  V  V11  1  0.42982998  0.00338080  0.25523759  1
  V  V12  1  0.00099316  0.56107378  0.25355003  1
  V  V13  1  0.99971374  0.43345847  0.74813225  1
  P  P14  1  0.91168300  0.77129910  0.84051468  1
  P  P15  1  0.77910077  0.91568919  0.33977289  1
  P  P16  1  0.91624497  0.30501482  0.34326184  1
  P  P17  1  0.66699338  0.66788588  0.13180886  1
  P  P18  1  0.66505392  0.66182148  0.62958368  1
  P  P19  1  0.77409604  0.31700554  0.83923682  1
  P  P20  1  0.68303833  0.22837180  0.65784038  1
  P  P21  1  0.31931727  0.91282754  0.84491420  1
  P  P22  1  0.67913996  0.08500641  0.15652541  1
  P  P23  1  0.31669827  0.76912064  0.34228024  1
  P  P24  1  0.22670570  0.68343231  0.16073976  1
  P  P25  1  0.33318781  0.33536255  0.37056355  1
  P  P26  1  0.33654643  0.32649724  0.86838107  1
  P  P27  1  0.08752941  0.68743934  0.65845566  1
  P  P28  1  0.21849151  0.08542338  0.66183953  1
  P  P29  1  0.08402248  0.22873371  0.15895627  1
  O  O30  1  0.01427385  0.77004608  0.56800794  1
  O  O31  1  0.92113779  0.74182915  0.33912659  1
  O  O32  1  0.75052824  0.99910021  0.06575298  1
  O  O33  1  0.74252411  0.91775015  0.83410903  1
  O  O34  1  0.90523068  0.61827790  0.81946229  1
  O  O35  1  0.81675972  0.66721516  0.18058761  1
  O  O36  1  0.92025950  0.46252973  0.33076803  1
  O  O37  1  0.98933820  0.24608800  0.07296689  1
  O  O38  1  0.91750404  0.34166225  0.83497907  1
  O  O39  1  0.66897254  0.81113622  0.67507162  1
  O  O40  1  0.62219351  0.91733490  0.33308204  1
  O  O41  1  0.81223818  0.51539927  0.67452965  1
  O  O42  1  0.68271658  0.66743011  0.02693901  1
  O  O43  1  0.66094825  0.67168518  0.52501643  1
  O  O44  1  0.67230816  0.51249306  0.16762139  1
  O  O45  1  0.47795180  0.90449250  0.81998061  1
  O  O46  1  0.51665487  0.81409332  0.17071101  1
  O  O47  1  0.74203746  0.34194534  0.33488777  1
  O  O48  1  0.79372278  0.20773251  0.74870579  1
  O  O49  1  0.76599686  0.21443853  0.56745140  1
  O  O50  1  0.76000766  0.24128722  0.92776111  1
  O  O51  1  0.62107845  0.47849458  0.82177559  1
  O  O52  1  0.51141679  0.67022003  0.66907704  1
  O  O53  1  0.66192874  0.25131129  0.15772555  1
  O  O54  1  0.47260016  0.61613546  0.32954722  1
  O  O55  1  0.34251829  0.91234705  0.33306381  1
  O  O56  1  0.80000039  0.98769287  0.24065125  1
  O  O57  1  0.80046189  0.00659281  0.41834451  1
  O  O58  1  0.20567310  0.99343259  0.58133384  1
  O  O59  1  0.64900563  0.08959999  0.66911075  1
  O  O60  1  0.52910545  0.38557919  0.67274962  1
  O  O61  1  0.34528878  0.74276399  0.83132558  1
  O  O62  1  0.48832433  0.32419201  0.33191379  1
  O  O63  1  0.37953530  0.52263702  0.17811085  1
  O  O64  1  0.23333848  0.77031307  0.07710264  1
  O  O65  1  0.23106697  0.77609575  0.43226924  1
  O  O66  1  0.20125256  0.78627131  0.25578421  1
  O  O67  1  0.25968282  0.65820882  0.66541253  1
  O  O68  1  0.48369596  0.17758622  0.82793516  1
  O  O69  1  0.52036121  0.09537734  0.17892575  1
  O  O70  1  0.34291717  0.47421449  0.82196911  1
  O  O71  1  0.33834256  0.33516070  0.97277140  1
  O  O72  1  0.32098413  0.35533838  0.47531644  1
  O  O73  1  0.18587706  0.49289493  0.32614722  1
  O  O74  1  0.38035477  0.08123413  0.66940538  1
  O  O75  1  0.32167507  0.19515718  0.32803932  1
  O  O76  1  0.08117517  0.65836637  0.16094081  1
  O  O77  1  0.00141470  0.79259390  0.75050649  1
  O  O78  1  0.99007098  0.76573689  0.93162680  1
  O  O79  1  0.08704469  0.53015846  0.67299337  1
  O  O80  1  0.18523775  0.33688247  0.82151043  1
  O  O81  1  0.09398445  0.38129712  0.18128152  1
  O  O82  1  0.25157452  0.08429838  0.16051425  1
  O  O83  1  0.25533640  0.98421469  0.93747151  1
  O  O84  1  0.20035708  0.01221566  0.76031657  1
  O  O85  1  0.08396066  0.25862522  0.66456754  1
  O  O86  1  0.99301115  0.21142615  0.42908009  1
  O  O87  1  0.00001363  0.20468364  0.25023671  1
