# generated using pymatgen
data_Li3V3P8O29
_symmetry_space_group_name_H-M   'P 1'
_cell_length_a   9.78057295
_cell_length_b   9.71697527
_cell_length_c   14.34837231
_cell_angle_alpha   90.08478019
_cell_angle_beta   90.98964724
_cell_angle_gamma   60.20666192
_symmetry_Int_Tables_number   1
_chemical_formula_structural   Li3V3P8O29
_chemical_formula_sum   'Li6 V6 P16 O58'
_cell_volume   1183.17767815
_cell_formula_units_Z   2
loop_
 _symmetry_equiv_pos_site_id
 _symmetry_equiv_pos_as_xyz
  1  'x, y, z'
loop_
 _atom_site_type_symbol
 _atom_site_label
 _atom_site_symmetry_multiplicity
 _atom_site_fract_x
 _atom_site_fract_y
 _atom_site_fract_z
 _atom_site_occupancy
  Li  Li0  1  0.32102728  0.90513627  0.05642822  1
  Li  Li1  1  0.67039045  0.23229672  0.44615199  1
  Li  Li2  1  0.32832704  0.76653280  0.56488734  1
  Li  Li3  1  0.32672301  0.33548785  0.09568910  1
  Li  Li4  1  0.93704491  0.01537858  0.98910557  1
  Li  Li5  1  0.00048923  0.00335211  0.51722410  1
  V  V6  1  0.57093145  0.43495025  0.24659112  1
  V  V7  1  0.43729634  0.55989303  0.75571859  1
  V  V8  1  0.56769547  0.99505798  0.75025120  1
  V  V9  1  0.43369323  0.00289434  0.25364952  1
  V  V10  1  0.99979070  0.56400027  0.25318761  1
  V  V11  1  0.99811582  0.44166781  0.74642686  1
  P  P12  1  0.92023385  0.78106279  0.84107013  1
  P  P13  1  0.78067762  0.91647777  0.33756536  1
  P  P14  1  0.92283491  0.29695339  0.34175960  1
  P  P15  1  0.66432901  0.67227395  0.13186548  1
  P  P16  1  0.65969890  0.66839375  0.63282728  1
  P  P17  1  0.78717415  0.30416183  0.83721460  1
  P  P18  1  0.68616127  0.22427438  0.65840241  1
  P  P19  1  0.31504343  0.91196952  0.84474358  1
  P  P20  1  0.68896531  0.08761438  0.15483977  1
  P  P21  1  0.31753625  0.76982248  0.34494949  1
  P  P22  1  0.21832331  0.69018483  0.16614936  1
  P  P23  1  0.33909874  0.33493725  0.36756993  1
  P  P24  1  0.33415902  0.32821193  0.86500289  1
  P  P25  1  0.08403657  0.70140167  0.65812119  1
  P  P26  1  0.21686931  0.08704417  0.66481465  1
  P  P27  1  0.08524263  0.21972887  0.15758871  1
  O  O28  1  0.01350873  0.80434084  0.57476580  1
  O  O29  1  0.91443452  0.74045502  0.33273657  1
  O  O30  1  0.77746366  0.01821893  0.06937567  1
  O  O31  1  0.74256607  0.91055091  0.82841113  1
  O  O32  1  0.92856903  0.61806808  0.82809527  1
  O  O33  1  0.81539322  0.65881527  0.17995458  1
  O  O34  1  0.92905057  0.45377277  0.32770813  1
  O  O35  1  0.00850908  0.20136434  0.07301427  1
  O  O36  1  0.91564097  0.35202099  0.82883991  1
  O  O37  1  0.66108807  0.81511140  0.67852633  1
  O  O38  1  0.62005849  0.91979874  0.32465185  1
  O  O39  1  0.80996544  0.52368440  0.67777118  1
  O  O40  1  0.65698288  0.67133004  0.02899336  1
  O  O41  1  0.65045291  0.67395065  0.52947495  1
  O  O42  1  0.65638624  0.52661813  0.17730128  1
  O  O43  1  0.47080480  0.91205887  0.82872893  1
  O  O44  1  0.51936840  0.82148655  0.17386995  1
  O  O45  1  0.74472427  0.34153061  0.33148739  1
  O  O46  1  0.80424621  0.20577473  0.74244228  1
  O  O47  1  0.76436285  0.21017651  0.56769797  1
  O  O48  1  0.80588382  0.20550898  0.91944445  1
  O  O49  1  0.62255167  0.45941446  0.82754074  1
  O  O50  1  0.51229955  0.66773857  0.67470177  1
  O  O51  1  0.65020506  0.26411037  0.16887855  1
  O  O52  1  0.47188030  0.61505016  0.32436324  1
  O  O53  1  0.34754324  0.91171326  0.32661115  1
  O  O54  1  0.79926835  0.99592010  0.24406354  1
  O  O55  1  0.79094973  0.00432571  0.41953559  1
  O  O56  1  0.19477514  0.99677800  0.58711456  1
  O  O57  1  0.64855772  0.08824566  0.67117391  1
  O  O58  1  0.53241071  0.38320985  0.67360289  1
  O  O59  1  0.34903470  0.73846260  0.82906932  1
  O  O60  1  0.48929393  0.33129426  0.32776080  1
  O  O61  1  0.37329396  0.52456003  0.17394365  1
  O  O62  1  0.21543536  0.79078073  0.08788131  1
  O  O63  1  0.24969350  0.78065367  0.43783484  1
  O  O64  1  0.19660489  0.78362309  0.26373910  1
  O  O65  1  0.26321060  0.65020148  0.66679872  1
  O  O66  1  0.47839794  0.18157631  0.82354808  1
  O  O67  1  0.52731580  0.09588574  0.16748408  1
  O  O68  1  0.33840634  0.47756704  0.82498906  1
  O  O69  1  0.33414584  0.32932764  0.96887031  1
  O  O70  1  0.34448431  0.32622953  0.47056857  1
  O  O71  1  0.19012600  0.48010631  0.32156277  1
  O  O72  1  0.37992466  0.07546435  0.67124159  1
  O  O73  1  0.33794234  0.18729177  0.31897912  1
  O  O74  1  0.08060816  0.65372928  0.16620915  1
  O  O75  1  0.00503279  0.80186083  0.75084021  1
  O  O76  1  0.98994210  0.80816714  0.92650685  1
  O  O77  1  0.07011297  0.54890086  0.66716105  1
  O  O78  1  0.18527104  0.33647071  0.81932921  1
  O  O79  1  0.09173280  0.37675317  0.17119976  1
  O  O80  1  0.26383916  0.08338625  0.16388168  1
  O  O81  1  0.24102883  0.97324919  0.93602918  1
  O  O82  1  0.19531583  0.01425765  0.76211632  1
  O  O83  1  0.08554209  0.26389993  0.66629804  1
  O  O84  1  0.99282712  0.20210372  0.42740686  1
  O  O85  1  0.00653305  0.19605687  0.25012851  1
