# generated using pymatgen
data_Li3V3P8O29
_symmetry_space_group_name_H-M   'P 1'
_cell_length_a   9.79920168
_cell_length_b   9.74566114
_cell_length_c   14.32842929
_cell_angle_alpha   89.79323695
_cell_angle_beta   90.62142987
_cell_angle_gamma   59.83790241
_symmetry_Int_Tables_number   1
_chemical_formula_structural   Li3V3P8O29
_chemical_formula_sum   'Li6 V6 P16 O58'
_cell_volume   1182.96021534
_cell_formula_units_Z   2
loop_
 _symmetry_equiv_pos_site_id
 _symmetry_equiv_pos_as_xyz
  1  'x, y, z'
loop_
 _atom_site_type_symbol
 _atom_site_label
 _atom_site_symmetry_multiplicity
 _atom_site_fract_x
 _atom_site_fract_y
 _atom_site_fract_z
 _atom_site_occupancy
  Li  Li0  1  0.92117590  0.30038858  0.55387868  1
  Li  Li1  1  0.32718515  0.90337558  0.06074484  1
  Li  Li2  1  0.68445156  0.22481693  0.44022166  1
  Li  Li3  1  0.30218109  0.77850855  0.55759583  1
  Li  Li4  1  0.08599996  0.23124686  0.94707123  1
  Li  Li5  1  0.93887744  0.98278233  0.99688560  1
  V  V6  1  0.56777213  0.43931211  0.24057751  1
  V  V7  1  0.43312986  0.56351148  0.75872015  1
  V  V8  1  0.56771937  0.00192328  0.74770689  1
  V  V9  1  0.43729187  0.00079865  0.25417705  1
  V  V10  1  0.99824317  0.56987534  0.24940550  1
  V  V11  1  0.00148463  0.44097049  0.75021673  1
  P  P12  1  0.91699718  0.78102546  0.83903673  1
  P  P13  1  0.77692621  0.91168741  0.34124889  1
  P  P14  1  0.91128832  0.31625673  0.33879873  1
  P  P15  1  0.66576230  0.67154236  0.12979012  1
  P  P16  1  0.66145484  0.66621606  0.63503199  1
  P  P17  1  0.78420955  0.30348957  0.84084260  1
  P  P18  1  0.68090739  0.23299843  0.65951152  1
  P  P19  1  0.31710763  0.91633938  0.84223472  1
  P  P20  1  0.68948080  0.08274220  0.15940196  1
  P  P21  1  0.32293162  0.76712364  0.34256847  1
  P  P22  1  0.21719724  0.69779569  0.16310446  1
  P  P23  1  0.33728827  0.33699678  0.36660585  1
  P  P24  1  0.33425436  0.32736490  0.86737096  1
  P  P25  1  0.08728952  0.68986379  0.65739795  1
  P  P26  1  0.22591243  0.08936104  0.66078575  1
  P  P27  1  0.08896166  0.22616922  0.16027381  1
  O  O28  1  0.00557960  0.76324693  0.56899213  1
  O  O29  1  0.91751670  0.74007608  0.33498788  1
  O  O30  1  0.78047047  0.00986575  0.07475983  1
  O  O31  1  0.74208612  0.91476944  0.82724697  1
  O  O32  1  0.92104357  0.61878080  0.82678347  1
  O  O33  1  0.81220070  0.67159096  0.17499496  1
  O  O34  1  0.90394771  0.47664712  0.31937448  1
  O  O35  1  0.01505169  0.21838859  0.07049401  1
  O  O36  1  0.91944199  0.34424195  0.83616419  1
  O  O37  1  0.65759679  0.81652099  0.67721912  1
  O  O38  1  0.62303395  0.90284868  0.32286563  1
  O  O39  1  0.81634784  0.51840102  0.67813598  1
  O  O40  1  0.66177829  0.66608964  0.02636843  1
  O  O41  1  0.65975975  0.65960953  0.53175019  1
  O  O42  1  0.67169951  0.51624119  0.17398053  1
  O  O43  1  0.47406146  0.91287094  0.82615163  1
  O  O44  1  0.51226686  0.81488397  0.16993429  1
  O  O45  1  0.74281990  0.33747646  0.33252655  1
  O  O46  1  0.80059797  0.21259228  0.74308825  1
  O  O47  1  0.75024813  0.24599753  0.56955683  1
  O  O48  1  0.80751973  0.19929658  0.92176808  1
  O  O49  1  0.62016830  0.46063764  0.83133544  1
  O  O50  1  0.51823878  0.66105951  0.68007297  1
  O  O51  1  0.64715333  0.25950700  0.17008225  1
  O  O52  1  0.48091232  0.61719093  0.31753985  1
  O  O53  1  0.34696481  0.91235754  0.32906440  1
  O  O54  1  0.79728742  0.99715393  0.25024816  1
  O  O55  1  0.76791343  0.00350830  0.42517767  1
  O  O56  1  0.22864472  0.99482700  0.57951276  1
  O  O57  1  0.65794130  0.08752107  0.66595404  1
  O  O58  1  0.52147670  0.38319886  0.68192345  1
  O  O59  1  0.34438834  0.74502999  0.83424980  1
  O  O60  1  0.48248257  0.34167874  0.32741499  1
  O  O61  1  0.37950497  0.53894447  0.16937694  1
  O  O62  1  0.20311697  0.80344412  0.08373809  1
  O  O63  1  0.26075210  0.75960217  0.43461068  1
  O  O64  1  0.20039445  0.78688277  0.26102476  1
  O  O65  1  0.25920939  0.66075222  0.66666922  1
  O  O66  1  0.48212975  0.18650082  0.82142049  1
  O  O67  1  0.53612357  0.07641222  0.17082160  1
  O  O68  1  0.32884218  0.48165952  0.82586288  1
  O  O69  1  0.32800644  0.32325650  0.97047928  1
  O  O70  1  0.33727738  0.32707569  0.46982003  1
  O  O71  1  0.18393783  0.47814601  0.32106858  1
  O  O72  1  0.37959741  0.09573185  0.67608409  1
  O  O73  1  0.34564857  0.18348440  0.31909417  1
  O  O74  1  0.08236815  0.65931811  0.16586203  1
  O  O75  1  0.00247839  0.79661948  0.74787065  1
  O  O76  1  0.99151137  0.79823107  0.92469377  1
  O  O77  1  0.09530130  0.52681831  0.68077696  1
  O  O78  1  0.18562794  0.32347847  0.82433803  1
  O  O79  1  0.08683183  0.38467150  0.17457549  1
  O  O80  1  0.26135255  0.08309046  0.16576061  1
  O  O81  1  0.23843649  0.99472356  0.93159697  1
  O  O82  1  0.20158708  0.01321664  0.75644668  1
  O  O83  1  0.08025653  0.26072102  0.66043814  1
  O  O84  1  0.98788488  0.24320902  0.42981093  1
  O  O85  1  0.00329325  0.20476581  0.25072155  1
