# generated using pymatgen
data_Ti4SnO10
_symmetry_space_group_name_H-M   'P 1'
_cell_length_a   4.69893246
_cell_length_b   12.98147446
_cell_length_c   5.58382805
_cell_angle_alpha   78.38150817
_cell_angle_beta   89.97332489
_cell_angle_gamma   90.01391126
_symmetry_Int_Tables_number   1
_chemical_formula_structural   Ti4SnO10
_chemical_formula_sum   'Ti8 Sn2 O20'
_cell_volume   333.62930975
_cell_formula_units_Z   2
loop_
 _symmetry_equiv_pos_site_id
 _symmetry_equiv_pos_as_xyz
  1  'x, y, z'
loop_
 _atom_site_type_symbol
 _atom_site_label
 _atom_site_symmetry_multiplicity
 _atom_site_fract_x
 _atom_site_fract_y
 _atom_site_fract_z
 _atom_site_occupancy
  Ti  Ti0  1  0.50168473  0.00338669  0.50969164  1
  Ti  Ti1  1  0.50000000  0.60000000  0.10000000  1
  Ti  Ti2  1  0.49831527  0.19661331  0.69030836  1
  Ti  Ti3  1  0.99523885  0.80012303  0.80074348  1
  Ti  Ti4  1  0.00000000  0.60000000  0.60000000  1
  Ti  Ti5  1  0.00476115  0.39987697  0.39925652  1
  Ti  Ti6  1  0.98242183  0.19828250  0.19699789  1
  Ti  Ti7  1  0.01757817  0.00171750  0.00300211  1
  Sn  Sn8  1  0.49856888  0.39860750  0.90010249  1
  Sn  Sn9  1  0.50143112  0.80139250  0.29989751  1
  O  O10  1  0.81750180  0.86317021  0.05304089  1
  O  O11  1  0.80204418  0.66304771  0.85021136  1
  O  O12  1  0.81811318  0.46065386  0.65600252  1
  O  O13  1  0.80165735  0.26023270  0.45213808  1
  O  O14  1  0.80623255  0.06108691  0.25565747  1
  O  O15  1  0.69889417  0.86631928  0.56657059  1
  O  O16  1  0.69984194  0.65520496  0.35488735  1
  O  O17  1  0.69873721  0.25328091  0.95507548  1
  O  O18  1  0.69423558  0.06179763  0.75398178  1
  O  O19  1  0.69976157  0.46449372  0.16524590  1
  O  O20  1  0.30126279  0.94671909  0.24492452  1
  O  O21  1  0.30110583  0.33368072  0.63342941  1
  O  O22  1  0.30023843  0.73550628  0.03475410  1
  O  O23  1  0.30015806  0.54479504  0.84511265  1
  O  O24  1  0.30576442  0.13820237  0.44601822  1
  O  O25  1  0.19795582  0.53695229  0.34978864  1
  O  O26  1  0.19834265  0.93976730  0.74786192  1
  O  O27  1  0.19376745  0.13891309  0.94434253  1
  O  O28  1  0.18188682  0.73934614  0.54399748  1
  O  O29  1  0.18249820  0.33682979  0.14695911  1
