# generated using pymatgen
data_NaMn3O6
_symmetry_space_group_name_H-M   'P 1'
_cell_length_a   6.00747261
_cell_length_b   6.00747261
_cell_length_c   13.79561482
_cell_angle_alpha   102.49678395
_cell_angle_beta   102.49678395
_cell_angle_gamma   91.11431159
_symmetry_Int_Tables_number   1
_chemical_formula_structural   NaMn3O6
_chemical_formula_sum   'Na4 Mn12 O24'
_cell_volume   473.41969399
_cell_formula_units_Z   4
loop_
 _symmetry_equiv_pos_site_id
 _symmetry_equiv_pos_as_xyz
  1  'x, y, z'
loop_
 _atom_site_type_symbol
 _atom_site_label
 _atom_site_symmetry_multiplicity
 _atom_site_fract_x
 _atom_site_fract_y
 _atom_site_fract_z
 _atom_site_occupancy
  Na  Na0  1  0.87531978  0.62239340  0.24939359  1
  Na  Na1  1  0.45800864  0.71122789  0.41736108  1
  Na  Na2  1  0.12239340  0.37531978  0.74939359  1
  Na  Na3  1  0.21122789  0.95800864  0.91736108  1
  Mn  Mn4  1  0.50941709  0.50550414  0.00524469  1
  Mn  Mn5  1  0.99442673  0.50047409  0.00526093  1
  Mn  Mn6  1  0.32768545  0.32402534  0.16153715  1
  Mn  Mn7  1  0.33279760  0.83916387  0.16140126  1
  Mn  Mn8  1  0.66613581  0.16683474  0.33319197  1
  Mn  Mn9  1  0.16648783  0.16681868  0.33320589  1
  Mn  Mn10  1  0.00550414  0.00941709  0.50524469  1
  Mn  Mn11  1  0.00047409  0.49442673  0.50526093  1
  Mn  Mn12  1  0.33916387  0.83279760  0.66140126  1
  Mn  Mn13  1  0.82402534  0.82768545  0.66153715  1
  Mn  Mn14  1  0.66683474  0.16613581  0.83319197  1
  Mn  Mn15  1  0.66681868  0.66648783  0.83320589  1
  O  O16  1  0.25333659  0.29673168  0.01357125  1
  O  O17  1  0.25946139  0.71787650  0.01417081  1
  O  O18  1  0.53662758  0.58004919  0.15304908  1
  O  O19  1  0.11532035  0.57390176  0.15243025  1
  O  O20  1  0.54049044  0.09098774  0.16595090  1
  O  O21  1  0.12465592  0.07490880  0.16292265  1
  O  O22  1  0.39254114  0.37526365  0.30994538  1
  O  O23  1  0.41257729  0.94099584  0.31085816  1
  O  O24  1  0.92057363  0.39278144  0.35582429  1
  O  O25  1  0.94031058  0.95804017  0.35677117  1
  O  O26  1  0.79283704  0.24260322  0.50082320  1
  O  O27  1  0.20850211  0.25857189  0.50375530  1
  O  O28  1  0.21787650  0.75946139  0.51417081  1
  O  O29  1  0.79673168  0.75333659  0.51357125  1
  O  O30  1  0.08004919  0.03662758  0.65304908  1
  O  O31  1  0.07390176  0.61532035  0.65243025  1
  O  O32  1  0.57490880  0.62465592  0.66292265  1
  O  O33  1  0.59098774  0.04049044  0.66595090  1
  O  O34  1  0.44099584  0.91257729  0.81085816  1
  O  O35  1  0.87526365  0.89254114  0.80994538  1
  O  O36  1  0.45804017  0.44031058  0.85677117  1
  O  O37  1  0.89278144  0.42057363  0.85582429  1
  O  O38  1  0.75857189  0.70850211  0.00375530  1
  O  O39  1  0.74260322  0.29283704  0.00082320  1
