# generated using pymatgen
data_Li3V3P8O29
_symmetry_space_group_name_H-M   'P 1'
_cell_length_a   9.78381581
_cell_length_b   9.75640991
_cell_length_c   14.23165204
_cell_angle_alpha   89.97658318
_cell_angle_beta   90.29213939
_cell_angle_gamma   60.00764987
_symmetry_Int_Tables_number   1
_chemical_formula_structural   Li3V3P8O29
_chemical_formula_sum   'Li6 V6 P16 O58'
_cell_volume   1176.54773006
_cell_formula_units_Z   2
loop_
 _symmetry_equiv_pos_site_id
 _symmetry_equiv_pos_as_xyz
  1  'x, y, z'
loop_
 _atom_site_type_symbol
 _atom_site_label
 _atom_site_symmetry_multiplicity
 _atom_site_fract_x
 _atom_site_fract_y
 _atom_site_fract_z
 _atom_site_occupancy
  Li  Li0  1  0.91620594  0.77624095  0.05591777  1
  Li  Li1  1  0.77754304  0.30806149  0.05620977  1
  Li  Li2  1  0.30743562  0.91569558  0.05787275  1
  Li  Li3  1  0.32777885  0.76933143  0.55918399  1
  Li  Li4  1  0.33310150  0.32909789  0.60599734  1
  Li  Li5  1  0.94909722  0.03072525  0.50654199  1
  V  V6  1  0.56527991  0.43373862  0.25307941  1
  V  V7  1  0.43095664  0.56983625  0.75380966  1
  V  V8  1  0.57476583  0.99424502  0.74975441  1
  V  V9  1  0.43726866  0.00209651  0.25363551  1
  V  V10  1  0.00057400  0.56174766  0.25569845  1
  V  V11  1  0.99585966  0.43190491  0.74691208  1
  P  P12  1  0.91868724  0.76708003  0.84072175  1
  P  P13  1  0.77802217  0.91654486  0.34341993  1
  P  P14  1  0.91781878  0.30363055  0.34403416  1
  P  P15  1  0.66673464  0.66626193  0.13247770  1
  P  P16  1  0.66273217  0.66773172  0.62917520  1
  P  P17  1  0.77118772  0.31536740  0.84055216  1
  P  P18  1  0.68874920  0.22254715  0.65928042  1
  P  P19  1  0.31716736  0.91691466  0.84318754  1
  P  P20  1  0.68563599  0.08601963  0.15896915  1
  P  P21  1  0.31545241  0.77293999  0.34278134  1
  P  P22  1  0.22693908  0.68441442  0.16221622  1
  P  P23  1  0.33465864  0.33357075  0.36928751  1
  P  P24  1  0.33263068  0.33010949  0.86735355  1
  P  P25  1  0.08813847  0.69150514  0.65772503  1
  P  P26  1  0.22294226  0.08758778  0.66084530  1
  P  P27  1  0.08658314  0.22828204  0.15996099  1
  O  O28  1  0.00638002  0.79472778  0.57630883  1
  O  O29  1  0.91176730  0.74164893  0.32977109  1
  O  O30  1  0.76746488  0.99323697  0.07454634  1
  O  O31  1  0.74844620  0.91248379  0.82972604  1
  O  O32  1  0.90818454  0.61725498  0.81664258  1
  O  O33  1  0.81768954  0.66220373  0.17549703  1
  O  O34  1  0.91806131  0.46397002  0.32978211  1
  O  O35  1  0.99407546  0.23812968  0.07502265  1
  O  O36  1  0.91490992  0.34124054  0.82937414  1
  O  O37  1  0.66152113  0.81578566  0.67536487  1
  O  O38  1  0.61761383  0.91804150  0.32865680  1
  O  O39  1  0.81327744  0.52114344  0.67280507  1
  O  O40  1  0.66502194  0.66767582  0.02800726  1
  O  O41  1  0.65592832  0.67411756  0.52520455  1
  O  O42  1  0.66425302  0.51694063  0.17344758  1
  O  O43  1  0.47639056  0.90644564  0.81988999  1
  O  O44  1  0.51988353  0.81748917  0.17541457  1
  O  O45  1  0.74333071  0.34384393  0.32868451  1
  O  O46  1  0.78712655  0.20134718  0.75594803  1
  O  O47  1  0.78794140  0.20476583  0.57741072  1
  O  O48  1  0.76005535  0.25244682  0.93280338  1
  O  O49  1  0.61975378  0.47695817  0.81731503  1
  O  O50  1  0.51323522  0.66751235  0.67034451  1
  O  O51  1  0.65879499  0.25703676  0.16034204  1
  O  O52  1  0.47516611  0.61668870  0.32480526  1
  O  O53  1  0.34495094  0.91377693  0.32815689  1
  O  O54  1  0.79183074  0.00551279  0.25178712  1
  O  O55  1  0.79296487  0.99097070  0.42977426  1
  O  O56  1  0.21291573  0.99266259  0.58229854  1
  O  O57  1  0.65127048  0.08440849  0.66637557  1
  O  O58  1  0.52644874  0.37704899  0.66796857  1
  O  O59  1  0.34194972  0.74609814  0.83027605  1
  O  O60  1  0.48343322  0.33192864  0.32663059  1
  O  O61  1  0.38122950  0.52371746  0.17985790  1
  O  O62  1  0.23610530  0.77174982  0.07967731  1
  O  O63  1  0.24561702  0.77524172  0.43516231  1
  O  O64  1  0.20139806  0.78623583  0.25809098  1
  O  O65  1  0.26494824  0.65436694  0.66205131  1
  O  O66  1  0.47588081  0.18146899  0.82186272  1
  O  O67  1  0.52474477  0.09418612  0.17858272  1
  O  O68  1  0.34166597  0.47559819  0.82101118  1
  O  O69  1  0.33164164  0.33486674  0.97103625  1
  O  O70  1  0.33520736  0.33414511  0.47369985  1
  O  O71  1  0.18653837  0.48313111  0.32670606  1
  O  O72  1  0.37546290  0.09899631  0.66737388  1
  O  O73  1  0.33234606  0.18627516  0.32625425  1
  O  O74  1  0.08307237  0.65833683  0.16210707  1
  O  O75  1  0.01653441  0.78432898  0.75630316  1
  O  O76  1  0.99182178  0.75855103  0.93320323  1
  O  O77  1  0.09723646  0.52755341  0.66619222  1
  O  O78  1  0.18181385  0.34101401  0.81960393  1
  O  O79  1  0.09279446  0.38221993  0.18005750  1
  O  O80  1  0.25782356  0.08511620  0.16144127  1
  O  O81  1  0.25158975  0.98786789  0.93536550  1
  O  O82  1  0.20029082  0.01688730  0.75934166  1
  O  O83  1  0.08262548  0.26173708  0.66235920  1
  O  O84  1  0.98996186  0.21453912  0.43109509  1
  O  O85  1  0.00663287  0.20174475  0.25232077  1
