# generated using pymatgen
data_VF3
_symmetry_space_group_name_H-M   'P 1'
_cell_length_a   4.87477830
_cell_length_b   4.86509638
_cell_length_c   9.03137076
_cell_angle_alpha   89.91399934
_cell_angle_beta   90.87949896
_cell_angle_gamma   89.93503673
_symmetry_Int_Tables_number   1
_chemical_formula_structural   VF3
_chemical_formula_sum   'V4 F12'
_cell_volume   214.16477527
_cell_formula_units_Z   4
loop_
 _symmetry_equiv_pos_site_id
 _symmetry_equiv_pos_as_xyz
  1  'x, y, z'
loop_
 _atom_site_type_symbol
 _atom_site_label
 _atom_site_symmetry_multiplicity
 _atom_site_fract_x
 _atom_site_fract_y
 _atom_site_fract_z
 _atom_site_occupancy
  V  V0  1  0.00293801  0.99840217  0.32780067  1
  V  V1  1  0.99751937  0.00087657  0.67173243  1
  V  V2  1  0.49725786  0.49922096  0.17182458  1
  V  V3  1  0.50192123  0.50057418  0.82792123  1
  F  F4  1  0.18252927  0.81720440  0.49633730  1
  F  F5  1  0.21306997  0.78727817  0.82032376  1
  F  F6  1  0.21672774  0.78442702  0.17710636  1
  F  F7  1  0.28585791  0.28520877  0.68014465  1
  F  F8  1  0.28295013  0.28441022  0.32238612  1
  F  F9  1  0.31826667  0.31769969  0.00246818  1
  F  F10  1  0.68010234  0.68205560  0.99750487  1
  F  F11  1  0.71408958  0.71458408  0.32110499  1
  F  F12  1  0.71896304  0.71553480  0.67835596  1
  F  F13  1  0.78632021  0.21443120  0.17863955  1
  F  F14  1  0.78148810  0.21619488  0.82308399  1
  F  F15  1  0.82008656  0.18180828  0.50326537  1
