# generated using pymatgen
data_Li4V3P8O29
_symmetry_space_group_name_H-M   'P 1'
_cell_length_a   9.80241061
_cell_length_b   9.76314739
_cell_length_c   14.10619902
_cell_angle_alpha   90.01206947
_cell_angle_beta   89.97120064
_cell_angle_gamma   60.12235900
_symmetry_Int_Tables_number   1
_chemical_formula_structural   Li4V3P8O29
_chemical_formula_sum   'Li8 V6 P16 O58'
_cell_volume   1170.57005868
_cell_formula_units_Z   2
loop_
 _symmetry_equiv_pos_site_id
 _symmetry_equiv_pos_as_xyz
  1  'x, y, z'
loop_
 _atom_site_type_symbol
 _atom_site_label
 _atom_site_symmetry_multiplicity
 _atom_site_fract_x
 _atom_site_fract_y
 _atom_site_fract_z
 _atom_site_occupancy
  Li  Li0  1  0.91250736  0.77594976  0.05687883  1
  Li  Li1  1  0.77261337  0.91291551  0.56115567  1
  Li  Li2  1  0.91202618  0.31187383  0.55691550  1
  Li  Li3  1  0.77207848  0.31463417  0.06131819  1
  Li  Li4  1  0.32424472  0.90364807  0.05785345  1
  Li  Li5  1  0.32394233  0.77244466  0.55780417  1
  Li  Li6  1  0.09102782  0.68397677  0.44023265  1
  Li  Li7  1  0.09096660  0.22519592  0.94037137  1
  V  V8  1  0.56568452  0.43127994  0.25182992  1
  V  V9  1  0.43405751  0.56606738  0.75260740  1
  V  V10  1  0.56574116  0.00279759  0.75167012  1
  V  V11  1  0.43389583  0.00014865  0.25286949  1
  V  V12  1  0.99941370  0.56872431  0.24908340  1
  V  V13  1  0.99954283  0.43178772  0.74945419  1
  P  P14  1  0.91115894  0.76937291  0.84013471  1
  P  P15  1  0.76793588  0.91407703  0.34484892  1
  P  P16  1  0.91114831  0.31960873  0.34042866  1
  P  P17  1  0.66500874  0.66762063  0.12883216  1
  P  P18  1  0.66511625  0.66709411  0.62857596  1
  P  P19  1  0.76778893  0.31790134  0.84485653  1
  P  P20  1  0.68449519  0.23025274  0.66068797  1
  P  P21  1  0.31853504  0.91235241  0.84124493  1
  P  P22  1  0.68428183  0.08518551  0.16076511  1
  P  P23  1  0.31836687  0.76925127  0.34117821  1
  P  P24  1  0.23128278  0.68331745  0.15822839  1
  P  P25  1  0.33259298  0.33477849  0.37075992  1
  P  P26  1  0.33263150  0.33290785  0.87053668  1
  P  P27  1  0.09085378  0.67947748  0.65963081  1
  P  P28  1  0.23105334  0.08550313  0.65835709  1
  P  P29  1  0.09067126  0.22978089  0.15975757  1
  O  O30  1  0.00335361  0.75997192  0.57054556  1
  O  O31  1  0.91702503  0.74876123  0.33845564  1
  O  O32  1  0.77160194  0.99151730  0.07649935  1
  O  O33  1  0.74278376  0.91424599  0.82937471  1
  O  O34  1  0.90308904  0.61669573  0.82049134  1
  O  O35  1  0.81227032  0.67291402  0.16717757  1
  O  O36  1  0.90303837  0.48039365  0.32083627  1
  O  O37  1  0.00295546  0.23698815  0.07070027  1
  O  O38  1  0.91699336  0.33400771  0.83869174  1
  O  O39  1  0.66853999  0.81675176  0.67020103  1
  O  O40  1  0.61816579  0.90116723  0.32130469  1
  O  O41  1  0.81226303  0.51473705  0.66667253  1
  O  O42  1  0.65663142  0.66945135  0.02337779  1
  O  O43  1  0.65551646  0.67435200  0.52315215  1
  O  O44  1  0.66857508  0.51447787  0.17024067  1
  O  O45  1  0.47933621  0.90330448  0.82231244  1
  O  O46  1  0.51256415  0.81649505  0.17190314  1
  O  O47  1  0.74271838  0.34305320  0.32923856  1
  O  O48  1  0.78425329  0.20561498  0.75713330  1
  O  O49  1  0.77169927  0.23649999  0.57660618  1
  O  O50  1  0.75291599  0.25307216  0.93659432  1
  O  O51  1  0.61825548  0.48060782  0.82119489  1
  O  O52  1  0.51263821  0.67075786  0.67187242  1
  O  O53  1  0.66023687  0.25533195  0.16042938  1
  O  O54  1  0.47923871  0.61742113  0.32239750  1
  O  O55  1  0.34090734  0.91404180  0.33485803  1
  O  O56  1  0.78430700  0.00984007  0.25703832  1
  O  O57  1  0.75352753  0.99357090  0.43649946  1
  O  O58  1  0.23973372  0.99035686  0.57483734  1
  O  O59  1  0.66042139  0.08405073  0.66039268  1
  O  O60  1  0.52385771  0.38293050  0.67752829  1
  O  O61  1  0.34113345  0.74501573  0.83493245  1
  O  O62  1  0.48116987  0.33489395  0.32365435  1
  O  O63  1  0.38238156  0.52269521  0.17696932  1
  O  O64  1  0.24048971  0.76964495  0.07473943  1
  O  O65  1  0.24587626  0.75665634  0.43211770  1
  O  O66  1  0.20546658  0.78585826  0.25490923  1
  O  O67  1  0.25688062  0.66369804  0.66137790  1
  O  O68  1  0.48103587  0.18392664  0.82340217  1
  O  O69  1  0.52378595  0.09317875  0.17766820  1
  O  O70  1  0.33468972  0.48020924  0.82441246  1
  O  O71  1  0.34134489  0.32850615  0.97530766  1
  O  O72  1  0.34094187  0.33077996  0.47546500  1
  O  O73  1  0.18428561  0.48784468  0.33301324  1
  O  O74  1  0.38235351  0.09477407  0.67683904  1
  O  O75  1  0.33471813  0.18525084  0.32467470  1
  O  O76  1  0.08498084  0.66108476  0.15895422  1
  O  O77  1  0.00297633  0.78924083  0.75070413  1
  O  O78  1  0.98730706  0.76477182  0.93136436  1
  O  O79  1  0.10443977  0.51863038  0.67710956  1
  O  O80  1  0.18425967  0.32795314  0.83328659  1
  O  O81  1  0.10402716  0.37729284  0.17693652  1
  O  O82  1  0.25687796  0.07979420  0.16130880  1
  O  O83  1  0.24621875  0.99755503  0.93221483  1
  O  O84  1  0.20554293  0.00867726  0.75502252  1
  O  O85  1  0.08485050  0.25426397  0.65943598  1
  O  O86  1  0.98658499  0.24756376  0.43140159  1
  O  O87  1  0.00336150  0.20780352  0.25093545  1
