# generated using pymatgen
data_Co3(P2O7)2
_symmetry_space_group_name_H-M   'P 1'
_cell_length_a   6.38685479
_cell_length_b   8.41795892
_cell_length_c   10.02048191
_cell_angle_alpha   107.90580557
_cell_angle_beta   91.52843203
_cell_angle_gamma   92.17151708
_symmetry_Int_Tables_number   1
_chemical_formula_structural   Co3(P2O7)2
_chemical_formula_sum   'Co6 P8 O28'
_cell_volume   511.86464378
_cell_formula_units_Z   2
loop_
 _symmetry_equiv_pos_site_id
 _symmetry_equiv_pos_as_xyz
  1  'x, y, z'
loop_
 _atom_site_type_symbol
 _atom_site_label
 _atom_site_symmetry_multiplicity
 _atom_site_fract_x
 _atom_site_fract_y
 _atom_site_fract_z
 _atom_site_occupancy
  Co  Co0  1  0.00000000  0.50000000  0.50000000  1
  Co  Co1  1  0.28532172  0.89717846  0.62083381  1
  Co  Co2  1  0.34788458  0.87889881  0.06283063  1
  Co  Co3  1  0.50000000  0.50000000  0.00000000  1
  Co  Co4  1  0.65211542  0.12110119  0.93716937  1
  Co  Co5  1  0.71467828  0.10282154  0.37916619  1
  P  P6  1  0.16157230  0.20295170  0.01034053  1
  P  P7  1  0.18158346  0.18439283  0.30877731  1
  P  P8  1  0.27266871  0.55176295  0.72331498  1
  P  P9  1  0.47768919  0.74891989  0.31777919  1
  P  P10  1  0.52231081  0.25108011  0.68222081  1
  P  P11  1  0.72733129  0.44823705  0.27668502  1
  P  P12  1  0.81841654  0.81560717  0.69122269  1
  P  P13  1  0.83842770  0.79704830  0.98965947  1
  O  O14  1  0.03829461  0.84975471  0.07684814  1
  O  O15  1  0.00680024  0.08420264  0.35368551  1
  O  O16  1  0.05831245  0.45603832  0.67578164  1
  O  O17  1  0.09536726  0.21705480  0.16737225  1
  O  O18  1  0.25257550  0.37638963  0.01367612  1
  O  O19  1  0.21670016  0.35808815  0.41715694  1
  O  O20  1  0.28116146  0.67685550  0.63957648  1
  O  O21  1  0.30478747  0.80953248  0.41923900  1
  O  O22  1  0.32803122  0.62580334  0.88033167  1
  O  O23  1  0.33253285  0.12437690  0.65076181  1
  O  O24  1  0.33464236  0.07376379  0.97019428  1
  O  O25  1  0.40673569  0.70405372  0.16189085  1
  O  O26  1  0.38216038  0.08889606  0.27492825  1
  O  O27  1  0.45190118  0.42197245  0.66229898  1
  O  O28  1  0.54809882  0.57802755  0.33770102  1
  O  O29  1  0.61783962  0.91110394  0.72507175  1
  O  O30  1  0.59326431  0.29594628  0.83810915  1
  O  O31  1  0.66535764  0.92623621  0.02980572  1
  O  O32  1  0.66746715  0.87562310  0.34923819  1
  O  O33  1  0.67196878  0.37419666  0.11966833  1
  O  O34  1  0.69521253  0.19046752  0.58076100  1
  O  O35  1  0.71883854  0.32314450  0.36042352  1
  O  O36  1  0.78329984  0.64191185  0.58284306  1
  O  O37  1  0.74742450  0.62361037  0.98632388  1
  O  O38  1  0.90463274  0.78294520  0.83262775  1
  O  O39  1  0.94168755  0.54396168  0.32421836  1
  O  O40  1  0.99319976  0.91579736  0.64631449  1
  O  O41  1  0.96170539  0.15024529  0.92315186  1
