# generated using pymatgen
data_P4WO13
_symmetry_space_group_name_H-M   'P 1'
_cell_length_a   7.11059546
_cell_length_b   8.32642067
_cell_length_c   17.48517277
_cell_angle_alpha   90.00000000
_cell_angle_beta   90.00000000
_cell_angle_gamma   90.00000000
_symmetry_Int_Tables_number   1
_chemical_formula_structural   P4WO13
_chemical_formula_sum   'P16 W4 O52'
_cell_volume   1035.22379960
_cell_formula_units_Z   4
loop_
 _symmetry_equiv_pos_site_id
 _symmetry_equiv_pos_as_xyz
  1  'x, y, z'
loop_
 _atom_site_type_symbol
 _atom_site_label
 _atom_site_symmetry_multiplicity
 _atom_site_fract_x
 _atom_site_fract_y
 _atom_site_fract_z
 _atom_site_occupancy
  P  P0  1  0.06964271  0.31973850  0.42168967  1
  P  P1  1  0.08588307  0.90095623  0.92468565  1
  P  P2  1  0.10010514  0.35132281  0.16837428  1
  P  P3  1  0.10162898  0.90201569  0.66103052  1
  P  P4  1  0.39837102  0.09798431  0.16103052  1
  P  P5  1  0.39989486  0.64867719  0.66837428  1
  P  P6  1  0.41411693  0.09904377  0.42468565  1
  P  P7  1  0.43035729  0.68026150  0.92168967  1
  P  P8  1  0.56964271  0.18026150  0.57831033  1
  P  P9  1  0.58588307  0.59904377  0.07531435  1
  P  P10  1  0.60010514  0.14867719  0.83162572  1
  P  P11  1  0.60162898  0.59798431  0.33896948  1
  P  P12  1  0.89837102  0.40201569  0.83896948  1
  P  P13  1  0.89989486  0.85132281  0.33162572  1
  P  P14  1  0.91411693  0.40095623  0.57531435  1
  P  P15  1  0.93035729  0.81973850  0.07831033  1
  W  W16  1  0.23295766  0.27559936  0.71440932  1
  W  W17  1  0.26704234  0.72440064  0.21440932  1
  W  W18  1  0.73295766  0.22440064  0.28559068  1
  W  W19  1  0.76704234  0.77559936  0.78559068  1
  O  O20  1  0.99255718  0.28907321  0.50709957  1
  O  O21  1  0.03033316  0.33273000  0.64542772  1
  O  O22  1  0.07459712  0.79787141  0.28179722  1
  O  O23  1  0.08238028  0.33106991  0.80103220  1
  O  O24  1  0.07118319  0.37007134  0.08651906  1
  O  O25  1  0.10658546  0.76967769  0.12709267  1
  O  O26  1  0.08028087  0.07453030  0.93308299  1
  O  O27  1  0.10755190  0.92821990  0.57890267  1
  O  O28  1  0.13789829  0.05741894  0.71202210  1
  O  O29  1  0.17002774  0.50731362  0.21256753  1
  O  O30  1  0.15320777  0.47516103  0.40374172  1
  O  O31  1  0.20536322  0.16714056  0.41061098  1
  O  O32  1  0.24750451  0.21962917  0.19862092  1
  O  O33  1  0.25249549  0.78037083  0.69862092  1
  O  O34  1  0.29463678  0.83285944  0.91061098  1
  O  O35  1  0.34679223  0.52483897  0.90374172  1
  O  O36  1  0.32997226  0.49268638  0.71256753  1
  O  O37  1  0.36210171  0.94258106  0.21202210  1
  O  O38  1  0.39244810  0.07178010  0.07890267  1
  O  O39  1  0.41971913  0.92546970  0.43308299  1
  O  O40  1  0.39341454  0.23032231  0.62709267  1
  O  O41  1  0.42881681  0.62992866  0.58651906  1
  O  O42  1  0.41761972  0.66893009  0.30103220  1
  O  O43  1  0.42540288  0.20212859  0.78179722  1
  O  O44  1  0.46966684  0.66727000  0.14542772  1
  O  O45  1  0.50744282  0.71092679  0.00709957  1
  O  O46  1  0.49255718  0.21092679  0.49290043  1
  O  O47  1  0.53033316  0.16727000  0.35457228  1
  O  O48  1  0.57459712  0.70212859  0.71820278  1
  O  O49  1  0.58238028  0.16893009  0.19896780  1
  O  O50  1  0.57118319  0.12992866  0.91348094  1
  O  O51  1  0.60658546  0.73032231  0.87290733  1
  O  O52  1  0.58028087  0.42546970  0.06691701  1
  O  O53  1  0.60755190  0.57178010  0.42109733  1
  O  O54  1  0.63789829  0.44258106  0.28797790  1
  O  O55  1  0.67002774  0.99268638  0.78743247  1
  O  O56  1  0.65320777  0.02483897  0.59625828  1
  O  O57  1  0.70536322  0.33285944  0.58938902  1
  O  O58  1  0.74750451  0.28037083  0.80137908  1
  O  O59  1  0.75249549  0.71962917  0.30137908  1
  O  O60  1  0.79463678  0.66714056  0.08938902  1
  O  O61  1  0.84679223  0.97516103  0.09625828  1
  O  O62  1  0.82997226  0.00731362  0.28743247  1
  O  O63  1  0.86210171  0.55741894  0.78797790  1
  O  O64  1  0.89244810  0.42821990  0.92109733  1
  O  O65  1  0.91971913  0.57453030  0.56691701  1
  O  O66  1  0.89341454  0.26967769  0.37290733  1
  O  O67  1  0.92881681  0.87007134  0.41348094  1
  O  O68  1  0.91761972  0.83106991  0.69896780  1
  O  O69  1  0.92540288  0.29787141  0.21820278  1
  O  O70  1  0.96966684  0.83273000  0.85457228  1
  O  O71  1  0.00744282  0.78907321  0.99290043  1
