# generated using pymatgen
data_LiVF6
_symmetry_space_group_name_H-M   'P 1'
_cell_length_a   5.44177221
_cell_length_b   5.60899532
_cell_length_c   4.84199506
_cell_angle_alpha   106.30706526
_cell_angle_beta   90.01064772
_cell_angle_gamma   119.02173671
_symmetry_Int_Tables_number   1
_chemical_formula_structural   LiVF6
_chemical_formula_sum   'Li1 V1 F6'
_cell_volume   122.38599065
_cell_formula_units_Z   1
loop_
 _symmetry_equiv_pos_site_id
 _symmetry_equiv_pos_as_xyz
  1  'x, y, z'
loop_
 _atom_site_type_symbol
 _atom_site_label
 _atom_site_symmetry_multiplicity
 _atom_site_fract_x
 _atom_site_fract_y
 _atom_site_fract_z
 _atom_site_occupancy
  Li  Li0  1  0.63030374  0.26069190  0.62431833  1
  V  V1  1  0.00321250  0.00649101  0.01003691  1
  F  F2  1  0.17166328  0.86770782  0.17922197  1
  F  F3  1  0.16773825  0.33416729  0.30489676  1
  F  F4  1  0.30736856  0.14812237  0.81590911  1
  F  F5  1  0.69614594  0.86877513  0.17954133  1
  F  F6  1  0.83208030  0.66540967  0.70164744  1
  F  F7  1  0.84153944  0.14919981  0.81636114  1
