# generated using pymatgen
data_NiH6C2(SN2)2
_symmetry_space_group_name_H-M   'P 1'
_cell_length_a   5.66507484
_cell_length_b   5.81298645
_cell_length_c   5.81298685
_cell_angle_alpha   83.93560339
_cell_angle_beta   83.08270272
_cell_angle_gamma   83.08269834
_symmetry_Int_Tables_number   1
_chemical_formula_structural   NiH6C2(SN2)2
_chemical_formula_sum   'Ni1 H6 C2 S2 N4'
_cell_volume   187.84233727
_cell_formula_units_Z   1
loop_
 _symmetry_equiv_pos_site_id
 _symmetry_equiv_pos_as_xyz
  1  'x, y, z'
loop_
 _atom_site_type_symbol
 _atom_site_label
 _atom_site_symmetry_multiplicity
 _atom_site_fract_x
 _atom_site_fract_y
 _atom_site_fract_z
 _atom_site_occupancy
  Ni  Ni0  1  0.99898209  0.00013452  0.00013452  1
  H  H1  1  0.15988863  0.64807739  0.23830383  1
  H  H2  1  0.15988863  0.23830383  0.64807739  1
  H  H3  1  0.86456354  0.24273060  0.64914893  1
  H  H4  1  0.86456354  0.64914893  0.24273060  1
  H  H5  1  0.97261477  0.41074447  0.81574437  1
  H  H6  1  0.97261477  0.81574437  0.41074447  1
  C  C7  1  0.39198409  0.19518103  0.19518103  1
  C  C8  1  0.60933422  0.80331674  0.80331674  1
  S  S9  1  0.37272319  0.72367043  0.72367043  1
  S  S10  1  0.62921271  0.27707811  0.27707811  1
  N  N11  1  0.99887887  0.25151160  0.75050172  1
  N  N12  1  0.21651033  0.13698195  0.13698195  1
  N  N13  1  0.79136175  0.85687430  0.85687430  1
  N  N14  1  0.99887887  0.75050172  0.25151160  1
