# generated using pymatgen
data_Li4Ti2Ni3Sn3O16
_symmetry_space_group_name_H-M   'P 1'
_cell_length_a   6.01572369
_cell_length_b   6.10006917
_cell_length_c   9.63158846
_cell_angle_alpha   90.00391131
_cell_angle_beta   88.16206283
_cell_angle_gamma   120.46387876
_symmetry_Int_Tables_number   1
_chemical_formula_structural   Li4Ti2Ni3Sn3O16
_chemical_formula_sum   'Li4 Ti2 Ni3 Sn3 O16'
_cell_volume   304.44013038
_cell_formula_units_Z   1
loop_
 _symmetry_equiv_pos_site_id
 _symmetry_equiv_pos_as_xyz
  1  'x, y, z'
loop_
 _atom_site_type_symbol
 _atom_site_label
 _atom_site_symmetry_multiplicity
 _atom_site_fract_x
 _atom_site_fract_y
 _atom_site_fract_z
 _atom_site_occupancy
  Li  Li0  1  0.35455124  0.67736629  0.89074553  1
  Li  Li1  1  0.95920922  0.97969314  0.98941507  1
  Li  Li2  1  0.97517426  0.98755729  0.50056369  1
  Li  Li3  1  0.66630152  0.33306272  0.40268011  1
  Ti  Ti4  1  0.35307589  0.67645053  0.49417714  1
  Ti  Ti5  1  0.71628661  0.35820407  0.98608443  1
  Ni  Ni6  1  0.65832265  0.82917478  0.21659684  1
  Ni  Ni7  1  0.83562798  0.65947400  0.71435184  1
  Ni  Ni8  1  0.83566765  0.17623742  0.71434759  1
  Sn  Sn9  1  0.17184339  0.83241863  0.21366450  1
  Sn  Sn10  1  0.17185941  0.33944888  0.21364028  1
  Sn  Sn11  1  0.33956296  0.16977991  0.71484679  1
  O  O12  1  0.15358098  0.82936892  0.59743884  1
  O  O13  1  0.02455263  0.51227561  0.34253910  1
  O  O14  1  0.34704297  0.67353997  0.09822203  1
  O  O15  1  0.98782807  0.99394287  0.31342459  1
  O  O16  1  0.97123231  0.98572870  0.80201050  1
  O  O17  1  0.15356086  0.32417462  0.59741113  1
  O  O18  1  0.47101536  0.95879054  0.35308907  1
  O  O19  1  0.47102644  0.51212943  0.35306616  1
  O  O20  1  0.32791706  0.16395890  0.08636216  1
  O  O21  1  0.63864693  0.81916045  0.59133701  1
  O  O22  1  0.53740756  0.49073664  0.83913410  1
  O  O23  1  0.53747525  0.04678192  0.83913217  1
  O  O24  1  0.69645829  0.34816678  0.61148825  1
  O  O25  1  0.83514847  0.65877602  0.09123333  1
  O  O26  1  0.97445942  0.48735456  0.84960734  1
  O  O27  1  0.83516362  0.17654841  0.09123242  1
