# generated using pymatgen
data_Li4MnFe2(BO3)4
_symmetry_space_group_name_H-M   'P 1'
_cell_length_a   5.29164720
_cell_length_b   9.00665469
_cell_length_c   9.95652441
_cell_angle_alpha   90.00000000
_cell_angle_beta   90.89697847
_cell_angle_gamma   90.00000000
_symmetry_Int_Tables_number   1
_chemical_formula_structural   Li4MnFe2(BO3)4
_chemical_formula_sum   'Li8 Mn2 Fe4 B8 O24'
_cell_volume   474.47019397
_cell_formula_units_Z   2
loop_
 _symmetry_equiv_pos_site_id
 _symmetry_equiv_pos_as_xyz
  1  'x, y, z'
loop_
 _atom_site_type_symbol
 _atom_site_label
 _atom_site_symmetry_multiplicity
 _atom_site_fract_x
 _atom_site_fract_y
 _atom_site_fract_z
 _atom_site_occupancy
  Li  Li0  1  0.16804126  0.64468295  0.60235829  1
  Li  Li1  1  0.15834665  0.98529002  0.08702743  1
  Li  Li2  1  0.35084717  0.15837165  0.88775777  1
  Li  Li3  1  0.34617127  0.47940642  0.83689784  1
  Li  Li4  1  0.65834665  0.51470998  0.58702743  1
  Li  Li5  1  0.66804126  0.85531705  0.10235829  1
  Li  Li6  1  0.85084717  0.34162835  0.38775777  1
  Li  Li7  1  0.84617127  0.02059358  0.33689784  1
  Mn  Mn8  1  0.14555995  0.97222290  0.66874850  1
  Mn  Mn9  1  0.64555995  0.52777710  0.16874850  1
  Fe  Fe10  1  0.15184132  0.31450623  0.12616566  1
  Fe  Fe11  1  0.35007249  0.82358738  0.36905678  1
  Fe  Fe12  1  0.65184132  0.18549377  0.62616566  1
  Fe  Fe13  1  0.85007249  0.67641262  0.86905678  1
  B  B14  1  0.16822324  0.33047175  0.62346436  1
  B  B15  1  0.15617075  0.66564437  0.12827208  1
  B  B16  1  0.34006482  0.81709484  0.88065639  1
  B  B17  1  0.34128199  0.16004333  0.37212632  1
  B  B18  1  0.65617075  0.83435563  0.62827208  1
  B  B19  1  0.66822324  0.16952825  0.12346436  1
  B  B20  1  0.84128199  0.33995667  0.87212632  1
  B  B21  1  0.84006482  0.68290516  0.38065639  1
  O  O22  1  0.08950966  0.32502666  0.92000056  1
  O  O23  1  0.09526491  0.68461789  0.41043636  1
  O  O24  1  0.21198475  0.95045651  0.87529912  1
  O  O25  1  0.21344734  0.68350815  0.85523141  1
  O  O26  1  0.20086823  0.27753862  0.32034562  1
  O  O27  1  0.21976146  0.02105192  0.37382639  1
  O  O28  1  0.27694119  0.18845343  0.64603314  1
  O  O29  1  0.26340091  0.52403713  0.13164176  1
  O  O30  1  0.30287255  0.78848124  0.16379871  1
  O  O31  1  0.31698284  0.45231860  0.63870178  1
  O  O32  1  0.40413969  0.81883685  0.58913652  1
  O  O33  1  0.41099155  0.16237434  0.08874320  1
  O  O34  1  0.59526491  0.81538211  0.91043636  1
  O  O35  1  0.58950966  0.17497334  0.42000056  1
  O  O36  1  0.70086823  0.22246138  0.82034562  1
  O  O37  1  0.71198475  0.54954349  0.37529912  1
  O  O38  1  0.71976146  0.47894808  0.87382639  1
  O  O39  1  0.71344734  0.81649185  0.35523141  1
  O  O40  1  0.76340091  0.97596287  0.63164176  1
  O  O41  1  0.77694119  0.31154657  0.14603314  1
  O  O42  1  0.80287255  0.71151876  0.66379871  1
  O  O43  1  0.81698284  0.04768140  0.13870178  1
  O  O44  1  0.91099155  0.33762566  0.58874320  1
  O  O45  1  0.90413969  0.68116315  0.08913652  1
