# generated using pymatgen
data_Li3FePCO7
_symmetry_space_group_name_H-M   'P 1'
_cell_length_a   8.60206010
_cell_length_b   4.88576588
_cell_length_c   6.47178658
_cell_angle_alpha   90.00000000
_cell_angle_beta   90.00000000
_cell_angle_gamma   85.29929458
_symmetry_Int_Tables_number   1
_chemical_formula_structural   Li3FePCO7
_chemical_formula_sum   'Li6 Fe2 P2 C2 O14'
_cell_volume   271.07910744
_cell_formula_units_Z   2
loop_
 _symmetry_equiv_pos_site_id
 _symmetry_equiv_pos_as_xyz
  1  'x, y, z'
loop_
 _atom_site_type_symbol
 _atom_site_label
 _atom_site_symmetry_multiplicity
 _atom_site_fract_x
 _atom_site_fract_y
 _atom_site_fract_z
 _atom_site_occupancy
  Li  Li0  1  0.10605719  0.77689853  0.26447072  1
  Li  Li1  1  0.29017215  0.23573953  0.48473306  1
  Li  Li2  1  0.35839628  0.77850286  0.73829275  1
  Li  Li3  1  0.64160372  0.22149714  0.23829275  1
  Li  Li4  1  0.70982785  0.76426047  0.98473306  1
  Li  Li5  1  0.89394281  0.22310147  0.76447072  1
  Fe  Fe6  1  0.26185339  0.25154086  0.99573569  1
  Fe  Fe7  1  0.73814661  0.74845914  0.49573569  1
  P  P8  1  0.40722518  0.72145197  0.24801377  1
  P  P9  1  0.59277482  0.27854803  0.74801377  1
  C  C10  1  0.04221894  0.70274533  0.76209185  1
  C  C11  1  0.95778106  0.29725467  0.26209185  1
  O  O12  1  0.06904431  0.95643473  0.76047980  1
  O  O13  1  0.10154702  0.37067064  0.24466083  1
  O  O14  1  0.15550636  0.50979063  0.77665999  1
  O  O15  1  0.31176969  0.83864767  0.05704043  1
  O  O16  1  0.30920784  0.82317181  0.43723208  1
  O  O17  1  0.42530861  0.18345229  0.74555804  1
  O  O18  1  0.41748634  0.40074101  0.23503300  1
  O  O19  1  0.58251366  0.59925899  0.73503300  1
  O  O20  1  0.57469139  0.81654771  0.24555804  1
  O  O21  1  0.69079216  0.17682819  0.93723208  1
  O  O22  1  0.68823031  0.16135233  0.55704043  1
  O  O23  1  0.84449364  0.49020937  0.27665999  1
  O  O24  1  0.89845298  0.62932936  0.74466083  1
  O  O25  1  0.93095569  0.04356527  0.26047980  1
