# generated using pymatgen
data_Li2ScPCO7
_symmetry_space_group_name_H-M   'P 1'
_cell_length_a   8.60386612
_cell_length_b   6.57745248
_cell_length_c   5.02280047
_cell_angle_alpha   90.00000000
_cell_angle_beta   89.04764481
_cell_angle_gamma   90.00000000
_symmetry_Int_Tables_number   1
_chemical_formula_structural   Li2ScPCO7
_chemical_formula_sum   'Li4 Sc2 P2 C2 O14'
_cell_volume   284.20865052
_cell_formula_units_Z   2
loop_
 _symmetry_equiv_pos_site_id
 _symmetry_equiv_pos_as_xyz
  1  'x, y, z'
loop_
 _atom_site_type_symbol
 _atom_site_label
 _atom_site_symmetry_multiplicity
 _atom_site_fract_x
 _atom_site_fract_y
 _atom_site_fract_z
 _atom_site_occupancy
  Li  Li0  1  0.21885797  0.00233200  0.22480826  1
  Li  Li1  1  0.21885797  0.49766800  0.22480826  1
  Li  Li2  1  0.78114203  0.50233200  0.77519174  1
  Li  Li3  1  0.78114203  0.99766800  0.77519174  1
  Sc  Sc4  1  0.35032954  0.75000000  0.77501453  1
  Sc  Sc5  1  0.64967046  0.25000000  0.22498547  1
  P  P6  1  0.42009085  0.25000000  0.71363620  1
  P  P7  1  0.57990915  0.75000000  0.28636380  1
  C  C8  1  0.05222531  0.75000000  0.73692537  1
  C  C9  1  0.94777469  0.25000000  0.26307463  1
  O  O10  1  0.09435353  0.25000000  0.29357950  1
  O  O11  1  0.11787715  0.75000000  0.97009125  1
  O  O12  1  0.15102996  0.75000000  0.53178111  1
  O  O13  1  0.33444605  0.06032672  0.81811972  1
  O  O14  1  0.33444605  0.43967328  0.81811972  1
  O  O15  1  0.40689906  0.75000000  0.19097087  1
  O  O16  1  0.42717183  0.25000000  0.40306319  1
  O  O17  1  0.57282817  0.75000000  0.59693681  1
  O  O18  1  0.59310094  0.25000000  0.80902913  1
  O  O19  1  0.66555395  0.56032672  0.18188028  1
  O  O20  1  0.66555395  0.93967328  0.18188028  1
  O  O21  1  0.84897004  0.25000000  0.46821889  1
  O  O22  1  0.88212285  0.25000000  0.02990875  1
  O  O23  1  0.90564647  0.75000000  0.70642050  1
