# generated using pymatgen
data_Li2BiPCO7
_symmetry_space_group_name_H-M   'P 1'
_cell_length_a   8.99035820
_cell_length_b   5.08395803
_cell_length_c   7.11007921
_cell_angle_alpha   90.00000000
_cell_angle_beta   90.00000000
_cell_angle_gamma   83.69334436
_symmetry_Int_Tables_number   1
_chemical_formula_structural   Li2BiPCO7
_chemical_formula_sum   'Li4 Bi2 P2 C2 O14'
_cell_volume   323.01087422
_cell_formula_units_Z   2
loop_
 _symmetry_equiv_pos_site_id
 _symmetry_equiv_pos_as_xyz
  1  'x, y, z'
loop_
 _atom_site_type_symbol
 _atom_site_label
 _atom_site_symmetry_multiplicity
 _atom_site_fract_x
 _atom_site_fract_y
 _atom_site_fract_z
 _atom_site_occupancy
  Li  Li0  1  0.09108756  0.76400598  0.25815740  1
  Li  Li1  1  0.27075250  0.24372860  0.07216140  1
  Li  Li2  1  0.72924750  0.75627140  0.57216140  1
  Li  Li3  1  0.90891244  0.23599402  0.75815740  1
  Bi  Bi4  1  0.33026356  0.78798245  0.73668267  1
  Bi  Bi5  1  0.66973644  0.21201755  0.23668267  1
  P  P6  1  0.40322765  0.71622139  0.24373910  1
  P  P7  1  0.59677235  0.28377861  0.74373910  1
  C  C8  1  0.02980005  0.68646559  0.74904985  1
  C  C9  1  0.97019995  0.31353441  0.24904985  1
  O  O10  1  0.05934371  0.93368954  0.74450756  1
  O  O11  1  0.10038119  0.38006848  0.21377072  1
  O  O12  1  0.14064094  0.50424361  0.78735325  1
  O  O13  1  0.32102865  0.85950371  0.07240261  1
  O  O14  1  0.29412572  0.78365454  0.41174002  1
  O  O15  1  0.43673415  0.20557734  0.77663295  1
  O  O16  1  0.42161342  0.41172399  0.20578948  1
  O  O17  1  0.57838658  0.58827601  0.70578948  1
  O  O18  1  0.56326585  0.79442266  0.27663295  1
  O  O19  1  0.70587428  0.21634546  0.91174002  1
  O  O20  1  0.67897135  0.14049629  0.57240261  1
  O  O21  1  0.85935906  0.49575639  0.28735325  1
  O  O22  1  0.89961881  0.61993152  0.71377072  1
  O  O23  1  0.94065629  0.06631046  0.24450756  1
