# generated using pymatgen
data_Li2Fe5Si5O16
_symmetry_space_group_name_H-M   'P 1'
_cell_length_a   6.95696569
_cell_length_b   10.41608809
_cell_length_c   5.09569029
_cell_angle_alpha   89.87733633
_cell_angle_beta   90.01176870
_cell_angle_gamma   90.63984312
_symmetry_Int_Tables_number   1
_chemical_formula_structural   Li2Fe5Si5O16
_chemical_formula_sum   'Li2 Fe5 Si5 O16'
_cell_volume   369.23209717
_cell_formula_units_Z   1
loop_
 _symmetry_equiv_pos_site_id
 _symmetry_equiv_pos_as_xyz
  1  'x, y, z'
loop_
 _atom_site_type_symbol
 _atom_site_label
 _atom_site_symmetry_multiplicity
 _atom_site_fract_x
 _atom_site_fract_y
 _atom_site_fract_z
 _atom_site_occupancy
  Li  Li0  1  0.00254188  0.16282182  0.15592786  1
  Li  Li1  1  0.49683696  0.35559484  0.67920024  1
  Fe  Fe2  1  0.02026506  0.65449732  0.29747770  1
  Fe  Fe3  1  0.50996186  0.64525928  0.30723183  1
  Fe  Fe4  1  0.50199076  0.83661816  0.81675440  1
  Fe  Fe5  1  0.99766684  0.34779418  0.67629631  1
  Fe  Fe6  1  0.99586193  0.85200931  0.80476211  1
  Si  Si7  1  0.23917921  0.39630752  0.16411172  1
  Si  Si8  1  0.26843093  0.91313674  0.32142098  1
  Si  Si9  1  0.48968434  0.16430882  0.20387535  1
  Si  Si10  1  0.75567738  0.58873801  0.80781848  1
  Si  Si11  1  0.73356276  0.09594779  0.70977052  1
  O  O12  1  0.04408741  0.33195852  0.28062085  1
  O  O13  1  0.06828833  0.85461385  0.19762420  1
  O  O14  1  0.29736359  0.06965888  0.24160153  1
  O  O15  1  0.25475487  0.38091740  0.84813919  1
  O  O16  1  0.25560407  0.89370117  0.64097460  1
  O  O17  1  0.26233201  0.54615668  0.26852589  1
  O  O18  1  0.43001502  0.31127351  0.28751192  1
  O  O19  1  0.45609060  0.83681756  0.21107736  1
  O  O20  1  0.55577626  0.65648840  0.70218968  1
  O  O21  1  0.55723429  0.15892197  0.89377890  1
  O  O22  1  0.76366079  0.61862058  0.12814006  1
  O  O23  1  0.66990549  0.12424633  0.39698277  1
  O  O24  1  0.74664730  0.43799883  0.72585803  1
  O  O25  1  0.74154682  0.94150016  0.76148193  1
  O  O26  1  0.94791129  0.66467974  0.68771009  1
  O  O27  1  0.93712294  0.15941360  0.78313451  1
