# generated using pymatgen
data_LiCoP2O7
_symmetry_space_group_name_H-M   'P 1'
_cell_length_a   8.00699531
_cell_length_b   5.19275068
_cell_length_c   13.14244513
_cell_angle_alpha   90.00000000
_cell_angle_beta   77.05152577
_cell_angle_gamma   90.00000000
_symmetry_Int_Tables_number   1
_chemical_formula_structural   LiCoP2O7
_chemical_formula_sum   'Li4 Co4 P8 O28'
_cell_volume   532.54600759
_cell_formula_units_Z   4
loop_
 _symmetry_equiv_pos_site_id
 _symmetry_equiv_pos_as_xyz
  1  'x, y, z'
loop_
 _atom_site_type_symbol
 _atom_site_label
 _atom_site_symmetry_multiplicity
 _atom_site_fract_x
 _atom_site_fract_y
 _atom_site_fract_z
 _atom_site_occupancy
  Li  Li0  1  0.24470106  0.72955499  0.17402468  1
  Li  Li1  1  0.14277751  0.33634745  0.83027984  1
  Li  Li2  1  0.64277751  0.16365255  0.33027984  1
  Li  Li3  1  0.74470106  0.77044501  0.67402468  1
  Co  Co4  1  0.10160638  0.21538045  0.62852740  1
  Co  Co5  1  0.60160638  0.28461955  0.12852740  1
  Co  Co6  1  0.41373113  0.73468098  0.85484260  1
  Co  Co7  1  0.91373113  0.76531902  0.35484260  1
  P  P8  1  0.01663555  0.80218723  0.80289078  1
  P  P9  1  0.28496767  0.21587206  0.01785991  1
  P  P10  1  0.21655336  0.70820332  0.48235547  1
  P  P11  1  0.51663555  0.69781277  0.30289078  1
  P  P12  1  0.48549309  0.26800593  0.69363486  1
  P  P13  1  0.78496767  0.28412794  0.51785991  1
  P  P14  1  0.71655336  0.79179668  0.98235547  1
  P  P15  1  0.98549309  0.23199407  0.19363486  1
  O  O16  1  0.04417101  0.97132524  0.22771032  1
  O  O17  1  0.08399736  0.26516809  0.07252775  1
  O  O18  1  0.02868679  0.46678534  0.25236286  1
  O  O19  1  0.11255565  0.79983404  0.40441530  1
  O  O20  1  0.31024406  0.92588195  0.00176377  1
  O  O21  1  0.18830254  0.42197758  0.50728220  1
  O  O22  1  0.19648411  0.88056514  0.57775768  1
  O  O23  1  0.38015248  0.33465459  0.09697873  1
  O  O24  1  0.20121417  0.74200286  0.81275714  1
  O  O25  1  0.45033635  0.88736632  0.23429108  1
  O  O26  1  0.29464816  0.28398224  0.69166508  1
  O  O27  1  0.41475423  0.73619593  0.42368104  1
  O  O28  1  0.49575856  0.41392738  0.27692919  1
  O  O29  1  0.30996777  0.36680938  0.91633933  1
  O  O30  1  0.69648411  0.61943486  0.07775768  1
  O  O31  1  0.54417101  0.52867476  0.72771032  1
  O  O32  1  0.58399736  0.23483191  0.57252775  1
  O  O33  1  0.70121417  0.75799714  0.31275714  1
  O  O34  1  0.52868679  0.03321466  0.75236286  1
  O  O35  1  0.79464816  0.21601776  0.19166508  1
  O  O36  1  0.61255565  0.70016596  0.90441530  1
  O  O37  1  0.80996777  0.13319062  0.41633933  1
  O  O38  1  0.81024406  0.57411805  0.50176377  1
  O  O39  1  0.68830254  0.07802242  0.00728220  1
  O  O40  1  0.88015248  0.16534541  0.59697873  1
  O  O41  1  0.95033635  0.61263368  0.73429108  1
  O  O42  1  0.91475423  0.76380407  0.92368104  1
  O  O43  1  0.99575856  0.08607262  0.77692919  1
