# generated using pymatgen
data_Li8V11O22
_symmetry_space_group_name_H-M   'P 1'
_cell_length_a   10.34383177
_cell_length_b   5.18336864
_cell_length_c   8.92672783
_cell_angle_alpha   84.98161251
_cell_angle_beta   62.23263694
_cell_angle_gamma   80.29161250
_symmetry_Int_Tables_number   1
_chemical_formula_structural   Li8V11O22
_chemical_formula_sum   'Li8 V11 O22'
_cell_volume   417.41352239
_cell_formula_units_Z   1
loop_
 _symmetry_equiv_pos_site_id
 _symmetry_equiv_pos_as_xyz
  1  'x, y, z'
loop_
 _atom_site_type_symbol
 _atom_site_label
 _atom_site_symmetry_multiplicity
 _atom_site_fract_x
 _atom_site_fract_y
 _atom_site_fract_z
 _atom_site_occupancy
  Li  Li0  1  0.00558189  0.98887015  0.00421443  1
  Li  Li1  1  0.17623507  0.92022295  0.17760427  1
  Li  Li2  1  0.27428979  0.35827813  0.27417046  1
  Li  Li3  1  0.36337072  0.80223743  0.37221869  1
  Li  Li4  1  0.54517231  0.72708826  0.54864797  1
  Li  Li5  1  0.63664852  0.18200410  0.63316967  1
  Li  Li6  1  0.81844862  0.10685443  0.80960150  1
  Li  Li7  1  0.90752948  0.55081210  0.90764983  1
  V  V8  1  0.03846862  0.73118372  0.55305723  1
  V  V9  1  0.50484374  0.99511321  0.99527250  1
  V  V10  1  0.59090876  0.45453826  0.09091078  1
  V  V11  1  0.14334908  0.17790112  0.62876483  1
  V  V12  1  0.67697630  0.91396529  0.18654160  1
  V  V13  1  0.22719986  0.63152594  0.73010467  1
  V  V14  1  0.31309454  0.10190577  0.81882629  1
  V  V15  1  0.77202293  0.35980760  0.26914273  1
  V  V16  1  0.86872214  0.80719300  0.36299456  1
  V  V17  1  0.40979921  0.54928682  0.91266448  1
  V  V18  1  0.95461964  0.27755427  0.45171173  1
  O  O19  1  0.31637747  0.22206501  0.02573557  1
  O  O20  1  0.05082941  0.60892554  0.33247200  1
  O  O21  1  0.39916607  0.67310966  0.12670363  1
  O  O22  1  0.14959385  0.04420511  0.41672418  1
  O  O23  1  0.03221683  0.86490386  0.76509581  1
  O  O24  1  0.23200815  0.50813653  0.51818184  1
  O  O25  1  0.49077529  0.14098348  0.20667241  1
  O  O26  1  0.32940898  0.94570312  0.60898514  1
  O  O27  1  0.13098651  0.30017626  0.84935423  1
  O  O28  1  0.57485768  0.59462021  0.29504663  1
  O  O29  1  0.78265985  0.23596221  0.05510865  1
  O  O30  1  0.68276029  0.03206597  0.39664035  1
  O  O31  1  0.21778774  0.79180852  0.93675735  1
  O  O32  1  0.86544219  0.68703108  0.15607065  1
  O  O33  1  0.42093169  0.41050106  0.70552119  1
  O  O34  1  0.49905259  0.87702525  0.78517907  1
  O  O35  1  0.96403105  0.11728308  0.24505943  1
  O  O36  1  0.76087419  0.49859568  0.47629749  1
  O  O37  1  0.60696042  0.31446933  0.88677196  1
  O  O38  1  0.85241028  0.96339914  0.57283301  1
  O  O39  1  0.69105157  0.76809587  0.97514924  1
  O  O40  1  0.94981065  0.40095547  0.66364594  1
