# generated using pymatgen
data_K2BaNi(NO2)6
_symmetry_space_group_name_H-M   'P 1'
_cell_length_a   7.98835185
_cell_length_b   8.16308784
_cell_length_c   7.92741612
_cell_angle_alpha   56.54559122
_cell_angle_beta   60.56051033
_cell_angle_gamma   57.82462753
_symmetry_Int_Tables_number   1
_chemical_formula_structural   K2BaNi(NO2)6
_chemical_formula_sum   'K2 Ba1 Ni1 N6 O12'
_cell_volume   350.42677470
_cell_formula_units_Z   1
loop_
 _symmetry_equiv_pos_site_id
 _symmetry_equiv_pos_as_xyz
  1  'x, y, z'
loop_
 _atom_site_type_symbol
 _atom_site_label
 _atom_site_symmetry_multiplicity
 _atom_site_fract_x
 _atom_site_fract_y
 _atom_site_fract_z
 _atom_site_occupancy
  K  K0  1  0.25778407  0.25739372  0.24855169  1
  K  K1  1  0.74629813  0.74603870  0.74826582  1
  Ba  Ba2  1  0.49992496  0.49212637  0.50047056  1
  Ni  Ni3  1  0.00765039  0.00104151  0.99340177  1
  N  N4  1  0.20027419  0.18588818  0.81137280  1
  N  N5  1  0.19674394  0.77449011  0.19244546  1
  N  N6  1  0.19207486  0.81165316  0.79749605  1
  N  N7  1  0.81636747  0.18301419  0.19393036  1
  N  N8  1  0.81105573  0.19825593  0.80260152  1
  N  N9  1  0.79715290  0.80866238  0.18793933  1
  O  O10  1  0.12735818  0.72442477  0.38899293  1
  O  O11  1  0.17826877  0.32399368  0.85475282  1
  O  O12  1  0.34832545  0.15445197  0.65541202  1
  O  O13  1  0.38436733  0.67426208  0.12248404  1
  O  O14  1  0.67091574  0.12315371  0.33790859  1
  O  O15  1  0.14253344  0.65672486  0.87344220  1
  O  O16  1  0.82872553  0.33617453  0.18413819  1
  O  O17  1  0.33195340  0.83731732  0.62451636  1
  O  O18  1  0.63504284  0.87062847  0.14449216  1
  O  O19  1  0.83905910  0.15798587  0.65609788  1
  O  O20  1  0.64966107  0.34840292  0.84006197  1
  O  O21  1  0.83693252  0.63576558  0.34241549  1
