# generated using pymatgen
data_Li6Ca3MnC6(O9F)2
_symmetry_space_group_name_H-M   'P 1'
_cell_length_a   7.73282438
_cell_length_b   8.73922725
_cell_length_c   6.71847294
_cell_angle_alpha   84.79665990
_cell_angle_beta   101.88369815
_cell_angle_gamma   116.90557688
_symmetry_Int_Tables_number   1
_chemical_formula_structural   Li6Ca3MnC6(O9F)2
_chemical_formula_sum   'Li6 Ca3 Mn1 C6 O18 F2'
_cell_volume   396.20105899
_cell_formula_units_Z   1
loop_
 _symmetry_equiv_pos_site_id
 _symmetry_equiv_pos_as_xyz
  1  'x, y, z'
loop_
 _atom_site_type_symbol
 _atom_site_label
 _atom_site_symmetry_multiplicity
 _atom_site_fract_x
 _atom_site_fract_y
 _atom_site_fract_z
 _atom_site_occupancy
  Li  Li0  1  0.24038577  0.67816045  0.51720971  1
  Li  Li1  1  0.18251350  0.23193318  0.68883206  1
  Li  Li2  1  0.16548870  0.21441263  0.18107508  1
  Li  Li3  1  0.56734734  0.33732242  0.02357881  1
  Li  Li4  1  0.94398908  0.78395511  0.67757668  1
  Li  Li5  1  0.95065096  0.77154423  0.18275233  1
  Ca  Ca6  1  0.24921926  0.63183678  0.02236116  1
  Ca  Ca7  1  0.69942669  0.97596518  0.84651326  1
  Ca  Ca8  1  0.72225211  0.03175340  0.34702731  1
  Mn  Mn9  1  0.61249930  0.36810280  0.52598838  1
  C  C10  1  0.31116448  0.99659268  0.99320993  1
  C  C11  1  0.55400629  0.60492921  0.80007799  1
  C  C12  1  0.55737827  0.61576759  0.31372630  1
  C  C13  1  0.31783816  0.00439925  0.49328455  1
  C  C14  1  0.93828898  0.37912162  0.80266718  1
  C  C15  1  0.93984706  0.39568409  0.30911190  1
  O  O16  1  0.15009108  0.85386393  0.96626672  1
  O  O17  1  0.15648349  0.86422895  0.47664545  1
  O  O18  1  0.02924383  0.55321348  0.25308736  1
  O  O19  1  0.06970761  0.33434439  0.90477068  1
  O  O20  1  0.03296372  0.30619316  0.38110798  1
  O  O21  1  0.48692812  0.99828503  0.53757944  1
  O  O22  1  0.44026948  0.68312614  0.77423571  1
  O  O23  1  0.30731041  0.14291839  0.98146221  1
  O  O24  1  0.49747686  0.73283206  0.31207541  1
  O  O25  1  0.48058497  0.44696618  0.73899938  1
  O  O26  1  0.44575781  0.47631278  0.20657384  1
  O  O27  1  0.31680400  0.15420412  0.46612973  1
  O  O28  1  0.73544921  0.68859983  0.88602550  1
  O  O29  1  0.72637550  0.63700246  0.42170837  1
  O  O30  1  0.48053415  0.98822523  0.03390011  1
  O  O31  1  0.75090928  0.27306248  0.78780865  1
  O  O32  1  0.74488889  0.31945582  0.28971472  1
  O  O33  1  0.99006458  0.52870364  0.71773578  1
  F  F34  1  0.89922236  0.99203710  0.14800159  1
  F  F35  1  0.90707671  0.00494319  0.64239677  1
