# generated using pymatgen
data_Ba4Li4Ti19O44
_symmetry_space_group_name_H-M   'P 1'
_cell_length_a   5.86254953
_cell_length_b   10.03204497
_cell_length_c   14.24870292
_cell_angle_alpha   89.92202240
_cell_angle_beta   90.08694597
_cell_angle_gamma   90.03193430
_symmetry_Int_Tables_number   1
_chemical_formula_structural   Ba4Li4Ti19O44
_chemical_formula_sum   'Ba4 Li4 Ti19 O44'
_cell_volume   838.01223091
_cell_formula_units_Z   1
loop_
 _symmetry_equiv_pos_site_id
 _symmetry_equiv_pos_as_xyz
  1  'x, y, z'
loop_
 _atom_site_type_symbol
 _atom_site_label
 _atom_site_symmetry_multiplicity
 _atom_site_fract_x
 _atom_site_fract_y
 _atom_site_fract_z
 _atom_site_occupancy
  Ba  Ba0  1  0.25448262  0.08848048  0.40930641  1
  Ba  Ba1  1  0.24867233  0.39387120  0.90760316  1
  Ba  Ba2  1  0.75294463  0.60245029  0.09956881  1
  Ba  Ba3  1  0.74415500  0.90111556  0.59065562  1
  Li  Li4  1  0.25070365  0.40335683  0.33264375  1
  Li  Li5  1  0.25200814  0.43094191  0.48183370  1
  Li  Li6  1  0.74790917  0.57612549  0.53582094  1
  Li  Li7  1  0.75076895  0.92575651  0.03909323  1
  Ti  Ti8  1  0.00135291  0.83422918  0.82926301  1
  Ti  Ti9  1  0.99923180  0.16388720  0.17183608  1
  Ti  Ti10  1  0.99770872  0.33172812  0.67109850  1
  Ti  Ti11  1  0.25218164  0.89161316  0.17633344  1
  Ti  Ti12  1  0.24814218  0.06230685  0.66643313  1
  Ti  Ti13  1  0.24246460  0.43027984  0.15551648  1
  Ti  Ti14  1  0.25081132  0.74437700  0.00371013  1
  Ti  Ti15  1  0.22763310  0.75259510  0.48658015  1
  Ti  Ti16  1  0.25856916  0.61334475  0.66556321  1
  Ti  Ti17  1  0.50284006  0.33214671  0.67203619  1
  Ti  Ti18  1  0.50195478  0.16006317  0.17476622  1
  Ti  Ti19  1  0.49847936  0.83488279  0.82975175  1
  Ti  Ti20  1  0.49388739  0.66469072  0.32845810  1
  Ti  Ti21  1  0.74242658  0.23523120  0.48948917  1
  Ti  Ti22  1  0.76974962  0.41439460  0.32873205  1
  Ti  Ti23  1  0.75258122  0.56611868  0.83259790  1
  Ti  Ti24  1  0.75210200  0.10793477  0.83444421  1
  Ti  Ti25  1  0.74329072  0.26522310  0.99756688  1
  Ti  Ti26  1  0.77167632  0.90895832  0.33334260  1
  O  O27  1  0.00739758  0.47489974  0.24278443  1
  O  O28  1  0.00201763  0.99821715  0.74828400  1
  O  O29  1  0.00969273  0.32503518  0.08490856  1
  O  O30  1  0.00718030  0.17673267  0.59023681  1
  O  O31  1  0.03266485  0.82218466  0.08289651  1
  O  O32  1  0.03043586  0.67551733  0.58213730  1
  O  O33  1  0.24817128  0.07687217  0.10958024  1
  O  O34  1  0.24950659  0.42899937  0.60947153  1
  O  O35  1  0.25342635  0.25475357  0.23867658  1
  O  O36  1  0.24763964  0.56737571  0.06823912  1
  O  O37  1  0.27056875  0.74893649  0.25035056  1
  O  O38  1  0.25435312  0.93576377  0.57617129  1
  O  O39  1  0.24939241  0.89014747  0.90980399  1
  O  O40  1  0.25105255  0.24791609  0.73797844  1
  O  O41  1  0.26375845  0.60009019  0.41655367  1
  O  O42  1  0.24894723  0.75730595  0.75342210  1
  O  O43  1  0.46907554  0.82346203  0.08111063  1
  O  O44  1  0.46914190  0.67784337  0.58524542  1
  O  O45  1  0.49583200  0.32810876  0.08575912  1
  O  O46  1  0.49589748  0.17749937  0.58899265  1
  O  O47  1  0.49641033  0.99833846  0.74877277  1
  O  O48  1  0.49099291  0.49575435  0.24974839  1
  O  O49  1  0.50099219  0.00093935  0.25031370  1
  O  O50  1  0.50415471  0.50036771  0.75249820  1
  O  O51  1  0.50024107  0.82607821  0.41415045  1
  O  O52  1  0.50584906  0.67582820  0.91033506  1
  O  O53  1  0.52446940  0.32250521  0.41541620  1
  O  O54  1  0.53688566  0.18217585  0.91412660  1
  O  O55  1  0.72841995  0.56646915  0.39679413  1
  O  O56  1  0.74305563  0.07265351  0.43142445  1
  O  O57  1  0.75099253  0.10807847  0.08777172  1
  O  O58  1  0.75045271  0.24163347  0.24518794  1
  O  O59  1  0.74964478  0.25575647  0.74601510  1
  O  O60  1  0.74979456  0.39508663  0.59018237  1
  O  O61  1  0.75023207  0.43570727  0.93008282  1
  O  O62  1  0.73354143  0.76106047  0.26365483  1
  O  O63  1  0.74956663  0.74649236  0.76275927  1
  O  O64  1  0.75053071  0.92717326  0.89624887  1
  O  O65  1  0.97857811  0.32775716  0.41578482  1
  O  O66  1  0.96076567  0.18223985  0.91433168  1
  O  O67  1  0.99238577  0.67521812  0.91006586  1
  O  O68  1  0.99856142  0.84844196  0.42213161  1
  O  O69  1  0.99042842  0.49831650  0.75412058  1
  O  O70  1  0.99823004  0.99785642  0.25148181  1
