# generated using pymatgen
data_TiV2Fe3(PO4)6
_symmetry_space_group_name_H-M   'P 1'
_cell_length_a   8.51763894
_cell_length_b   8.66034248
_cell_length_c   8.66034281
_cell_angle_alpha   59.99999618
_cell_angle_beta   59.44421974
_cell_angle_gamma   59.44422235
_symmetry_Int_Tables_number   1
_chemical_formula_structural   TiV2Fe3(PO4)6
_chemical_formula_sum   'Ti1 V2 Fe3 P6 O24'
_cell_volume   447.89322111
_cell_formula_units_Z   1
loop_
 _symmetry_equiv_pos_site_id
 _symmetry_equiv_pos_as_xyz
  1  'x, y, z'
loop_
 _atom_site_type_symbol
 _atom_site_label
 _atom_site_symmetry_multiplicity
 _atom_site_fract_x
 _atom_site_fract_y
 _atom_site_fract_z
 _atom_site_occupancy
  Ti  Ti0  1  0.56283068  0.14572344  0.14572344  1
  V  V1  1  0.00196793  0.99934436  0.99934436  1
  V  V2  1  0.50247438  0.49917521  0.49917521  1
  Fe  Fe3  1  0.06264521  0.64578526  0.64578526  1
  Fe  Fe4  1  0.43905961  0.85364646  0.85364646  1
  Fe  Fe5  1  0.93630991  0.35456370  0.35456370  1
  P  P6  1  0.24825842  0.25063278  0.54733070  1
  P  P7  1  0.24825842  0.95377910  0.25063278  1
  P  P8  1  0.24825842  0.54733070  0.95377910  1
  P  P9  1  0.74933749  0.45412310  0.04661474  1
  P  P10  1  0.74933749  0.04661474  0.74992568  1
  P  P11  1  0.74933749  0.74992568  0.45412310  1
  O  O12  1  0.06621313  0.10715078  0.32304181  1
  O  O13  1  0.06621313  0.50359427  0.10715078  1
  O  O14  1  0.06621313  0.32304181  0.50359427  1
  O  O15  1  0.22514414  0.09261440  0.74375305  1
  O  O16  1  0.42933300  0.17837377  0.38503207  1
  O  O17  1  0.28322302  0.40647413  0.55482352  1
  O  O18  1  0.22514414  0.93848841  0.09261440  1
  O  O19  1  0.28322302  0.75547934  0.40647413  1
  O  O20  1  0.56643674  0.60731731  0.00397373  1
  O  O21  1  0.28322302  0.55482352  0.75547934  1
  O  O22  1  0.77276173  0.25353438  0.06414001  1
  O  O23  1  0.56643674  0.00397373  0.82227221  1
  O  O24  1  0.42933300  0.00726217  0.17837377  1
  O  O25  1  0.22514414  0.74375305  0.93848841  1
  O  O26  1  0.72317245  0.43739643  0.24608751  1
  O  O27  1  0.42933300  0.38503207  0.00726217  1
  O  O28  1  0.72317245  0.24608751  0.59334261  1
  O  O29  1  0.77276173  0.06414001  0.90956488  1
  O  O30  1  0.72317245  0.59334261  0.43739643  1
  O  O31  1  0.56643674  0.82227221  0.60731731  1
  O  O32  1  0.77276173  0.90956488  0.25353438  1
  O  O33  1  0.93435831  0.68285217  0.49216864  1
  O  O34  1  0.93435831  0.49216864  0.89062087  1
  O  O35  1  0.93435831  0.89062087  0.68285217  1
