# generated using pymatgen
data_LiVSO4F3
_symmetry_space_group_name_H-M   'P 1'
_cell_length_a   7.16557380
_cell_length_b   10.26152715
_cell_length_c   7.87958996
_cell_angle_alpha   91.38083257
_cell_angle_beta   93.02513939
_cell_angle_gamma   88.91219140
_symmetry_Int_Tables_number   1
_chemical_formula_structural   LiVSO4F3
_chemical_formula_sum   'Li4 V4 S4 O16 F12'
_cell_volume   578.31767085
_cell_formula_units_Z   4
loop_
 _symmetry_equiv_pos_site_id
 _symmetry_equiv_pos_as_xyz
  1  'x, y, z'
loop_
 _atom_site_type_symbol
 _atom_site_label
 _atom_site_symmetry_multiplicity
 _atom_site_fract_x
 _atom_site_fract_y
 _atom_site_fract_z
 _atom_site_occupancy
  Li  Li0  1  0.19435380  0.27271485  0.88874511  1
  Li  Li1  1  0.70790988  0.25781819  0.11481806  1
  Li  Li2  1  0.86641416  0.79636182  0.58543210  1
  Li  Li3  1  0.86573699  0.71817336  0.10017256  1
  V  V4  1  0.00171251  0.49007404  0.50529932  1
  V  V5  1  0.99209416  0.99807435  0.00413668  1
  V  V6  1  0.50125514  0.49993177  0.50004805  1
  V  V7  1  0.49157257  0.99113487  0.00130979  1
  S  S8  1  0.22074836  0.00781400  0.67315258  1
  S  S9  1  0.22087153  0.50932407  0.17006395  1
  S  S10  1  0.76448524  0.50034370  0.84026333  1
  S  S11  1  0.76895514  0.00944676  0.33583297  1
  O  O12  1  0.09878499  0.08122339  0.80693011  1
  O  O13  1  0.09276296  0.43724158  0.28775730  1
  O  O14  1  0.11317710  0.90277252  0.59443881  1
  O  O15  1  0.11618173  0.61810941  0.09717494  1
  O  O16  1  0.29890367  0.10300836  0.56928780  1
  O  O17  1  0.28810920  0.41177545  0.04863523  1
  O  O18  1  0.38224934  0.94392340  0.78495957  1
  O  O19  1  0.38521457  0.56010619  0.28009987  1
  O  O20  1  0.60056208  0.45051008  0.72660942  1
  O  O21  1  0.61424225  0.06794982  0.21561346  1
  O  O22  1  0.70085688  0.60354065  0.95416917  1
  O  O23  1  0.69674518  0.91035768  0.44173394  1
  O  O24  1  0.84810709  0.38731822  0.92736895  1
  O  O25  1  0.86639846  0.11655104  0.41762761  1
  O  O26  1  0.90152304  0.56128269  0.72293701  1
  O  O27  1  0.90249622  0.93208135  0.21280641  1
  F  F28  1  0.99199928  0.83361792  0.91344811  1
  F  F29  1  0.99175579  0.66314228  0.44269770  1
  F  F30  1  0.25894723  0.51270416  0.59917198  1
  F  F31  1  0.24657249  0.98701118  0.10109524  1
  F  F32  1  0.45693194  0.16910986  0.95587134  1
  F  F33  1  0.48490638  0.33401598  0.42734359  1
  F  F34  1  0.56229063  0.66705275  0.54805706  1
  F  F35  1  0.55266957  0.83310260  0.07804011  1
  F  F36  1  0.73649435  0.00444126  0.89950471  1
  F  F37  1  0.75273110  0.47862679  0.39891111  1
  F  F38  1  0.01093353  0.33294750  0.59672293  1
  F  F39  1  0.95720846  0.16674512  0.08108904  1
