# generated using pymatgen
data_Li5Fe2Co3O10
_symmetry_space_group_name_H-M   'P 1'
_cell_length_a   5.04628857
_cell_length_b   2.87435769
_cell_length_c   23.54650143
_cell_angle_alpha   89.99999837
_cell_angle_beta   94.41143614
_cell_angle_gamma   90.00000262
_symmetry_Int_Tables_number   1
_chemical_formula_structural   Li5Fe2Co3O10
_chemical_formula_sum   'Li10 Fe4 Co6 O20'
_cell_volume   340.52636251
_cell_formula_units_Z   2
loop_
 _symmetry_equiv_pos_site_id
 _symmetry_equiv_pos_as_xyz
  1  'x, y, z'
loop_
 _atom_site_type_symbol
 _atom_site_label
 _atom_site_symmetry_multiplicity
 _atom_site_fract_x
 _atom_site_fract_y
 _atom_site_fract_z
 _atom_site_occupancy
  Li  Li0  1  0.80090343  0.50000000  0.89918376  1
  Li  Li1  1  0.59999266  1.00000000  0.80012016  1
  Li  Li2  1  0.40016516  0.50000000  0.70068596  1
  Li  Li3  1  0.19830595  1.00000000  0.60121822  1
  Li  Li4  1  0.99942208  0.50000000  0.50073312  1
  Li  Li5  1  0.79889804  0.00000000  0.40055819  1
  Li  Li6  1  0.59952184  0.50000000  0.30039643  1
  Li  Li7  1  0.40007771  1.00000000  0.19973869  1
  Li  Li8  1  0.20011314  0.50000000  0.09911238  1
  Li  Li9  1  0.00193521  0.00000000  0.99826456  1
  Fe  Fe10  1  0.50145514  1.00000000  0.50215713  1
  Fe  Fe11  1  0.10608177  0.00000000  0.30368555  1
  Fe  Fe12  1  0.89967926  0.50000000  0.19958202  1
  Fe  Fe13  1  0.69373095  0.00000000  0.09541579  1
  Co  Co14  1  0.29917850  0.00000000  0.89810285  1
  Co  Co15  1  0.09950035  0.50000000  0.79961074  1
  Co  Co16  1  0.90012503  1.00000000  0.70056455  1
  Co  Co17  1  0.70167951  0.50000000  0.60160125  1
  Co  Co18  1  0.30376000  0.50000000  0.40321850  1
  Co  Co19  1  0.49507363  0.50000000  0.99607113  1
  O  O20  1  0.61724145  1.00000000  0.94954607  1
  O  O21  1  0.17947253  0.50000000  0.94510566  1
  O  O22  1  0.97959197  0.00000000  0.84711235  1
  O  O23  1  0.41987341  0.50000000  0.85101602  1
  O  O24  1  0.21948627  0.00000000  0.75224928  1
  O  O25  1  0.78037550  0.50000000  0.74806233  1
  O  O26  1  0.58129303  1.00000000  0.64883298  1
  O  O27  1  0.82495937  1.00000000  0.55426344  1
  O  O28  1  0.01981624  0.50000000  0.65310741  1
  O  O29  1  0.37909588  0.50000000  0.55035873  1
  O  O30  1  0.62211356  0.50000000  0.45391237  1
  O  O31  1  0.17918954  0.00000000  0.44962295  1
  O  O32  1  0.43520437  0.00000000  0.35679075  1
  O  O33  1  0.97227583  0.50000000  0.35368190  1
  O  O34  1  0.76360903  1.00000000  0.25038762  1
  O  O35  1  0.23933467  0.50000000  0.25220906  1
  O  O36  1  0.03580880  0.00000000  0.14883975  1
  O  O37  1  0.56046777  0.50000000  0.14688982  1
  O  O38  1  0.82771960  0.50000000  0.04545944  1
  O  O39  1  0.36347383  1.00000000  0.04253309  1
