# generated using pymatgen
data_Li3BiB4O9
_symmetry_space_group_name_H-M   'P 1'
_cell_length_a   5.71577748
_cell_length_b   8.67905663
_cell_length_c   7.47080637
_cell_angle_alpha   90.00000000
_cell_angle_beta   107.11927033
_cell_angle_gamma   90.00000000
_symmetry_Int_Tables_number   1
_chemical_formula_structural   Li3BiB4O9
_chemical_formula_sum   'Li6 Bi2 B8 O18'
_cell_volume   354.18829505
_cell_formula_units_Z   2
loop_
 _symmetry_equiv_pos_site_id
 _symmetry_equiv_pos_as_xyz
  1  'x, y, z'
loop_
 _atom_site_type_symbol
 _atom_site_label
 _atom_site_symmetry_multiplicity
 _atom_site_fract_x
 _atom_site_fract_y
 _atom_site_fract_z
 _atom_site_occupancy
  Li  Li0  1  0.21054996  0.53123675  0.25247843  1
  Li  Li1  1  0.21054996  0.96876325  0.25247843  1
  Li  Li2  1  0.43793050  0.25000000  0.48598856  1
  Li  Li3  1  0.56206950  0.75000000  0.51401144  1
  Li  Li4  1  0.78945004  0.03123675  0.74752157  1
  Li  Li5  1  0.78945004  0.46876325  0.74752157  1
  Bi  Bi6  1  0.34928439  0.25000000  0.93471423  1
  Bi  Bi7  1  0.65071561  0.75000000  0.06528577  1
  B  B8  1  0.02425638  0.25000000  0.27210728  1
  B  B9  1  0.09602226  0.75000000  0.44233566  1
  B  B10  1  0.28094222  0.55154466  0.68997348  1
  B  B11  1  0.28094222  0.94845534  0.68997348  1
  B  B12  1  0.71905778  0.05154466  0.31002652  1
  B  B13  1  0.71905778  0.44845534  0.31002652  1
  B  B14  1  0.90397774  0.25000000  0.55766434  1
  B  B15  1  0.97574362  0.75000000  0.72789272  1
  O  O16  1  0.13195065  0.89315787  0.79368104  1
  O  O17  1  0.13195065  0.60684213  0.79368104  1
  O  O18  1  0.10306977  0.25000000  0.47954969  1
  O  O19  1  0.03294442  0.75000000  0.23751491  1
  O  O20  1  0.26415645  0.61203772  0.51383420  1
  O  O21  1  0.26415645  0.88796228  0.51383420  1
  O  O22  1  0.23689236  0.25000000  0.20938986  1
  O  O23  1  0.45350462  0.05887497  0.76433352  1
  O  O24  1  0.45350462  0.44112503  0.76433352  1
  O  O25  1  0.54649538  0.55887497  0.23566648  1
  O  O26  1  0.54649538  0.94112503  0.23566648  1
  O  O27  1  0.76310764  0.75000000  0.79061014  1
  O  O28  1  0.73584355  0.11203772  0.48616580  1
  O  O29  1  0.73584355  0.38796228  0.48616580  1
  O  O30  1  0.96705558  0.25000000  0.76248509  1
  O  O31  1  0.89693023  0.75000000  0.52045031  1
  O  O32  1  0.86804935  0.10684213  0.20631896  1
  O  O33  1  0.86804935  0.39315787  0.20631896  1
