# generated using pymatgen
data_Na4Al11Si13Ag7O48
_symmetry_space_group_name_H-M   'P 1'
_cell_length_a   12.79279265
_cell_length_b   12.45522895
_cell_length_c   12.08672558
_cell_angle_alpha   89.95815585
_cell_angle_beta   88.74338402
_cell_angle_gamma   90.17141941
_symmetry_Int_Tables_number   1
_chemical_formula_structural   Na4Al11Si13Ag7O48
_chemical_formula_sum   'Na4 Al11 Si13 Ag7 O48'
_cell_volume   1925.39214850
_cell_formula_units_Z   1
loop_
 _symmetry_equiv_pos_site_id
 _symmetry_equiv_pos_as_xyz
  1  'x, y, z'
loop_
 _atom_site_type_symbol
 _atom_site_label
 _atom_site_symmetry_multiplicity
 _atom_site_fract_x
 _atom_site_fract_y
 _atom_site_fract_z
 _atom_site_occupancy
  Na  Na0  1  0.60524290  0.00255153  0.55553305  1
  Na  Na1  1  0.57084862  0.39459631  0.99594911  1
  Na  Na2  1  0.57427301  0.60431074  0.02062443  1
  Na  Na3  1  0.78519228  0.80120854  0.81108839  1
  Al  Al4  1  0.36680501  0.18885683  0.00154087  1
  Al  Al5  1  0.37729025  0.00140774  0.79635941  1
  Al  Al6  1  0.37045458  0.81129764  0.99639125  1
  Al  Al7  1  0.61127896  0.99711454  0.21117000  1
  Al  Al8  1  0.61462129  0.18422357  0.00556277  1
  Al  Al9  1  0.61973485  0.00097176  0.80232262  1
  Al  Al10  1  0.61772703  0.81607442  0.00538606  1
  Al  Al11  1  0.82596066  0.00204549  0.36518373  1
  Al  Al12  1  0.81844728  0.37053260  0.00414719  1
  Al  Al13  1  0.81845562  0.62808156  0.99960398  1
  Al  Al14  1  0.83991414  0.99761055  0.64231911  1
  Si  Si15  1  0.00100399  0.18417388  0.36469447  1
  Si  Si16  1  0.99911274  0.37165345  0.18726697  1
  Si  Si17  1  0.00688292  0.37149038  0.81340083  1
  Si  Si18  1  0.99943736  0.81612877  0.36559800  1
  Si  Si19  1  0.00630181  0.62712056  0.81207289  1
  Si  Si20  1  0.00521965  0.81402459  0.63131545  1
  Si  Si21  1  0.17213490  0.00134481  0.36263864  1
  Si  Si22  1  0.17849966  0.37241108  0.99852856  1
  Si  Si23  1  0.17805510  0.62609969  0.99767138  1
  Si  Si24  1  0.17867346  0.00124855  0.62278182  1
  Si  Si25  1  0.36387187  0.00177040  0.18676271  1
  Si  Si26  1  0.00487656  0.18543319  0.63125732  1
  Si  Si27  1  0.99680122  0.62603146  0.18687512  1
  Ag  Ag28  1  0.20417617  0.81544382  0.80753110  1
  Ag  Ag29  1  0.20815018  0.18894445  0.80900485  1
  Ag  Ag30  1  0.20005832  0.80209055  0.18752237  1
  Ag  Ag31  1  0.80216392  0.17553287  0.83227719  1
  Ag  Ag32  1  0.79975679  0.17238893  0.17307888  1
  Ag  Ag33  1  0.79942193  0.82764777  0.17494516  1
  Ag  Ag34  1  0.76803567  0.00387194  0.00676411  1
  O  O35  1  0.99528764  0.21076511  0.49884753  1
  O  O36  1  0.01642158  0.29946103  0.69904563  1
  O  O37  1  0.01371446  0.49934579  0.78072614  1
  O  O38  1  0.02047488  0.69981066  0.69848055  1
  O  O39  1  0.11250495  0.11340644  0.65212919  1
  O  O40  1  0.10438357  0.64862414  0.11026760  1
  O  O41  1  0.11008812  0.65857780  0.88681237  1
  O  O42  1  0.10952819  0.89068756  0.65481417  1
  O  O43  1  0.10400236  0.10866132  0.33945555  1
  O  O44  1  0.10144691  0.35528090  0.10594457  1
  O  O45  1  0.11277692  0.34141233  0.88421173  1
  O  O46  1  0.10577163  0.88892493  0.33478780  1
  O  O47  1  0.20177754  0.99732258  0.49171059  1
  O  O48  1  0.21000799  0.50013191  0.99037904  1
  O  O49  1  0.28373041  0.00074795  0.68943685  1
  O  O50  1  0.27807691  0.70266032  0.00430728  1
  O  O51  1  0.27794658  0.99612287  0.29166170  1
  O  O52  1  0.28063684  0.30037754  0.00105213  1
  O  O53  1  0.33830404  0.10624272  0.11460332  1
  O  O54  1  0.34986757  0.11734795  0.87656300  1
  O  O55  1  0.34117267  0.88930857  0.11697512  1
  O  O56  1  0.34776325  0.88392241  0.87546601  1
  O  O57  1  0.47785943  0.00003190  0.24192588  1
  O  O58  1  0.49222346  0.24425520  0.00988095  1
  O  O59  1  0.49461482  0.75489379  0.00341086  1
  O  O60  1  0.50183064  0.99834539  0.73415532  1
  O  O61  1  0.64486067  0.10642470  0.12199975  1
  O  O62  1  0.64279388  0.11730587  0.88138290  1
  O  O63  1  0.64171829  0.88091313  0.13133472  1
  O  O64  1  0.65307164  0.89771246  0.89451576  1
  O  O65  1  0.71731435  0.99113012  0.70076447  1
  O  O66  1  0.71093815  0.71186673  0.99201291  1
  O  O67  1  0.69875697  0.00034165  0.31948842  1
  O  O68  1  0.70926136  0.28792776  0.00341014  1
  O  O69  1  0.76455225  0.49945752  0.00533790  1
  O  O70  1  0.83010633  0.00385583  0.50422446  1
  O  O71  1  0.90911687  0.11662799  0.68690148  1
  O  O72  1  0.89500758  0.66181954  0.11818611  1
  O  O73  1  0.89918528  0.65652863  0.87893517  1
  O  O74  1  0.90462639  0.87572840  0.68262587  1
  O  O75  1  0.89969492  0.11956653  0.31893848  1
  O  O76  1  0.89377011  0.33738144  0.12301270  1
  O  O77  1  0.90159704  0.34322619  0.88452619  1
  O  O78  1  0.89884682  0.88177983  0.32230521  1
  O  O79  1  0.01346557  0.29870521  0.29894406  1
  O  O80  1  0.99391752  0.49968825  0.22274680  1
  O  O81  1  0.01072368  0.70226388  0.29696388  1
  O  O82  1  0.00028026  0.78774431  0.49822200  1
