# generated using pymatgen
data_LiVPCO7
_symmetry_space_group_name_H-M   'P 1'
_cell_length_a   8.24408227
_cell_length_b   5.26553834
_cell_length_c   6.41506963
_cell_angle_alpha   90.00000000
_cell_angle_beta   90.00000000
_cell_angle_gamma   83.68872604
_symmetry_Int_Tables_number   1
_chemical_formula_structural   LiVPCO7
_chemical_formula_sum   'Li2 V2 P2 C2 O14'
_cell_volume   276.78742363
_cell_formula_units_Z   2
loop_
 _symmetry_equiv_pos_site_id
 _symmetry_equiv_pos_as_xyz
  1  'x, y, z'
loop_
 _atom_site_type_symbol
 _atom_site_label
 _atom_site_symmetry_multiplicity
 _atom_site_fract_x
 _atom_site_fract_y
 _atom_site_fract_z
 _atom_site_occupancy
  Li  Li0  1  0.09618772  0.76791127  0.25000000  1
  Li  Li1  1  0.90381228  0.23208873  0.75000000  1
  V  V2  1  0.32246693  0.79693117  0.75000000  1
  V  V3  1  0.67753307  0.20306883  0.25000000  1
  P  P4  1  0.42566806  0.74203824  0.25000000  1
  P  P5  1  0.57433194  0.25796176  0.75000000  1
  C  C6  1  0.04148398  0.68628356  0.75000000  1
  C  C7  1  0.95851602  0.31371644  0.25000000  1
  O  O8  1  0.07671000  0.92742816  0.75000000  1
  O  O9  1  0.09681828  0.38479033  0.25000000  1
  O  O10  1  0.17787878  0.52666925  0.75000000  1
  O  O11  1  0.31091781  0.80013618  0.06157426  1
  O  O12  1  0.31091781  0.80013618  0.43842574  1
  O  O13  1  0.43107250  0.09030238  0.75000000  1
  O  O14  1  0.49862562  0.46052784  0.25000000  1
  O  O15  1  0.50137438  0.53947216  0.75000000  1
  O  O16  1  0.56892750  0.90969762  0.25000000  1
  O  O17  1  0.68908219  0.19986382  0.56157426  1
  O  O18  1  0.68908219  0.19986382  0.93842574  1
  O  O19  1  0.82212122  0.47333075  0.25000000  1
  O  O20  1  0.90318172  0.61520967  0.75000000  1
  O  O21  1  0.92329000  0.07257184  0.25000000  1
