# generated using pymatgen
data_Li4VS4
_symmetry_space_group_name_H-M   'P 1'
_cell_length_a   14.24964021
_cell_length_b   7.75857345
_cell_length_c   6.15387121
_cell_angle_alpha   90.00000000
_cell_angle_beta   90.00000000
_cell_angle_gamma   90.00000000
_symmetry_Int_Tables_number   1
_chemical_formula_structural   Li4VS4
_chemical_formula_sum   'Li16 V4 S16'
_cell_volume   680.35280216
_cell_formula_units_Z   4
loop_
 _symmetry_equiv_pos_site_id
 _symmetry_equiv_pos_as_xyz
  1  'x, y, z'
loop_
 _atom_site_type_symbol
 _atom_site_label
 _atom_site_symmetry_multiplicity
 _atom_site_fract_x
 _atom_site_fract_y
 _atom_site_fract_z
 _atom_site_occupancy
  Li  Li0  1  0.00000000  0.00000000  0.50000000  1
  Li  Li1  1  0.00000000  0.50000000  0.50000000  1
  Li  Li2  1  0.08684546  0.25000000  0.86955150  1
  Li  Li3  1  0.17787024  0.49819896  0.30444724  1
  Li  Li4  1  0.17787024  0.00180104  0.30444724  1
  Li  Li5  1  0.32212976  0.99819896  0.80444724  1
  Li  Li6  1  0.32212976  0.50180104  0.80444724  1
  Li  Li7  1  0.41315454  0.75000000  0.36955150  1
  Li  Li8  1  0.50000000  0.00000000  0.00000000  1
  Li  Li9  1  0.50000000  0.50000000  0.00000000  1
  Li  Li10  1  0.58684546  0.25000000  0.63044850  1
  Li  Li11  1  0.67787024  0.49819896  0.19555276  1
  Li  Li12  1  0.67787024  0.00180104  0.19555276  1
  Li  Li13  1  0.82212976  0.99819896  0.69555276  1
  Li  Li14  1  0.82212976  0.50180104  0.69555276  1
  Li  Li15  1  0.91315454  0.75000000  0.13044850  1
  V  V16  1  0.08709734  0.75000000  0.84891143  1
  V  V17  1  0.41290266  0.25000000  0.34891143  1
  V  V18  1  0.58709734  0.75000000  0.65108857  1
  V  V19  1  0.91290266  0.25000000  0.15108857  1
  S  S20  1  0.06235375  0.25000000  0.26557133  1
  S  S21  1  0.08241894  0.75000000  0.20899193  1
  S  S22  1  0.15594151  0.51414273  0.71847439  1
  S  S23  1  0.15594151  0.98585727  0.71847439  1
  S  S24  1  0.34405849  0.01414273  0.21847439  1
  S  S25  1  0.34405849  0.48585727  0.21847439  1
  S  S26  1  0.41758106  0.25000000  0.70899193  1
  S  S27  1  0.43764625  0.75000000  0.76557133  1
  S  S28  1  0.56235375  0.25000000  0.23442867  1
  S  S29  1  0.58241894  0.75000000  0.29100807  1
  S  S30  1  0.65594151  0.51414273  0.78152561  1
  S  S31  1  0.65594151  0.98585727  0.78152561  1
  S  S32  1  0.84405849  0.01414273  0.28152561  1
  S  S33  1  0.84405849  0.48585727  0.28152561  1
  S  S34  1  0.91758106  0.25000000  0.79100807  1
  S  S35  1  0.93764625  0.75000000  0.73442867  1
