# generated using pymatgen
data_Sb2(SO4)3
_symmetry_space_group_name_H-M   'P 1'
_cell_length_a   8.36873695
_cell_length_b   8.36873695
_cell_length_c   9.29531925
_cell_angle_alpha   68.60466186
_cell_angle_beta   111.39533814
_cell_angle_gamma   113.94095426
_symmetry_Int_Tables_number   1
_chemical_formula_structural   Sb2(SO4)3
_chemical_formula_sum   'Sb4 S6 O24'
_cell_volume   535.71680245
_cell_formula_units_Z   2
loop_
 _symmetry_equiv_pos_site_id
 _symmetry_equiv_pos_as_xyz
  1  'x, y, z'
loop_
 _atom_site_type_symbol
 _atom_site_label
 _atom_site_symmetry_multiplicity
 _atom_site_fract_x
 _atom_site_fract_y
 _atom_site_fract_z
 _atom_site_occupancy
  Sb  Sb0  1  0.62872810  0.85609932  0.97303815  1
  Sb  Sb1  1  0.14390068  0.37127190  0.47303815  1
  Sb  Sb2  1  0.85609932  0.62872810  0.52696185  1
  Sb  Sb3  1  0.37127190  0.14390068  0.02696185  1
  S  S4  1  0.24534868  0.54401005  0.82654960  1
  S  S5  1  0.45598995  0.75465132  0.32654960  1
  S  S6  1  0.93944411  0.93944411  0.75000000  1
  S  S7  1  0.06055589  0.06055589  0.25000000  1
  S  S8  1  0.54401005  0.24534868  0.67345040  1
  S  S9  1  0.75465132  0.45598995  0.17345040  1
  O  O10  1  0.10932510  0.94857056  0.87600994  1
  O  O11  1  0.05142944  0.89067490  0.37600994  1
  O  O12  1  0.13795668  0.51120679  0.93040591  1
  O  O13  1  0.38932719  0.72907953  0.81116588  1
  O  O14  1  0.13408560  0.54080120  0.65601597  1
  O  O15  1  0.48879321  0.86204332  0.43040591  1
  O  O16  1  0.78472520  0.89387399  0.81989809  1
  O  O17  1  0.34459981  0.40733757  0.87814134  1
  O  O18  1  0.27092047  0.61067281  0.31116588  1
  O  O19  1  0.45919880  0.86591440  0.15601597  1
  O  O20  1  0.10612601  0.21527480  0.31989809  1
  O  O21  1  0.40733757  0.34459981  0.62185866  1
  O  O22  1  0.59266243  0.65540019  0.37814134  1
  O  O23  1  0.89387399  0.78472520  0.68010191  1
  O  O24  1  0.54080120  0.13408560  0.84398403  1
  O  O25  1  0.72907953  0.38932719  0.68883412  1
  O  O26  1  0.65540019  0.59266243  0.12185866  1
  O  O27  1  0.21527480  0.10612601  0.18010191  1
  O  O28  1  0.51120679  0.13795668  0.56959409  1
  O  O29  1  0.86591440  0.45919880  0.34398403  1
  O  O30  1  0.61067281  0.27092047  0.18883412  1
  O  O31  1  0.86204332  0.48879321  0.06959409  1
  O  O32  1  0.94857056  0.10932510  0.62399006  1
  O  O33  1  0.89067490  0.05142944  0.12399006  1
