# generated using pymatgen
data_Li5Fe6(BO3)6
_symmetry_space_group_name_H-M   'P 1'
_cell_length_a   8.24783472
_cell_length_b   8.82234279
_cell_length_c   6.23560599
_cell_angle_alpha   69.30467049
_cell_angle_beta   90.00000000
_cell_angle_gamma   61.71886039
_symmetry_Int_Tables_number   1
_chemical_formula_structural   Li5Fe6(BO3)6
_chemical_formula_sum   'Li5 Fe6 B6 O18'
_cell_volume   365.98877847
_cell_formula_units_Z   1
loop_
 _symmetry_equiv_pos_site_id
 _symmetry_equiv_pos_as_xyz
  1  'x, y, z'
loop_
 _atom_site_type_symbol
 _atom_site_label
 _atom_site_symmetry_multiplicity
 _atom_site_fract_x
 _atom_site_fract_y
 _atom_site_fract_z
 _atom_site_occupancy
  Li  Li0  1  0.71567064  0.98315285  0.75842357  1
  Li  Li1  1  0.98352467  0.30023767  0.59988167  1
  Li  Li2  1  0.98440442  0.30135383  0.09932309  1
  Li  Li3  1  0.30338516  0.71556422  0.39221789  1
  Li  Li4  1  0.29731547  0.71754073  0.89122913  1
  Fe  Fe5  1  0.63414144  0.35131437  0.83071066  1
  Fe  Fe6  1  0.63414144  0.35131437  0.31797597  1
  Fe  Fe7  1  0.36719449  0.00931038  0.00200635  1
  Fe  Fe8  1  0.36719449  0.00931038  0.48868327  1
  Fe  Fe9  1  0.99916698  0.64047460  0.18534361  1
  Fe  Fe10  1  0.99916698  0.64047460  0.67418179  1
  B  B11  1  0.66533752  0.66686139  0.91656930  1
  B  B12  1  0.66529091  0.66029858  0.41985071  1
  B  B13  1  0.33085502  0.33276588  0.58361706  1
  B  B14  1  0.32614853  0.34273499  0.07863300  1
  B  B15  1  0.00552500  0.99753176  0.99724659  1
  B  B16  1  0.00552500  0.99753176  0.50522165  1
  O  O17  1  0.90351745  0.90978987  0.56269459  1
  O  O18  1  0.90351745  0.90978987  0.02751454  1
  O  O19  1  0.85906998  0.58341449  0.95829326  1
  O  O20  1  0.85956353  0.58066580  0.45966710  1
  O  O21  1  0.91621603  0.19416783  0.40339158  1
  O  O22  1  0.91621603  0.19416783  0.90244059  1
  O  O23  1  0.54714565  0.85289260  0.32355320  1
  O  O24  1  0.55536028  0.86204279  0.81897861  1
  O  O25  1  0.58798669  0.54449820  0.47775090  1
  O  O26  1  0.58075346  0.55798151  0.97100924  1
  O  O27  1  0.51755434  0.27020680  0.11489710  1
  O  O28  1  0.52530466  0.25340657  0.62329671  1
  O  O29  1  0.20258346  0.89328312  0.55318002  1
  O  O30  1  0.20258346  0.89328312  0.05353686  1
  O  O31  1  0.21228482  0.52728029  0.48635986  1
  O  O32  1  0.20417256  0.53578154  0.98210873  1
  O  O33  1  0.25343543  0.21621298  0.64189401  1
  O  O34  1  0.25442955  0.22050841  0.13974580  1
