# generated using pymatgen
data_Ce(ClO4)3
_symmetry_space_group_name_H-M   'P 1'
_cell_length_a   9.79823674
_cell_length_b   9.79823674
_cell_length_c   9.79823671
_cell_angle_alpha   51.55075680
_cell_angle_beta   51.55075680
_cell_angle_gamma   51.55075157
_symmetry_Int_Tables_number   1
_chemical_formula_structural   Ce(ClO4)3
_chemical_formula_sum   'Ce2 Cl6 O24'
_cell_volume   532.86580889
_cell_formula_units_Z   2
loop_
 _symmetry_equiv_pos_site_id
 _symmetry_equiv_pos_as_xyz
  1  'x, y, z'
loop_
 _atom_site_type_symbol
 _atom_site_label
 _atom_site_symmetry_multiplicity
 _atom_site_fract_x
 _atom_site_fract_y
 _atom_site_fract_z
 _atom_site_occupancy
  Ce  Ce0  1  0.05859399  0.05859399  0.05859399  1
  Ce  Ce1  1  0.55859399  0.55859399  0.55859399  1
  Cl  Cl2  1  0.34565896  0.96748963  0.68769401  1
  Cl  Cl3  1  0.46748963  0.84565896  0.18769401  1
  Cl  Cl4  1  0.18769401  0.46748963  0.84565896  1
  Cl  Cl5  1  0.96748963  0.68769401  0.34565896  1
  Cl  Cl6  1  0.68769401  0.34565896  0.96748963  1
  Cl  Cl7  1  0.84565896  0.18769401  0.46748963  1
  O  O8  1  0.07539663  0.74639912  0.13879962  1
  O  O9  1  0.28882642  0.88479292  0.20123480  1
  O  O10  1  0.00276405  0.57104801  0.94670607  1
  O  O11  1  0.39328256  0.92147038  0.83235283  1
  O  O12  1  0.42147038  0.89328256  0.33235283  1
  O  O13  1  0.07104801  0.50276405  0.44670607  1
  O  O14  1  0.38479292  0.78882642  0.70123480  1
  O  O15  1  0.57104801  0.94670607  0.00276405  1
  O  O16  1  0.24639912  0.57539663  0.63879962  1
  O  O17  1  0.20123480  0.28882642  0.88479292  1
  O  O18  1  0.33235283  0.42147038  0.89328256  1
  O  O19  1  0.57539663  0.63879962  0.24639912  1
  O  O20  1  0.50276405  0.44670607  0.07104801  1
  O  O21  1  0.13879962  0.07539663  0.74639912  1
  O  O22  1  0.92147038  0.83235283  0.39328256  1
  O  O23  1  0.78882642  0.70123480  0.38479292  1
  O  O24  1  0.70123480  0.38479292  0.78882642  1
  O  O25  1  0.44670607  0.07104801  0.50276405  1
  O  O26  1  0.63879962  0.24639912  0.57539663  1
  O  O27  1  0.83235283  0.39328256  0.92147038  1
  O  O28  1  0.89328256  0.33235283  0.42147038  1
  O  O29  1  0.74639912  0.13879962  0.07539663  1
  O  O30  1  0.88479292  0.20123480  0.28882642  1
  O  O31  1  0.94670607  0.00276405  0.57104801  1
