# generated using pymatgen
data_K2LiFeO3
_symmetry_space_group_name_H-M   'P 1'
_cell_length_a   6.10324946
_cell_length_b   6.15141653
_cell_length_c   6.66369824
_cell_angle_alpha   90.00000000
_cell_angle_beta   90.00000000
_cell_angle_gamma   60.25869144
_symmetry_Int_Tables_number   1
_chemical_formula_structural   K2LiFeO3
_chemical_formula_sum   'K4 Li2 Fe2 O6'
_cell_volume   217.22430377
_cell_formula_units_Z   2
loop_
 _symmetry_equiv_pos_site_id
 _symmetry_equiv_pos_as_xyz
  1  'x, y, z'
loop_
 _atom_site_type_symbol
 _atom_site_label
 _atom_site_symmetry_multiplicity
 _atom_site_fract_x
 _atom_site_fract_y
 _atom_site_fract_z
 _atom_site_occupancy
  K  K0  1  0.25000000  0.50000000  0.00000000  1
  K  K1  1  0.75000000  0.50000000  0.00000000  1
  K  K2  1  0.75000000  0.00000000  0.66008877  1
  K  K3  1  0.25000000  0.00000000  0.33991123  1
  Li  Li4  1  0.25000000  0.50000000  0.50000000  1
  Li  Li5  1  0.75000000  0.50000000  0.50000000  1
  Fe  Fe6  1  0.75000000  0.00000000  0.17993580  1
  Fe  Fe7  1  0.25000000  0.00000000  0.82006420  1
  O  O8  1  0.39972274  0.70055551  0.66990331  1
  O  O9  1  0.89972274  0.70055551  0.33009669  1
  O  O10  1  0.60027726  0.29944449  0.33009669  1
  O  O11  1  0.10027726  0.29944449  0.66990331  1
  O  O12  1  0.00000000  0.00000000  0.00000000  1
  O  O13  1  0.50000000  0.00000000  0.00000000  1
