# generated using pymatgen
data_LiCrB2O5
_symmetry_space_group_name_H-M   'P 1'
_cell_length_a   6.94574375
_cell_length_b   9.58283318
_cell_length_c   5.64160339
_cell_angle_alpha   90.00000000
_cell_angle_beta   72.90978039
_cell_angle_gamma   90.00000000
_symmetry_Int_Tables_number   1
_chemical_formula_structural   LiCrB2O5
_chemical_formula_sum   'Li4 Cr4 B8 O20'
_cell_volume   358.92349483
_cell_formula_units_Z   4
loop_
 _symmetry_equiv_pos_site_id
 _symmetry_equiv_pos_as_xyz
  1  'x, y, z'
loop_
 _atom_site_type_symbol
 _atom_site_label
 _atom_site_symmetry_multiplicity
 _atom_site_fract_x
 _atom_site_fract_y
 _atom_site_fract_z
 _atom_site_occupancy
  Li  Li0  1  0.21447758  0.43728335  0.32278776  1
  Li  Li1  1  0.21447758  0.06271665  0.82278776  1
  Li  Li2  1  0.78552242  0.93728335  0.17721224  1
  Li  Li3  1  0.78552242  0.56271665  0.67721224  1
  Cr  Cr4  1  0.24590826  0.82679956  0.21516314  1
  Cr  Cr5  1  0.24590826  0.67320044  0.71516314  1
  Cr  Cr6  1  0.75409174  0.32679956  0.28483686  1
  Cr  Cr7  1  0.75409174  0.17320044  0.78483686  1
  B  B8  1  0.08661490  0.11471593  0.32898627  1
  B  B9  1  0.08661490  0.38528407  0.82898627  1
  B  B10  1  0.45199483  0.08789028  0.26119919  1
  B  B11  1  0.54800517  0.58789028  0.23880081  1
  B  B12  1  0.45199483  0.41210972  0.76119919  1
  B  B13  1  0.54800517  0.91210972  0.73880081  1
  B  B14  1  0.91338510  0.61471593  0.17101373  1
  B  B15  1  0.91338510  0.88528407  0.67101373  1
  O  O16  1  0.07537600  0.70073081  0.07177207  1
  O  O17  1  0.07103943  0.99468914  0.20625466  1
  O  O18  1  0.07537600  0.79926919  0.57177207  1
  O  O19  1  0.07103943  0.50531086  0.70625466  1
  O  O20  1  0.27066707  0.16286491  0.35262073  1
  O  O21  1  0.37224606  0.66140568  0.33471162  1
  O  O22  1  0.27066707  0.33713509  0.85262073  1
  O  O23  1  0.46292701  0.94688467  0.26315312  1
  O  O24  1  0.37224606  0.83859432  0.83471162  1
  O  O25  1  0.53707299  0.44688467  0.23684688  1
  O  O26  1  0.46292701  0.55311533  0.76315312  1
  O  O27  1  0.62775394  0.16140568  0.16528838  1
  O  O28  1  0.53707299  0.05311533  0.73684688  1
  O  O29  1  0.72933293  0.66286491  0.14737927  1
  O  O30  1  0.62775394  0.33859432  0.66528838  1
  O  O31  1  0.72933293  0.83713509  0.64737927  1
  O  O32  1  0.92896057  0.49468914  0.29374534  1
  O  O33  1  0.92462400  0.20073081  0.42822793  1
  O  O34  1  0.92896057  0.00531086  0.79374534  1
  O  O35  1  0.92462400  0.29926919  0.92822793  1
