# generated using pymatgen
data_Li2FeH4(SO5)2
_symmetry_space_group_name_H-M   'P 1'
_cell_length_a   7.42495449
_cell_length_b   11.15015808
_cell_length_c   5.58415197
_cell_angle_alpha   69.01569187
_cell_angle_beta   110.07116839
_cell_angle_gamma   111.57222289
_symmetry_Int_Tables_number   1
_chemical_formula_structural   Li2FeH4(SO5)2
_chemical_formula_sum   'Li4 Fe2 H8 S4 O20'
_cell_volume   389.31993488
_cell_formula_units_Z   2
loop_
 _symmetry_equiv_pos_site_id
 _symmetry_equiv_pos_as_xyz
  1  'x, y, z'
loop_
 _atom_site_type_symbol
 _atom_site_label
 _atom_site_symmetry_multiplicity
 _atom_site_fract_x
 _atom_site_fract_y
 _atom_site_fract_z
 _atom_site_occupancy
  Li  Li0  1  0.22665096  0.58024727  0.21172625  1
  Li  Li1  1  0.29391906  0.13305678  0.73679565  1
  Li  Li2  1  0.70608108  0.86694342  0.26320410  1
  Li  Li3  1  0.77334916  0.41975290  0.78827328  1
  Fe  Fe4  1  0.48488343  0.75089427  0.74496201  1
  Fe  Fe5  1  0.51511577  0.24910231  0.25504188  1
  H  H6  1  0.19885236  0.79432543  0.87035048  1
  H  H7  1  0.09323490  0.67882029  0.72030808  1
  H  H8  1  0.18894784  0.28475505  0.22443630  1
  H  H9  1  0.11636303  0.13006314  0.26079343  1
  H  H10  1  0.88363739  0.86993714  0.73920628  1
  H  H11  1  0.81105234  0.71524502  0.77556355  1
  H  H12  1  0.90676519  0.32118003  0.27969158  1
  H  H13  1  0.80114760  0.20567477  0.12964944  1
  S  S14  1  0.27021120  0.93497229  0.19762243  1
  S  S15  1  0.26213982  0.42979753  0.72374931  1
  S  S16  1  0.73786057  0.57020309  0.27624997  1
  S  S17  1  0.72978947  0.06502828  0.80237691  1
  O  O18  1  0.14078819  0.92208129  0.35534977  1
  O  O19  1  0.21062129  0.70906776  0.85975186  1
  O  O20  1  0.15863286  0.41689211  0.91914054  1
  O  O21  1  0.15984433  0.91955383  0.92433450  1
  O  O22  1  0.12190559  0.41263786  0.46599899  1
  O  O23  1  0.58469432  0.92686320  0.85214907  1
  O  O24  1  0.38986659  0.83441575  0.32870566  1
  O  O25  1  0.40279628  0.56811067  0.65873591  1
  O  O26  1  0.38032375  0.32924378  0.82949484  1
  O  O27  1  0.22251347  0.20038791  0.33896029  1
  O  O28  1  0.77748648  0.79961173  0.66103957  1
  O  O29  1  0.61967602  0.67075696  0.17050474  1
  O  O30  1  0.59720294  0.43188894  0.34126384  1
  O  O31  1  0.61013287  0.16558474  0.67129492  1
  O  O32  1  0.41530632  0.07313577  0.14785174  1
  O  O33  1  0.87809522  0.58736272  0.53400087  1
  O  O34  1  0.84015598  0.08044636  0.07566640  1
  O  O35  1  0.84136698  0.58310853  0.08085790  1
  O  O36  1  0.78937832  0.29093175  0.14024770  1
  O  O37  1  0.85921203  0.07791933  0.64464994  1
