# generated using pymatgen
data_Li2FeBO4
_symmetry_space_group_name_H-M   'P 1'
_cell_length_a   5.81463517
_cell_length_b   5.35830483
_cell_length_c   4.80063149
_cell_angle_alpha   89.99987681
_cell_angle_beta   89.99980033
_cell_angle_gamma   89.99996805
_symmetry_Int_Tables_number   1
_chemical_formula_structural   Li2FeBO4
_chemical_formula_sum   'Li4 Fe2 B2 O8'
_cell_volume   149.57129611
_cell_formula_units_Z   2
loop_
 _symmetry_equiv_pos_site_id
 _symmetry_equiv_pos_as_xyz
  1  'x, y, z'
loop_
 _atom_site_type_symbol
 _atom_site_label
 _atom_site_symmetry_multiplicity
 _atom_site_fract_x
 _atom_site_fract_y
 _atom_site_fract_z
 _atom_site_occupancy
  Li  Li0  1  0.25258488  0.33638588  0.99338894  1
  Li  Li1  1  0.24741559  0.66361418  0.49339192  1
  Li  Li2  1  0.74741361  0.33638277  0.99339155  1
  Li  Li3  1  0.75258329  0.66361494  0.49339025  1
  Fe  Fe4  1  0.00000467  0.85811895  0.99611412  1
  Fe  Fe5  1  0.49999114  0.14188309  0.49610684  1
  B  B6  1  0.00000445  0.17224056  0.50240102  1
  B  B7  1  0.49999641  0.82776625  0.00241531  1
  O  O8  1  0.99999643  0.16823714  0.81234048  1
  O  O9  1  -0.00000409  0.90836346  0.39330525  1
  O  O10  1  0.28712813  0.69379433  0.90452797  1
  O  O11  1  0.21286652  0.30620639  0.40452466  1
  O  O12  1  0.49999862  0.09163683  0.89330356  1
  O  O13  1  0.50000193  0.83176804  0.31234274  1
  O  O14  1  0.78714147  0.30620170  0.40453141  1
  O  O15  1  0.71287596  0.69378549  0.90452799  1
