# generated using pymatgen
data_K2Al11Si13(Ag3O16)3
_symmetry_space_group_name_H-M   'P 1'
_cell_length_a   12.92473846
_cell_length_b   12.17549166
_cell_length_c   12.33948872
_cell_angle_alpha   90.07062715
_cell_angle_beta   89.52035214
_cell_angle_gamma   90.00486504
_symmetry_Int_Tables_number   1
_chemical_formula_structural   K2Al11Si13(Ag3O16)3
_chemical_formula_sum   'K2 Al11 Si13 Ag9 O48'
_cell_volume   1941.73467904
_cell_formula_units_Z   1
loop_
 _symmetry_equiv_pos_site_id
 _symmetry_equiv_pos_as_xyz
  1  'x, y, z'
loop_
 _atom_site_type_symbol
 _atom_site_label
 _atom_site_symmetry_multiplicity
 _atom_site_fract_x
 _atom_site_fract_y
 _atom_site_fract_z
 _atom_site_occupancy
  K  K0  1  0.50404386  -0.01008997  0.00262189  1
  K  K1  1  0.54306023  0.39905997  0.86616980  1
  Al  Al2  1  0.18323907  -0.00005724  0.62959099  1
  Al  Al3  1  0.17187808  0.36758011  0.99749476  1
  Al  Al4  1  0.36698904  0.79936260  0.00050127  1
  Al  Al5  1  0.61958115  0.99339078  0.20402330  1
  Al  Al6  1  0.62203101  0.20090367  0.00819286  1
  Al  Al7  1  0.62495935  0.99421746  0.80662815  1
  Al  Al8  1  0.61987896  0.78423465  0.00504703  1
  Al  Al9  1  0.83250875  0.99162743  0.36986644  1
  Al  Al10  1  0.83516406  0.99228489  0.63419386  1
  Al  Al11  1  0.82607631  0.36358060  0.00271776  1
  Al  Al12  1  0.83904297  0.63639733  0.00307991  1
  Si  Si13  1  0.17988155  0.00222507  0.36953819  1
  Si  Si14  1  0.17453034  0.61670840  0.99536087  1
  Si  Si15  1  0.36709232  0.99502635  0.19240885  1
  Si  Si16  1  0.36645579  0.18426434  0.00224773  1
  Si  Si17  1  0.37143572  -0.00273568  0.81020709  1
  Si  Si18  1  0.00301038  0.18242402  0.37091149  1
  Si  Si19  1  0.00334290  0.18363307  0.63182503  1
  Si  Si20  1  0.99119050  0.36556347  0.18929950  1
  Si  Si21  1  0.99190094  0.36291240  0.81344857  1
  Si  Si22  1  0.00132455  0.62523647  0.18738101  1
  Si  Si23  1  0.99771361  0.62409563  0.81260445  1
  Si  Si24  1  0.01172367  0.80912577  0.37058770  1
  Si  Si25  1  0.01288163  0.80536741  0.63026817  1
  Ag  Ag26  1  0.19937492  0.21097130  0.19624168  1
  Ag  Ag27  1  0.18888530  0.18628089  0.81327780  1
  Ag  Ag28  1  0.20184624  0.78854155  0.19309460  1
  Ag  Ag29  1  0.20034934  0.80252872  0.80960299  1
  Ag  Ag30  1  0.79993324  0.16381783  0.18003498  1
  Ag  Ag31  1  0.80927476  0.15249119  0.83642149  1
  Ag  Ag32  1  0.79458843  0.81779821  0.18501809  1
  Ag  Ag33  1  0.79864691  0.82128904  0.82107426  1
  Ag  Ag34  1  0.77251209  0.98289884  0.00560759  1
  O  O35  1  0.98236790  0.49699517  0.22169491  1
  O  O36  1  0.00204881  0.30198473  0.69501678  1
  O  O37  1  0.97906551  0.49455405  0.78625325  1
  O  O38  1  0.01896025  0.77792176  0.49888247  1
  O  O39  1  0.01887016  0.68791254  0.69705570  1
  O  O40  1  0.11523385  0.11723374  0.34011741  1
  O  O41  1  0.09632993  0.34401013  0.11613046  1
  O  O42  1  0.11273187  0.12142607  0.65998734  1
  O  O43  1  0.10668025  0.63361244  0.10917828  1
  O  O44  1  0.10074250  0.34044065  0.87853375  1
  O  O45  1  0.11335808  0.88997511  0.33597862  1
  O  O46  1  0.10490920  0.63668412  0.88559101  1
  O  O47  1  0.11696245  0.87612753  0.66330997  1
  O  O48  1  0.21255793  -0.00083222  0.49281727  1
  O  O49  1  0.22614774  0.49738959  0.99331542  1
  O  O50  1  0.29238789  0.00630241  0.71079779  1
  O  O51  1  0.25950537  0.71388450  0.99451715  1
  O  O52  1  0.28157401  0.00619979  0.29027852  1
  O  O53  1  0.27549245  0.27420145  0.00239484  1
  O  O54  1  0.34542246  0.10533282  0.11200658  1
  O  O55  1  0.34427510  0.10548183  0.89389947  1
  O  O56  1  0.34063156  0.88549838  0.11939025  1
  O  O57  1  0.34714982  0.88783541  0.88536732  1
  O  O58  1  0.48376633  -0.00428475  0.23449879  1
  O  O59  1  0.48345715  0.23360652  -0.00059631  1
  O  O60  1  0.48954928  0.74841978  0.00315256  1
  O  O61  1  0.49139170  0.00105646  0.77539766  1
  O  O62  1  0.64002359  0.11438113  0.12037743  1
  O  O63  1  0.64360535  0.11501587  0.89123092  1
  O  O64  1  0.64023807  0.87762492  0.11710838  1
  O  O65  1  0.64277654  0.87973945  0.89454753  1
  O  O66  1  0.72759694  0.98985161  0.71832755  1
  O  O67  1  0.71541418  0.68688743  0.00395255  1
  O  O68  1  0.72124009  0.99212655  0.29280778  1
  O  O69  1  0.69638787  0.31856017  0.99600163  1
  O  O70  1  0.85672008  0.49873015  0.00213811  1
  O  O71  1  0.80762573  0.99774447  0.50244015  1
  O  O72  1  0.91038395  0.10670874  0.32646668  1
  O  O73  1  0.90747511  0.11108279  0.67561359  1
  O  O74  1  0.88921836  0.31761934  0.12696422  1
  O  O75  1  0.89387005  0.31228966  0.88231091  1
  O  O76  1  0.90663878  0.68301124  0.12405257  1
  O  O77  1  0.90528896  0.68318812  0.88103553  1
  O  O78  1  0.90651701  0.86939895  0.33537172  1
  O  O79  1  0.90978063  0.87100006  0.66560786  1
  O  O80  1  0.00035044  0.20742995  0.50041482  1
  O  O81  1  0.00769550  0.29851553  0.30458290  1
  O  O82  1  0.03103524  0.69716727  0.29708978  1
