# generated using pymatgen
data_Li4Ti3V3(WO8)2
_symmetry_space_group_name_H-M   'P 1'
_cell_length_a   6.01258967
_cell_length_b   5.99534833
_cell_length_c   9.87631062
_cell_angle_alpha   90.00035624
_cell_angle_beta   91.33528484
_cell_angle_gamma   119.90505940
_symmetry_Int_Tables_number   1
_chemical_formula_structural   Li4Ti3V3(WO8)2
_chemical_formula_sum   'Li4 Ti3 V3 W2 O16'
_cell_volume   308.50274005
_cell_formula_units_Z   1
loop_
 _symmetry_equiv_pos_site_id
 _symmetry_equiv_pos_as_xyz
  1  'x, y, z'
loop_
 _atom_site_type_symbol
 _atom_site_label
 _atom_site_symmetry_multiplicity
 _atom_site_fract_x
 _atom_site_fract_y
 _atom_site_fract_z
 _atom_site_occupancy
  Li  Li0  1  0.33044391  0.66523209  0.89892125  1
  Li  Li1  1  0.99235697  0.99619887  0.98845653  1
  Li  Li2  1  0.00541739  0.00271982  0.49425158  1
  Li  Li3  1  0.66493323  0.33246565  0.40126027  1
  Ti  Ti4  1  0.17538402  0.83893790  0.21433161  1
  Ti  Ti5  1  0.17538715  0.33648345  0.21434285  1
  Ti  Ti6  1  0.34719952  0.17360974  0.72011809  1
  V  V7  1  0.65217442  0.82610500  0.21205537  1
  V  V8  1  0.83722059  0.65179730  0.71119365  1
  V  V9  1  0.83723371  0.18546327  0.71120988  1
  W  W10  1  0.33961478  0.66982288  0.48919992  1
  W  W11  1  0.67869687  0.33935676  0.98752786  1
  O  O12  1  0.17291551  0.83614453  0.59503240  1
  O  O13  1  0.04482880  0.52242084  0.34271206  1
  O  O14  1  0.30127681  0.65064616  0.10579016  1
  O  O15  1  0.01060624  0.00531800  0.30833763  1
  O  O16  1  0.01433705  0.00718885  0.80228899  1
  O  O17  1  0.17291963  0.33679956  0.59503138  1
  O  O18  1  0.46854054  0.96122273  0.34445056  1
  O  O19  1  0.46855549  0.50734786  0.34445078  1
  O  O20  1  0.32601962  0.16302208  0.10847578  1
  O  O21  1  0.65995032  0.82998702  0.58904790  1
  O  O22  1  0.51240211  0.47430410  0.84247584  1
  O  O23  1  0.51240834  0.03811345  0.84247169  1
  O  O24  1  0.63874382  0.31935569  0.60099918  1
  O  O25  1  0.84447096  0.67460937  0.09945131  1
  O  O26  1  0.97149060  0.48573742  0.84450409  1
  O  O27  1  0.84447259  0.16988859  0.09945442  1
