# generated using pymatgen
data_LiMnV(PO4)3
_symmetry_space_group_name_H-M   'P 1'
_cell_length_a   8.83210510
_cell_length_b   8.28599863
_cell_length_c   8.37376308
_cell_angle_alpha   59.39821713
_cell_angle_beta   64.15102523
_cell_angle_gamma   90.20136855
_symmetry_Int_Tables_number   1
_chemical_formula_structural   LiMnV(PO4)3
_chemical_formula_sum   'Li2 Mn2 V2 P6 O24'
_cell_volume   454.13750083
_cell_formula_units_Z   2
loop_
 _symmetry_equiv_pos_site_id
 _symmetry_equiv_pos_as_xyz
  1  'x, y, z'
loop_
 _atom_site_type_symbol
 _atom_site_label
 _atom_site_symmetry_multiplicity
 _atom_site_fract_x
 _atom_site_fract_y
 _atom_site_fract_z
 _atom_site_occupancy
  Li  Li0  1  0.86982024  0.68237688  0.05584750  1
  Li  Li1  1  0.88219790  0.24206126  0.81922534  1
  Mn  Mn2  1  0.56358107  0.86153077  0.29662392  1
  Mn  Mn3  1  0.42870323  0.13676811  0.71392747  1
  V  V4  1  0.05422159  0.34866563  0.29645691  1
  V  V5  1  0.95424949  0.65935037  0.68333630  1
  P  P6  1  0.25115134  0.04299603  0.21200213  1
  P  P7  1  0.25080878  0.46488407  0.50181188  1
  P  P8  1  0.24761830  0.75181640  0.79483728  1
  P  P9  1  0.75368197  0.25421416  0.20479649  1
  P  P10  1  0.74425949  0.53095786  0.49961455  1
  P  P11  1  0.75211796  0.96231567  0.77689580  1
  O  O12  1  0.10725481  0.83366859  0.39476675  1
  O  O13  1  0.25577357  0.12160126  0.00517478  1
  O  O14  1  0.18587857  0.17743863  0.29617028  1
  O  O15  1  0.17979698  0.47112117  0.35553231  1
  O  O16  1  0.09549842  0.47768170  0.68109239  1
  O  O17  1  0.08997247  0.77241804  0.74980268  1
  O  O18  1  0.42598065  0.02556989  0.20217369  1
  O  O19  1  0.27059851  0.26137166  0.61681185  1
  O  O20  1  0.41700339  0.63169573  0.36282587  1
  O  O21  1  0.17862785  0.53668045  0.00713243  1
  O  O22  1  0.25628654  0.89013488  0.86105144  1
  O  O23  1  0.41263482  0.77164955  0.61719884  1
  O  O24  1  0.58352258  0.22215348  0.38652364  1
  O  O25  1  0.74649030  0.11935072  0.13037458  1
  O  O26  1  0.81999875  0.47189538  -0.00024017  1
  O  O27  1  0.57426785  0.36729010  0.64360273  1
  O  O28  1  0.72466256  0.73594172  0.38330504  1
  O  O29  1  0.57556849  0.97441826  0.79431087  1
  O  O30  1  0.90167531  0.22257612  0.26674119  1
  O  O31  1  0.88877480  0.51646426  0.31739470  1
  O  O32  1  0.81589007  0.51485403  0.64992513  1
  O  O33  1  0.81768945  0.82527402  0.69613893  1
  O  O34  1  0.74634923  0.87555713  0.98991580  1
  O  O35  1  0.89423968  0.16841403  0.61581268  1
