# generated using pymatgen
data_LiVOF3
_symmetry_space_group_name_H-M   'P 1'
_cell_length_a   5.14435728
_cell_length_b   6.03302756
_cell_length_c   9.90322269
_cell_angle_alpha   90.00455052
_cell_angle_beta   89.98819445
_cell_angle_gamma   90.01187963
_symmetry_Int_Tables_number   1
_chemical_formula_structural   LiVOF3
_chemical_formula_sum   'Li4 V4 O4 F12'
_cell_volume   307.35689259
_cell_formula_units_Z   4
loop_
 _symmetry_equiv_pos_site_id
 _symmetry_equiv_pos_as_xyz
  1  'x, y, z'
loop_
 _atom_site_type_symbol
 _atom_site_label
 _atom_site_symmetry_multiplicity
 _atom_site_fract_x
 _atom_site_fract_y
 _atom_site_fract_z
 _atom_site_occupancy
  Li  Li0  1  0.07023594  0.32986583  0.63135699  1
  Li  Li1  1  0.42963274  0.67002359  0.13136201  1
  Li  Li2  1  0.57038082  0.17006617  0.36859668  1
  Li  Li3  1  0.92977051  0.82976156  0.86859254  1
  V  V4  1  0.19077861  0.13292792  0.09389209  1
  V  V5  1  0.30898310  0.86686383  0.59372791  1
  V  V6  1  0.69089936  0.36710343  0.90617478  1
  V  V7  1  0.80933356  0.63272680  0.40609595  1
  O  O8  1  0.12896468  0.66148689  0.52241860  1
  O  O9  1  0.37106425  0.33883102  0.02242253  1
  O  O10  1  0.62883631  0.83882080  0.47762441  1
  O  O11  1  0.87109298  0.16139752  0.97766464  1
  F  F12  1  0.00297391  0.23091103  0.24007100  1
  F  F13  1  0.05154244  0.99249531  0.71204329  1
  F  F14  1  0.21260305  0.85317656  0.00744739  1
  F  F15  1  0.28739762  0.14687713  0.50745969  1
  F  F16  1  0.44842828  0.00759536  0.21200197  1
  F  F17  1  0.49686627  0.76911074  0.74002841  1
  F  F18  1  0.50312937  0.26902813  0.76000768  1
  F  F19  1  0.55154497  0.50751125  0.28798991  1
  F  F20  1  0.71268896  0.64689653  0.99254568  1
  F  F21  1  0.78733011  0.35309454  0.49255739  1
  F  F22  1  0.94848927  0.49252970  0.78793651  1
  F  F23  1  0.99698591  0.73090435  0.25996993  1
