# generated using pymatgen
data_Li3Fe4NiO8
_symmetry_space_group_name_H-M   'P 1'
_cell_length_a   6.01745316
_cell_length_b   6.01745337
_cell_length_c   5.99880019
_cell_angle_alpha   89.22805169
_cell_angle_beta   59.77270700
_cell_angle_gamma   59.23221414
_symmetry_Int_Tables_number   1
_chemical_formula_structural   Li3Fe4NiO8
_chemical_formula_sum   'Li3 Fe4 Ni1 O8'
_cell_volume   152.30181070
_cell_formula_units_Z   1
loop_
 _symmetry_equiv_pos_site_id
 _symmetry_equiv_pos_as_xyz
  1  'x, y, z'
loop_
 _atom_site_type_symbol
 _atom_site_label
 _atom_site_symmetry_multiplicity
 _atom_site_fract_x
 _atom_site_fract_y
 _atom_site_fract_z
 _atom_site_occupancy
  Li  Li0  1  0.00000000  0.00000000  0.50000000  1
  Li  Li1  1  0.50000000  0.00000000  0.50000000  1
  Li  Li2  1  0.50000000  0.50000000  0.50000000  1
  Fe  Fe3  1  0.00000000  0.50000000  0.50000000  1
  Fe  Fe4  1  0.00000000  0.00000000  0.00000000  1
  Fe  Fe5  1  0.50000000  0.00000000  0.00000000  1
  Fe  Fe6  1  0.00000000  0.50000000  0.00000000  1
  Ni  Ni7  1  0.50000000  0.50000000  0.00000000  1
  O  O8  1  0.48068517  0.25367778  0.77299161  1
  O  O9  1  0.99909197  0.26360093  0.75166397  1
  O  O10  1  0.51193696  0.75075594  0.75166397  1
  O  O11  1  0.99157535  0.74224433  0.75066798  1
  O  O12  1  0.00842465  0.25775567  0.24933202  1
  O  O13  1  0.48806304  0.24924406  0.24833603  1
  O  O14  1  0.00090803  0.73639907  0.24833603  1
  O  O15  1  0.51931483  0.74632222  0.22700839  1
