# generated using pymatgen
data_LiVGaO4
_symmetry_space_group_name_H-M   'P 1'
_cell_length_a   5.97299652
_cell_length_b   5.97299652
_cell_length_c   5.97299639
_cell_angle_alpha   59.26792697
_cell_angle_beta   91.39759115
_cell_angle_gamma   120.88829807
_symmetry_Int_Tables_number   1
_chemical_formula_structural   LiVGaO4
_chemical_formula_sum   'Li2 V2 Ga2 O8'
_cell_volume   148.78851034
_cell_formula_units_Z   2
loop_
 _symmetry_equiv_pos_site_id
 _symmetry_equiv_pos_as_xyz
  1  'x, y, z'
loop_
 _atom_site_type_symbol
 _atom_site_label
 _atom_site_symmetry_multiplicity
 _atom_site_fract_x
 _atom_site_fract_y
 _atom_site_fract_z
 _atom_site_occupancy
  Li  Li0  1  0.11936828  0.25000000  0.13063172  1
  Li  Li1  1  0.88063172  0.75000000  0.86936828  1
  V  V2  1  0.50000000  0.00000000  0.50000000  1
  V  V3  1  0.00000000  0.50000000  0.50000000  1
  Ga  Ga4  1  0.50000000  0.00000000  0.00000000  1
  Ga  Ga5  1  0.50000000  0.50000000  0.50000000  1
  O  O6  1  0.29239698  0.02522043  0.73282445  1
  O  O7  1  0.25804488  0.52522043  0.26717555  1
  O  O8  1  0.25670555  0.53038353  0.71291092  1
  O  O9  1  0.25670555  0.96961647  0.27367797  1
  O  O10  1  0.74329445  0.03038353  0.72632203  1
  O  O11  1  0.74329445  0.46961647  0.28708908  1
  O  O12  1  0.74195512  0.47477957  0.73282445  1
  O  O13  1  0.70760302  0.97477957  0.26717555  1
