# generated using pymatgen
data_Li2MnFe3O8
_symmetry_space_group_name_H-M   'P 1'
_cell_length_a   5.90750138
_cell_length_b   5.90812058
_cell_length_c   9.55162753
_cell_angle_alpha   90.00285202
_cell_angle_beta   89.99846308
_cell_angle_gamma   120.00330968
_symmetry_Int_Tables_number   1
_chemical_formula_structural   Li2MnFe3O8
_chemical_formula_sum   'Li4 Mn2 Fe6 O16'
_cell_volume   288.69994913
_cell_formula_units_Z   2
loop_
 _symmetry_equiv_pos_site_id
 _symmetry_equiv_pos_as_xyz
  1  'x, y, z'
loop_
 _atom_site_type_symbol
 _atom_site_label
 _atom_site_symmetry_multiplicity
 _atom_site_fract_x
 _atom_site_fract_y
 _atom_site_fract_z
 _atom_site_occupancy
  Li  Li0  1  0.33336734  0.66667248  0.89676221  1
  Li  Li1  1  0.00002503  0.00002406  0.99414140  1
  Li  Li2  1  0.99997474  0.99999170  0.49414346  1
  Li  Li3  1  0.66663295  0.33331146  0.39674172  1
  Mn  Mn4  1  0.33335669  0.66669505  0.48232177  1
  Mn  Mn5  1  0.66665625  0.33334149  0.98228264  1
  Fe  Fe6  1  0.16933910  0.83065463  0.21207973  1
  Fe  Fe7  1  0.16934233  0.33871576  0.21207210  1
  Fe  Fe8  1  0.66129291  0.83066443  0.21205307  1
  Fe  Fe9  1  0.33866817  0.16935101  0.71206309  1
  Fe  Fe10  1  0.83067801  0.66134987  0.71209085  1
  Fe  Fe11  1  0.83067427  0.16935235  0.71207976  1
  O  O12  1  0.16893869  0.83109772  0.59775796  1
  O  O13  1  0.04175582  0.52088326  0.34686997  1
  O  O14  1  0.33330877  0.66667841  0.10391248  1
  O  O15  1  -0.00001574  -0.00000105  0.30668049  1
  O  O16  1  0.00001630  0.00004514  0.80667583  1
  O  O17  1  0.16894821  0.33787636  0.59777778  1
  O  O18  1  0.47914628  0.95822008  0.34687613  1
  O  O19  1  0.47914816  0.52093440  0.34685662  1
  O  O20  1  0.33791839  0.16896350  0.09777912  1
  O  O21  1  0.66209847  0.83105173  0.59779656  1
  O  O22  1  0.52084766  0.47908398  0.84687806  1
  O  O23  1  0.52083933  0.04176322  0.84684932  1
  O  O24  1  0.66668911  0.33334974  0.60393036  1
  O  O25  1  0.83105231  0.66214693  0.09774364  1
  O  O26  1  0.95826240  0.47913967  0.84686744  1
  O  O27  1  0.83103708  0.16894061  0.09775644  1
