# generated using pymatgen
data_Rb5FeO4
_symmetry_space_group_name_H-M   'P 1'
_cell_length_a   7.62264770
_cell_length_b   10.97063219
_cell_length_c   11.65331040
_cell_angle_alpha   90.00000000
_cell_angle_beta   92.33768150
_cell_angle_gamma   90.00000000
_symmetry_Int_Tables_number   1
_chemical_formula_structural   Rb5FeO4
_chemical_formula_sum   'Rb20 Fe4 O16'
_cell_volume   973.70015939
_cell_formula_units_Z   4
loop_
 _symmetry_equiv_pos_site_id
 _symmetry_equiv_pos_as_xyz
  1  'x, y, z'
loop_
 _atom_site_type_symbol
 _atom_site_label
 _atom_site_symmetry_multiplicity
 _atom_site_fract_x
 _atom_site_fract_y
 _atom_site_fract_z
 _atom_site_occupancy
  Rb  Rb0  1  0.10146768  0.33626883  0.73774197  1
  Rb  Rb1  1  0.21314994  0.35317253  0.11396953  1
  Rb  Rb2  1  0.30268487  0.60115678  0.55539999  1
  Rb  Rb3  1  0.19964402  0.09203112  0.55422658  1
  Rb  Rb4  1  0.23982937  0.33819019  0.39339973  1
  Rb  Rb5  1  0.30035598  0.59203112  0.94577342  1
  Rb  Rb6  1  0.19731513  0.10115678  0.94460001  1
  Rb  Rb7  1  0.26017063  0.83819019  0.10660027  1
  Rb  Rb8  1  0.28685006  0.85317253  0.38603047  1
  Rb  Rb9  1  0.39853232  0.83626883  0.76225803  1
  Rb  Rb10  1  0.60146768  0.16373117  0.23774197  1
  Rb  Rb11  1  0.71314994  0.14682747  0.61396953  1
  Rb  Rb12  1  0.73982937  0.16180981  0.89339973  1
  Rb  Rb13  1  0.80268487  0.89884322  0.05539999  1
  Rb  Rb14  1  0.69964402  0.40796888  0.05422658  1
  Rb  Rb15  1  0.76017063  0.66180981  0.60660027  1
  Rb  Rb16  1  0.80035598  0.90796888  0.44577342  1
  Rb  Rb17  1  0.69731513  0.39884322  0.44460001  1
  Rb  Rb18  1  0.78685006  0.64682747  0.88603047  1
  Rb  Rb19  1  0.89853232  0.66373117  0.26225803  1
  Fe  Fe20  1  0.02162083  0.08910557  0.26014265  1
  Fe  Fe21  1  0.52162083  0.41089443  0.76014265  1
  Fe  Fe22  1  0.47837917  0.58910557  0.23985735  1
  Fe  Fe23  1  0.97837917  0.91089443  0.73985735  1
  O  O24  1  0.01501155  0.08570883  0.74764476  1
  O  O25  1  0.93100104  0.15725713  0.11300649  1
  O  O26  1  0.10464195  0.84407913  0.60776264  1
  O  O27  1  0.26642589  0.11080308  0.29299896  1
  O  O28  1  0.39535805  0.34407913  0.89223736  1
  O  O29  1  0.23357411  0.61080308  0.20700104  1
  O  O30  1  0.48498845  0.58570883  0.75235524  1
  O  O31  1  0.56899896  0.65725713  0.38699351  1
  O  O32  1  0.43100104  0.34274287  0.61300649  1
  O  O33  1  0.51501155  0.41429117  0.24764476  1
  O  O34  1  0.76642589  0.38919692  0.79299896  1
  O  O35  1  0.60464195  0.65592087  0.10776264  1
  O  O36  1  0.73357411  0.88919692  0.70700104  1
  O  O37  1  0.89535805  0.15592087  0.39223736  1
  O  O38  1  0.06899896  0.84274287  0.88699351  1
  O  O39  1  0.98498845  0.91429117  0.25235524  1
