# generated using pymatgen
data_LiCr2O4
_symmetry_space_group_name_H-M   'P 1'
_cell_length_a   10.36252160
_cell_length_b   8.99198457
_cell_length_c   2.93955212
_cell_angle_alpha   90.00000000
_cell_angle_beta   90.00000000
_cell_angle_gamma   90.00000000
_symmetry_Int_Tables_number   1
_chemical_formula_structural   LiCr2O4
_chemical_formula_sum   'Li4 Cr8 O16'
_cell_volume   273.90639165
_cell_formula_units_Z   4
loop_
 _symmetry_equiv_pos_site_id
 _symmetry_equiv_pos_as_xyz
  1  'x, y, z'
loop_
 _atom_site_type_symbol
 _atom_site_label
 _atom_site_symmetry_multiplicity
 _atom_site_fract_x
 _atom_site_fract_y
 _atom_site_fract_z
 _atom_site_occupancy
  Li  Li0  1  0.13128654  0.74235016  0.75000000  1
  Li  Li1  1  0.36871346  0.24235016  0.75000000  1
  Li  Li2  1  0.63128654  0.75764984  0.25000000  1
  Li  Li3  1  0.86871346  0.25764984  0.25000000  1
  Cr  Cr4  1  0.10282833  0.41379806  0.25000000  1
  Cr  Cr5  1  0.11797111  0.05980060  0.75000000  1
  Cr  Cr6  1  0.38202889  0.55980060  0.75000000  1
  Cr  Cr7  1  0.39717167  0.91379806  0.25000000  1
  Cr  Cr8  1  0.60282833  0.08620194  0.75000000  1
  Cr  Cr9  1  0.61797111  0.44019940  0.25000000  1
  Cr  Cr10  1  0.88202889  0.94019940  0.25000000  1
  Cr  Cr11  1  0.89717167  0.58620194  0.75000000  1
  O  O12  1  0.02648377  0.61865287  0.25000000  1
  O  O13  1  0.06996677  0.91728683  0.25000000  1
  O  O14  1  0.15506264  0.19728143  0.25000000  1
  O  O15  1  0.21797756  0.46947429  0.75000000  1
  O  O16  1  0.28202244  0.96947429  0.75000000  1
  O  O17  1  0.34493736  0.69728143  0.25000000  1
  O  O18  1  0.43003323  0.41728683  0.25000000  1
  O  O19  1  0.47351623  0.11865287  0.25000000  1
  O  O20  1  0.52648377  0.88134713  0.75000000  1
  O  O21  1  0.56996677  0.58271317  0.75000000  1
  O  O22  1  0.65506264  0.30271857  0.75000000  1
  O  O23  1  0.71797756  0.03052571  0.25000000  1
  O  O24  1  0.78202244  0.53052571  0.25000000  1
  O  O25  1  0.84493736  0.80271857  0.75000000  1
  O  O26  1  0.93003323  0.08271317  0.75000000  1
  O  O27  1  0.97351623  0.38134713  0.75000000  1
