# generated using pymatgen
data_Li3Ni(BO3)2
_symmetry_space_group_name_H-M   'P 1'
_cell_length_a   4.98443092
_cell_length_b   6.30886559
_cell_length_c   8.05223417
_cell_angle_alpha   74.45757803
_cell_angle_beta   89.40674855
_cell_angle_gamma   89.70945411
_symmetry_Int_Tables_number   1
_chemical_formula_structural   Li3Ni(BO3)2
_chemical_formula_sum   'Li6 Ni2 B4 O12'
_cell_volume   243.93827678
_cell_formula_units_Z   2
loop_
 _symmetry_equiv_pos_site_id
 _symmetry_equiv_pos_as_xyz
  1  'x, y, z'
loop_
 _atom_site_type_symbol
 _atom_site_label
 _atom_site_symmetry_multiplicity
 _atom_site_fract_x
 _atom_site_fract_y
 _atom_site_fract_z
 _atom_site_occupancy
  Li  Li0  1  0.17568217  0.89280177  0.92700649  1
  Li  Li1  1  0.32671655  0.02462208  0.25813540  1
  Li  Li2  1  0.32976034  0.73974315  0.60997276  1
  Li  Li3  1  0.67023966  0.26025685  0.39002724  1
  Li  Li4  1  0.67328345  0.97537792  0.74186460  1
  Li  Li5  1  0.82431783  0.10719823  0.07299351  1
  Ni  Ni6  1  0.15201614  0.55180003  0.27568490  1
  Ni  Ni7  1  0.84798386  0.44819997  0.72431510  1
  B  B8  1  0.16027679  0.17248927  0.57262410  1
  B  B9  1  0.33292925  0.32457912  0.90984252  1
  B  B10  1  0.66707075  0.67542088  0.09015748  1
  B  B11  1  0.83972321  0.82751073  0.42737590  1
  O  O12  1  0.10941799  0.76872249  0.39839832  1
  O  O13  1  0.19908485  0.48883528  0.78559518  1
  O  O14  1  0.20598450  0.16278548  0.02897119  1
  O  O15  1  0.28007619  0.28157622  0.41352804  1
  O  O16  1  0.29123833  0.00828406  0.68522023  1
  O  O17  1  0.38420278  0.67046548  0.09569618  1
  O  O18  1  0.61579722  0.32953452  0.90430382  1
  O  O19  1  0.70876167  0.99171594  0.31477977  1
  O  O20  1  0.71992381  0.71842378  0.58647196  1
  O  O21  1  0.79401550  0.83721452  0.97102881  1
  O  O22  1  0.80091515  0.51116472  0.21440482  1
  O  O23  1  0.89058201  0.23127751  0.60160168  1
