# generated using pymatgen
data_Rb2Fe4O7
_symmetry_space_group_name_H-M   'P 1'
_cell_length_a   5.36584780
_cell_length_b   5.36583386
_cell_length_c   7.05631953
_cell_angle_alpha   90.01782357
_cell_angle_beta   89.99109520
_cell_angle_gamma   119.99991475
_symmetry_Int_Tables_number   1
_chemical_formula_structural   Rb2Fe4O7
_chemical_formula_sum   'Rb2 Fe4 O7'
_cell_volume   175.94818589
_cell_formula_units_Z   1
loop_
 _symmetry_equiv_pos_site_id
 _symmetry_equiv_pos_as_xyz
  1  'x, y, z'
loop_
 _atom_site_type_symbol
 _atom_site_label
 _atom_site_symmetry_multiplicity
 _atom_site_fract_x
 _atom_site_fract_y
 _atom_site_fract_z
 _atom_site_occupancy
  Rb  Rb0  1  0.33333688  0.66664050  0.99997240  1
  Rb  Rb1  1  0.66666312  0.33330362  0.99997240  1
  Fe  Fe2  1  0.00000000  -0.00002178  0.27292282  1
  Fe  Fe3  1  1.00000000  0.99998808  0.72712954  1
  Fe  Fe4  1  0.33334321  0.66666242  0.49999942  1
  Fe  Fe5  1  0.66665679  0.33331921  0.49999942  1
  O  O6  1  1.00000000  0.65041403  0.33946209  1
  O  O7  1  0.00000000  0.34953573  0.66053457  1
  O  O8  1  1.00000000  0.99998159  0.00001494  1
  O  O9  1  0.34961449  0.34961932  0.33946851  1
  O  O10  1  0.65040762  0.65037954  0.66052670  1
  O  O11  1  0.34959238  0.99997292  0.66052670  1
  O  O12  1  0.65038551  0.00000582  0.33946851  1
