# generated using pymatgen
data_Ba7SiB3NO13
_symmetry_space_group_name_H-M   'P 1'
_cell_length_a   11.33753379
_cell_length_b   11.33753376
_cell_length_c   7.47907987
_cell_angle_alpha   90.00000000
_cell_angle_beta   90.00000000
_cell_angle_gamma   120.00000010
_symmetry_Int_Tables_number   1
_chemical_formula_structural   Ba7SiB3NO13
_chemical_formula_sum   'Ba14 Si2 B6 N2 O26'
_cell_volume   832.56085966
_cell_formula_units_Z   2
loop_
 _symmetry_equiv_pos_site_id
 _symmetry_equiv_pos_as_xyz
  1  'x, y, z'
loop_
 _atom_site_type_symbol
 _atom_site_label
 _atom_site_symmetry_multiplicity
 _atom_site_fract_x
 _atom_site_fract_y
 _atom_site_fract_z
 _atom_site_occupancy
  Ba  Ba0  1  0.12435758  0.86165370  0.19460782  1
  Ba  Ba1  1  0.04675818  0.52428151  0.85215784  1
  Ba  Ba2  1  0.47752333  0.95324182  0.85215784  1
  Ba  Ba3  1  0.13834630  0.26270388  0.19460782  1
  Ba  Ba4  1  0.33333300  0.66666700  0.49047986  1
  Ba  Ba5  1  0.47571849  0.52247667  0.85215784  1
  Ba  Ba6  1  0.26270388  0.12435758  0.69460782  1
  Ba  Ba7  1  0.73729612  0.87564242  0.19460782  1
  Ba  Ba8  1  0.52428151  0.47752333  0.35215784  1
  Ba  Ba9  1  0.86165370  0.73729612  0.69460782  1
  Ba  Ba10  1  0.52247667  0.04675818  0.35215784  1
  Ba  Ba11  1  0.66666700  0.33333300  0.99047986  1
  Ba  Ba12  1  0.95324182  0.47571849  0.35215784  1
  Ba  Ba13  1  0.87564242  0.13834630  0.69460782  1
  Si  Si14  1  0.33333300  0.66666700  0.08270386  1
  Si  Si15  1  0.66666700  0.33333300  0.58270386  1
  B  B16  1  0.17465245  0.81420286  0.63995700  1
  B  B17  1  0.18579714  0.36044958  0.63995700  1
  B  B18  1  0.63955042  0.82534755  0.63995700  1
  B  B19  1  0.36044958  0.17465245  0.13995700  1
  B  B20  1  0.81420286  0.63955042  0.13995700  1
  B  B21  1  0.82534755  0.18579714  0.13995700  1
  N  N22  1  0.00000000  0.00000000  0.47957275  1
  N  N23  1  0.00000000  0.00000000  0.97957275  1
  O  O24  1  0.14983229  0.85575676  0.80339334  1
  O  O25  1  0.07902026  0.68880365  0.56625225  1
  O  O26  1  0.29468628  0.89601127  0.54452818  1
  O  O27  1  0.18681311  0.64321803  0.16116850  1
  O  O28  1  0.10398873  0.39867501  0.54452818  1
  O  O29  1  0.14424324  0.29407553  0.80339334  1
  O  O30  1  0.33333300  0.66666700  0.85957870  1
  O  O31  1  0.45640492  0.81318689  0.16116850  1
  O  O32  1  0.35678197  0.54359508  0.16116850  1
  O  O33  1  0.31119635  0.39021661  0.56625225  1
  O  O34  1  0.60978339  0.92097974  0.56625225  1
  O  O35  1  0.29407553  0.14983229  0.30339334  1
  O  O36  1  0.39867501  0.29468628  0.04452818  1
  O  O37  1  0.60132499  0.70531372  0.54452818  1
  O  O38  1  0.70592447  0.85016771  0.80339334  1
  O  O39  1  0.39021661  0.07902026  0.06625225  1
  O  O40  1  0.68880365  0.60978339  0.06625225  1
  O  O41  1  0.64321803  0.45640492  0.66116850  1
  O  O42  1  0.54359508  0.18681311  0.66116850  1
  O  O43  1  0.85575676  0.70592447  0.30339334  1
  O  O44  1  0.66666700  0.33333300  0.35957870  1
  O  O45  1  0.89601127  0.60132499  0.04452818  1
  O  O46  1  0.81318689  0.35678197  0.66116850  1
  O  O47  1  0.70531372  0.10398873  0.04452818  1
  O  O48  1  0.92097974  0.31119635  0.06625225  1
  O  O49  1  0.85016771  0.14424324  0.30339334  1
