# generated using pymatgen
data_LiFeCSO7
_symmetry_space_group_name_H-M   'P 1'
_cell_length_a   8.85202781
_cell_length_b   6.44510870
_cell_length_c   5.24079949
_cell_angle_alpha   90.00000000
_cell_angle_beta   86.35104310
_cell_angle_gamma   90.00000000
_symmetry_Int_Tables_number   1
_chemical_formula_structural   LiFeCSO7
_chemical_formula_sum   'Li2 Fe2 C2 S2 O14'
_cell_volume   298.39340969
_cell_formula_units_Z   2
loop_
 _symmetry_equiv_pos_site_id
 _symmetry_equiv_pos_as_xyz
  1  'x, y, z'
loop_
 _atom_site_type_symbol
 _atom_site_label
 _atom_site_symmetry_multiplicity
 _atom_site_fract_x
 _atom_site_fract_y
 _atom_site_fract_z
 _atom_site_occupancy
  Li  Li0  1  0.16453431  0.53845526  0.22968656  1
  Li  Li1  1  0.83546569  0.03845526  0.77031344  1
  Fe  Fe2  1  0.34095946  0.74982263  0.78340468  1
  Fe  Fe3  1  0.65904054  0.24982263  0.21659532  1
  C  C4  1  0.06838057  0.74317587  0.72832597  1
  C  C5  1  0.93161943  0.24317587  0.27167403  1
  S  S6  1  0.43000195  0.24620537  0.72940109  1
  S  S7  1  0.56999805  0.74620537  0.27059891  1
  O  O8  1  0.06719015  0.27740705  0.30399760  1
  O  O9  1  0.12851036  0.73804993  0.95466634  1
  O  O10  1  0.17513318  0.71790268  0.53900821  1
  O  O11  1  0.33449116  0.06235021  0.79019214  1
  O  O12  1  0.34185696  0.42966148  0.82074739  1
  O  O13  1  0.42374086  0.73433737  0.14493390  1
  O  O14  1  0.46518098  0.26048315  0.44643817  1
  O  O15  1  0.53481902  0.76048315  0.55356183  1
  O  O16  1  0.57625914  0.23433737  0.85506610  1
  O  O17  1  0.65814304  0.92966148  0.17925261  1
  O  O18  1  0.66550884  0.56235021  0.20980786  1
  O  O19  1  0.82486682  0.21790268  0.46099179  1
  O  O20  1  0.87148964  0.23804993  0.04533366  1
  O  O21  1  0.93280985  0.77740705  0.69600240  1
