# generated using pymatgen
data_Mg(IO3)2
_symmetry_space_group_name_H-M   'P 1'
_cell_length_a   6.72020342
_cell_length_b   11.05572741
_cell_length_c   7.89562401
_cell_angle_alpha   90.00000000
_cell_angle_beta   110.64310303
_cell_angle_gamma   90.00000000
_symmetry_Int_Tables_number   1
_chemical_formula_structural   Mg(IO3)2
_chemical_formula_sum   'Mg4 I8 O24'
_cell_volume   548.95497850
_cell_formula_units_Z   4
loop_
 _symmetry_equiv_pos_site_id
 _symmetry_equiv_pos_as_xyz
  1  'x, y, z'
loop_
 _atom_site_type_symbol
 _atom_site_label
 _atom_site_symmetry_multiplicity
 _atom_site_fract_x
 _atom_site_fract_y
 _atom_site_fract_z
 _atom_site_occupancy
  Mg  Mg0  1  0.19714006  0.90327574  0.06207086  1
  Mg  Mg1  1  0.30285994  0.40327574  0.43792914  1
  Mg  Mg2  1  0.69714006  0.59672426  0.56207086  1
  Mg  Mg3  1  0.80285994  0.09672426  0.93792914  1
  I  I4  1  0.28184565  0.20736479  0.92733797  1
  I  I5  1  0.21815435  0.70736479  0.57266203  1
  I  I6  1  0.24450393  0.08177290  0.46813874  1
  I  I7  1  0.25549607  0.58177290  0.03186126  1
  I  I8  1  0.74450393  0.41822710  0.96813874  1
  I  I9  1  0.75549607  0.91822710  0.53186126  1
  I  I10  1  0.78184565  0.29263521  0.42733797  1
  I  I11  1  0.71815435  0.79263521  0.07266203  1
  O  O12  1  0.12934042  0.08177761  0.98232015  1
  O  O13  1  0.03805550  0.89780530  0.66987674  1
  O  O14  1  0.00730054  0.61425320  0.59311476  1
  O  O15  1  0.13037286  0.21826088  0.68466962  1
  O  O16  1  0.36962714  0.71826088  0.81533038  1
  O  O17  1  0.14774841  0.71925566  0.10039242  1
  O  O18  1  0.18546903  0.46374829  0.16747575  1
  O  O19  1  0.49269946  0.11425320  0.90688524  1
  O  O20  1  0.31453097  0.96374829  0.33252425  1
  O  O21  1  0.35225159  0.21925566  0.39960758  1
  O  O22  1  0.46194450  0.39780530  0.83012326  1
  O  O23  1  0.37065958  0.58177761  0.51767985  1
  O  O24  1  0.62934042  0.41822239  0.48232015  1
  O  O25  1  0.53805550  0.60219470  0.16987674  1
  O  O26  1  0.64774841  0.78074434  0.60039242  1
  O  O27  1  0.68546903  0.03625171  0.66747575  1
  O  O28  1  0.50730054  0.88574680  0.09311476  1
  O  O29  1  0.81453097  0.53625171  0.83252425  1
  O  O30  1  0.85225159  0.28074434  0.89960758  1
  O  O31  1  0.63037286  0.28173912  0.18466962  1
  O  O32  1  0.86962714  0.78173912  0.31533038  1
  O  O33  1  0.99269946  0.38574680  0.40688524  1
  O  O34  1  0.96194450  0.10219470  0.33012326  1
  O  O35  1  0.87065958  0.91822239  0.01767985  1
