# generated using pymatgen
data_Li3MnV(PO4)3
_symmetry_space_group_name_H-M   'P 1'
_cell_length_a   9.21124662
_cell_length_b   8.38338134
_cell_length_c   8.44771027
_cell_angle_alpha   60.54785362
_cell_angle_beta   63.11585748
_cell_angle_gamma   90.91192394
_symmetry_Int_Tables_number   1
_chemical_formula_structural   Li3MnV(PO4)3
_chemical_formula_sum   'Li6 Mn2 V2 P6 O24'
_cell_volume   482.21862571
_cell_formula_units_Z   2
loop_
 _symmetry_equiv_pos_site_id
 _symmetry_equiv_pos_as_xyz
  1  'x, y, z'
loop_
 _atom_site_type_symbol
 _atom_site_label
 _atom_site_symmetry_multiplicity
 _atom_site_fract_x
 _atom_site_fract_y
 _atom_site_fract_z
 _atom_site_occupancy
  Li  Li0  1  0.14104007  0.07632590  0.59689663  1
  Li  Li1  1  0.14986092  0.34267447  0.92526265  1
  Li  Li2  1  0.59189642  0.79010986  0.67371224  1
  Li  Li3  1  0.85916621  0.66851788  0.06741741  1
  Li  Li4  1  0.91869227  0.94551186  0.32812152  1
  Li  Li5  1  0.86156386  0.25378995  0.81360860  1
  Mn  Mn6  1  0.55675851  0.86046919  0.28447939  1
  Mn  Mn7  1  0.43370257  0.14309291  0.71724050  1
  V  V8  1  0.03884416  0.35812002  0.30678166  1
  V  V9  1  0.96273933  0.65270513  0.68920468  1
  P  P10  1  0.24761458  0.04892705  0.21602090  1
  P  P11  1  0.24798317  0.46224502  0.49604508  1
  P  P12  1  0.24266582  0.75355387  0.79879513  1
  P  P13  1  0.75556073  0.25539711  0.20179266  1
  P  P14  1  0.74677342  0.53056663  0.51610475  1
  P  P15  1  0.75135571  0.94932218  0.78338265  1
  O  O16  1  0.10930790  0.84464858  0.37963014  1
  O  O17  1  0.24442671  0.13475949  0.00820928  1
  O  O18  1  0.17715850  0.17434452  0.31033406  1
  O  O19  1  0.16876070  0.47421202  0.35873264  1
  O  O20  1  0.10605036  0.46775752  0.68710241  1
  O  O21  1  0.09910045  0.79343997  0.74479019  1
  O  O22  1  0.41928057  0.03829629  0.19028322  1
  O  O23  1  0.26520123  0.25854878  0.60376985  1
  O  O24  1  0.41239007  0.62219421  0.35696851  1
  O  O25  1  0.17657127  0.53616608  0.99173042  1
  O  O26  1  0.26239067  0.88994052  0.86477777  1
  O  O27  1  0.41051188  0.77917071  0.61535405  1
  O  O28  1  0.59111697  0.21520684  0.39550297  1
  O  O29  1  0.74680363  0.12288668  0.12597534  1
  O  O30  1  0.82392844  0.46998814  0.01023854  1
  O  O31  1  0.57357049  0.37665621  0.64991347  1
  O  O32  1  0.73124002  0.73732072  0.41996264  1
  O  O33  1  0.58247341  0.96452799  0.79219756  1
  O  O34  1  0.90538337  0.21564046  0.25426710  1
  O  O35  1  0.87921642  0.51786216  0.32277131  1
  O  O36  1  0.82018395  0.49719792  0.65909137  1
  O  O37  1  0.80993144  0.82660107  0.68685684  1
  O  O38  1  0.74064033  0.86015266  -0.00205975  1
  O  O39  1  0.89236546  0.15376942  0.63078759  1
