# generated using pymatgen
data_Li2NiSn3(PO4)6
_symmetry_space_group_name_H-M   'P 1'
_cell_length_a   8.88043927
_cell_length_b   8.88043992
_cell_length_c   8.88043966
_cell_angle_alpha   59.23452435
_cell_angle_beta   59.23452440
_cell_angle_gamma   59.23452211
_symmetry_Int_Tables_number   1
_chemical_formula_structural   Li2NiSn3(PO4)6
_chemical_formula_sum   'Li2 Ni1 Sn3 P6 O24'
_cell_volume   486.57401106
_cell_formula_units_Z   1
loop_
 _symmetry_equiv_pos_site_id
 _symmetry_equiv_pos_as_xyz
  1  'x, y, z'
loop_
 _atom_site_type_symbol
 _atom_site_label
 _atom_site_symmetry_multiplicity
 _atom_site_fract_x
 _atom_site_fract_y
 _atom_site_fract_z
 _atom_site_occupancy
  Li  Li0  1  0.98244063  0.98244063  0.98244063  1
  Li  Li1  1  0.50096955  0.50096955  0.50096955  1
  Ni  Ni2  1  0.85388383  0.85388383  0.85388383  1
  Sn  Sn3  1  0.14405869  0.14405869  0.14405869  1
  Sn  Sn4  1  0.35630376  0.35630376  0.35630376  1
  Sn  Sn5  1  0.64559361  0.64559361  0.64559361  1
  P  P6  1  0.04325231  0.75124937  0.46121881  1
  P  P7  1  0.46121881  0.04325231  0.75124937  1
  P  P8  1  0.75124937  0.46121881  0.04325231  1
  P  P9  1  0.24623836  0.54925798  0.95461191  1
  P  P10  1  0.54925798  0.95461191  0.24623836  1
  P  P11  1  0.95461191  0.24623836  0.54925798  1
  O  O12  1  0.11310928  0.29935457  0.51500767  1
  O  O13  1  0.29935457  0.51500767  0.11310928  1
  O  O14  1  0.06220867  0.91483354  0.27147792  1
  O  O15  1  0.51500767  0.11310928  0.29935457  1
  O  O16  1  0.23458129  0.58669062  0.43972882  1
  O  O17  1  0.00911218  0.79900525  0.61935202  1
  O  O18  1  0.27147792  0.06220867  0.91483354  1
  O  O19  1  0.43972882  0.23458129  0.58669062  1
  O  O20  1  0.58669062  0.43972882  0.23458129  1
  O  O21  1  0.20220701  0.38611317  0.98771948  1
  O  O22  1  0.08285200  0.73499925  0.93496783  1
  O  O23  1  0.38611317  0.98771948  0.20220701  1
  O  O24  1  0.61935202  0.00911218  0.79900525  1
  O  O25  1  0.91483354  0.27147792  0.06220867  1
  O  O26  1  0.79900525  0.61935202  0.00911218  1
  O  O27  1  0.41264438  0.56621088  0.76537768  1
  O  O28  1  0.56621088  0.76537768  0.41264438  1
  O  O29  1  0.73499925  0.93496783  0.08285200  1
  O  O30  1  0.98771948  0.20220701  0.38611317  1
  O  O31  1  0.76537768  0.41264438  0.56621088  1
  O  O32  1  0.48592705  0.88910923  0.69833445  1
  O  O33  1  0.93496783  0.08285200  0.73499925  1
  O  O34  1  0.69833445  0.48592705  0.88910923  1
  O  O35  1  0.88910923  0.69833445  0.48592705  1
