# generated using pymatgen
data_Li4Mn5Cr3O16
_symmetry_space_group_name_H-M   'P 1'
_cell_length_a   5.87827590
_cell_length_b   5.85201544
_cell_length_c   9.50198992
_cell_angle_alpha   89.99975086
_cell_angle_beta   89.04913615
_cell_angle_gamma   119.85648381
_symmetry_Int_Tables_number   1
_chemical_formula_structural   Li4Mn5Cr3O16
_chemical_formula_sum   'Li4 Mn5 Cr3 O16'
_cell_volume   283.43098956
_cell_formula_units_Z   1
loop_
 _symmetry_equiv_pos_site_id
 _symmetry_equiv_pos_as_xyz
  1  'x, y, z'
loop_
 _atom_site_type_symbol
 _atom_site_label
 _atom_site_symmetry_multiplicity
 _atom_site_fract_x
 _atom_site_fract_y
 _atom_site_fract_z
 _atom_site_occupancy
  Li  Li0  1  0.34069805  0.67030296  0.89855329  1
  Li  Li1  1  0.99868687  0.99945570  0.99650497  1
  Li  Li2  1  0.99823021  0.99922967  0.49435023  1
  Li  Li3  1  0.67012760  0.33500904  0.39427034  1
  Mn  Mn4  1  0.32714035  0.66355962  0.48558298  1
  Mn  Mn5  1  0.65827354  0.82907771  0.21376709  1
  Mn  Mn6  1  0.66279169  0.33138597  0.98969521  1
  Mn  Mn7  1  0.83601720  0.66466244  0.71505383  1
  Mn  Mn8  1  0.83601003  0.17146893  0.71499144  1
  Cr  Cr9  1  0.16570445  0.82692774  0.21255472  1
  Cr  Cr10  1  0.16560694  0.33866374  0.21253480  1
  Cr  Cr11  1  0.34213583  0.17112425  0.71441010  1
  O  O12  1  0.15994175  0.83503971  0.59981678  1
  O  O13  1  0.02862426  0.51421097  0.33481353  1
  O  O14  1  0.34676037  0.67338286  0.10575510  1
  O  O15  1  0.98413937  0.99199855  0.30840070  1
  O  O16  1  0.99324734  0.99675573  0.80981799  1
  O  O17  1  0.15995649  0.32504400  0.59985537  1
  O  O18  1  0.48078876  0.95835573  0.33969344  1
  O  O19  1  0.48070840  0.52224267  0.33969686  1
  O  O20  1  0.32442065  0.16219245  0.09399168  1
  O  O21  1  0.67790286  0.83900460  0.60829627  1
  O  O22  1  0.52880403  0.48542908  0.84093427  1
  O  O23  1  0.52874532  0.04333571  0.84085489  1
  O  O24  1  0.68184288  0.34101841  0.60941049  1
  O  O25  1  0.82921383  0.67004908  0.09757159  1
  O  O26  1  0.96429668  0.48222716  0.83911252  1
  O  O27  1  0.82918326  0.15914551  0.09755251  1
