# generated using pymatgen
data_FeCo3(PO4)4
_symmetry_space_group_name_H-M   'P 1'
_cell_length_a   4.83882706
_cell_length_b   9.82476114
_cell_length_c   5.90717264
_cell_angle_alpha   90.00000000
_cell_angle_beta   90.00000000
_cell_angle_gamma   89.56026829
_symmetry_Int_Tables_number   1
_chemical_formula_structural   FeCo3(PO4)4
_chemical_formula_sum   'Fe1 Co3 P4 O16'
_cell_volume   280.82060740
_cell_formula_units_Z   1
loop_
 _symmetry_equiv_pos_site_id
 _symmetry_equiv_pos_as_xyz
  1  'x, y, z'
loop_
 _atom_site_type_symbol
 _atom_site_label
 _atom_site_symmetry_multiplicity
 _atom_site_fract_x
 _atom_site_fract_y
 _atom_site_fract_z
 _atom_site_occupancy
  Fe  Fe0  1  0.95655176  0.27689598  0.25000000  1
  Co  Co1  1  0.03025091  0.72982782  0.75000000  1
  Co  Co2  1  0.42926057  0.21459396  0.75000000  1
  Co  Co3  1  0.53190279  0.77019615  0.25000000  1
  P  P4  1  0.09566535  0.59975065  0.25000000  1
  P  P5  1  0.41946965  0.09352754  0.25000000  1
  P  P6  1  0.58922638  0.90397346  0.75000000  1
  P  P7  1  0.90933617  0.40019014  0.75000000  1
  O  O8  1  0.15261506  0.44696185  0.25000000  1
  O  O9  1  0.24062304  0.67154075  0.04581309  1
  O  O10  1  0.24062304  0.67154075  0.45418691  1
  O  O11  1  0.22622196  0.37984209  0.75000000  1
  O  O12  1  0.27427443  0.88114761  0.75000000  1
  O  O13  1  0.26674270  0.16979733  0.04765833  1
  O  O14  1  0.26674270  0.16979733  0.45234167  1
  O  O15  1  0.34550937  0.94214269  0.25000000  1
  O  O16  1  0.65302639  0.05737749  0.75000000  1
  O  O17  1  0.73956309  0.83281623  0.54612648  1
  O  O18  1  0.73956309  0.83281623  0.95387352  1
  O  O19  1  0.72882966  0.11515096  0.25000000  1
  O  O20  1  0.77855859  0.62379007  0.25000000  1
  O  O21  1  0.76372335  0.33023177  0.54452573  1
  O  O22  1  0.76372335  0.33023177  0.95547427  1
  O  O23  1  0.85799759  0.55585839  0.75000000  1
