# generated using pymatgen
data_Li2V3WO8
_symmetry_space_group_name_H-M   'P 1'
_cell_length_a   6.09553965
_cell_length_b   6.09553975
_cell_length_c   6.09554020
_cell_angle_alpha   59.57506930
_cell_angle_beta   59.57507395
_cell_angle_gamma   59.57507770
_symmetry_Int_Tables_number   1
_chemical_formula_structural   Li2V3WO8
_chemical_formula_sum   'Li2 V3 W1 O8'
_cell_volume   158.60104584
_cell_formula_units_Z   1
loop_
 _symmetry_equiv_pos_site_id
 _symmetry_equiv_pos_as_xyz
  1  'x, y, z'
loop_
 _atom_site_type_symbol
 _atom_site_label
 _atom_site_symmetry_multiplicity
 _atom_site_fract_x
 _atom_site_fract_y
 _atom_site_fract_z
 _atom_site_occupancy
  Li  Li0  1  0.12887447  0.12887447  0.12887447  1
  Li  Li1  1  0.87112553  0.87112553  0.87112553  1
  V  V2  1  0.00000000  0.50000000  0.50000000  1
  V  V3  1  0.50000000  0.00000000  0.50000000  1
  V  V4  1  0.50000000  0.50000000  0.00000000  1
  W  W5  1  0.50000000  0.50000000  0.50000000  1
  O  O6  1  0.26497579  0.26497579  0.26497579  1
  O  O7  1  0.26565769  0.26565769  0.71781151  1
  O  O8  1  0.26565769  0.71781151  0.26565769  1
  O  O9  1  0.71781151  0.26565769  0.26565769  1
  O  O10  1  0.28218849  0.73434231  0.73434231  1
  O  O11  1  0.73434231  0.28218849  0.73434231  1
  O  O12  1  0.73434231  0.73434231  0.28218849  1
  O  O13  1  0.73502421  0.73502421  0.73502421  1
