# generated using pymatgen
data_Li5Mn2Cu3O10
_symmetry_space_group_name_H-M   'P 1'
_cell_length_a   5.05925903
_cell_length_b   5.40416759
_cell_length_c   7.59408256
_cell_angle_alpha   104.35299912
_cell_angle_beta   103.36059027
_cell_angle_gamma   104.64079743
_symmetry_Int_Tables_number   1
_chemical_formula_structural   Li5Mn2Cu3O10
_chemical_formula_sum   'Li5 Mn2 Cu3 O10'
_cell_volume   184.81513616
_cell_formula_units_Z   1
loop_
 _symmetry_equiv_pos_site_id
 _symmetry_equiv_pos_as_xyz
  1  'x, y, z'
loop_
 _atom_site_type_symbol
 _atom_site_label
 _atom_site_symmetry_multiplicity
 _atom_site_fract_x
 _atom_site_fract_y
 _atom_site_fract_z
 _atom_site_occupancy
  Li  Li0  1  0.21023492  0.89546466  0.39416221  1
  Li  Li1  1  0.40066662  0.28712380  0.78994554  1
  Li  Li2  1  0.50000000  0.50000000  0.50000000  1
  Li  Li3  1  0.59933338  0.71287620  0.21005446  1
  Li  Li4  1  0.78976508  0.10453534  0.60583779  1
  Mn  Mn5  1  0.10167378  0.67809647  0.69390852  1
  Mn  Mn6  1  0.89832622  0.32190353  0.30609148  1
  Cu  Cu7  1  0.00000000  0.50000000  0.00000000  1
  Cu  Cu8  1  0.69765024  0.88890103  0.89879644  1
  Cu  Cu9  1  0.30234976  0.11109897  0.10120356  1
  O  O10  1  0.05854084  0.02380091  0.83714825  1
  O  O11  1  0.34582183  0.67087329  0.92941401  1
  O  O12  1  0.13067101  0.33237614  0.54673293  1
  O  O13  1  0.21692125  0.52551647  0.24632979  1
  O  O14  1  0.45052290  0.88067052  0.66390180  1
  O  O15  1  0.54947710  0.11932948  0.33609820  1
  O  O16  1  0.78307875  0.47448353  0.75367021  1
  O  O17  1  0.86932899  0.66762386  0.45326707  1
  O  O18  1  0.65417817  0.32912671  0.07058599  1
  O  O19  1  0.94145916  0.97619909  0.16285175  1
