# generated using pymatgen
data_Li2Mn2SnO6
_symmetry_space_group_name_H-M   'P 1'
_cell_length_a   5.28942200
_cell_length_b   5.28942185
_cell_length_c   10.32367265
_cell_angle_alpha   90.00000000
_cell_angle_beta   90.00000000
_cell_angle_gamma   116.55260902
_symmetry_Int_Tables_number   1
_chemical_formula_structural   Li2Mn2SnO6
_chemical_formula_sum   'Li4 Mn4 Sn2 O12'
_cell_volume   258.37041522
_cell_formula_units_Z   2
loop_
 _symmetry_equiv_pos_site_id
 _symmetry_equiv_pos_as_xyz
  1  'x, y, z'
loop_
 _atom_site_type_symbol
 _atom_site_label
 _atom_site_symmetry_multiplicity
 _atom_site_fract_x
 _atom_site_fract_y
 _atom_site_fract_z
 _atom_site_occupancy
  Li  Li0  1  0.11346456  0.61346456  0.75000000  1
  Li  Li1  1  0.38653544  0.88653544  0.25000000  1
  Li  Li2  1  0.61346456  0.11346456  0.75000000  1
  Li  Li3  1  0.88653544  0.38653544  0.25000000  1
  Mn  Mn4  1  0.16336161  0.83663839  0.50000000  1
  Mn  Mn5  1  0.33663839  0.66336161  0.00000000  1
  Mn  Mn6  1  0.66336161  0.33663839  0.00000000  1
  Mn  Mn7  1  0.83663839  0.16336161  0.50000000  1
  Sn  Sn8  1  0.00000000  0.00000000  0.00000000  1
  Sn  Sn9  1  0.50000000  0.50000000  0.50000000  1
  O  O10  1  0.05247830  0.69348857  0.11205173  1
  O  O11  1  0.94752170  0.30651143  0.88794827  1
  O  O12  1  0.19348857  0.55247830  0.38794827  1
  O  O13  1  0.44752170  0.80651143  0.61205173  1
  O  O14  1  0.16131385  0.16131385  0.59125252  1
  O  O15  1  0.33868615  0.33868615  0.09125252  1
  O  O16  1  0.66131385  0.66131385  0.90874748  1
  O  O17  1  0.30651143  0.94752170  0.88794827  1
  O  O18  1  0.83868615  0.83868615  0.40874748  1
  O  O19  1  0.55247830  0.19348857  0.38794827  1
  O  O20  1  0.80651143  0.44752170  0.61205173  1
  O  O21  1  0.69348857  0.05247830  0.11205173  1
