# generated using pymatgen
data_Na2VCSO7
_symmetry_space_group_name_H-M   'P 1'
_cell_length_a   9.11351778
_cell_length_b   6.77182619
_cell_length_c   5.34554339
_cell_angle_alpha   90.00000000
_cell_angle_beta   89.02996469
_cell_angle_gamma   90.00000000
_symmetry_Int_Tables_number   1
_chemical_formula_structural   Na2VCSO7
_chemical_formula_sum   'Na4 V2 C2 S2 O14'
_cell_volume   329.85377725
_cell_formula_units_Z   2
loop_
 _symmetry_equiv_pos_site_id
 _symmetry_equiv_pos_as_xyz
  1  'x, y, z'
loop_
 _atom_site_type_symbol
 _atom_site_label
 _atom_site_symmetry_multiplicity
 _atom_site_fract_x
 _atom_site_fract_y
 _atom_site_fract_z
 _atom_site_occupancy
  Na  Na0  1  0.21638628  0.99556728  0.23502340  1
  Na  Na1  1  0.21638628  0.50443272  0.23502340  1
  Na  Na2  1  0.78361372  0.49556728  0.76497660  1
  Na  Na3  1  0.78361372  0.00443272  0.76497660  1
  V  V4  1  0.35480538  0.75000000  0.77868779  1
  V  V5  1  0.64519462  0.25000000  0.22131221  1
  C  C6  1  0.07743475  0.75000000  0.72533181  1
  C  C7  1  0.92256525  0.25000000  0.27466819  1
  S  S8  1  0.41843354  0.25000000  0.71730544  1
  S  S9  1  0.58156646  0.75000000  0.28269456  1
  O  O10  1  0.05984581  0.25000000  0.30058002  1
  O  O11  1  0.14086151  0.75000000  0.94544083  1
  O  O12  1  0.17120394  0.75000000  0.53314845  1
  O  O13  1  0.33558179  0.07263256  0.80038851  1
  O  O14  1  0.33558179  0.42736744  0.80038851  1
  O  O15  1  0.43161362  0.75000000  0.17070931  1
  O  O16  1  0.43526980  0.25000000  0.43670227  1
  O  O17  1  0.56473020  0.75000000  0.56329773  1
  O  O18  1  0.56838638  0.25000000  0.82929069  1
  O  O19  1  0.66441821  0.57263256  0.19961149  1
  O  O20  1  0.66441821  0.92736744  0.19961149  1
  O  O21  1  0.82879606  0.25000000  0.46685155  1
  O  O22  1  0.85913849  0.25000000  0.05455917  1
  O  O23  1  0.94015419  0.75000000  0.69941998  1
