# generated using pymatgen
data_MnPO4
_symmetry_space_group_name_H-M   'P 1'
_cell_length_a   5.29494836
_cell_length_b   9.29575625
_cell_length_c   5.96485181
_cell_angle_alpha   90.00000000
_cell_angle_beta   90.00000000
_cell_angle_gamma   90.46240743
_symmetry_Int_Tables_number   1
_chemical_formula_structural   MnPO4
_chemical_formula_sum   'Mn4 P4 O16'
_cell_volume   293.58372102
_cell_formula_units_Z   4
loop_
 _symmetry_equiv_pos_site_id
 _symmetry_equiv_pos_as_xyz
  1  'x, y, z'
loop_
 _atom_site_type_symbol
 _atom_site_label
 _atom_site_symmetry_multiplicity
 _atom_site_fract_x
 _atom_site_fract_y
 _atom_site_fract_z
 _atom_site_occupancy
  Mn  Mn0  1  0.66760440  0.85947816  0.88010766  1
  Mn  Mn1  1  0.83239560  0.64052184  0.38010766  1
  Mn  Mn2  1  0.16760440  0.35947816  0.61989234  1
  Mn  Mn3  1  0.33239560  0.14052184  0.11989234  1
  P  P4  1  0.24421889  0.86651854  0.16274357  1
  P  P5  1  0.25578111  0.63348146  0.66274357  1
  P  P6  1  0.74421889  0.36651854  0.33725643  1
  P  P7  1  0.75578111  0.13348146  0.83725643  1
  O  O8  1  0.50460842  0.27237357  0.33499496  1
  O  O9  1  0.48695515  0.77278664  0.14709457  1
  O  O10  1  0.25192214  0.96228548  0.94322376  1
  O  O11  1  0.25680770  0.98773121  0.34187836  1
  O  O12  1  0.74319230  0.01226879  0.65812164  1
  O  O13  1  0.00460842  0.77237357  0.16500504  1
  O  O14  1  0.51304485  0.22721336  0.85290543  1
  O  O15  1  0.75680770  0.48773121  0.15812164  1
  O  O16  1  0.24807786  0.53771452  0.44322376  1
  O  O17  1  0.01304485  0.72721336  0.64709457  1
  O  O18  1  0.49539158  0.72762643  0.66500504  1
  O  O19  1  0.99539158  0.22762643  0.83499496  1
  O  O20  1  0.74807786  0.03771452  0.05677624  1
  O  O21  1  0.98695515  0.27278664  0.35290543  1
  O  O22  1  0.75192214  0.46228548  0.55677624  1
  O  O23  1  0.24319230  0.51226879  0.84187836  1
