# generated using pymatgen
data_Ba3YI9
_symmetry_space_group_name_H-M   'P 1'
_cell_length_a   8.59639536
_cell_length_b   33.67320606
_cell_length_c   7.98608823
_cell_angle_alpha   90.00000000
_cell_angle_beta   90.00000000
_cell_angle_gamma   91.91994046
_symmetry_Int_Tables_number   1
_chemical_formula_structural   Ba3YI9
_chemical_formula_sum   'Ba12 Y4 I36'
_cell_volume   2310.42076342
_cell_formula_units_Z   4
loop_
 _symmetry_equiv_pos_site_id
 _symmetry_equiv_pos_as_xyz
  1  'x, y, z'
loop_
 _atom_site_type_symbol
 _atom_site_label
 _atom_site_symmetry_multiplicity
 _atom_site_fract_x
 _atom_site_fract_y
 _atom_site_fract_z
 _atom_site_occupancy
  Ba  Ba0  1  0.31900417  0.93319808  0.97039257  1
  Ba  Ba1  1  0.29253730  0.69174362  0.00225132  1
  Ba  Ba2  1  0.31900417  0.43319808  0.02960743  1
  Ba  Ba3  1  0.29253730  0.19174362  0.99774868  1
  Ba  Ba4  1  0.68283833  0.57063314  0.98556831  1
  Ba  Ba5  1  0.71470755  0.80832211  0.98177908  1
  Ba  Ba6  1  0.68283833  0.07063314  0.01443169  1
  Ba  Ba7  1  0.71470755  0.30832211  0.01822092  1
  Ba  Ba8  1  0.78386864  0.69197052  0.52898226  1
  Ba  Ba9  1  0.82212510  0.93039203  0.51851565  1
  Ba  Ba10  1  0.78386864  0.19197052  0.47101774  1
  Ba  Ba11  1  0.82212510  0.43039203  0.48148435  1
  Y  Y12  1  0.19990133  0.80631329  0.51687318  1
  Y  Y13  1  0.17435691  0.56622661  0.54503914  1
  Y  Y14  1  0.19990133  0.30631329  0.48312682  1
  Y  Y15  1  0.17435691  0.06622661  0.45496086  1
  I  I16  1  0.02485354  0.86746814  0.79472867  1
  I  I17  1  0.02068129  0.75372327  0.81205428  1
  I  I18  1  0.01269617  0.62613757  0.80709261  1
  I  I19  1  0.02485354  0.36746814  0.20527133  1
  I  I20  1  0.02068129  0.25372327  0.18794572  1
  I  I21  1  0.11234312  0.99526411  0.69807718  1
  I  I22  1  0.01269617  0.12613757  0.19290739  1
  I  I23  1  0.15542179  0.89089383  0.33653727  1
  I  I24  1  0.11234312  0.49526411  0.30192282  1
  I  I25  1  0.15987750  0.70855827  0.40093958  1
  I  I26  1  0.15542179  0.39089383  0.66346273  1
  I  I27  1  0.15987750  0.20855827  0.59906042  1
  I  I28  1  0.35131145  0.79650610  0.17310562  1
  I  I29  1  0.34498805  0.59831481  0.22302507  1
  I  I30  1  0.35131145  0.29650610  0.82689438  1
  I  I31  1  0.34498805  0.09831481  0.77697493  1
  I  I32  1  0.40494485  0.51290328  0.73538762  1
  I  I33  1  0.48476603  0.86571687  0.67365662  1
  I  I34  1  0.47948655  0.75332061  0.68784711  1
  I  I35  1  0.46812292  0.62748289  0.69480856  1
  I  I36  1  0.40494485  0.01290328  0.26461238  1
  I  I37  1  0.48476603  0.36571687  0.32634338  1
  I  I38  1  0.47948655  0.25332061  0.31215289  1
  I  I39  1  0.46812292  0.12748289  0.30519144  1
  I  I40  1  0.60241303  0.99026589  0.76332034  1
  I  I41  1  0.60241303  0.49026589  0.23667966  1
  I  I42  1  0.65773624  0.90113526  0.14912842  1
  I  I43  1  0.68090516  0.69839777  0.10736988  1
  I  I44  1  0.65773624  0.40113526  0.85087158  1
  I  I45  1  0.68090516  0.19839777  0.89263012  1
  I  I46  1  0.86029387  0.79797162  0.39520121  1
  I  I47  1  0.88236175  0.59784297  0.35912035  1
  I  I48  1  0.86029387  0.29797162  0.60479879  1
  I  I49  1  0.88236175  0.09784297  0.64087965  1
  I  I50  1  0.93819237  0.51110934  0.75198033  1
  I  I51  1  0.93819237  0.01110934  0.24801967  1
