# generated using pymatgen
data_Li5WNO4
_symmetry_space_group_name_H-M   'P 1'
_cell_length_a   5.25898506
_cell_length_b   5.25898506
_cell_length_c   9.77979234
_cell_angle_alpha   90.00000000
_cell_angle_beta   90.00000000
_cell_angle_gamma   123.05006101
_symmetry_Int_Tables_number   1
_chemical_formula_structural   Li5WNO4
_chemical_formula_sum   'Li10 W2 N2 O8'
_cell_volume   226.71395448
_cell_formula_units_Z   2
loop_
 _symmetry_equiv_pos_site_id
 _symmetry_equiv_pos_as_xyz
  1  'x, y, z'
loop_
 _atom_site_type_symbol
 _atom_site_label
 _atom_site_symmetry_multiplicity
 _atom_site_fract_x
 _atom_site_fract_y
 _atom_site_fract_z
 _atom_site_occupancy
  Li  Li0  1  0.23285796  0.80704469  0.99272258  1
  Li  Li1  1  0.19295531  0.76714204  0.49272258  1
  Li  Li2  1  0.46311035  0.84767376  0.74490320  1
  Li  Li3  1  0.15232624  0.53688965  0.24490320  1
  Li  Li4  1  0.42558398  0.42558398  0.47332719  1
  Li  Li5  1  0.57441602  0.57441602  0.97332719  1
  Li  Li6  1  0.84767376  0.46311035  0.74490320  1
  Li  Li7  1  0.53688965  0.15232624  0.24490320  1
  Li  Li8  1  0.80704469  0.23285796  0.99272258  1
  Li  Li9  1  0.76714204  0.19295531  0.49272258  1
  W  W10  1  0.80407913  0.80407913  0.25061334  1
  W  W11  1  0.19592087  0.19592087  0.75061334  1
  N  N12  1  0.15839808  0.15839808  0.27418217  1
  N  N13  1  0.84160192  0.84160192  0.77418217  1
  O  O14  1  0.52630552  0.82296116  0.37760623  1
  O  O15  1  0.17703884  0.47369448  0.87760623  1
  O  O16  1  0.57536847  0.86922376  0.11094163  1
  O  O17  1  0.13077624  0.42463153  0.61094163  1
  O  O18  1  0.86922376  0.57536847  0.11094163  1
  O  O19  1  0.42463153  0.13077624  0.61094163  1
  O  O20  1  0.82296116  0.52630552  0.37760623  1
  O  O21  1  0.47369448  0.17703884  0.87760623  1
