# generated using pymatgen
data_Sr2CaI6
_symmetry_space_group_name_H-M   'P 1'
_cell_length_a   8.42610041
_cell_length_b   7.92110350
_cell_length_c   24.20974956
_cell_angle_alpha   90.00000000
_cell_angle_beta   89.12878962
_cell_angle_gamma   90.00000000
_symmetry_Int_Tables_number   1
_chemical_formula_structural   Sr2CaI6
_chemical_formula_sum   'Sr8 Ca4 I24'
_cell_volume   1615.66905456
_cell_formula_units_Z   4
loop_
 _symmetry_equiv_pos_site_id
 _symmetry_equiv_pos_as_xyz
  1  'x, y, z'
loop_
 _atom_site_type_symbol
 _atom_site_label
 _atom_site_symmetry_multiplicity
 _atom_site_fract_x
 _atom_site_fract_y
 _atom_site_fract_z
 _atom_site_occupancy
  Sr  Sr0  1  0.23055818  0.55549788  0.73964230  1
  Sr  Sr1  1  0.33799538  0.98317579  0.90810972  1
  Sr  Sr2  1  0.23055818  0.94450212  0.23964230  1
  Sr  Sr3  1  0.33799538  0.51682421  0.40810972  1
  Sr  Sr4  1  0.66200462  0.48317579  0.59189028  1
  Sr  Sr5  1  0.76944182  0.05549788  0.76035770  1
  Sr  Sr6  1  0.66200462  0.01682421  0.09189028  1
  Sr  Sr7  1  0.76944182  0.44450212  0.26035770  1
  Ca  Ca8  1  0.14041322  0.03131618  0.58622909  1
  Ca  Ca9  1  0.14041322  0.46868382  0.08622909  1
  Ca  Ca10  1  0.85958678  0.53131618  0.91377091  1
  Ca  Ca11  1  0.85958678  0.96868382  0.41377091  1
  I  I12  1  0.01917795  0.79940440  0.82677069  1
  I  I13  1  0.10534546  0.29473381  0.84410863  1
  I  I14  1  0.13273618  0.70497795  0.98314257  1
  I  I15  1  0.01917795  0.70059560  0.32677069  1
  I  I16  1  0.10534546  0.20526619  0.34410863  1
  I  I17  1  0.13273618  0.79502205  0.48314257  1
  I  I18  1  0.36287782  0.29018130  0.52434453  1
  I  I19  1  0.38788734  0.76531669  0.63531901  1
  I  I20  1  0.47947690  0.25637792  0.69213610  1
  I  I21  1  0.52052310  0.75637792  0.80786390  1
  I  I22  1  0.36287782  0.20981870  0.02434453  1
  I  I23  1  0.61211266  0.26531669  0.86468099  1
  I  I24  1  0.38788734  0.73468331  0.13531901  1
  I  I25  1  0.63712218  0.79018130  0.97565547  1
  I  I26  1  0.47947690  0.24362208  0.19213610  1
  I  I27  1  0.52052310  0.74362208  0.30786390  1
  I  I28  1  0.61211266  0.23468331  0.36468099  1
  I  I29  1  0.63712218  0.70981870  0.47565547  1
  I  I30  1  0.86726382  0.20497795  0.51685743  1
  I  I31  1  0.89465454  0.79473381  0.65589137  1
  I  I32  1  0.98082205  0.29940440  0.67322931  1
  I  I33  1  0.86726382  0.29502205  0.01685743  1
  I  I34  1  0.89465454  0.70526619  0.15589137  1
  I  I35  1  0.98082205  0.20059560  0.17322931  1
