# generated using pymatgen
data_Li3Mg2Fe19O32
_symmetry_space_group_name_H-M   'P 1'
_cell_length_a   6.04042325
_cell_length_b   5.99283979
_cell_length_c   20.01663776
_cell_angle_alpha   99.00201196
_cell_angle_beta   98.79165342
_cell_angle_gamma   59.79680379
_symmetry_Int_Tables_number   1
_chemical_formula_structural   Li3Mg2Fe19O32
_chemical_formula_sum   'Li3 Mg2 Fe19 O32'
_cell_volume   616.17298778
_cell_formula_units_Z   1
loop_
 _symmetry_equiv_pos_site_id
 _symmetry_equiv_pos_as_xyz
  1  'x, y, z'
loop_
 _atom_site_type_symbol
 _atom_site_label
 _atom_site_symmetry_multiplicity
 _atom_site_fract_x
 _atom_site_fract_y
 _atom_site_fract_z
 _atom_site_occupancy
  Li  Li0  1  0.12980824  0.61837133  0.37650064  1
  Li  Li1  1  0.87636067  0.37157976  0.62458073  1
  Li  Li2  1  0.62527119  0.12079234  0.87353549  1
  Mg  Mg3  1  0.84221800  0.84322994  0.02720414  1
  Mg  Mg4  1  0.60255050  0.58359058  0.28518718  1
  Fe  Fe5  1  0.37789544  0.87140829  0.12561840  1
  Fe  Fe6  1  0.50117136  0.49713055  0.99924682  1
  Fe  Fe7  1  0.90823404  0.90961967  0.22288163  1
  Fe  Fe8  1  0.87161729  0.37914873  0.12567333  1
  Fe  Fe9  1  0.37873751  0.37823254  0.12579249  1
  Fe  Fe10  1  0.25186148  0.25685547  0.25744428  1
  Fe  Fe11  1  0.65038256  0.66959151  0.47055372  1
  Fe  Fe12  1  0.37599379  0.87192002  0.62474518  1
  Fe  Fe13  1  0.62430547  0.12545815  0.37654182  1
  Fe  Fe14  1  0.12905202  0.12559041  0.37656375  1
  Fe  Fe15  1  0.87620926  0.87209707  0.62468878  1
  Fe  Fe16  1  0.35298834  0.32480823  0.53165984  1
  Fe  Fe17  1  0.00178314  0.99530496  0.49998387  1
  Fe  Fe18  1  0.74987414  0.75023424  0.74886687  1
  Fe  Fe19  1  0.40057028  0.41983745  0.72033199  1
  Fe  Fe20  1  0.11975787  0.62715322  0.87363826  1
  Fe  Fe21  1  0.62658218  0.62701323  0.87360483  1
  Fe  Fe22  1  0.10050643  0.07726422  0.77826949  1
  Fe  Fe23  1  0.14958371  0.16798290  0.96759209  1
  O  O24  1  0.67425886  0.67779864  0.06610743  1
  O  O25  1  0.21498402  0.67770751  0.06620944  1
  O  O26  1  0.56274308  0.55928243  0.18157760  1
  O  O27  1  0.67609415  0.21600282  0.06574736  1
  O  O28  1  0.43059875  0.95770603  0.31655979  1
  O  O29  1  0.93905944  0.94314553  0.31816101  1
  O  O30  1  0.07358636  0.54179941  0.18576593  1
  O  O31  1  0.18870769  0.19359469  0.06913381  1
  O  O32  1  0.81510088  0.82843465  0.43782036  1
  O  O33  1  0.07311848  0.06986013  0.18471070  1
  O  O34  1  0.29455128  0.82887217  0.43797376  1
  O  O35  1  0.54502312  0.06908928  0.18465583  1
  O  O36  1  0.97048852  0.40580478  0.31403670  1
  O  O37  1  0.44131357  0.40604505  0.31420845  1
  O  O38  1  0.18222539  0.69953574  0.56473169  1
  O  O39  1  0.32006230  0.29719798  0.43479915  1
  O  O40  1  0.68472418  0.69832659  0.56819485  1
  O  O41  1  0.82141412  0.29525203  0.43687407  1
  O  O42  1  0.56551635  0.57972274  0.68750181  1
  O  O43  1  0.04357302  0.57928315  0.68744363  1
  O  O44  1  0.93648317  0.91863532  0.81163628  1
  O  O45  1  0.18582341  0.16467485  0.56330418  1
  O  O46  1  0.45666151  0.91861721  0.81144074  1
  O  O47  1  0.71101981  0.16499888  0.56324233  1
  O  O48  1  0.81688282  0.79394590  0.92764305  1
  O  O49  1  0.06778212  0.04573635  0.68142056  1
  O  O50  1  0.93128496  0.44989582  0.81258406  1
  O  O51  1  0.43340226  0.45117594  0.81826268  1
  O  O52  1  0.57022899  0.04608104  0.68577266  1
  O  O53  1  0.31922756  0.79755062  0.93660012  1
  O  O54  1  0.79223163  0.33381286  0.93936539  1
  O  O55  1  0.31308925  0.33359007  0.93924694  1
