# generated using pymatgen
data_Ba4Lu6O13
_symmetry_space_group_name_H-M   'P 1'
_cell_length_a   5.98452639
_cell_length_b   12.56074881
_cell_length_c   12.17591040
_cell_angle_alpha   61.08872249
_cell_angle_beta   90.01252569
_cell_angle_gamma   76.18390820
_symmetry_Int_Tables_number   1
_chemical_formula_structural   Ba4Lu6O13
_chemical_formula_sum   'Ba8 Lu12 O26'
_cell_volume   770.77721639
_cell_formula_units_Z   2
loop_
 _symmetry_equiv_pos_site_id
 _symmetry_equiv_pos_as_xyz
  1  'x, y, z'
loop_
 _atom_site_type_symbol
 _atom_site_label
 _atom_site_symmetry_multiplicity
 _atom_site_fract_x
 _atom_site_fract_y
 _atom_site_fract_z
 _atom_site_occupancy
  Ba  Ba0  1  0.16132391  0.68037029  0.03006549  1
  Ba  Ba1  1  0.33720370  0.32838448  0.21492681  1
  Ba  Ba2  1  0.83848756  0.32896094  0.45861169  1
  Ba  Ba3  1  0.65729214  0.68173244  0.29230748  1
  Ba  Ba4  1  0.34139512  0.32000522  0.70720727  1
  Ba  Ba5  1  0.16464341  0.67192327  0.54379407  1
  Ba  Ba6  1  0.66634373  0.67205840  0.78650413  1
  Ba  Ba7  1  0.84579677  0.31933969  0.97187318  1
  Lu  Lu8  1  0.53396466  0.07195037  0.09113344  1
  Lu  Lu9  1  0.74699824  0.50509488  0.12400809  1
  Lu  Lu10  1  0.96727983  0.09648673  0.34652625  1
  Lu  Lu11  1  0.46831838  0.09666635  0.55853479  1
  Lu  Lu12  1  0.24554811  0.50738855  0.37124044  1
  Lu  Lu13  1  0.10528326  0.92874666  0.16271738  1
  Lu  Lu14  1  0.03435876  0.07244317  0.83689390  1
  Lu  Lu15  1  0.75175809  0.49517776  0.62842796  1
  Lu  Lu16  1  0.56212547  0.90378672  0.44226448  1
  Lu  Lu17  1  0.06220671  0.90399877  0.65475677  1
  Lu  Lu18  1  0.25259385  0.49518766  0.87740253  1
  Lu  Lu19  1  0.60616684  0.92796789  0.90994505  1
  O  O20  1  0.30289328  0.99923487  0.00057418  1
  O  O21  1  0.80357849  0.99942991  0.00077633  1
  O  O22  1  0.37497348  0.26537732  0.99268055  1
  O  O23  1  0.84683834  0.06099562  0.19525665  1
  O  O24  1  0.00792377  0.48745188  0.00795669  1
  O  O25  1  0.83112847  0.29175283  0.23448314  1
  O  O26  1  0.32302059  0.09731432  0.38444994  1
  O  O27  1  0.99575305  0.50969146  0.24530903  1
  O  O28  1  0.49222945  0.51520916  0.24341345  1
  O  O29  1  0.82330283  0.09700320  0.51967308  1
  O  O30  1  0.14718421  0.73451239  0.25974068  1
  O  O31  1  0.33465045  0.29205841  0.47724202  1
  O  O32  1  0.40634059  0.94090860  0.25532913  1
  O  O33  1  0.50625565  0.48897911  0.50492631  1
  O  O34  1  0.99287897  0.51383703  0.49413836  1
  O  O35  1  0.34755767  0.05974690  0.74515841  1
  O  O36  1  0.62126575  0.70849561  0.52410797  1
  O  O37  1  0.88101264  0.26690902  0.73790435  1
  O  O38  1  0.91744755  0.90332712  0.48058577  1
  O  O39  1  0.00830711  0.48957065  0.75396612  1
  O  O40  1  0.50960438  0.48845833  0.75824497  1
  O  O41  1  0.41682722  0.90309209  0.61613900  1
  O  O42  1  0.11859288  0.70869019  0.76784402  1
  O  O43  1  0.49485998  0.51208622  0.99386991  1
  O  O44  1  0.90456510  0.94248471  0.80328448  1
  O  O45  1  0.64862054  0.73371180  0.00723926  1
