# generated using pymatgen
data_Cr3Cu(PO4)4
_symmetry_space_group_name_H-M   'P 1'
_cell_length_a   4.78674511
_cell_length_b   9.90410143
_cell_length_c   5.80609983
_cell_angle_alpha   90.00000000
_cell_angle_beta   90.00000000
_cell_angle_gamma   90.90288848
_symmetry_Int_Tables_number   1
_chemical_formula_structural   Cr3Cu(PO4)4
_chemical_formula_sum   'Cr3 Cu1 P4 O16'
_cell_volume   275.22377962
_cell_formula_units_Z   1
loop_
 _symmetry_equiv_pos_site_id
 _symmetry_equiv_pos_as_xyz
  1  'x, y, z'
loop_
 _atom_site_type_symbol
 _atom_site_label
 _atom_site_symmetry_multiplicity
 _atom_site_fract_x
 _atom_site_fract_y
 _atom_site_fract_z
 _atom_site_occupancy
  Cr  Cr0  1  0.47166977  0.22826638  0.75000000  1
  Cr  Cr1  1  0.53340190  0.77576353  0.25000000  1
  Cr  Cr2  1  0.96888891  0.26995268  0.25000000  1
  Cu  Cu3  1  0.07332419  0.71766119  0.75000000  1
  P  P4  1  0.09036346  0.59545968  0.25000000  1
  P  P5  1  0.40694919  0.09239638  0.25000000  1
  P  P6  1  0.57420936  0.90547189  0.75000000  1
  P  P7  1  0.92081672  0.40598210  0.75000000  1
  O  O8  1  0.16174287  0.44651400  0.25000000  1
  O  O9  1  0.25200346  0.67228387  0.04924409  1
  O  O10  1  0.25200346  0.67228387  0.45075591  1
  O  O11  1  0.23479550  0.38631691  0.75000000  1
  O  O12  1  0.25545017  0.89032535  0.75000000  1
  O  O13  1  0.26146377  0.17153043  0.04471022  1
  O  O14  1  0.26146377  0.17153043  0.45528978  1
  O  O15  1  0.31840037  0.94473717  0.25000000  1
  O  O16  1  0.66199134  0.05412442  0.75000000  1
  O  O17  1  0.70880651  0.83168387  0.53883936  1
  O  O18  1  0.70880651  0.83168387  0.96116064  1
  O  O19  1  0.72290041  0.10995769  0.25000000  1
  O  O20  1  0.77826767  0.61777576  0.25000000  1
  O  O21  1  0.76689980  0.32712618  0.54546084  1
  O  O22  1  0.76689980  0.32712618  0.95453916  1
  O  O23  1  0.84848007  0.55404516  0.75000000  1
