# generated using pymatgen
data_BaH4(CO2)3
_symmetry_space_group_name_H-M   'P 1'
_cell_length_a   10.71447637
_cell_length_b   10.71447637
_cell_length_c   10.71447637
_cell_angle_alpha   96.37233130
_cell_angle_beta   96.37233130
_cell_angle_gamma   141.07982323
_symmetry_Int_Tables_number   1
_chemical_formula_structural   BaH4(CO2)3
_chemical_formula_sum   'Ba4 H16 C12 O24'
_cell_volume   728.60136538
_cell_formula_units_Z   4
loop_
 _symmetry_equiv_pos_site_id
 _symmetry_equiv_pos_as_xyz
  1  'x, y, z'
loop_
 _atom_site_type_symbol
 _atom_site_label
 _atom_site_symmetry_multiplicity
 _atom_site_fract_x
 _atom_site_fract_y
 _atom_site_fract_z
 _atom_site_occupancy
  Ba  Ba0  1  0.83208975  0.63517050  0.85420329  1
  Ba  Ba1  1  0.78096721  0.97788646  0.14579671  1
  Ba  Ba2  1  0.02211354  0.16791025  0.80308075  1
  Ba  Ba3  1  0.36482950  0.21903279  0.19691925  1
  H  H4  1  0.64380723  0.19694998  0.99679835  1
  H  H5  1  0.20015163  0.64700888  0.00320165  1
  H  H6  1  0.35299112  0.35619277  0.55314275  1
  H  H7  1  0.80305002  0.79984837  0.44685725  1
  H  H8  1  0.88797101  0.71015575  0.27280167  1
  H  H9  1  0.43735408  0.61516934  0.72719833  1
  H  H10  1  0.38483066  0.11202899  0.82218474  1
  H  H11  1  0.28984425  0.56264592  0.17781526  1
  H  H12  1  0.18839795  0.61851803  0.63615948  1
  H  H13  1  0.98235855  0.55223847  0.36384052  1
  H  H14  1  0.44776153  0.81160205  0.43012007  1
  H  H15  1  0.38148197  0.01764145  0.56987993  1
  H  H16  1  0.87398014  0.35002581  0.77503385  1
  H  H17  1  0.57499196  0.09894629  0.22496615  1
  H  H18  1  0.90105371  0.12601986  0.47604567  1
  H  H19  1  0.64997419  0.42500804  0.52395433  1
  C  C20  1  0.72881031  0.21732720  0.93167442  1
  C  C21  1  0.28565278  0.79713589  0.06832558  1
  C  C22  1  0.20286411  0.27118969  0.48851689  1
  C  C23  1  0.78267280  0.71434722  0.51148311  1
  C  C24  1  0.84206665  0.68203762  0.16497391  1
  C  C25  1  0.51706371  0.67709274  0.83502609  1
  C  C26  1  0.32290726  0.15793335  0.83997097  1
  C  C27  1  0.31796238  0.48293629  0.16002903  1
  C  C28  1  0.08246510  0.56927093  0.69248935  1
  C  C29  1  0.87678158  0.38997575  0.30751065  1
  C  C30  1  0.61002425  0.91753490  0.48680583  1
  C  C31  1  0.43072907  0.12321842  0.51319417  1
  O  O32  1  0.78463719  0.14960985  0.94033672  1
  O  O33  1  0.20927313  0.84430047  0.05966328  1
  O  O34  1  0.15569953  0.21536281  0.36497266  1
  O  O35  1  0.85039015  0.79072687  0.63502734  1
  O  O36  1  0.76109496  0.31440995  0.85074829  1
  O  O37  1  0.46366166  0.91034667  0.14925171  1
  O  O38  1  0.08965333  0.23890504  0.55331499  1
  O  O39  1  0.68559005  0.53633834  0.44668501  1
  O  O40  1  0.93296890  0.83896124  0.12623715  1
  O  O41  1  0.71272409  0.80673176  0.87376285  1
  O  O42  1  0.19326824  0.06703110  0.90599233  1
  O  O43  1  0.16103876  0.28727591  0.09400767  1
  O  O44  1  0.70426636  0.49700446  0.08868997  1
  O  O45  1  0.40831449  0.61557639  0.91131003  1
  O  O46  1  0.38442361  0.29573364  0.79273810  1
  O  O47  1  0.50299554  0.59168551  0.20726190  1
  O  O48  1  0.97856803  0.39571065  0.71771787  1
  O  O49  1  0.67799279  0.26085016  0.28228213  1
  O  O50  1  0.73914984  0.02143197  0.41714263  1
  O  O51  1  0.60428935  0.32200721  0.58285737  1
  O  O52  1  0.07029910  0.67290238  0.72519417  1
  O  O53  1  0.94770821  0.34510492  0.27480583  1
  O  O54  1  0.65489508  0.92970090  0.60260328  1
  O  O55  1  0.32709762  0.05229179  0.39739672  1
