# generated using pymatgen
data_Li2Mn2Si2O7
_symmetry_space_group_name_H-M   'P 1'
_cell_length_a   8.54828803
_cell_length_b   13.42035588
_cell_length_c   5.54640029
_cell_angle_alpha   90.00000000
_cell_angle_beta   89.87797540
_cell_angle_gamma   90.00000000
_symmetry_Int_Tables_number   1
_chemical_formula_structural   Li2Mn2Si2O7
_chemical_formula_sum   'Li8 Mn8 Si8 O28'
_cell_volume   636.28751989
_cell_formula_units_Z   4
loop_
 _symmetry_equiv_pos_site_id
 _symmetry_equiv_pos_as_xyz
  1  'x, y, z'
loop_
 _atom_site_type_symbol
 _atom_site_label
 _atom_site_symmetry_multiplicity
 _atom_site_fract_x
 _atom_site_fract_y
 _atom_site_fract_z
 _atom_site_occupancy
  Li  Li0  1  0.11736094  0.35672201  0.15493104  1
  Li  Li1  1  0.16777203  0.74311535  0.79820290  1
  Li  Li2  1  0.33222797  0.24311535  0.70179710  1
  Li  Li3  1  0.38263906  0.85672201  0.34506896  1
  Li  Li4  1  0.61736094  0.14327799  0.65493104  1
  Li  Li5  1  0.66777203  0.75688465  0.29820290  1
  Li  Li6  1  0.83222797  0.25688465  0.20179710  1
  Li  Li7  1  0.88263906  0.64327799  0.84506896  1
  Mn  Mn8  1  0.11322378  0.08612270  0.34374505  1
  Mn  Mn9  1  0.19794711  0.49089159  0.64243094  1
  Mn  Mn10  1  0.30205289  0.99089159  0.85756906  1
  Mn  Mn11  1  0.38677622  0.58612270  0.15625495  1
  Mn  Mn12  1  0.61322378  0.41387730  0.84374505  1
  Mn  Mn13  1  0.69794711  0.00910841  0.14243094  1
  Mn  Mn14  1  0.80205289  0.50910841  0.35756906  1
  Mn  Mn15  1  0.88677622  0.91387730  0.65625495  1
  Si  Si16  1  0.04157796  0.88218563  0.17852523  1
  Si  Si17  1  0.04080804  0.67311236  0.31647639  1
  Si  Si18  1  0.45919196  0.17311236  0.18352361  1
  Si  Si19  1  0.45842204  0.38218563  0.32147477  1
  Si  Si20  1  0.54157796  0.61781437  0.67852523  1
  Si  Si21  1  0.54080804  0.82688764  0.81647639  1
  Si  Si22  1  0.95919196  0.32688764  0.68352361  1
  Si  Si23  1  0.95842204  0.11781437  0.82147477  1
  O  O24  1  0.03858317  0.79468921  0.39369493  1
  O  O25  1  0.00160391  0.16845754  0.07725060  1
  O  O26  1  0.08554694  0.03520326  0.71700075  1
  O  O27  1  0.06766746  0.61952095  0.58199639  1
  O  O28  1  0.13110252  0.35717096  0.79663388  1
  O  O29  1  0.17684814  0.65827585  0.11362868  1
  O  O30  1  0.21296602  0.93845268  0.19144580  1
  O  O31  1  0.28703398  0.43845268  0.30855420  1
  O  O32  1  0.32315186  0.15827585  0.38637132  1
  O  O33  1  0.36889748  0.85717096  0.70336612  1
  O  O34  1  0.43233254  0.11952095  0.91800361  1
  O  O35  1  0.41445306  0.53520326  0.78299925  1
  O  O36  1  0.49839609  0.66845754  0.42274940  1
  O  O37  1  0.46141683  0.29468921  0.10630507  1
  O  O38  1  0.53858317  0.70531079  0.89369493  1
  O  O39  1  0.50160391  0.33154246  0.57725060  1
  O  O40  1  0.58554694  0.46479674  0.21700075  1
  O  O41  1  0.56766746  0.88047905  0.08199639  1
  O  O42  1  0.63110252  0.14282804  0.29663388  1
  O  O43  1  0.67684814  0.84172415  0.61362868  1
  O  O44  1  0.71296602  0.56154732  0.69144580  1
  O  O45  1  0.78703398  0.06154732  0.80855420  1
  O  O46  1  0.82315186  0.34172415  0.88637132  1
  O  O47  1  0.86889748  0.64282904  0.20336612  1
  O  O48  1  0.93233254  0.38047905  0.41800361  1
  O  O49  1  0.91445306  0.96479674  0.28299925  1
  O  O50  1  0.99839609  0.83154246  0.92274940  1
  O  O51  1  0.96141683  0.20531079  0.60630507  1
