# generated using pymatgen
data_KVPCO7
_symmetry_space_group_name_H-M   'P 1'
_cell_length_a   9.81642652
_cell_length_b   6.28902445
_cell_length_c   5.52715654
_cell_angle_alpha   90.00000000
_cell_angle_beta   88.65932718
_cell_angle_gamma   90.00000000
_symmetry_Int_Tables_number   1
_chemical_formula_structural   KVPCO7
_chemical_formula_sum   'K2 V2 P2 C2 O14'
_cell_volume   341.12972527
_cell_formula_units_Z   2
loop_
 _symmetry_equiv_pos_site_id
 _symmetry_equiv_pos_as_xyz
  1  'x, y, z'
loop_
 _atom_site_type_symbol
 _atom_site_label
 _atom_site_symmetry_multiplicity
 _atom_site_fract_x
 _atom_site_fract_y
 _atom_site_fract_z
 _atom_site_occupancy
  K  K0  1  0.23977038  0.42580492  0.24974849  1
  K  K1  1  0.76022962  0.92580492  0.75025151  1
  V  V2  1  0.33962073  0.78078045  0.77338922  1
  V  V3  1  0.66037927  0.28078045  0.22661078  1
  P  P4  1  0.44834435  0.27296691  0.72705919  1
  P  P5  1  0.55165565  0.77296691  0.27294081  1
  C  C6  1  0.09912111  0.73717104  0.72017816  1
  C  C7  1  0.90087889  0.23717104  0.27982184  1
  O  O8  1  0.02287544  0.20587802  0.30787691  1
  O  O9  1  0.16194460  0.74711041  0.93343476  1
  O  O10  1  0.19364672  0.76055777  0.54161450  1
  O  O11  1  0.35299942  0.07385594  0.77357308  1
  O  O12  1  0.35013113  0.46273411  0.76804434  1
  O  O13  1  0.43609222  0.76613838  0.09273078  1
  O  O14  1  0.49896144  0.26485306  0.46214876  1
  O  O15  1  0.50103856  0.76485306  0.53785124  1
  O  O16  1  0.56390778  0.26613838  0.90726922  1
  O  O17  1  0.64986887  0.96273411  0.23195566  1
  O  O18  1  0.64700058  0.57385594  0.22642692  1
  O  O19  1  0.80635328  0.26055777  0.45838550  1
  O  O20  1  0.83805540  0.24711041  0.06656524  1
  O  O21  1  0.97712456  0.70587802  0.69212309  1
