# generated using pymatgen
data_Li3MnSiCO7
_symmetry_space_group_name_H-M   'P 1'
_cell_length_a   8.44584433
_cell_length_b   6.30340339
_cell_length_c   5.08553674
_cell_angle_alpha   90.00000000
_cell_angle_beta   87.59676261
_cell_angle_gamma   90.00000000
_symmetry_Int_Tables_number   1
_chemical_formula_structural   Li3MnSiCO7
_chemical_formula_sum   'Li6 Mn2 Si2 C2 O14'
_cell_volume   270.50345918
_cell_formula_units_Z   2
loop_
 _symmetry_equiv_pos_site_id
 _symmetry_equiv_pos_as_xyz
  1  'x, y, z'
loop_
 _atom_site_type_symbol
 _atom_site_label
 _atom_site_symmetry_multiplicity
 _atom_site_fract_x
 _atom_site_fract_y
 _atom_site_fract_z
 _atom_site_occupancy
  Li  Li0  1  0.10429123  0.25000000  0.74928256  1
  Li  Li1  1  0.28926758  0.03333870  0.22531293  1
  Li  Li2  1  0.28926758  0.46666130  0.22531293  1
  Li  Li3  1  0.71073242  0.53333870  0.77468707  1
  Li  Li4  1  0.71073242  0.96666130  0.77468707  1
  Li  Li5  1  0.89570877  0.75000000  0.25071744  1
  Mn  Mn6  1  0.32418610  0.75000000  0.78815928  1
  Mn  Mn7  1  0.67581390  0.25000000  0.21184072  1
  Si  Si8  1  0.42690786  0.25000000  0.70453551  1
  Si  Si9  1  0.57309214  0.75000000  0.29546449  1
  C  C10  1  0.01753784  0.75000000  0.72002453  1
  C  C11  1  0.98246216  0.25000000  0.27997547  1
  O  O12  1  0.12811644  0.25000000  0.34730274  1
  O  O13  1  0.05722866  0.75000000  0.96211821  1
  O  O14  1  0.13043536  0.75000000  0.53560213  1
  O  O15  1  0.30989483  0.05338188  0.80957580  1
  O  O16  1  0.30989483  0.44661812  0.80957580  1
  O  O17  1  0.45002040  0.25000000  0.38213239  1
  O  O18  1  0.39757122  0.75000000  0.17216757  1
  O  O19  1  0.60242878  0.25000000  0.82783243  1
  O  O20  1  0.54997960  0.75000000  0.61786761  1
  O  O21  1  0.69010517  0.55338188  0.19042420  1
  O  O22  1  0.69010517  0.94661812  0.19042420  1
  O  O23  1  0.86956464  0.25000000  0.46439787  1
  O  O24  1  0.94277134  0.25000000  0.03788179  1
  O  O25  1  0.87188356  0.75000000  0.65269726  1
