# generated using pymatgen
data_Li3Fe2SnO6
_symmetry_space_group_name_H-M   'P 1'
_cell_length_a   15.78945537
_cell_length_b   10.09667878
_cell_length_c   10.09667865
_cell_angle_alpha   17.51760289
_cell_angle_beta   16.90290733
_cell_angle_gamma   16.90290807
_symmetry_Int_Tables_number   1
_chemical_formula_structural   Li3Fe2SnO6
_chemical_formula_sum   'Li3 Fe2 Sn1 O6'
_cell_volume   121.41841244
_cell_formula_units_Z   1
loop_
 _symmetry_equiv_pos_site_id
 _symmetry_equiv_pos_as_xyz
  1  'x, y, z'
loop_
 _atom_site_type_symbol
 _atom_site_label
 _atom_site_symmetry_multiplicity
 _atom_site_fract_x
 _atom_site_fract_y
 _atom_site_fract_z
 _atom_site_occupancy
  Li  Li0  1  0.16666700  0.50000000  0.50000000  1
  Li  Li1  1  0.48834287  0.50535592  0.50535592  1
  Li  Li2  1  0.84499013  0.49464408  0.49464408  1
  Fe  Fe3  1  0.96857558  0.02451057  0.02451057  1
  Fe  Fe4  1  0.36475842  0.97548943  0.97548943  1
  Sn  Sn5  1  0.66666700  0.00000000  0.00000000  1
  O  O6  1  0.24783452  0.25816718  0.25816718  1
  O  O7  1  0.57444380  0.25885654  0.25885654  1
  O  O8  1  0.08549848  0.74183282  0.74183282  1
  O  O9  1  0.90798417  0.26049522  0.26049522  1
  O  O10  1  0.42534883  0.73950478  0.73950478  1
  O  O11  1  0.75889020  0.74114346  0.74114346  1
