# generated using pymatgen
data_Na3Ni(BO3)2
_symmetry_space_group_name_H-M   'P 1'
_cell_length_a   5.61066683
_cell_length_b   9.56019960
_cell_length_c   10.38130532
_cell_angle_alpha   90.00000000
_cell_angle_beta   94.88844627
_cell_angle_gamma   90.00000000
_symmetry_Int_Tables_number   1
_chemical_formula_structural   Na3Ni(BO3)2
_chemical_formula_sum   'Na12 Ni4 B8 O24'
_cell_volume   554.81830061
_cell_formula_units_Z   4
loop_
 _symmetry_equiv_pos_site_id
 _symmetry_equiv_pos_as_xyz
  1  'x, y, z'
loop_
 _atom_site_type_symbol
 _atom_site_label
 _atom_site_symmetry_multiplicity
 _atom_site_fract_x
 _atom_site_fract_y
 _atom_site_fract_z
 _atom_site_occupancy
  Na  Na0  1  0.15458785  0.97014183  0.64371141  1
  Na  Na1  1  0.16336327  0.65989805  0.62531425  1
  Na  Na2  1  0.18785504  0.98868446  0.11851908  1
  Na  Na3  1  0.33663673  0.15989805  0.87468575  1
  Na  Na4  1  0.34541215  0.47014183  0.85628859  1
  Na  Na5  1  0.31214496  0.48868446  0.38148092  1
  Na  Na6  1  0.68785504  0.51131554  0.61851908  1
  Na  Na7  1  0.65458785  0.52985817  0.14371141  1
  Na  Na8  1  0.66336327  0.84010195  0.12531425  1
  Na  Na9  1  0.81214496  0.01131554  0.88148092  1
  Na  Na10  1  0.83663673  0.34010195  0.37468575  1
  Na  Na11  1  0.84541215  0.02985817  0.35628859  1
  Ni  Ni12  1  0.14115756  0.31078119  0.12654981  1
  Ni  Ni13  1  0.35884244  0.81078119  0.37345019  1
  Ni  Ni14  1  0.64115756  0.18921881  0.62654981  1
  Ni  Ni15  1  0.85884244  0.68921881  0.87345019  1
  B  B16  1  0.17308242  0.31049527  0.61839202  1
  B  B17  1  0.15566445  0.64857169  0.13246334  1
  B  B18  1  0.32691758  0.81049527  0.88160798  1
  B  B19  1  0.34433555  0.14857169  0.36753666  1
  B  B20  1  0.65566445  0.85142831  0.63246334  1
  B  B21  1  0.67308242  0.18950473  0.11839202  1
  B  B22  1  0.84433555  0.35142831  0.86753666  1
  B  B23  1  0.82691758  0.68950473  0.38160798  1
  O  O24  1  0.06570766  0.32159197  0.93212875  1
  O  O25  1  0.07349483  0.69461234  0.40738981  1
  O  O26  1  0.20586775  0.93528392  0.88834356  1
  O  O27  1  0.20610429  0.68663275  0.84745360  1
  O  O28  1  0.20900645  0.26314529  0.31891048  1
  O  O29  1  0.25454963  0.01468227  0.34835666  1
  O  O30  1  0.29389571  0.18663275  0.65254640  1
  O  O31  1  0.24545037  0.51468227  0.15164334  1
  O  O32  1  0.29413225  0.43528392  0.61165644  1
  O  O33  1  0.29099355  0.76314529  0.18108952  1
  O  O34  1  0.43429234  0.82159197  0.56787125  1
  O  O35  1  0.42650517  0.19461234  0.09261019  1
  O  O36  1  0.57349483  0.80538766  0.90738981  1
  O  O37  1  0.56570766  0.17840803  0.43212875  1
  O  O38  1  0.70900645  0.23685471  0.81891048  1
  O  O39  1  0.70586775  0.56471608  0.38834356  1
  O  O40  1  0.75454963  0.48531773  0.84835666  1
  O  O41  1  0.70610429  0.81336725  0.34745360  1
  O  O42  1  0.74545037  0.98531773  0.65164334  1
  O  O43  1  0.79099355  0.73685471  0.68108952  1
  O  O44  1  0.79389571  0.31336725  0.15254640  1
  O  O45  1  0.79413225  0.06471608  0.11165644  1
  O  O46  1  0.92650517  0.30538766  0.59261019  1
  O  O47  1  0.93429234  0.67840803  0.06787125  1
