# generated using pymatgen
data_NaVCSO7
_symmetry_space_group_name_H-M   'P 1'
_cell_length_a   9.19829139
_cell_length_b   6.49918688
_cell_length_c   5.34239395
_cell_angle_alpha   90.00000000
_cell_angle_beta   88.18225054
_cell_angle_gamma   90.00000000
_symmetry_Int_Tables_number   1
_chemical_formula_structural   NaVCSO7
_chemical_formula_sum   'Na2 V2 C2 S2 O14'
_cell_volume   319.21515280
_cell_formula_units_Z   2
loop_
 _symmetry_equiv_pos_site_id
 _symmetry_equiv_pos_as_xyz
  1  'x, y, z'
loop_
 _atom_site_type_symbol
 _atom_site_label
 _atom_site_symmetry_multiplicity
 _atom_site_fract_x
 _atom_site_fract_y
 _atom_site_fract_z
 _atom_site_occupancy
  Na  Na0  1  0.21002576  0.48971136  0.23224175  1
  Na  Na1  1  0.78997424  0.98971136  0.76775825  1
  V  V2  1  0.33882927  0.76188070  0.77751140  1
  V  V3  1  0.66117073  0.26188070  0.22248860  1
  C  C4  1  0.07818679  0.73956069  0.72728471  1
  C  C5  1  0.92181321  0.23956069  0.27271529  1
  S  S6  1  0.42773095  0.25626775  0.72588680  1
  S  S7  1  0.57226905  0.75626775  0.27411320  1
  O  O8  1  0.05183843  0.24279126  0.31733226  1
  O  O9  1  0.13822118  0.74499492  0.94787651  1
  O  O10  1  0.18574144  0.73298815  0.54311760  1
  O  O11  1  0.33434984  0.07500600  0.78442087  1
  O  O12  1  0.34166106  0.43972596  0.80909680  1
  O  O13  1  0.43514329  0.74428421  0.13435522  1
  O  O14  1  0.46220803  0.27063900  0.45275755  1
  O  O15  1  0.53779197  0.77063900  0.54724245  1
  O  O16  1  0.56485671  0.24428421  0.86564478  1
  O  O17  1  0.65833894  0.93972596  0.19090320  1
  O  O18  1  0.66565016  0.57500600  0.21557913  1
  O  O19  1  0.81425856  0.23298815  0.45688240  1
  O  O20  1  0.86177882  0.24499492  0.05212349  1
  O  O21  1  0.94816157  0.74279126  0.68266774  1
