# generated using pymatgen
data_NaLi2MnPCO7
_symmetry_space_group_name_H-M   'P 1'
_cell_length_a   8.71873623
_cell_length_b   6.65221290
_cell_length_c   10.08034722
_cell_angle_alpha   90.04721580
_cell_angle_beta   89.00356906
_cell_angle_gamma   90.11305213
_symmetry_Int_Tables_number   1
_chemical_formula_structural   NaLi2MnPCO7
_chemical_formula_sum   'Na4 Li8 Mn4 P4 C4 O28'
_cell_volume   584.55921508
_cell_formula_units_Z   4
loop_
 _symmetry_equiv_pos_site_id
 _symmetry_equiv_pos_as_xyz
  1  'x, y, z'
loop_
 _atom_site_type_symbol
 _atom_site_label
 _atom_site_symmetry_multiplicity
 _atom_site_fract_x
 _atom_site_fract_y
 _atom_site_fract_z
 _atom_site_occupancy
  Na  Na0  1  0.08415895  0.25413313  0.87793131  1
  Na  Na1  1  0.08427681  0.25209501  0.37860387  1
  Na  Na2  1  0.25157962  0.99703924  0.12444458  1
  Na  Na3  1  0.74845351  0.50042129  0.37634212  1
  Li  Li4  1  0.26507516  0.02046479  0.61690393  1
  Li  Li5  1  0.26692849  0.47784496  0.61388430  1
  Li  Li6  1  0.26804943  0.48197074  0.11530484  1
  Li  Li7  1  0.73647535  0.51784919  0.88205545  1
  Li  Li8  1  0.73469024  0.98028944  0.88562014  1
  Li  Li9  1  0.73384644  0.98408336  0.38443714  1
  Li  Li10  1  0.91780591  0.75412307  0.62800522  1
  Li  Li11  1  0.91266304  0.74911902  0.12341324  1
  Mn  Mn12  1  0.35782170  0.74719288  0.88434571  1
  Mn  Mn13  1  0.35980909  0.74771407  0.39173514  1
  Mn  Mn14  1  0.64464055  0.24657953  0.61589608  1
  Mn  Mn15  1  0.64196819  0.24847538  0.10891869  1
  P  P16  1  0.41251320  0.25008128  0.84947877  1
  P  P17  1  0.41276818  0.24830316  0.35552524  1
  P  P18  1  0.59339057  0.74980404  0.65124724  1
  P  P19  1  0.59294243  0.74942166  0.14541237  1
  C  C20  1  0.04146072  0.74981642  0.86579861  1
  C  C21  1  0.04602805  0.75699136  0.36586625  1
  C  C22  1  0.95047054  0.24914069  0.63339442  1
  C  C23  1  0.94582177  0.25730358  0.13227747  1
  O  O24  1  0.10019821  0.24860639  0.64034390  1
  O  O25  1  0.09435023  0.27625557  0.14157400  1
  O  O26  1  0.08840048  0.75289587  0.98787800  1
  O  O27  1  0.08981989  0.74947263  0.48844386  1
  O  O28  1  0.14081412  0.74724635  0.76762648  1
  O  O29  1  0.14770841  0.74186800  0.26945426  1
  O  O30  1  0.32292807  0.06191152  0.89806840  1
  O  O31  1  0.32062534  0.43302238  0.90440415  1
  O  O32  1  0.31434627  0.06296646  0.39893929  1
  O  O33  1  0.32590978  0.43329969  0.41400033  1
  O  O34  1  0.41342754  0.25354681  0.69386139  1
  O  O35  1  0.42340193  0.75250490  0.60305424  1
  O  O36  1  0.41818180  0.26520192  0.20051476  1
  O  O37  1  0.42627432  0.73204470  0.09387978  1
  O  O38  1  0.58217998  0.25284019  0.89508531  1
  O  O39  1  0.58646540  0.75418323  0.80677366  1
  O  O40  1  0.57910637  0.23186704  0.40452755  1
  O  O41  1  0.58186092  0.76589551  0.30012428  1
  O  O42  1  0.68446595  0.56273790  0.60457896  1
  O  O43  1  0.68863094  0.93069532  0.59776823  1
  O  O44  1  0.69428559  0.56648692  0.10376062  1
  O  O45  1  0.68185529  0.93314076  0.08809187  1
  O  O46  1  0.86532284  0.24698161  0.74011187  1
  O  O47  1  0.86000055  0.24420653  0.23837085  1
  O  O48  1  0.88475919  0.25173677  0.51882681  1
  O  O49  1  0.88222687  0.25066141  0.01706579  1
  O  O50  1  0.89591423  0.74903759  0.83991711  1
  O  O51  1  0.90290157  0.77843075  0.33611415  1
