# generated using pymatgen
data_TiCr3(PO4)6
_symmetry_space_group_name_H-M   'P 1'
_cell_length_a   8.80901767
_cell_length_b   8.80901771
_cell_length_c   8.80901795
_cell_angle_alpha   58.42045371
_cell_angle_beta   58.42045655
_cell_angle_gamma   58.42045540
_symmetry_Int_Tables_number   1
_chemical_formula_structural   TiCr3(PO4)6
_chemical_formula_sum   'Ti1 Cr3 P6 O24'
_cell_volume   465.88328235
_cell_formula_units_Z   1
loop_
 _symmetry_equiv_pos_site_id
 _symmetry_equiv_pos_as_xyz
  1  'x, y, z'
loop_
 _atom_site_type_symbol
 _atom_site_label
 _atom_site_symmetry_multiplicity
 _atom_site_fract_x
 _atom_site_fract_y
 _atom_site_fract_z
 _atom_site_occupancy
  Ti  Ti0  1  0.85952377  0.85952377  0.85952377  1
  Cr  Cr1  1  0.14286081  0.14286081  0.14286081  1
  Cr  Cr2  1  0.35722135  0.35722135  0.35722135  1
  Cr  Cr3  1  0.64288062  0.64288062  0.64288062  1
  P  P4  1  0.03397493  0.75074138  0.46481320  1
  P  P5  1  0.46481320  0.03397493  0.75074138  1
  P  P6  1  0.75074138  0.46481320  0.03397493  1
  P  P7  1  0.25417412  0.53037438  0.96692248  1
  P  P8  1  0.53037438  0.96692248  0.25417412  1
  P  P9  1  0.96692248  0.25417412  0.53037438  1
  O  O10  1  0.13740433  0.28332360  0.50475745  1
  O  O11  1  0.28332360  0.50475745  0.13740433  1
  O  O12  1  0.06275430  0.92282632  0.28088421  1
  O  O13  1  0.50475745  0.13740433  0.28332360  1
  O  O14  1  0.21730629  0.57844988  0.43382128  1
  O  O15  1  0.00581780  0.77832599  0.63759287  1
  O  O16  1  0.28088421  0.06275430  0.92282632  1
  O  O17  1  0.43382128  0.21730629  0.57844988  1
  O  O18  1  0.57844988  0.43382128  0.21730629  1
  O  O19  1  0.22459116  0.36024503  0.99224590  1
  O  O20  1  0.07945815  0.71183277  0.93961279  1
  O  O21  1  0.36024503  0.99224590  0.22459116  1
  O  O22  1  0.63759287  0.00581780  0.77832599  1
  O  O23  1  0.92282632  0.28088421  0.06275430  1
  O  O24  1  0.77832599  0.63759287  0.00581780  1
  O  O25  1  0.42743489  0.55765264  0.78495094  1
  O  O26  1  0.55765264  0.78495094  0.42743489  1
  O  O27  1  0.71183277  0.93961279  0.07945815  1
  O  O28  1  0.99224590  0.22459116  0.36024503  1
  O  O29  1  0.78495094  0.42743489  0.55765264  1
  O  O30  1  0.49038127  0.86284090  0.72200020  1
  O  O31  1  0.93961279  0.07945815  0.71183277  1
  O  O32  1  0.72200020  0.49038127  0.86284090  1
  O  O33  1  0.86284090  0.72200020  0.49038127  1
