# generated using pymatgen
data_Co3BiO8
_symmetry_space_group_name_H-M   'P 1'
_cell_length_a   8.34041039
_cell_length_b   8.36369762
_cell_length_c   8.33264916
_cell_angle_alpha   90.01756066
_cell_angle_beta   89.92291067
_cell_angle_gamma   90.01142686
_symmetry_Int_Tables_number   1
_chemical_formula_structural   Co3BiO8
_chemical_formula_sum   'Co12 Bi4 O32'
_cell_volume   581.25729660
_cell_formula_units_Z   4
loop_
 _symmetry_equiv_pos_site_id
 _symmetry_equiv_pos_as_xyz
  1  'x, y, z'
loop_
 _atom_site_type_symbol
 _atom_site_label
 _atom_site_symmetry_multiplicity
 _atom_site_fract_x
 _atom_site_fract_y
 _atom_site_fract_z
 _atom_site_occupancy
  Co  Co0  1  0.10304568  0.14535488  0.62434474  1
  Co  Co1  1  0.12568236  0.39901825  0.85177010  1
  Co  Co2  1  0.14995333  0.62589059  0.10187769  1
  Co  Co3  1  0.35341960  0.37502402  0.60147996  1
  Co  Co4  1  0.37567902  0.60327792  0.35254238  1
  Co  Co5  1  0.39941739  0.85305340  0.12451595  1
  Co  Co6  1  0.60173008  0.35056191  0.37406001  1
  Co  Co7  1  0.62516279  0.10273029  0.14719361  1
  Co  Co8  1  0.64828300  0.87670521  0.89924256  1
  Co  Co9  1  0.85030137  0.12435542  0.39802077  1
  Co  Co10  1  0.87369197  0.89862523  0.64868589  1
  Co  Co11  1  0.89644086  0.64784309  0.87554284  1
  Bi  Bi12  1  0.12453359  0.87428232  0.37529824  1
  Bi  Bi13  1  0.37508230  0.12555789  0.87443333  1
  Bi  Bi14  1  0.62386169  0.62546306  0.62593396  1
  Bi  Bi15  1  0.87420881  0.37439692  0.12383240  1
  O  O16  1  0.07623621  0.13489502  0.39791121  1
  O  O17  1  0.09941559  0.92085368  0.63607715  1
  O  O18  1  0.12408426  0.61992770  0.88015112  1
  O  O19  1  0.11283067  0.17179488  0.85109750  1
  O  O20  1  0.13897023  0.39761727  0.07786414  1
  O  O21  1  0.13218756  0.37175904  0.63123714  1
  O  O22  1  0.14856217  0.61381862  0.32594108  1
  O  O23  1  0.17199798  0.85227400  0.11095913  1
  O  O24  1  0.32909027  0.14869111  0.61282895  1
  O  O25  1  0.35296947  0.38837008  0.82897782  1
  O  O26  1  0.37120037  0.63009948  0.12482034  1
  O  O27  1  0.36362714  0.60052692  0.57828303  1
  O  O28  1  0.38578139  0.82875004  0.34963674  1
  O  O29  1  0.37946328  0.37602637  0.37866073  1
  O  O30  1  0.39952223  0.07688001  0.13642516  1
  O  O31  1  0.42266333  0.86331516  0.89848503  1
  O  O32  1  0.57800771  0.36204454  0.60252390  1
  O  O33  1  0.60113781  0.57729265  0.36350028  1
  O  O34  1  0.62194659  0.87595695  0.12185237  1
  O  O35  1  0.61369356  0.32744016  0.14927771  1
  O  O36  1  0.63563524  0.10030130  0.92247464  1
  O  O37  1  0.62856011  0.12895491  0.37491849  1
  O  O38  1  0.64731608  0.88903585  0.67203631  1
  O  O39  1  0.67120918  0.65170832  0.88619965  1
  O  O40  1  0.82713488  0.35112731  0.38731876  1
  O  O41  1  0.85107957  0.11337611  0.17338394  1
  O  O42  1  0.87100572  0.87492175  0.87144166  1
  O  O43  1  0.86073164  0.89790709  0.42206820  1
  O  O44  1  0.88525337  0.67362334  0.64907132  1
  O  O45  1  0.87557289  0.12035593  0.62086787  1
  O  O46  1  0.89950395  0.42219704  0.86330598  1
  O  O47  1  0.92311774  0.63615698  0.10176925  1
