# generated using pymatgen
data_Li3MnV2O6
_symmetry_space_group_name_H-M   'P 1'
_cell_length_a   15.76554856
_cell_length_b   9.95137605
_cell_length_c   9.95137606
_cell_angle_alpha   17.02239680
_cell_angle_beta   16.80469921
_cell_angle_gamma   16.80469826
_symmetry_Int_Tables_number   1
_chemical_formula_structural   Li3MnV2O6
_chemical_formula_sum   'Li3 Mn1 V2 O6'
_cell_volume   114.77494398
_cell_formula_units_Z   1
loop_
 _symmetry_equiv_pos_site_id
 _symmetry_equiv_pos_as_xyz
  1  'x, y, z'
loop_
 _atom_site_type_symbol
 _atom_site_label
 _atom_site_symmetry_multiplicity
 _atom_site_fract_x
 _atom_site_fract_y
 _atom_site_fract_z
 _atom_site_occupancy
  Li  Li0  1  0.16666700  0.50000000  0.50000000  1
  Li  Li1  1  0.48312969  0.51216970  0.51216970  1
  Li  Li2  1  0.85020331  0.48783030  0.48783030  1
  Mn  Mn3  1  0.66666700  0.00000000  0.00000000  1
  V  V4  1  0.99723812  0.00056346  0.00056346  1
  V  V5  1  0.33609488  0.99943654  0.99943654  1
  O  O6  1  0.23230809  0.26613869  0.26613869  1
  O  O7  1  0.58100558  0.25691620  0.25691620  1
  O  O8  1  0.10102491  0.73386131  0.73386131  1
  O  O9  1  0.92116552  0.25556739  0.25556739  1
  O  O10  1  0.41216748  0.74443261  0.74443261  1
  O  O11  1  0.75232742  0.74308380  0.74308380  1
