# generated using pymatgen
data_Li5Cr2Ni5O12
_symmetry_space_group_name_H-M   'P 1'
_cell_length_a   5.11569173
_cell_length_b   5.11569130
_cell_length_c   9.77111046
_cell_angle_alpha   84.65273990
_cell_angle_beta   95.34726319
_cell_angle_gamma   58.70955766
_symmetry_Int_Tables_number   1
_chemical_formula_structural   Li5Cr2Ni5O12
_chemical_formula_sum   'Li5 Cr2 Ni5 O12'
_cell_volume   214.53339512
_cell_formula_units_Z   1
loop_
 _symmetry_equiv_pos_site_id
 _symmetry_equiv_pos_as_xyz
  1  'x, y, z'
loop_
 _atom_site_type_symbol
 _atom_site_label
 _atom_site_symmetry_multiplicity
 _atom_site_fract_x
 _atom_site_fract_y
 _atom_site_fract_z
 _atom_site_occupancy
  Li  Li0  1  0.17036470  0.67062505  0.50204186  1
  Li  Li1  1  0.32769902  0.82940043  0.99691870  1
  Li  Li2  1  0.67062505  0.17036470  0.99795814  1
  Li  Li3  1  0.82940043  0.32769902  0.50308130  1
  Li  Li4  1  0.91886525  0.91886525  0.75000000  1
  Cr  Cr5  1  0.25674180  0.25674180  0.75000000  1
  Cr  Cr6  1  0.74905803  0.74905803  0.25000000  1
  Ni  Ni7  1  0.08162059  0.08162059  0.25000000  1
  Ni  Ni8  1  0.99710731  0.50763502  0.99651104  1
  Ni  Ni9  1  0.50763502  0.99710731  0.50348896  1
  Ni  Ni10  1  0.41854934  0.41854934  0.25000000  1
  Ni  Ni11  1  0.58403471  0.58403471  0.75000000  1
  O  O12  1  0.95132604  0.23983799  0.86498242  1
  O  O13  1  0.23983799  0.95132604  0.63501758  1
  O  O14  1  0.11297128  0.38647817  0.36618117  1
  O  O15  1  0.38647817  0.11297128  0.13381883  1
  O  O16  1  0.29356427  0.52137233  0.86679573  1
  O  O17  1  0.52137233  0.29356427  0.63320427  1
  O  O18  1  0.47681259  0.71252004  0.36911146  1
  O  O19  1  0.71252004  0.47681259  0.13088854  1
  O  O20  1  0.59490438  0.88657544  0.86631653  1
  O  O21  1  0.88657544  0.59490438  0.63368347  1
  O  O22  1  0.78835982  0.02357739  0.37030149  1
  O  O23  1  0.02357739  0.78835982  0.12969851  1
