# generated using pymatgen
data_Sn2P2O7
_symmetry_space_group_name_H-M   'P 1'
_cell_length_a   7.03127285
_cell_length_b   7.03127285
_cell_length_c   25.55367069
_cell_angle_alpha   90.00000000
_cell_angle_beta   90.00000000
_cell_angle_gamma   90.00000000
_symmetry_Int_Tables_number   1
_chemical_formula_structural   Sn2P2O7
_chemical_formula_sum   'Sn16 P16 O56'
_cell_volume   1263.34276062
_cell_formula_units_Z   8
loop_
 _symmetry_equiv_pos_site_id
 _symmetry_equiv_pos_as_xyz
  1  'x, y, z'
loop_
 _atom_site_type_symbol
 _atom_site_label
 _atom_site_symmetry_multiplicity
 _atom_site_fract_x
 _atom_site_fract_y
 _atom_site_fract_z
 _atom_site_occupancy
  Sn  Sn0  1  0.11849481  0.63673018  0.88431080  1
  Sn  Sn1  1  0.12006222  0.21973713  0.00208019  1
  Sn  Sn2  1  0.19405466  0.54741599  0.24435519  1
  Sn  Sn3  1  0.20110340  0.26486126  0.63876494  1
  Sn  Sn4  1  0.21973713  0.87993778  0.75208019  1
  Sn  Sn5  1  0.26486126  0.79889660  0.38876494  1
  Sn  Sn6  1  0.36326982  0.11849481  0.13431080  1
  Sn  Sn7  1  0.45258401  0.19405466  0.49435519  1
  Sn  Sn8  1  0.54741599  0.80594534  0.99435519  1
  Sn  Sn9  1  0.63673018  0.88150519  0.63431080  1
  Sn  Sn10  1  0.73513874  0.20110340  0.88876494  1
  Sn  Sn11  1  0.78026287  0.12006222  0.25208019  1
  Sn  Sn12  1  0.79889660  0.73513874  0.13876494  1
  Sn  Sn13  1  0.80594534  0.45258401  0.74435519  1
  Sn  Sn14  1  0.87993778  0.78026287  0.50208019  1
  Sn  Sn15  1  0.88150519  0.36326982  0.38431080  1
  P  P16  1  0.04866611  0.71117502  0.02071352  1
  P  P17  1  0.13695576  0.74718152  0.62208348  1
  P  P18  1  0.25281848  0.13695576  0.87208348  1
  P  P19  1  0.28882498  0.04866611  0.27071352  1
  P  P20  1  0.28023926  0.65334463  0.11844157  1
  P  P21  1  0.30522937  0.37306448  0.77598498  1
  P  P22  1  0.34665537  0.28023926  0.36844157  1
  P  P23  1  0.37306448  0.69477063  0.52598498  1
  P  P24  1  0.62693552  0.30522937  0.02598498  1
  P  P25  1  0.65334463  0.71976074  0.86844157  1
  P  P26  1  0.69477063  0.62693552  0.27598498  1
  P  P27  1  0.71976074  0.34665537  0.61844157  1
  P  P28  1  0.71117502  0.95133389  0.77071352  1
  P  P29  1  0.74718152  0.86304424  0.37208348  1
  P  P30  1  0.86304424  0.25281848  0.12208348  1
  P  P31  1  0.95133389  0.28882498  0.52071352  1
  O  O32  1  0.01723288  0.55853935  0.97902752  1
  O  O33  1  0.03975070  0.17930044  0.09214773  1
  O  O34  1  0.08534606  0.26146373  0.89207949  1
  O  O35  1  0.09993897  0.60148807  0.66464319  1
  O  O36  1  0.12839052  0.18090578  0.25182625  1
  O  O37  1  0.13609218  0.21319737  0.54589669  1
  O  O38  1  0.14314073  0.77200260  0.15328733  1
  O  O39  1  0.15973695  0.59063863  0.06663608  1
  O  O40  1  0.16518199  0.52913699  0.79423821  1
  O  O41  1  0.17930044  0.96024930  0.84214773  1
  O  O42  1  0.18090578  0.87160948  0.00182625  1
  O  O43  1  0.20390818  0.22435572  0.74099974  1
  O  O44  1  0.21319737  0.86390782  0.29589669  1
  O  O45  1  0.22097606  0.44626366  0.34878857  1
  O  O46  1  0.22435572  0.79609182  0.49099974  1
  O  O47  1  0.22799740  0.14314073  0.40328733  1
  O  O48  1  0.26222294  0.62770107  0.57910232  1
  O  O49  1  0.26146373  0.91465394  0.64207949  1
  O  O50  1  0.34080974  0.46874135  0.14504174  1
  O  O51  1  0.37229893  0.26222294  0.82910232  1
  O  O52  1  0.39851193  0.09993897  0.91464319  1
  O  O53  1  0.40936137  0.15973695  0.31663608  1
  O  O54  1  0.44146065  0.01723288  0.22902752  1
  O  O55  1  0.46874135  0.65919026  0.89504174  1
  O  O56  1  0.47086301  0.16518199  0.04423821  1
  O  O57  1  0.44626366  0.77902394  0.09878857  1
  O  O58  1  0.45573468  0.51370215  0.50275547  1
  O  O59  1  0.48629785  0.45573468  0.75275547  1
  O  O60  1  0.51370215  0.54426532  0.25275547  1
  O  O61  1  0.54426532  0.48629785  0.00275547  1
  O  O62  1  0.55373634  0.22097606  0.59878857  1
  O  O63  1  0.52913699  0.83481801  0.54423821  1
  O  O64  1  0.53125865  0.34080974  0.39504174  1
  O  O65  1  0.55853935  0.98276712  0.72902752  1
  O  O66  1  0.59063863  0.84026305  0.81663608  1
  O  O67  1  0.60148807  0.90006103  0.41464319  1
  O  O68  1  0.62770107  0.73777706  0.32910232  1
  O  O69  1  0.65919026  0.53125865  0.64504174  1
  O  O70  1  0.73853627  0.08534606  0.14207949  1
  O  O71  1  0.73777706  0.37229893  0.07910232  1
  O  O72  1  0.77200260  0.85685927  0.90328733  1
  O  O73  1  0.77564428  0.20390818  0.99099974  1
  O  O74  1  0.77902394  0.55373634  0.84878857  1
  O  O75  1  0.78680263  0.13609218  0.79589669  1
  O  O76  1  0.79609182  0.77564428  0.24099974  1
  O  O77  1  0.81909422  0.12839052  0.50182625  1
  O  O78  1  0.82069956  0.03975070  0.34214773  1
  O  O79  1  0.83481801  0.47086301  0.29423821  1
  O  O80  1  0.84026305  0.40936137  0.56663608  1
  O  O81  1  0.85685927  0.22799740  0.65328733  1
  O  O82  1  0.86390782  0.78680263  0.04589669  1
  O  O83  1  0.87160948  0.81909422  0.75182625  1
  O  O84  1  0.90006103  0.39851193  0.16464319  1
  O  O85  1  0.91465394  0.73853627  0.39207949  1
  O  O86  1  0.96024930  0.82069956  0.59214773  1
  O  O87  1  0.98276712  0.44146065  0.47902752  1
