# generated using pymatgen
data_LiCo2NiO6
_symmetry_space_group_name_H-M   'P 1'
_cell_length_a   6.47576739
_cell_length_b   2.86500455
_cell_length_c   5.85738474
_cell_angle_alpha   91.83199711
_cell_angle_beta   104.51570490
_cell_angle_gamma   103.06899026
_symmetry_Int_Tables_number   1
_chemical_formula_structural   LiCo2NiO6
_chemical_formula_sum   'Li1 Co2 Ni1 O6'
_cell_volume   102.02499312
_cell_formula_units_Z   1
loop_
 _symmetry_equiv_pos_site_id
 _symmetry_equiv_pos_as_xyz
  1  'x, y, z'
loop_
 _atom_site_type_symbol
 _atom_site_label
 _atom_site_symmetry_multiplicity
 _atom_site_fract_x
 _atom_site_fract_y
 _atom_site_fract_z
 _atom_site_occupancy
  Li  Li0  1  0.33334849  0.66674477  0.83334692  1
  Co  Co1  1  0.67306599  0.32560648  0.65992359  1
  Co  Co2  1  0.99361372  0.00766116  0.00675263  1
  Ni  Ni3  1  0.33330289  0.66668655  0.33331418  1
  O  O4  1  0.36699078  0.14659355  0.57708787  1
  O  O5  1  0.29968441  0.18687280  0.08962340  1
  O  O6  1  0.68357547  0.84339589  0.87932757  1
  O  O7  1  0.64857673  0.80346443  0.44675878  1
  O  O8  1  0.98305482  0.48980817  0.78729154  1
  O  O9  1  0.01811971  0.52983319  0.21990652  1
