# generated using pymatgen
data_Ti3Cr(PO4)6
_symmetry_space_group_name_H-M   'P 1'
_cell_length_a   8.79486444
_cell_length_b   8.79486402
_cell_length_c   8.79486485
_cell_angle_alpha   58.45588398
_cell_angle_beta   58.45588730
_cell_angle_gamma   58.45588179
_symmetry_Int_Tables_number   1
_chemical_formula_structural   Ti3Cr(PO4)6
_chemical_formula_sum   'Ti3 Cr1 P6 O24'
_cell_volume   464.03469937
_cell_formula_units_Z   1
loop_
 _symmetry_equiv_pos_site_id
 _symmetry_equiv_pos_as_xyz
  1  'x, y, z'
loop_
 _atom_site_type_symbol
 _atom_site_label
 _atom_site_symmetry_multiplicity
 _atom_site_fract_x
 _atom_site_fract_y
 _atom_site_fract_z
 _atom_site_occupancy
  Ti  Ti0  1  0.13947798  0.13947798  0.13947798  1
  Ti  Ti1  1  0.36049699  0.36049699  0.36049699  1
  Ti  Ti2  1  0.64027343  0.64027343  0.64027343  1
  Cr  Cr3  1  0.85882481  0.85882481  0.85882481  1
  P  P4  1  0.03183642  0.74910125  0.46939396  1
  P  P5  1  0.46939396  0.03183642  0.74910125  1
  P  P6  1  0.74910125  0.46939396  0.03183642  1
  P  P7  1  0.24646093  0.53500338  0.96728923  1
  P  P8  1  0.53500338  0.96728923  0.24646093  1
  P  P9  1  0.96728923  0.24646093  0.53500338  1
  O  O10  1  0.13985524  0.26976963  0.51147397  1
  O  O11  1  0.26976963  0.51147397  0.13985524  1
  O  O12  1  0.06062654  0.92289540  0.29041554  1
  O  O13  1  0.51147397  0.13985524  0.26976963  1
  O  O14  1  0.21212276  0.57407641  0.44707980  1
  O  O15  1  0.99916554  0.78200986  0.64513698  1
  O  O16  1  0.29041554  0.06062654  0.92289540  1
  O  O17  1  0.44707980  0.21212276  0.57407641  1
  O  O18  1  0.57407641  0.44707980  0.21212276  1
  O  O19  1  0.21457635  0.36591219  0.99641922  1
  O  O20  1  0.06652938  0.71957456  0.93490004  1
  O  O21  1  0.36591219  0.99641922  0.21457635  1
  O  O22  1  0.64513698  0.99916554  0.78200986  1
  O  O23  1  0.92289540  0.29041554  0.06062654  1
  O  O24  1  0.78200986  0.64513698  0.99916554  1
  O  O25  1  0.41525435  0.57003406  0.78479017  1
  O  O26  1  0.57003406  0.78479017  0.41525435  1
  O  O27  1  0.71957456  0.93490004  0.06652938  1
  O  O28  1  0.99641922  0.21457635  0.36591219  1
  O  O29  1  0.78479017  0.41525435  0.57003406  1
  O  O30  1  0.49897211  0.86095968  0.71929084  1
  O  O31  1  0.93490004  0.06652938  0.71957456  1
  O  O32  1  0.71929084  0.49897211  0.86095968  1
  O  O33  1  0.86095968  0.71929084  0.49897211  1
