# generated using pymatgen
data_MgV3O7
_symmetry_space_group_name_H-M   'P 1'
_cell_length_a   5.33293368
_cell_length_b   10.23426432
_cell_length_c   10.23090554
_cell_angle_alpha   90.00000000
_cell_angle_beta   89.99999087
_cell_angle_gamma   90.00000000
_symmetry_Int_Tables_number   1
_chemical_formula_structural   MgV3O7
_chemical_formula_sum   'Mg4 V12 O28'
_cell_volume   558.38904214
_cell_formula_units_Z   4
loop_
 _symmetry_equiv_pos_site_id
 _symmetry_equiv_pos_as_xyz
  1  'x, y, z'
loop_
 _atom_site_type_symbol
 _atom_site_label
 _atom_site_symmetry_multiplicity
 _atom_site_fract_x
 _atom_site_fract_y
 _atom_site_fract_z
 _atom_site_occupancy
  Mg  Mg0  1  0.65466005  0.75000000  0.92190767  1
  Mg  Mg1  1  0.15465905  0.25000000  0.57809133  1
  Mg  Mg2  1  0.34533995  0.25000000  0.07809233  1
  Mg  Mg3  1  0.84534095  0.75000000  0.42190867  1
  V  V4  1  0.29722647  0.02732531  0.31722189  1
  V  V5  1  0.79722747  0.97267469  0.18277811  1
  V  V6  1  0.70277353  0.52732531  0.68277811  1
  V  V7  1  0.20277253  0.47267469  0.81722189  1
  V  V8  1  0.30806811  0.75000000  0.21770599  1
  V  V9  1  0.80806811  0.25000000  0.28229401  1
  V  V10  1  0.69193189  0.25000000  0.78229401  1
  V  V11  1  0.19193189  0.75000000  0.71770699  1
  V  V12  1  0.79722747  0.52732531  0.18277811  1
  V  V13  1  0.29722647  0.47267469  0.31722189  1
  V  V14  1  0.20277253  0.02732531  0.81722189  1
  V  V15  1  0.70277353  0.97267469  0.68277811  1
  O  O16  1  0.94283257  0.12085209  0.71213942  1
  O  O17  1  0.44283257  0.87914791  0.78786158  1
  O  O18  1  0.05716743  0.62085209  0.28786058  1
  O  O19  1  0.55716743  0.37914791  0.21213842  1
  O  O20  1  0.05716743  0.87914791  0.28786058  1
  O  O21  1  0.55716743  0.12085209  0.21213842  1
  O  O22  1  0.94283257  0.37914791  0.71213942  1
  O  O23  1  0.44283257  0.62085209  0.78786158  1
  O  O24  1  0.45879272  0.11839202  0.71266005  1
  O  O25  1  0.95879372  0.88160798  0.78734095  1
  O  O26  1  0.54120728  0.61839202  0.28733995  1
  O  O27  1  0.04120628  0.38160798  0.21265905  1
  O  O28  1  0.54120728  0.88160798  0.28733995  1
  O  O29  1  0.04120628  0.11839202  0.21265905  1
  O  O30  1  0.45879272  0.38160798  0.71266005  1
  O  O31  1  0.95879372  0.61839202  0.78734095  1
  O  O32  1  0.16626946  0.75000000  0.55561371  1
  O  O33  1  0.66626746  0.25000000  0.94438729  1
  O  O34  1  0.83373054  0.25000000  0.44438629  1
  O  O35  1  0.33373254  0.75000000  0.05561271  1
  O  O36  1  0.22142159  0.40430652  0.96430192  1
  O  O37  1  0.72142059  0.59569348  0.53569808  1
  O  O38  1  0.77857841  0.90430652  0.03569808  1
  O  O39  1  0.27857941  0.09569348  0.46430192  1
  O  O40  1  0.77857841  0.59569348  0.03569808  1
  O  O41  1  0.27857941  0.40430652  0.46430192  1
  O  O42  1  0.22142159  0.09569348  0.96430192  1
  O  O43  1  0.72142059  0.90430652  0.53569808  1
