# generated using pymatgen
data_NaLi5Mn2P2(CO7)2
_symmetry_space_group_name_H-M   'P 1'
_cell_length_a   8.63384122
_cell_length_b   6.68227101
_cell_length_c   9.99739141
_cell_angle_alpha   90.00000000
_cell_angle_beta   87.60521787
_cell_angle_gamma   90.00000000
_symmetry_Int_Tables_number   1
_chemical_formula_structural   NaLi5Mn2P2(CO7)2
_chemical_formula_sum   'Na2 Li10 Mn4 P4 C4 O28'
_cell_volume   576.28242771
_cell_formula_units_Z   2
loop_
 _symmetry_equiv_pos_site_id
 _symmetry_equiv_pos_as_xyz
  1  'x, y, z'
loop_
 _atom_site_type_symbol
 _atom_site_label
 _atom_site_symmetry_multiplicity
 _atom_site_fract_x
 _atom_site_fract_y
 _atom_site_fract_z
 _atom_site_occupancy
  Na  Na0  1  0.24805286  0.99808873  0.12632156  1
  Na  Na1  1  0.75194714  0.49808873  0.37367844  1
  Li  Li2  1  0.08428452  0.25524267  0.86939613  1
  Li  Li3  1  0.09071893  0.25039477  0.37409370  1
  Li  Li4  1  0.26554798  0.02953068  0.61752055  1
  Li  Li5  1  0.26666982  0.46793192  0.61565573  1
  Li  Li6  1  0.26967616  0.47522392  0.11492620  1
  Li  Li7  1  0.73445202  0.52953068  0.88247945  1
  Li  Li8  1  0.73333018  0.96793192  0.88434427  1
  Li  Li9  1  0.73032384  0.97522392  0.38507380  1
  Li  Li10  1  0.91571548  0.75524267  0.63060387  1
  Li  Li11  1  0.90928107  0.75039477  0.12590630  1
  Mn  Mn12  1  0.35077228  0.74619805  0.88276157  1
  Mn  Mn13  1  0.35390601  0.74779016  0.39279690  1
  Mn  Mn14  1  0.64922772  0.24619805  0.61723843  1
  Mn  Mn15  1  0.64609399  0.24779016  0.10720310  1
  P  P16  1  0.40624005  0.24996771  0.85212002  1
  P  P17  1  0.40836927  0.24895583  0.35893967  1
  P  P18  1  0.59375995  0.74996771  0.64787998  1
  P  P19  1  0.59163073  0.74895583  0.14106033  1
  C  C20  1  0.03784991  0.74993467  0.86369638  1
  C  C21  1  0.04301486  0.75865802  0.36190408  1
  C  C22  1  0.96215009  0.24993467  0.63630362  1
  C  C23  1  0.95698514  0.25865802  0.13809592  1
  O  O24  1  0.10818008  0.24850939  0.66532145  1
  O  O25  1  0.09897685  0.28152565  0.17305016  1
  O  O26  1  0.07913171  0.75584863  0.98664436  1
  O  O27  1  0.07850703  0.75189714  0.48692866  1
  O  O28  1  0.14160718  0.74512620  0.76554539  1
  O  O29  1  0.15187448  0.74127838  0.26854119  1
  O  O30  1  0.31373375  0.06227626  0.89850194  1
  O  O31  1  0.30742348  0.42956994  0.90601499  1
  O  O32  1  0.30322807  0.06707278  0.40056550  1
  O  O33  1  0.31810009  0.43244643  0.41800969  1
  O  O34  1  0.41687418  0.25484540  0.69520390  1
  O  O35  1  0.42401319  0.75517402  0.60025477  1
  O  O36  1  0.42198700  0.26728516  0.20300797  1
  O  O37  1  0.42558163  0.72922648  0.08964376  1
  O  O38  1  0.57598681  0.25517402  0.89974523  1
  O  O39  1  0.58312582  0.75484540  0.80479610  1
  O  O40  1  0.57441837  0.22922648  0.41035624  1
  O  O41  1  0.57801300  0.76728516  0.29699203  1
  O  O42  1  0.68626625  0.56227626  0.60149806  1
  O  O43  1  0.69257652  0.92956994  0.59398501  1
  O  O44  1  0.69677193  0.56707278  0.09943450  1
  O  O45  1  0.68189991  0.93244643  0.08199031  1
  O  O46  1  0.85839282  0.24512620  0.73445461  1
  O  O47  1  0.84812552  0.24127838  0.23145881  1
  O  O48  1  0.92086829  0.25584863  0.51335564  1
  O  O49  1  0.92149297  0.25189714  0.01307134  1
  O  O50  1  0.89181992  0.74850939  0.83467855  1
  O  O51  1  0.90102315  0.78152565  0.32694984  1
