# generated using pymatgen
data_LiH2SNO3
_symmetry_space_group_name_H-M   'P 1'
_cell_length_a   16.95779952
_cell_length_b   5.18418394
_cell_length_c   8.60245194
_cell_angle_alpha   89.99778199
_cell_angle_beta   89.99067440
_cell_angle_gamma   89.99391998
_symmetry_Int_Tables_number   1
_chemical_formula_structural   LiH2SNO3
_chemical_formula_sum   'Li8 H16 S8 N8 O24'
_cell_volume   756.26176695
_cell_formula_units_Z   8
loop_
 _symmetry_equiv_pos_site_id
 _symmetry_equiv_pos_as_xyz
  1  'x, y, z'
loop_
 _atom_site_type_symbol
 _atom_site_label
 _atom_site_symmetry_multiplicity
 _atom_site_fract_x
 _atom_site_fract_y
 _atom_site_fract_z
 _atom_site_occupancy
  Li  Li0  1  0.90290202  0.94952856  0.27522631  1
  Li  Li1  1  0.09709343  0.05046316  0.77519786  1
  Li  Li2  1  0.59709706  0.94956281  0.77518117  1
  Li  Li3  1  0.40288604  0.05045350  0.27518272  1
  Li  Li4  1  0.84770078  0.45863124  0.47164220  1
  Li  Li5  1  0.15228441  0.54139492  0.97166271  1
  Li  Li6  1  0.65231147  0.45861737  0.97168802  1
  Li  Li7  1  0.34768770  0.54139120  0.47163628  1
  H  H8  1  0.88398287  0.70078563  0.93611118  1
  H  H9  1  0.11603276  0.29918430  0.43617803  1
  H  H10  1  0.61608549  0.70089441  0.43612458  1
  H  H11  1  0.38390685  0.29911367  0.93614342  1
  H  H12  1  0.79784629  0.98580776  0.72365287  1
  H  H13  1  0.20215170  0.01402438  0.22361749  1
  H  H14  1  0.70217022  0.98603327  0.22368297  1
  H  H15  1  0.29783671  0.01406815  0.72360128  1
  H  H16  1  0.01446737  0.36077376  0.06510546  1
  H  H17  1  0.98554072  0.63916243  0.56509854  1
  H  H18  1  0.48550977  0.36074590  0.56507860  1
  H  H19  1  0.51450377  0.63930920  0.06529754  1
  H  H20  1  0.88536367  0.38701443  0.89328316  1
  H  H21  1  0.11467018  0.61294734  0.39329452  1
  H  H22  1  0.61469315  0.38710931  0.39328314  1
  H  H23  1  0.38531304  0.61289201  0.89328736  1
  S  S24  1  0.91542843  0.98514733  0.63757995  1
  S  S25  1  0.08457506  0.01480962  0.13759456  1
  S  S26  1  0.58459281  0.98528775  0.13764176  1
  S  S27  1  0.41542104  0.01477263  0.63754811  1
  S  S28  1  0.83005988  0.45014436  0.12137999  1
  S  S29  1  0.16994652  0.54985962  0.62139388  1
  S  S30  1  0.66995059  0.45014278  0.62139136  1
  S  S31  1  0.33001914  0.54986340  0.12140800  1
  N  N32  1  0.85439281  0.99768263  0.76648969  1
  N  N33  1  0.14560095  0.00219848  0.26647643  1
  N  N34  1  0.64561964  0.99794981  0.26653086  1
  N  N35  1  0.35438231  0.00219517  0.76644814  1
  N  N36  1  0.89459884  0.51820667  0.98150761  1
  N  N37  1  0.10542276  0.48178363  0.48154347  1
  N  N38  1  0.60545630  0.51831929  0.48150721  1
  N  N39  1  0.39453051  0.48168226  0.98151761  1
  O  O40  1  0.92927061  0.67596767  0.58657009  1
  O  O41  1  0.07072788  0.32402744  0.08666417  1
  O  O42  1  0.57076717  0.67602949  0.08678927  1
  O  O43  1  0.42924361  0.32396782  0.58655318  1
  O  O44  1  0.99278709  0.06447129  0.69240068  1
  O  O45  1  0.00721206  0.93543062  0.19243341  1
  O  O46  1  0.50722480  0.06468877  0.19246065  1
  O  O47  1  0.49278740  0.93545308  0.69237462  1
  O  O48  1  0.89238621  0.10326321  0.48643339  1
  O  O49  1  0.10762368  0.89679858  0.98641821  1
  O  O50  1  0.60764075  0.10320893  0.98644284  1
  O  O51  1  0.39239306  0.89669167  0.48639607  1
  O  O52  1  0.83957554  0.17417596  0.15018295  1
  O  O53  1  0.16044753  0.82584623  0.65014621  1
  O  O54  1  0.66044688  0.17414854  0.65010538  1
  O  O55  1  0.33955407  0.82583275  0.15016480  1
  O  O56  1  0.85536072  0.60596253  0.25715477  1
  O  O57  1  0.14461242  0.39410196  0.75719521  1
  O  O58  1  0.64459863  0.60585074  0.75720226  1
  O  O59  1  0.35532943  0.39404815  0.25718582  1
  O  O60  1  0.75019886  0.51982167  0.07237913  1
  O  O61  1  0.24981013  0.48009766  0.57240121  1
  O  O62  1  0.74982691  0.51987823  0.57246304  1
  O  O63  1  0.25014149  0.48028189  0.07247060  1
