# generated using pymatgen
data_NaLi5Mn2P2(CO7)2
_symmetry_space_group_name_H-M   'P 1'
_cell_length_a   8.63143737
_cell_length_b   6.69722266
_cell_length_c   10.00968412
_cell_angle_alpha   89.92033646
_cell_angle_beta   87.52061659
_cell_angle_gamma   89.15983360
_symmetry_Int_Tables_number   1
_chemical_formula_structural   NaLi5Mn2P2(CO7)2
_chemical_formula_sum   'Na2 Li10 Mn4 P4 C4 O28'
_cell_volume   578.02239097
_cell_formula_units_Z   2
loop_
 _symmetry_equiv_pos_site_id
 _symmetry_equiv_pos_as_xyz
  1  'x, y, z'
loop_
 _atom_site_type_symbol
 _atom_site_label
 _atom_site_symmetry_multiplicity
 _atom_site_fract_x
 _atom_site_fract_y
 _atom_site_fract_z
 _atom_site_occupancy
  Na  Na0  1  0.24737730  0.50192711  0.62544266  1
  Na  Na1  1  0.75262270  0.49807289  0.37455734  1
  Li  Li2  1  0.08838197  0.23503892  0.87386291  1
  Li  Li3  1  0.08663128  0.23072573  0.37098513  1
  Li  Li4  1  0.27151714  0.02906110  0.61422122  1
  Li  Li5  1  0.26977844  0.02966819  0.11690104  1
  Li  Li6  1  0.26560932  0.47301914  0.11824289  1
  Li  Li7  1  0.73439068  0.52698086  0.88175711  1
  Li  Li8  1  0.73022156  0.97033181  0.88309896  1
  Li  Li9  1  0.72848286  0.97093890  0.38577878  1
  Li  Li10  1  0.91336872  0.76927427  0.62901487  1
  Li  Li11  1  0.91161803  0.76496108  0.12613709  1
  Mn  Mn12  1  0.34980452  0.75317844  0.89058839  1
  Mn  Mn13  1  0.35491065  0.75416058  0.38568178  1
  Mn  Mn14  1  0.64508935  0.24583942  0.61431822  1
  Mn  Mn15  1  0.65019548  0.24682156  0.10941161  1
  P  P16  1  0.40804911  0.24709063  0.85821583  1
  P  P17  1  0.40750168  0.24615399  0.35423693  1
  P  P18  1  0.59249832  0.75384601  0.64576307  1
  P  P19  1  0.59195089  0.75290937  0.14178417  1
  C  C20  1  0.03734936  0.75170834  0.86488416  1
  C  C21  1  0.04319228  0.76029538  0.36008815  1
  C  C22  1  0.95680772  0.23970462  0.63991185  1
  C  C23  1  0.96265064  0.24829166  0.13511584  1
  O  O24  1  0.10035161  0.22161607  0.67352349  1
  O  O25  1  0.10805440  0.25248000  0.16598875  1
  O  O26  1  0.07792190  0.75314676  0.98731277  1
  O  O27  1  0.07863394  0.74969898  0.48467208  1
  O  O28  1  0.14309781  0.75557769  0.76782753  1
  O  O29  1  0.15149033  0.75302957  0.26559830  1
  O  O30  1  0.31251310  0.06949973  0.91690737  1
  O  O31  1  0.31147283  0.43535312  0.90300422  1
  O  O32  1  0.30218179  0.07273803  0.40623402  1
  O  O33  1  0.32079798  0.43913613  0.40030408  1
  O  O34  1  0.41802093  0.23128019  0.70247882  1
  O  O35  1  0.42552293  0.77101198  0.59405871  1
  O  O36  1  0.42064620  0.24145804  0.19746332  1
  O  O37  1  0.42264365  0.74801182  0.09480382  1
  O  O38  1  0.57735635  0.25198818  0.90519618  1
  O  O39  1  0.57935380  0.75854196  0.80253668  1
  O  O40  1  0.57447707  0.22898802  0.40594129  1
  O  O41  1  0.58197907  0.76871981  0.29752118  1
  O  O42  1  0.67920202  0.56086387  0.59969592  1
  O  O43  1  0.69781821  0.92726197  0.59376598  1
  O  O44  1  0.68852717  0.56464688  0.09699578  1
  O  O45  1  0.68748690  0.93050027  0.08309263  1
  O  O46  1  0.84850967  0.24697043  0.73440170  1
  O  O47  1  0.85690219  0.24442231  0.23217247  1
  O  O48  1  0.92136606  0.25030102  0.51532792  1
  O  O49  1  0.92207810  0.24685324  0.01268723  1
  O  O50  1  0.89194560  0.74752000  0.83401125  1
  O  O51  1  0.89964839  0.77838393  0.32647651  1
