# generated using pymatgen
data_Ba2YI7
_symmetry_space_group_name_H-M   'P 1'
_cell_length_a   14.12696914
_cell_length_b   13.08309391
_cell_length_c   14.12696914
_cell_angle_alpha   94.16772805
_cell_angle_beta   117.81388550
_cell_angle_gamma   120.21733713
_symmetry_Int_Tables_number   1
_chemical_formula_structural   Ba2YI7
_chemical_formula_sum   'Ba8 Y4 I28'
_cell_volume   1826.91565889
_cell_formula_units_Z   4
loop_
 _symmetry_equiv_pos_site_id
 _symmetry_equiv_pos_as_xyz
  1  'x, y, z'
loop_
 _atom_site_type_symbol
 _atom_site_label
 _atom_site_symmetry_multiplicity
 _atom_site_fract_x
 _atom_site_fract_y
 _atom_site_fract_z
 _atom_site_occupancy
  Ba  Ba0  1  0.70944167  0.10522983  0.25671766  1
  Ba  Ba1  1  0.79815912  0.73872110  0.32061934  1
  Ba  Ba2  1  0.41810276  0.23872110  0.44056198  1
  Ba  Ba3  1  0.15148682  0.39477017  0.10421183  1
  Ba  Ba4  1  0.84851318  0.60522983  0.89578817  1
  Ba  Ba5  1  0.58189724  0.76127890  0.55943802  1
  Ba  Ba6  1  0.20184088  0.26127890  0.67938066  1
  Ba  Ba7  1  0.29055833  0.89477017  0.74328234  1
  Y  Y8  1  0.34130445  0.17240996  0.01282065  1
  Y  Y9  1  0.84041070  0.32759004  0.66889449  1
  Y  Y10  1  0.15958930  0.67240996  0.33110551  1
  Y  Y11  1  0.65869555  0.82759004  0.98717935  1
  I  I12  1  0.92006014  0.04009377  0.22643997  1
  I  I13  1  0.91460849  0.45147067  0.09298342  1
  I  I14  1  0.69633355  0.62056137  0.03536709  1
  I  I15  1  0.01628347  0.64821555  0.44759022  1
  I  I16  1  0.62740005  0.34905167  0.22580639  1
  I  I17  1  0.58519329  0.12056137  0.42422782  1
  I  I18  1  0.20062533  0.14821555  0.13193108  1
  I  I19  1  0.87675472  0.15094833  0.77834838  1
  I  I20  1  0.54266256  0.76952018  0.12762408  1
  I  I21  1  0.81365279  0.54009377  0.62003363  1
  I  I22  1  0.64189610  0.26952018  0.72685762  1
  I  I23  1  0.51473421  0.53178116  0.35136093  1
  I  I24  1  0.64151275  0.04852933  0.96313782  1
  I  I25  1  0.18042023  0.03178116  0.51704595  1
  I  I26  1  0.81957977  0.96821884  0.48295405  1
  I  I27  1  0.35848725  0.95147067  0.03686218  1
  I  I28  1  0.48526579  0.46821884  0.64863907  1
  I  I29  1  0.35810390  0.73047982  0.27314238  1
  I  I30  1  0.18634721  0.45990623  0.37996637  1
  I  I31  1  0.45733744  0.23047982  0.87237592  1
  I  I32  1  0.12324528  0.84905167  0.22165162  1
  I  I33  1  0.79937467  0.85178445  0.86806892  1
  I  I34  1  0.41480671  0.87943863  0.57577218  1
  I  I35  1  0.37259995  0.65094833  0.77419361  1
  I  I36  1  0.98371653  0.35178445  0.55240978  1
  I  I37  1  0.30366645  0.37943863  0.96463291  1
  I  I38  1  0.08539151  0.54852933  0.90701658  1
  I  I39  1  0.07993986  0.95990623  0.77356003  1
