# generated using pymatgen
data_Li2V3CuO8
_symmetry_space_group_name_H-M   'P 1'
_cell_length_a   8.60488162
_cell_length_b   8.61144332
_cell_length_c   8.07928560
_cell_angle_alpha   90.01349549
_cell_angle_beta   89.99660709
_cell_angle_gamma   90.02505041
_symmetry_Int_Tables_number   1
_chemical_formula_structural   Li2V3CuO8
_chemical_formula_sum   'Li8 V12 Cu4 O32'
_cell_volume   598.67862641
_cell_formula_units_Z   4
loop_
 _symmetry_equiv_pos_site_id
 _symmetry_equiv_pos_as_xyz
  1  'x, y, z'
loop_
 _atom_site_type_symbol
 _atom_site_label
 _atom_site_symmetry_multiplicity
 _atom_site_fract_x
 _atom_site_fract_y
 _atom_site_fract_z
 _atom_site_occupancy
  Li  Li0  1  0.00431239  0.00207921  0.00251756  1
  Li  Li1  1  0.25256164  0.24923067  0.24846481  1
  Li  Li2  1  0.24717038  0.75073824  0.74807322  1
  Li  Li3  1  0.49590374  0.99782288  0.50265926  1
  Li  Li4  1  0.50081168  0.50333172  0.99857714  1
  Li  Li5  1  0.74775196  0.25388230  0.75247939  1
  Li  Li6  1  0.75198059  0.74624839  0.25239878  1
  Li  Li7  1  0.99914666  0.49645818  0.49839116  1
  V  V8  1  0.12536898  0.13216342  0.62041245  1
  V  V9  1  0.12437032  0.37741299  0.88107430  1
  V  V10  1  0.12561491  0.62464925  0.13221535  1
  V  V11  1  0.37420233  0.37557550  0.63193752  1
  V  V12  1  0.37593913  0.62263218  0.38078975  1
  V  V13  1  0.37460148  0.86794651  0.12027187  1
  V  V14  1  0.61818013  0.37426673  0.36912630  1
  V  V15  1  0.61653721  0.11893593  0.12011148  1
  V  V16  1  0.63063398  0.86644483  0.87054836  1
  V  V17  1  0.86930043  0.13345836  0.37058912  1
  V  V18  1  0.88349068  0.88077658  0.61988200  1
  V  V19  1  0.88190124  0.62572079  0.86924180  1
  Cu  Cu20  1  0.13334675  0.88341762  0.37509236  1
  Cu  Cu21  1  0.36719499  0.11696284  0.87506442  1
  Cu  Cu22  1  0.63572183  0.61645775  0.62399499  1
  Cu  Cu23  1  0.86382287  0.38372813  0.12383124  1
  O  O24  1  0.09938637  0.14081521  0.39253829  1
  O  O25  1  0.11153252  0.90256096  0.62254693  1
  O  O26  1  0.11579908  0.61256433  0.88910643  1
  O  O27  1  0.12686210  0.14894877  0.85962388  1
  O  O28  1  0.13545551  0.39006723  0.10284099  1
  O  O29  1  0.13834824  0.36657362  0.63907712  1
  O  O30  1  0.13953371  0.61497973  0.35365904  1
  O  O31  1  0.14616348  0.85653560  0.12963922  1
  O  O32  1  0.35388192  0.14370230  0.62925163  1
  O  O33  1  0.36057434  0.38507369  0.85348974  1
  O  O34  1  0.36156337  0.63350872  0.13892540  1
  O  O35  1  0.36428341  0.60996524  0.60250061  1
  O  O36  1  0.37380554  0.85099698  0.35954202  1
  O  O37  1  0.38433103  0.38740251  0.38881422  1
  O  O38  1  0.38856857  0.09751427  0.12306849  1
  O  O39  1  0.40040058  0.85937680  0.89248432  1
  O  O40  1  0.60185752  0.37856847  0.61021356  1
  O  O41  1  0.60743441  0.60275211  0.37802370  1
  O  O42  1  0.61598173  0.88589633  0.11291386  1
  O  O43  1  0.60896869  0.34947793  0.14138770  1
  O  O44  1  0.62026755  0.10579163  0.89378462  1
  O  O45  1  0.63508689  0.13446455  0.36257922  1
  O  O46  1  0.64376959  0.86896671  0.64417798  1
  O  O47  1  0.65278215  0.63911312  0.87442188  1
  O  O48  1  0.84720770  0.36088469  0.37406346  1
  O  O49  1  0.85611769  0.13025536  0.14430699  1
  O  O50  1  0.86484576  0.86559712  0.86241008  1
  O  O51  1  0.87923588  0.89410391  0.39382715  1
  O  O52  1  0.89128533  0.65026004  0.64160744  1
  O  O53  1  0.88396529  0.11398221  0.61303237  1
  O  O54  1  0.89269268  0.39719149  0.87825530  1
  O  O55  1  0.89814410  0.62190736  0.11028171  1
