# generated using pymatgen
data_Li4V3P8O29
_symmetry_space_group_name_H-M   'P 1'
_cell_length_a   9.77062380
_cell_length_b   9.76946681
_cell_length_c   14.07588371
_cell_angle_alpha   90.03536930
_cell_angle_beta   90.10009226
_cell_angle_gamma   59.93602183
_symmetry_Int_Tables_number   1
_chemical_formula_structural   Li4V3P8O29
_chemical_formula_sum   'Li8 V6 P16 O58'
_cell_volume   1162.83589370
_cell_formula_units_Z   2
loop_
 _symmetry_equiv_pos_site_id
 _symmetry_equiv_pos_as_xyz
  1  'x, y, z'
loop_
 _atom_site_type_symbol
 _atom_site_label
 _atom_site_symmetry_multiplicity
 _atom_site_fract_x
 _atom_site_fract_y
 _atom_site_fract_z
 _atom_site_occupancy
  Li  Li0  1  0.90440881  0.76319215  0.05734801  1
  Li  Li1  1  0.76840774  0.32813922  0.05778182  1
  Li  Li2  1  0.33114926  0.90221820  0.05649501  1
  Li  Li3  1  0.68630386  0.22630228  0.44306560  1
  Li  Li4  1  0.32137556  0.77132221  0.56181305  1
  Li  Li5  1  0.08637440  0.68740788  0.44098844  1
  Li  Li6  1  0.22429723  0.09455469  0.44551801  1
  Li  Li7  1  0.00509669  0.99935014  0.99190326  1
  V  V8  1  0.56835758  0.43354802  0.24812109  1
  V  V9  1  0.43241554  0.56152316  0.75602002  1
  V  V10  1  0.56956609  0.00003451  0.74976944  1
  V  V11  1  0.43568663  0.00031750  0.24824550  1
  V  V12  1  0.99965328  0.56554608  0.25052903  1
  V  V13  1  0.00079374  0.43277841  0.74843727  1
  P  P14  1  0.91385171  0.77398087  0.84118373  1
  P  P15  1  0.76968755  0.91570067  0.34347577  1
  P  P16  1  0.91588758  0.31495151  0.34262664  1
  P  P17  1  0.66558396  0.66874930  0.12781755  1
  P  P18  1  0.66287192  0.66763950  0.63081222  1
  P  P19  1  0.77767073  0.31176925  0.84067359  1
  P  P20  1  0.68324331  0.22870160  0.65840371  1
  P  P21  1  0.31409368  0.91265152  0.84211847  1
  P  P22  1  0.69184370  0.08285185  0.15728699  1
  P  P23  1  0.32108191  0.76857742  0.34293924  1
  P  P24  1  0.22518230  0.69000833  0.15981997  1
  P  P25  1  0.33557836  0.33205036  0.37005184  1
  P  P26  1  0.33247178  0.32959389  0.87031590  1
  P  P27  1  0.08881050  0.68349567  0.65787981  1
  P  P28  1  0.22912047  0.08855284  0.66018423  1
  P  P29  1  0.08407922  0.22480543  0.15709391  1
  O  O30  1  0.00934352  0.75711908  0.56710455  1
  O  O31  1  0.91590697  0.74758348  0.34149315  1
  O  O32  1  0.78550363  0.99178513  0.07287177  1
  O  O33  1  0.74203423  0.91468282  0.83209516  1
  O  O34  1  0.91389489  0.61704180  0.82758393  1
  O  O35  1  0.81012255  0.67874715  0.16617442  1
  O  O36  1  0.90523665  0.47712574  0.32177489  1
  O  O37  1  0.99828075  0.20892002  0.07348472  1
  O  O38  1  0.91632344  0.34433675  0.83170038  1
  O  O39  1  0.65749135  0.81780827  0.67800476  1
  O  O40  1  0.61779157  0.90524209  0.32067345  1
  O  O41  1  0.81534526  0.52443913  0.67632914  1
  O  O42  1  0.65076589  0.68015390  0.02230633  1
  O  O43  1  0.66073315  0.67290608  0.52568391  1
  O  O44  1  0.67694778  0.51258518  0.16672334  1
  O  O45  1  0.46930901  0.91407056  0.82935608  1
  O  O46  1  0.50948542  0.81521360  0.17264986  1
  O  O47  1  0.74608798  0.33899684  0.33924454  1
  O  O48  1  0.79518522  0.20567168  0.74921152  1
  O  O49  1  0.75446833  0.23820554  0.56806828  1
  O  O50  1  0.78589738  0.22869921  0.93118566  1
  O  O51  1  0.61916179  0.47053600  0.82763144  1
  O  O52  1  0.51480417  0.66436237  0.67169674  1
  O  O53  1  0.66221615  0.25406312  0.15859145  1
  O  O54  1  0.48146124  0.62098644  0.32244808  1
  O  O55  1  0.33671629  0.91951490  0.33925756  1
  O  O56  1  0.79299048  0.00153833  0.25166421  1
  O  O57  1  0.75341304  0.00867096  0.42975225  1
  O  O58  1  0.23913555  0.99965232  0.57133342  1
  O  O59  1  0.65691601  0.08521838  0.66684943  1
  O  O60  1  0.52364437  0.38125687  0.68028901  1
  O  O61  1  0.34567770  0.74044503  0.83159343  1
  O  O62  1  0.48712922  0.32749925  0.32983278  1
  O  O63  1  0.38204429  0.53218558  0.17115594  1
  O  O64  1  0.21449993  0.79126971  0.07781947  1
  O  O65  1  0.24673731  0.75874277  0.43420953  1
  O  O66  1  0.20370390  0.78852009  0.25733821  1
  O  O67  1  0.25909344  0.65935668  0.66288609  1
  O  O68  1  0.48067019  0.18473609  0.82509100  1
  O  O69  1  0.53148218  0.08620092  0.17206991  1
  O  O70  1  0.33233075  0.48126114  0.82595525  1
  O  O71  1  0.33237408  0.33460962  0.97509739  1
  O  O72  1  0.33507151  0.32019201  0.47531913  1
  O  O73  1  0.18700721  0.48505914  0.33109831  1
  O  O74  1  0.38143660  0.09510619  0.67717354  1
  O  O75  1  0.33164606  0.18358066  0.32351944  1
  O  O76  1  0.08341366  0.65967100  0.16211425  1
  O  O77  1  0.00234081  0.79296246  0.74942326  1
  O  O78  1  0.98788287  0.78577382  0.93134437  1
  O  O79  1  0.09590970  0.52381270  0.67763162  1
  O  O80  1  0.18432794  0.33300367  0.82424874  1
  O  O81  1  0.08644538  0.37927347  0.16878886  1
  O  O82  1  0.25749421  0.08058748  0.16138634  1
  O  O83  1  0.22624262  0.98430729  0.93198508  1
  O  O84  1  0.20489171  0.00104567  0.75062793  1
  O  O85  1  0.08470655  0.25759292  0.66367322  1
  O  O86  1  0.00611075  0.23600899  0.42922233  1
  O  O87  1  0.00135527  0.20508645  0.25133500  1
