# generated using pymatgen
data_Ti3Mn2Sn(PO4)6
_symmetry_space_group_name_H-M   'P 1'
_cell_length_a   8.70212027
_cell_length_b   8.70212039
_cell_length_c   8.70212062
_cell_angle_alpha   60.27583120
_cell_angle_beta   60.27583299
_cell_angle_gamma   60.27583055
_symmetry_Int_Tables_number   1
_chemical_formula_structural   Ti3Mn2Sn(PO4)6
_chemical_formula_sum   'Ti3 Mn2 Sn1 P6 O24'
_cell_volume   468.88146538
_cell_formula_units_Z   1
loop_
 _symmetry_equiv_pos_site_id
 _symmetry_equiv_pos_as_xyz
  1  'x, y, z'
loop_
 _atom_site_type_symbol
 _atom_site_label
 _atom_site_symmetry_multiplicity
 _atom_site_fract_x
 _atom_site_fract_y
 _atom_site_fract_z
 _atom_site_occupancy
  Ti  Ti0  1  0.14484182  0.14484182  0.14484182  1
  Ti  Ti1  1  0.35491658  0.35491658  0.35491658  1
  Ti  Ti2  1  0.64336405  0.64336405  0.64336405  1
  Mn  Mn3  1  0.00490038  0.00490038  0.00490038  1
  Mn  Mn4  1  0.49996796  0.49996796  0.49996796  1
  Sn  Sn5  1  0.85526611  0.85526611  0.85526611  1
  P  P6  1  0.74741123  0.45429830  0.04484467  1
  P  P7  1  0.25085903  0.54145439  0.95734986  1
  P  P8  1  0.54145439  0.95734986  0.25085903  1
  P  P9  1  0.95734986  0.25085903  0.54145439  1
  P  P10  1  0.04484467  0.74741123  0.45429830  1
  P  P11  1  0.45429830  0.04484467  0.74741123  1
  O  O12  1  0.11618841  0.30992769  0.50230680  1
  O  O13  1  0.30992769  0.50230680  0.11618841  1
  O  O14  1  0.06023942  0.91170392  0.26394778  1
  O  O15  1  0.50230680  0.11618841  0.30992769  1
  O  O16  1  0.01543469  0.80670867  0.60944763  1
  O  O17  1  0.23690862  0.58593409  0.43643015  1
  O  O18  1  0.26394778  0.06023942  0.91170392  1
  O  O19  1  0.43643015  0.23690862  0.58593409  1
  O  O20  1  0.18721858  0.38562501  0.99729356  1
  O  O21  1  0.58593409  0.43643015  0.23690862  1
  O  O22  1  0.08833060  0.73681995  0.94322129  1
  O  O23  1  0.38562501  0.99729356  0.18721858  1
  O  O24  1  0.60944763  0.01543469  0.80670867  1
  O  O25  1  0.91170392  0.26394778  0.06023942  1
  O  O26  1  0.41124101  0.55915660  0.76491795  1
  O  O27  1  0.80670867  0.60944763  0.01543469  1
  O  O28  1  0.55915660  0.76491795  0.41124101  1
  O  O29  1  0.73681995  0.94322129  0.08833060  1
  O  O30  1  0.76491795  0.41124101  0.55915660  1
  O  O31  1  0.99729356  0.18721858  0.38562501  1
  O  O32  1  0.49783111  0.88382294  0.68986816  1
  O  O33  1  0.94322129  0.08833060  0.73681995  1
  O  O34  1  0.68986816  0.49783111  0.88382294  1
  O  O35  1  0.88382294  0.68986816  0.49783111  1
