# generated using pymatgen
data_Ti3Cu2Sb(PO4)6
_symmetry_space_group_name_H-M   'P 1'
_cell_length_a   8.72778703
_cell_length_b   8.72778720
_cell_length_c   8.72778656
_cell_angle_alpha   59.95085242
_cell_angle_beta   59.95084773
_cell_angle_gamma   59.95084625
_symmetry_Int_Tables_number   1
_chemical_formula_structural   Ti3Cu2Sb(PO4)6
_chemical_formula_sum   'Ti3 Cu2 Sb1 P6 O24'
_cell_volume   469.58370622
_cell_formula_units_Z   1
loop_
 _symmetry_equiv_pos_site_id
 _symmetry_equiv_pos_as_xyz
  1  'x, y, z'
loop_
 _atom_site_type_symbol
 _atom_site_label
 _atom_site_symmetry_multiplicity
 _atom_site_fract_x
 _atom_site_fract_y
 _atom_site_fract_z
 _atom_site_occupancy
  Ti  Ti0  1  0.14205047  0.14205047  0.14205047  1
  Ti  Ti1  1  0.35675415  0.35675415  0.35675415  1
  Ti  Ti2  1  0.64166934  0.64166934  0.64166934  1
  Cu  Cu3  1  0.00594376  0.00594376  0.00594376  1
  Cu  Cu4  1  0.49985696  0.49985696  0.49985696  1
  Sb  Sb5  1  0.85722803  0.85722803  0.85722803  1
  P  P6  1  0.04337829  0.74787784  0.45316797  1
  P  P7  1  0.45316797  0.04337829  0.74787784  1
  P  P8  1  0.25436746  0.53564676  0.96127802  1
  P  P9  1  0.53564676  0.96127802  0.25436746  1
  P  P10  1  0.96127802  0.25436746  0.53564676  1
  P  P11  1  0.74787784  0.45316797  0.04337829  1
  O  O12  1  0.12249431  0.31190297  0.49020087  1
  O  O13  1  0.31190297  0.49020087  0.12249431  1
  O  O14  1  0.06014758  0.91496010  0.26514194  1
  O  O15  1  0.49020087  0.12249431  0.31190297  1
  O  O16  1  0.02424809  0.80047470  0.60625820  1
  O  O17  1  0.22992071  0.58169427  0.43091849  1
  O  O18  1  0.26514194  0.06014758  0.91496010  1
  O  O19  1  0.43091849  0.22992071  0.58169427  1
  O  O20  1  0.19555674  0.37592292  0.00037702  1
  O  O21  1  0.58169427  0.43091849  0.22992071  1
  O  O22  1  0.09251111  0.72798888  0.95036844  1
  O  O23  1  0.37592292  0.00037702  0.19555674  1
  O  O24  1  0.60625820  0.02424809  0.80047470  1
  O  O25  1  0.91496010  0.26514194  0.06014758  1
  O  O26  1  0.41919624  0.55479904  0.77179527  1
  O  O27  1  0.80047470  0.60625820  0.02424809  1
  O  O28  1  0.55479904  0.77179527  0.41919624  1
  O  O29  1  0.72798888  0.95036844  0.09251111  1
  O  O30  1  0.77179527  0.41919624  0.55479904  1
  O  O31  1  0.00037702  0.19555674  0.37592292  1
  O  O32  1  0.50193451  0.87441820  0.69755038  1
  O  O33  1  0.95036844  0.09251111  0.72798888  1
  O  O34  1  0.69755038  0.50193451  0.87441820  1
  O  O35  1  0.87441820  0.69755038  0.50193451  1
