# generated using pymatgen
data_Li2Ni(PO4)2
_symmetry_space_group_name_H-M   'P 1'
_cell_length_a   8.30770166
_cell_length_b   10.36919575
_cell_length_c   8.21160029
_cell_angle_alpha   90.00000000
_cell_angle_beta   103.83777795
_cell_angle_gamma   90.00000000
_symmetry_Int_Tables_number   1
_chemical_formula_structural   Li2Ni(PO4)2
_chemical_formula_sum   'Li8 Ni4 P8 O32'
_cell_volume   686.85112879
_cell_formula_units_Z   4
loop_
 _symmetry_equiv_pos_site_id
 _symmetry_equiv_pos_as_xyz
  1  'x, y, z'
loop_
 _atom_site_type_symbol
 _atom_site_label
 _atom_site_symmetry_multiplicity
 _atom_site_fract_x
 _atom_site_fract_y
 _atom_site_fract_z
 _atom_site_occupancy
  Li  Li0  1  0.41432967  0.16993873  0.39475517  1
  Li  Li1  1  0.89885125  0.33010159  0.39010174  1
  Li  Li2  1  0.60114875  0.83010159  0.60989826  1
  Li  Li3  1  0.22090797  0.43167963  0.44987338  1
  Li  Li4  1  0.08567033  0.66993873  0.60524483  1
  Li  Li5  1  0.82998630  0.85081794  0.35517343  1
  Li  Li6  1  0.67001370  0.35081794  0.64482657  1
  Li  Li7  1  0.27909203  0.93167963  0.55012662  1
  Ni  Ni8  1  0.41384453  0.33443127  0.91088416  1
  Ni  Ni9  1  0.58762687  0.65629863  0.10253672  1
  Ni  Ni10  1  0.08615547  0.83443127  0.08911584  1
  Ni  Ni11  1  0.91237313  0.15629863  0.89746328  1
  P  P12  1  0.46503471  0.58280569  0.72382265  1
  P  P13  1  0.54257108  0.09915298  0.76646551  1
  P  P14  1  0.45452758  0.90318023  0.23541546  1
  P  P15  1  0.97069353  0.91154578  0.71469950  1
  P  P16  1  0.04547242  0.40318023  0.76458454  1
  P  P17  1  0.95742892  0.59915298  0.23353449  1
  P  P18  1  0.52930647  0.41154578  0.28530050  1
  P  P19  1  0.03496529  0.08280569  0.27617735  1
  O  O20  1  0.29978478  0.88674168  0.08848588  1
  O  O21  1  0.70441758  0.10326103  0.91143099  1
  O  O22  1  0.49496303  0.55765768  0.24097708  1
  O  O23  1  0.95168580  0.84108724  0.87770104  1
  O  O24  1  0.48722824  0.96141169  0.71964321  1
  O  O25  1  0.29862805  0.58924398  0.59480718  1
  O  O26  1  0.99361142  0.54432724  0.73741109  1
  O  O27  1  0.57006723  0.17659103  0.61672157  1
  O  O28  1  0.89999849  0.14370001  0.34833475  1
  O  O29  1  0.09619273  0.66723250  0.16426681  1
  O  O30  1  0.38472485  0.35683488  0.34798931  1
  O  O31  1  0.41993310  0.85415774  0.40118328  1
  O  O32  1  0.60095413  0.82470173  0.19361597  1
  O  O33  1  0.50893062  0.43665895  0.76631169  1
  O  O34  1  0.99106938  0.93665895  0.23368831  1
  O  O35  1  0.40380727  0.16723250  0.83573319  1
  O  O36  1  0.80935529  0.89473973  0.58161262  1
  O  O37  1  0.50638858  0.04432724  0.26258891  1
  O  O38  1  0.60000151  0.64370001  0.65166525  1
  O  O39  1  0.00503697  0.05765768  0.75902292  1
  O  O40  1  0.45316570  0.65565540  0.88577234  1
  O  O41  1  0.11527515  0.85683488  0.65201069  1
  O  O42  1  0.92993277  0.67659103  0.38327843  1
  O  O43  1  0.20137195  0.08924398  0.40519282  1
  O  O44  1  0.01277176  0.46141169  0.28035679  1
  O  O45  1  0.79558242  0.60326103  0.08856901  1
  O  O46  1  0.89904587  0.32470173  0.80638403  1
  O  O47  1  0.69064471  0.39473973  0.41838738  1
  O  O48  1  0.20021522  0.38674168  0.91151412  1
  O  O49  1  0.08006690  0.35415774  0.59881672  1
  O  O50  1  0.54831420  0.34108724  0.12229896  1
  O  O51  1  0.04683430  0.15565540  0.11422766  1
