# generated using pymatgen
data_Cr3Ni(PO4)4
_symmetry_space_group_name_H-M   'P 1'
_cell_length_a   4.78129980
_cell_length_b   9.93351560
_cell_length_c   5.77139543
_cell_angle_alpha   90.00000000
_cell_angle_beta   90.00000000
_cell_angle_gamma   90.28159655
_symmetry_Int_Tables_number   1
_chemical_formula_structural   Cr3Ni(PO4)4
_chemical_formula_sum   'Cr3 Ni1 P4 O16'
_cell_volume   274.10978567
_cell_formula_units_Z   1
loop_
 _symmetry_equiv_pos_site_id
 _symmetry_equiv_pos_as_xyz
  1  'x, y, z'
loop_
 _atom_site_type_symbol
 _atom_site_label
 _atom_site_symmetry_multiplicity
 _atom_site_fract_x
 _atom_site_fract_y
 _atom_site_fract_z
 _atom_site_occupancy
  Cr  Cr0  1  0.47488719  0.22913406  0.75000000  1
  Cr  Cr1  1  0.52998599  0.77159509  0.25000000  1
  Cr  Cr2  1  0.97181465  0.26979964  0.25000000  1
  Ni  Ni3  1  0.03809390  0.72798027  0.75000000  1
  P  P4  1  0.09221372  0.59470121  0.25000000  1
  P  P5  1  0.41287571  0.09171924  0.25000000  1
  P  P6  1  0.57595032  0.90710898  0.75000000  1
  P  P7  1  0.91624770  0.40747983  0.75000000  1
  O  O8  1  0.16481800  0.44545904  0.25000000  1
  O  O9  1  0.24736804  0.67136125  0.04661496  1
  O  O10  1  0.24736804  0.67136125  0.45338504  1
  O  O11  1  0.23156396  0.38622851  0.75000000  1
  O  O12  1  0.26096732  0.89613693  0.75000000  1
  O  O13  1  0.26533813  0.17075011  0.04379109  1
  O  O14  1  0.26533813  0.17075011  0.45620891  1
  O  O15  1  0.32696159  0.94450165  0.25000000  1
  O  O16  1  0.67097870  0.05437711  0.75000000  1
  O  O17  1  0.71694980  0.83007916  0.53942722  1
  O  O18  1  0.71694980  0.83007916  0.96057278  1
  O  O19  1  0.72881717  0.10900042  0.25000000  1
  O  O20  1  0.77633124  0.61382515  0.25000000  1
  O  O21  1  0.76608608  0.32673104  0.54414340  1
  O  O22  1  0.76608608  0.32673104  0.95585660  1
  O  O23  1  0.83600674  0.55310677  0.75000000  1
