# generated using pymatgen
data_Li3MnV4O8
_symmetry_space_group_name_H-M   'P 1'
_cell_length_a   10.52560099
_cell_length_b   10.52560083
_cell_length_c   14.84404170
_cell_angle_alpha   19.38916959
_cell_angle_beta   19.38916516
_cell_angle_gamma   33.42392540
_symmetry_Int_Tables_number   1
_chemical_formula_structural   Li3MnV4O8
_chemical_formula_sum   'Li3 Mn1 V4 O8'
_cell_volume   156.90671566
_cell_formula_units_Z   1
loop_
 _symmetry_equiv_pos_site_id
 _symmetry_equiv_pos_as_xyz
  1  'x, y, z'
loop_
 _atom_site_type_symbol
 _atom_site_label
 _atom_site_symmetry_multiplicity
 _atom_site_fract_x
 _atom_site_fract_y
 _atom_site_fract_z
 _atom_site_occupancy
  Li  Li0  1  0.00000000  0.50000000  0.50000000  1
  Li  Li1  1  0.50000000  0.00000000  0.50000000  1
  Li  Li2  1  0.50000000  0.50000000  0.50000000  1
  Mn  Mn3  1  0.50000000  0.50000000  0.00000000  1
  V  V4  1  0.00000000  0.00000000  0.50000000  1
  V  V5  1  0.00000000  0.00000000  0.00000000  1
  V  V6  1  0.00000000  0.50000000  0.00000000  1
  V  V7  1  0.50000000  0.00000000  0.00000000  1
  O  O8  1  0.02980727  0.02980727  0.21919973  1
  O  O9  1  0.97507994  0.46943158  0.28672421  1
  O  O10  1  0.46943158  0.97507994  0.28672421  1
  O  O11  1  0.97019273  0.97019273  0.78080027  1
  O  O12  1  0.52075973  0.52075973  0.22075749  1
  O  O13  1  0.02492006  0.53056842  0.71327579  1
  O  O14  1  0.53056842  0.02492006  0.71327579  1
  O  O15  1  0.47924027  0.47924027  0.77924251  1
