# generated using pymatgen
data_Na3Ni2P2(CO7)2
_symmetry_space_group_name_H-M   'P 1'
_cell_length_a   8.91951030
_cell_length_b   10.31440139
_cell_length_c   6.44060697
_cell_angle_alpha   90.22864185
_cell_angle_beta   90.88165900
_cell_angle_gamma   88.20601435
_symmetry_Int_Tables_number   1
_chemical_formula_structural   Na3Ni2P2(CO7)2
_chemical_formula_sum   'Na6 Ni4 P4 C4 O28'
_cell_volume   592.16784377
_cell_formula_units_Z   2
loop_
 _symmetry_equiv_pos_site_id
 _symmetry_equiv_pos_as_xyz
  1  'x, y, z'
loop_
 _atom_site_type_symbol
 _atom_site_label
 _atom_site_symmetry_multiplicity
 _atom_site_fract_x
 _atom_site_fract_y
 _atom_site_fract_z
 _atom_site_occupancy
  Na  Na0  1  0.25163811  0.12467521  0.01389795  1
  Na  Na1  1  0.24985670  0.12050859  0.48608561  1
  Na  Na2  1  0.26855334  0.62243494  0.45238648  1
  Na  Na3  1  0.73865133  0.36791569  0.97911340  1
  Na  Na4  1  0.74474625  0.88590123  0.97427252  1
  Na  Na5  1  0.91416562  0.60629628  0.73472128  1
  Ni  Ni6  1  0.34313458  0.39264538  0.75337283  1
  Ni  Ni7  1  0.34473734  0.88789886  0.75364655  1
  Ni  Ni8  1  0.65827933  0.10887273  0.26220138  1
  Ni  Ni9  1  0.65733314  0.60907389  0.25500531  1
  P  P10  1  0.42756459  0.35817328  0.25146379  1
  P  P11  1  0.43048942  0.86156904  0.25251203  1
  P  P12  1  0.57318483  0.14148248  0.75374980  1
  P  P13  1  0.57215663  0.64015359  0.75183561  1
  C  C14  1  0.07302349  0.35797880  0.74763586  1
  C  C15  1  0.07572624  0.85514201  0.74998029  1
  C  C16  1  0.92645601  0.14351454  0.25119310  1
  C  C17  1  0.92633177  0.64615918  0.24831988  1
  O  O18  1  0.06465824  0.16163758  0.24603690  1
  O  O19  1  0.06357434  0.66619435  0.25070206  1
  O  O20  1  0.13132239  0.47173333  0.74018729  1
  O  O21  1  0.13371929  0.96931639  0.75133362  1
  O  O22  1  0.17269121  0.26271165  0.74592364  1
  O  O23  1  0.17685044  0.76126835  0.73992036  1
  O  O24  1  0.32081645  0.38357884  0.06363782  1
  O  O25  1  0.32741908  0.39526235  0.43763929  1
  O  O26  1  0.32659503  0.89940347  0.06582371  1
  O  O27  1  0.32910566  0.89798140  0.43864731  1
  O  O28  1  0.42458692  0.06785491  0.75285247  1
  O  O29  1  0.42589601  0.56699992  0.74450600  1
  O  O30  1  0.46526495  0.20843001  0.25838873  1
  O  O31  1  0.46892582  0.71392688  0.25607987  1
  O  O32  1  0.53079216  0.28883973  0.76231561  1
  O  O33  1  0.53258306  0.78779251  0.76529358  1
  O  O34  1  0.57295682  0.43250781  0.24266639  1
  O  O35  1  0.57792762  0.93423375  0.24901110  1
  O  O36  1  0.67421423  0.10717128  0.56990953  1
  O  O37  1  0.67533610  0.10688575  0.94322155  1
  O  O38  1  0.67656630  0.61127605  0.56634296  1
  O  O39  1  0.67948518  0.60220507  0.93648685  1
  O  O40  1  0.82527414  0.23688792  0.25645674  1
  O  O41  1  0.82380740  0.73870442  0.24564381  1
  O  O42  1  0.86860430  0.03002959  0.25247699  1
  O  O43  1  0.87090311  0.53110136  0.25133702  1
  O  O44  1  0.93493586  0.34374672  0.75741919  1
  O  O45  1  0.93883416  0.83395289  0.75881095  1
