# generated using pymatgen
data_Ba4LiBi3O11
_symmetry_space_group_name_H-M   'P 1'
_cell_length_a   6.16481467
_cell_length_b   6.16481467
_cell_length_c   8.70891726
_cell_angle_alpha   90.00000000
_cell_angle_beta   90.00000000
_cell_angle_gamma   90.60525831
_symmetry_Int_Tables_number   1
_chemical_formula_structural   Ba4LiBi3O11
_chemical_formula_sum   'Ba4 Li1 Bi3 O11'
_cell_volume   330.96341013
_cell_formula_units_Z   1
loop_
 _symmetry_equiv_pos_site_id
 _symmetry_equiv_pos_as_xyz
  1  'x, y, z'
loop_
 _atom_site_type_symbol
 _atom_site_label
 _atom_site_symmetry_multiplicity
 _atom_site_fract_x
 _atom_site_fract_y
 _atom_site_fract_z
 _atom_site_occupancy
  Ba  Ba0  1  0.97550167  0.49924349  0.24549468  1
  Ba  Ba1  1  0.97550167  0.49924349  0.75450532  1
  Ba  Ba2  1  0.49924349  0.97550167  0.75450532  1
  Ba  Ba3  1  0.49924349  0.97550167  0.24549468  1
  Li  Li4  1  0.53339825  0.53339825  0.00000000  1
  Bi  Bi5  1  0.98926148  0.98926148  0.00000000  1
  Bi  Bi6  1  0.00129853  0.00129853  0.50000000  1
  Bi  Bi7  1  0.49237005  0.49237005  0.50000000  1
  O  O8  1  0.02363462  0.02363462  0.24747127  1
  O  O9  1  0.02363462  0.02363462  0.75252873  1
  O  O10  1  0.25105875  0.74669451  0.50000000  1
  O  O11  1  0.24953442  0.24953442  0.50000000  1
  O  O12  1  0.24762883  0.75296646  0.00000000  1
  O  O13  1  0.49579897  0.49579897  0.25619031  1
  O  O14  1  0.49579897  0.49579897  0.74380969  1
  O  O15  1  0.75296646  0.24762883  0.00000000  1
  O  O16  1  0.74669451  0.25105875  0.50000000  1
  O  O17  1  0.75217180  0.75217180  0.00000000  1
  O  O18  1  0.74526243  0.74526243  0.50000000  1
