# generated using pymatgen
data_V2O5
_symmetry_space_group_name_H-M   'P 1'
_cell_length_a   10.22974320
_cell_length_b   5.35981858
_cell_length_c   8.95097224
_cell_angle_alpha   90.00000000
_cell_angle_beta   114.59091212
_cell_angle_gamma   90.00000000
_symmetry_Int_Tables_number   1
_chemical_formula_structural   V2O5
_chemical_formula_sum   'V8 O20'
_cell_volume   446.26542224
_cell_formula_units_Z   4
loop_
 _symmetry_equiv_pos_site_id
 _symmetry_equiv_pos_as_xyz
  1  'x, y, z'
loop_
 _atom_site_type_symbol
 _atom_site_label
 _atom_site_symmetry_multiplicity
 _atom_site_fract_x
 _atom_site_fract_y
 _atom_site_fract_z
 _atom_site_occupancy
  V  V0  1  0.11713070  0.49665147  0.79318670  1
  V  V1  1  0.11713070  0.00334853  0.29318670  1
  V  V2  1  0.38205176  0.93126133  0.70767755  1
  V  V3  1  0.38205176  0.56873867  0.20767755  1
  V  V4  1  0.61794824  0.43126133  0.79232245  1
  V  V5  1  0.61794824  0.06873867  0.29232245  1
  V  V6  1  0.88286930  0.99665147  0.70681330  1
  V  V7  1  0.88286930  0.50334853  0.20681330  1
  O  O8  1  0.97247945  0.70025427  0.77010669  1
  O  O9  1  0.97247945  0.79974573  0.27010669  1
  O  O10  1  0.24631281  0.52459747  0.99893529  1
  O  O11  1  0.24631281  0.97540253  0.49893529  1
  O  O12  1  0.18850448  0.57960795  0.66718248  1
  O  O13  1  0.32341171  0.04062309  0.83780052  1
  O  O14  1  0.18850448  0.92039205  0.16718248  1
  O  O15  1  0.32341171  0.45937691  0.33780052  1
  O  O16  1  0.48277913  0.64329051  0.78888654  1
  O  O17  1  0.51722087  0.14329051  0.71111346  1
  O  O18  1  0.48277913  0.85670949  0.28888654  1
  O  O19  1  0.51722087  0.35670949  0.21111346  1
  O  O20  1  0.67658829  0.54062309  0.66219948  1
  O  O21  1  0.81149552  0.07960795  0.83281752  1
  O  O22  1  0.67658829  0.95937691  0.16219948  1
  O  O23  1  0.81149552  0.42039205  0.33281752  1
  O  O24  1  0.75368719  0.02459747  0.50106471  1
  O  O25  1  0.75368719  0.47540253  0.00106471  1
  O  O26  1  0.02752055  0.20025427  0.72989331  1
  O  O27  1  0.02752055  0.29974573  0.22989331  1
