# generated using pymatgen
data_LiFeF3
_symmetry_space_group_name_H-M   'P 1'
_cell_length_a   10.06256706
_cell_length_b   9.24848728
_cell_length_c   5.74214300
_cell_angle_alpha   90.00000000
_cell_angle_beta   90.00000000
_cell_angle_gamma   90.00000000
_symmetry_Int_Tables_number   1
_chemical_formula_structural   LiFeF3
_chemical_formula_sum   'Li8 Fe8 F24'
_cell_volume   534.38405978
_cell_formula_units_Z   8
loop_
 _symmetry_equiv_pos_site_id
 _symmetry_equiv_pos_as_xyz
  1  'x, y, z'
loop_
 _atom_site_type_symbol
 _atom_site_label
 _atom_site_symmetry_multiplicity
 _atom_site_fract_x
 _atom_site_fract_y
 _atom_site_fract_z
 _atom_site_occupancy
  Li  Li0  1  0.20332923  0.58533049  0.05903998  1
  Li  Li1  1  0.20332923  0.41466951  0.55903998  1
  Li  Li2  1  0.29667077  0.91466951  0.55903998  1
  Li  Li3  1  0.29667077  0.08533049  0.05903998  1
  Li  Li4  1  0.70332923  0.08533049  0.44096002  1
  Li  Li5  1  0.70332923  0.91466951  0.94096002  1
  Li  Li6  1  0.79667077  0.41466951  0.94096002  1
  Li  Li7  1  0.79667077  0.58533049  0.44096002  1
  Fe  Fe8  1  0.00000000  0.28407768  0.25000000  1
  Fe  Fe9  1  0.00000000  0.08857842  0.75000000  1
  Fe  Fe10  1  0.00000000  0.91142158  0.25000000  1
  Fe  Fe11  1  0.00000000  0.71592232  0.75000000  1
  Fe  Fe12  1  0.50000000  0.58857842  0.75000000  1
  Fe  Fe13  1  0.50000000  0.78407768  0.25000000  1
  Fe  Fe14  1  0.50000000  0.21592232  0.75000000  1
  Fe  Fe15  1  0.50000000  0.41142158  0.25000000  1
  F  F16  1  0.10207474  0.08782046  0.09239417  1
  F  F17  1  0.10207474  0.91217954  0.59239417  1
  F  F18  1  0.10034929  0.24159911  0.56841241  1
  F  F19  1  0.10034929  0.75840089  0.06841241  1
  F  F20  1  0.14705153  0.56618310  0.74388724  1
  F  F21  1  0.14705153  0.43381690  0.24388724  1
  F  F22  1  0.35294847  0.93381690  0.24388724  1
  F  F23  1  0.35294847  0.06618310  0.74388724  1
  F  F24  1  0.39965071  0.25840089  0.06841241  1
  F  F25  1  0.39965071  0.74159911  0.56841241  1
  F  F26  1  0.39792526  0.58782046  0.09239417  1
  F  F27  1  0.39792526  0.41217954  0.59239417  1
  F  F28  1  0.60207474  0.41217954  0.90760583  1
  F  F29  1  0.60207474  0.58782046  0.40760583  1
  F  F30  1  0.60034929  0.25840089  0.43158759  1
  F  F31  1  0.60034929  0.74159911  0.93158759  1
  F  F32  1  0.64705153  0.93381690  0.25611276  1
  F  F33  1  0.64705153  0.06618310  0.75611276  1
  F  F34  1  0.85294847  0.43381690  0.25611276  1
  F  F35  1  0.85294847  0.56618310  0.75611276  1
  F  F36  1  0.89965071  0.24159911  0.93158759  1
  F  F37  1  0.89965071  0.75840089  0.43158759  1
  F  F38  1  0.89792526  0.08782046  0.40760583  1
  F  F39  1  0.89792526  0.91217954  0.90760583  1
