# generated using pymatgen
data_Ba2YI7
_symmetry_space_group_name_H-M   'P 1'
_cell_length_a   12.12767659
_cell_length_b   17.86761714
_cell_length_c   7.89479577
_cell_angle_alpha   90.00000000
_cell_angle_beta   90.57442893
_cell_angle_gamma   90.00000000
_symmetry_Int_Tables_number   1
_chemical_formula_structural   Ba2YI7
_chemical_formula_sum   'Ba8 Y4 I28'
_cell_volume   1710.65849367
_cell_formula_units_Z   4
loop_
 _symmetry_equiv_pos_site_id
 _symmetry_equiv_pos_as_xyz
  1  'x, y, z'
loop_
 _atom_site_type_symbol
 _atom_site_label
 _atom_site_symmetry_multiplicity
 _atom_site_fract_x
 _atom_site_fract_y
 _atom_site_fract_z
 _atom_site_occupancy
  Ba  Ba0  1  0.04782451  0.22087894  0.26904779  1
  Ba  Ba1  1  0.17575033  0.55967464  0.27028898  1
  Ba  Ba2  1  0.32424967  0.05967464  0.72971102  1
  Ba  Ba3  1  0.45217549  0.72087894  0.73095221  1
  Ba  Ba4  1  0.54782451  0.27912106  0.26904779  1
  Ba  Ba5  1  0.67575033  0.94032536  0.27028898  1
  Ba  Ba6  1  0.82424967  0.44032536  0.72971102  1
  Ba  Ba7  1  0.95217549  0.77912106  0.73095221  1
  Y  Y8  1  0.21898646  0.87239186  0.21633170  1
  Y  Y9  1  0.28101354  0.37239186  0.78366830  1
  Y  Y10  1  0.71898646  0.62760814  0.21633170  1
  Y  Y11  1  0.78101354  0.12760814  0.78366830  1
  I  I12  1  0.02909848  0.14016000  0.70357218  1
  I  I13  1  0.06831615  0.39665113  0.00193396  1
  I  I14  1  0.08259641  0.39478840  0.51001104  1
  I  I15  1  0.12103761  0.93020763  0.86755775  1
  I  I16  1  0.19947935  0.74067895  0.49270482  1
  I  I17  1  0.20734224  0.72496319  0.00020801  1
  I  I18  1  0.21368413  0.04127896  0.29887939  1
  I  I19  1  0.28631587  0.54127896  0.70112061  1
  I  I20  1  0.29265776  0.22496319  0.99979199  1
  I  I21  1  0.30052065  0.24067895  0.50729518  1
  I  I22  1  0.37896239  0.43020763  0.13244225  1
  I  I23  1  0.41740359  0.89478840  0.48998896  1
  I  I24  1  0.43168385  0.89665113  0.99806604  1
  I  I25  1  0.47090152  0.64016000  0.29642782  1
  I  I26  1  0.52909848  0.35984000  0.70357218  1
  I  I27  1  0.56831615  0.10334887  0.00193396  1
  I  I28  1  0.58259641  0.10521160  0.51001104  1
  I  I29  1  0.62103761  0.56979237  0.86755775  1
  I  I30  1  0.69947935  0.75932105  0.49270482  1
  I  I31  1  0.70734224  0.77503681  0.00020801  1
  I  I32  1  0.71368413  0.45872104  0.29887939  1
  I  I33  1  0.78631587  0.95872104  0.70112061  1
  I  I34  1  0.79265776  0.27503681  0.99979199  1
  I  I35  1  0.80052065  0.25932105  0.50729518  1
  I  I36  1  0.87896239  0.06979237  0.13244225  1
  I  I37  1  0.91740359  0.60521160  0.48998896  1
  I  I38  1  0.93168385  0.60334887  0.99806604  1
  I  I39  1  0.97090152  0.85984000  0.29642782  1
