# generated using pymatgen
data_LiFeBO3
_symmetry_space_group_name_H-M   'P 1'
_cell_length_a   8.36742561
_cell_length_b   8.36754035
_cell_length_c   3.11844497
_cell_angle_alpha   90.00000000
_cell_angle_beta   90.00000000
_cell_angle_gamma   120.00668588
_symmetry_Int_Tables_number   1
_chemical_formula_structural   LiFeBO3
_chemical_formula_sum   'Li3 Fe3 B3 O9'
_cell_volume   189.07283174
_cell_formula_units_Z   3
loop_
 _symmetry_equiv_pos_site_id
 _symmetry_equiv_pos_as_xyz
  1  'x, y, z'
loop_
 _atom_site_type_symbol
 _atom_site_label
 _atom_site_symmetry_multiplicity
 _atom_site_fract_x
 _atom_site_fract_y
 _atom_site_fract_z
 _atom_site_occupancy
  Li  Li0  1  0.36932118  0.35905155  0.00000000  1
  Li  Li1  1  0.64096138  0.01036432  0.00000000  1
  Li  Li2  1  0.98966469  0.63061114  0.00000000  1
  Fe  Fe3  1  0.30638806  0.99049094  0.50000000  1
  Fe  Fe4  1  0.00946196  0.31582951  0.50000000  1
  Fe  Fe5  1  0.68424246  0.69366592  0.50000000  1
  B  B6  1  0.33339846  0.66670941  0.50000000  1
  B  B7  1  -0.00003397  -0.00003340  0.00000000  1
  B  B8  1  0.66671572  0.33331584  0.50000000  1
  O  O9  1  0.10473742  0.91250288  0.00000000  1
  O  O10  1  0.14321341  0.58974147  0.50000000  1
  O  O11  1  0.08744380  0.19225743  0.00000000  1
  O  O12  1  0.44656479  0.85682356  0.50000000  1
  O  O13  1  0.41027411  0.55350887  0.50000000  1
  O  O14  1  0.47592667  0.25932203  0.50000000  1
  O  O15  1  0.80766836  0.89518130  0.00000000  1
  O  O16  1  0.78343343  0.52405755  0.50000000  1
  O  O17  1  0.74061806  0.21660068  0.50000000  1
