# generated using pymatgen
data_Cr3(PO4)4
_symmetry_space_group_name_H-M   'P 1'
_cell_length_a   13.16309590
_cell_length_b   7.75141941
_cell_length_c   8.79639551
_cell_angle_alpha   90.36984168
_cell_angle_beta   85.42595155
_cell_angle_gamma   90.46350866
_symmetry_Int_Tables_number   1
_chemical_formula_structural   Cr3(PO4)4
_chemical_formula_sum   'Cr9 P12 O48'
_cell_volume   894.61680256
_cell_formula_units_Z   3
loop_
 _symmetry_equiv_pos_site_id
 _symmetry_equiv_pos_as_xyz
  1  'x, y, z'
loop_
 _atom_site_type_symbol
 _atom_site_label
 _atom_site_symmetry_multiplicity
 _atom_site_fract_x
 _atom_site_fract_y
 _atom_site_fract_z
 _atom_site_occupancy
  Cr  Cr0  1  0.16593264  0.52440426  0.32625031  1
  Cr  Cr1  1  0.50216524  0.85806438  0.90562427  1
  Cr  Cr2  1  0.82861799  0.49244557  0.65910602  1
  Cr  Cr3  1  0.83624269  0.63700490  0.07226207  1
  Cr  Cr4  1  0.83726273  0.02426360  0.17230118  1
  Cr  Cr5  1  0.17183262  0.99864966  0.83947995  1
  Cr  Cr6  1  0.50015437  0.47143534  0.00551914  1
  Cr  Cr7  1  0.49696607  0.99961259  0.49411232  1
  Cr  Cr8  1  0.16452625  0.13969207  0.42711206  1
  P  P9  1  0.61065165  0.78479869  0.19238247  1
  P  P10  1  0.05566036  0.21021659  0.13950135  1
  P  P11  1  0.38612436  0.19362614  0.80226452  1
  P  P12  1  0.94809571  0.82371012  0.85492403  1
  P  P13  1  0.71913565  0.29805192  0.96981460  1
  P  P14  1  0.94678747  0.71098989  0.35986994  1
  P  P15  1  0.28191586  0.80421820  0.52961989  1
  P  P16  1  0.27688667  0.70109125  0.01806706  1
  P  P17  1  0.61397809  0.67302726  0.68889728  1
  P  P18  1  0.39028831  0.29768773  0.31507300  1
  P  P19  1  0.71895103  0.19200392  0.47925120  1
  P  P20  1  0.05181113  0.32383500  0.64321374  1
  O  O21  1  0.56068872  0.86304769  0.69610603  1
  O  O22  1  0.25597345  0.85590500  0.69806794  1
  O  O23  1  0.23676902  0.93889603  0.42328512  1
  O  O24  1  0.26584321  0.29505114  0.35078376  1
  O  O25  1  0.58108702  0.63621672  0.86485779  1
  O  O26  1  0.89444772  0.63249779  0.86131195  1
  O  O27  1  0.42915428  0.43408544  0.42140844  1
  O  O28  1  0.41058425  0.13964496  0.63478399  1
  O  O29  1  0.74400970  0.35447875  0.80417818  1
  O  O30  1  0.39850234  0.80963275  0.49857529  1
  O  O31  1  0.26227324  0.64176793  0.18421914  1
  O  O32  1  0.57217040  0.55635773  0.57283394  1
  O  O33  1  0.73245404  0.79211766  0.15198431  1
  O  O34  1  0.76637750  0.12334813  0.00239052  1
  O  O35  1  0.23623273  0.88351460  0.00177777  1
  O  O36  1  0.74466172  0.13791371  0.31311484  1
  O  O37  1  0.75669358  0.05956122  0.59275259  1
  O  O38  1  0.91479733  0.86076858  0.03068501  1
  O  O39  1  0.90153810  0.88925593  0.33734208  1
  O  O40  1  0.90061194  0.58315345  0.23629874  1
  O  O41  1  0.59115411  0.86435399  0.34905878  1
  O  O42  1  0.93537873  0.31286829  0.66535609  1
  O  O43  1  0.40178318  0.70268981  0.98338601  1
  O  O44  1  0.56983774  0.91368995  0.07101033  1
  O  O45  1  0.43365802  0.11690994  0.33091229  1
  O  O46  1  0.10118069  0.08261397  0.26058707  1
  O  O47  1  0.60233863  0.29224797  0.00325451  1
  O  O48  1  0.93943720  0.20639160  0.17257141  1
  O  O49  1  0.10225502  0.38898368  0.16166917  1
  O  O50  1  0.08294030  0.13234110  0.98195233  1
  O  O51  1  0.43274872  0.06138436  0.91023552  1
  O  O52  1  0.40406159  0.35632083  0.14839107  1
  O  O53  1  0.23788017  0.56605769  0.91051601  1
  O  O54  1  0.73040730  0.68437881  0.66898645  1
  O  O55  1  0.10575856  0.13476947  0.63810129  1
  O  O56  1  0.43015556  0.37202277  0.83536995  1
  O  O57  1  0.06439435  0.81594175  0.83200692  1
  O  O58  1  0.23651454  0.62685940  0.49602871  1
  O  O59  1  0.90629691  0.94017405  0.74078071  1
  O  O60  1  0.06300411  0.70555040  0.32602424  1
  O  O61  1  0.60174209  0.17960097  0.51526359  1
  O  O62  1  0.09236926  0.44316154  0.75876429  1
  O  O63  1  0.26951483  0.18735749  0.83310008  1
  O  O64  1  0.08548205  0.36063755  0.46790438  1
  O  O65  1  0.56632443  0.60626888  0.17020915  1
  O  O66  1  0.76206287  0.37528470  0.49952451  1
  O  O67  1  0.76199249  0.43717869  0.07750341  1
  O  O68  1  0.91686036  0.63127803  0.51512090  1
