# generated using pymatgen
data_VFe3Co2(PO4)6
_symmetry_space_group_name_H-M   'P 1'
_cell_length_a   8.43713728
_cell_length_b   8.62550695
_cell_length_c   8.62550725
_cell_angle_alpha   59.99999932
_cell_angle_beta   59.25866723
_cell_angle_gamma   59.25865919
_symmetry_Int_Tables_number   1
_chemical_formula_structural   VFe3Co2(PO4)6
_chemical_formula_sum   'V1 Fe3 Co2 P6 O24'
_cell_volume   438.82463354
_cell_formula_units_Z   1
loop_
 _symmetry_equiv_pos_site_id
 _symmetry_equiv_pos_as_xyz
  1  'x, y, z'
loop_
 _atom_site_type_symbol
 _atom_site_label
 _atom_site_symmetry_multiplicity
 _atom_site_fract_x
 _atom_site_fract_y
 _atom_site_fract_z
 _atom_site_occupancy
  V  V0  1  0.56946338  0.14351221  0.14351221  1
  Fe  Fe1  1  0.06696141  0.64434653  0.64434653  1
  Fe  Fe2  1  0.43405846  0.85531385  0.85531385  1
  Fe  Fe3  1  0.93271370  0.35576210  0.35576210  1
  Co  Co4  1  0.00405916  0.99864695  0.99864695  1
  Co  Co5  1  0.50309726  0.49896758  0.49896758  1
  P  P6  1  0.24946742  0.25165337  0.54354535  1
  P  P7  1  0.24946742  0.95533387  0.25165337  1
  P  P8  1  0.24946742  0.54354535  0.95533387  1
  P  P9  1  0.74789680  0.45451148  0.04590314  1
  P  P10  1  0.74789680  0.04590314  0.75168958  1
  P  P11  1  0.74789680  0.75168958  0.45451148  1
  O  O12  1  0.06522951  0.10852501  0.32509981  1
  O  O13  1  0.06522951  0.50114568  0.10852501  1
  O  O14  1  0.06522951  0.32509981  0.50114568  1
  O  O15  1  0.22330318  0.09272363  0.74281543  1
  O  O16  1  0.43336522  0.17823732  0.38339932  1
  O  O17  1  0.28641884  0.40761005  0.55087616  1
  O  O18  1  0.22330318  0.94115775  0.09272363  1
  O  O19  1  0.28641884  0.75509395  0.40761005  1
  O  O20  1  0.56390882  0.60927382  0.00363336  1
  O  O21  1  0.28641884  0.55087616  0.75509395  1
  O  O22  1  0.77109526  0.25243889  0.06430206  1
  O  O23  1  0.56390882  0.00363336  0.82318300  1
  O  O24  1  0.43336522  0.00499814  0.17823732  1
  O  O25  1  0.22330318  0.74281543  0.94115775  1
  O  O26  1  0.72075714  0.43803002  0.24680189  1
  O  O27  1  0.43336522  0.38339932  0.00499814  1
  O  O28  1  0.72075714  0.24680189  0.59440995  1
  O  O29  1  0.77109526  0.06430206  0.91216379  1
  O  O30  1  0.72075714  0.59440995  0.43803002  1
  O  O31  1  0.56390882  0.82318300  0.60927382  1
  O  O32  1  0.77109526  0.91216379  0.25243889  1
  O  O33  1  0.93510602  0.68842685  0.48920668  1
  O  O34  1  0.93510602  0.48920668  0.88726045  1
  O  O35  1  0.93510602  0.88726045  0.68842685  1
