# generated using pymatgen
data_Li3P3(WO6)2
_symmetry_space_group_name_H-M   'P 1'
_cell_length_a   8.93194124
_cell_length_b   12.54699323
_cell_length_c   8.99862780
_cell_angle_alpha   90.00000000
_cell_angle_beta   90.00000000
_cell_angle_gamma   90.16682662
_symmetry_Int_Tables_number   1
_chemical_formula_structural   Li3P3(WO6)2
_chemical_formula_sum   'Li12 P12 W8 O48'
_cell_volume   1008.46300115
_cell_formula_units_Z   4
loop_
 _symmetry_equiv_pos_site_id
 _symmetry_equiv_pos_as_xyz
  1  'x, y, z'
loop_
 _atom_site_type_symbol
 _atom_site_label
 _atom_site_symmetry_multiplicity
 _atom_site_fract_x
 _atom_site_fract_y
 _atom_site_fract_z
 _atom_site_occupancy
  Li  Li0  1  0.07732706  0.69426472  0.09049462  1
  Li  Li1  1  0.07912329  0.75897262  0.70225946  1
  Li  Li2  1  0.20526341  0.17777049  0.77617768  1
  Li  Li3  1  0.29473659  0.32222951  0.27617768  1
  Li  Li4  1  0.42087671  0.74102738  0.20225946  1
  Li  Li5  1  0.42267294  0.80573528  0.59049462  1
  Li  Li6  1  0.57732706  0.19426472  0.40950538  1
  Li  Li7  1  0.57912329  0.25897262  0.79774054  1
  Li  Li8  1  0.70526341  0.67777049  0.72382232  1
  Li  Li9  1  0.79473659  0.82222951  0.22382232  1
  Li  Li10  1  0.92087671  0.24102738  0.29774054  1
  Li  Li11  1  0.92267294  0.30573528  0.90950538  1
  P  P12  1  0.03981403  0.49112531  0.24861232  1
  P  P13  1  0.10173821  0.84811523  0.38560326  1
  P  P14  1  0.10229901  0.15055849  0.10243263  1
  P  P15  1  0.39826179  0.65188477  0.88560326  1
  P  P16  1  0.39770099  0.34944151  0.60243263  1
  P  P17  1  0.46018597  0.00887469  0.74861232  1
  P  P18  1  0.53981403  0.99112531  0.25138768  1
  P  P19  1  0.60229901  0.65055849  0.39756737  1
  P  P20  1  0.60173821  0.34811523  0.11439674  1
  P  P21  1  0.89770099  0.84944151  0.89756737  1
  P  P22  1  0.89826179  0.15188477  0.61439674  1
  P  P23  1  0.96018597  0.50887469  0.75138768  1
  W  W24  1  0.24811077  0.61189823  0.53614483  1
  W  W25  1  0.25188923  0.88810177  0.03614483  1
  W  W26  1  0.74811077  0.11189823  0.96385517  1
  W  W27  1  0.75188923  0.38810177  0.46385517  1
  W  W28  1  0.24782417  0.11111232  0.45746567  1
  W  W29  1  0.25217583  0.38888768  0.95746567  1
  W  W30  1  0.74782417  0.61111232  0.04253433  1
  W  W31  1  0.75217583  0.88888768  0.54253433  1
  O  O32  1  0.03857370  0.43526664  0.86674001  1
  O  O33  1  0.07184008  0.85010270  0.87990016  1
  O  O34  1  0.06727090  0.59830863  0.69519929  1
  O  O35  1  0.06873655  0.17322269  0.59561245  1
  O  O36  1  0.09661561  0.56432982  0.37088790  1
  O  O37  1  0.14248818  0.80805820  0.22621574  1
  O  O38  1  0.14000729  0.96511369  0.40507806  1
  O  O39  1  0.13703073  0.23463643  0.97739354  1
  O  O40  1  0.16078685  0.19197610  0.25604913  1
  O  O41  1  0.17502324  0.43386185  0.17460123  1
  O  O42  1  0.16851239  0.04525770  0.05736121  1
  O  O43  1  0.18842171  0.78175393  0.50742051  1
  O  O44  1  0.31157829  0.71824607  0.00742051  1
  O  O45  1  0.33148761  0.45474230  0.55736121  1
  O  O46  1  0.32497676  0.06613815  0.67460123  1
  O  O47  1  0.33921315  0.30802390  0.75604913  1
  O  O48  1  0.35999271  0.53488631  0.90507806  1
  O  O49  1  0.36296927  0.26536357  0.47739254  1
  O  O50  1  0.35751182  0.69194180  0.72621574  1
  O  O51  1  0.40338439  0.93567018  0.87088790  1
  O  O52  1  0.43272910  0.90169137  0.19519929  1
  O  O53  1  0.42815992  0.64989730  0.37990016  1
  O  O54  1  0.43126345  0.32677731  0.09561245  1
  O  O55  1  0.46142630  0.06473336  0.36674001  1
  O  O56  1  0.53857370  0.93526664  0.63325999  1
  O  O57  1  0.56873655  0.67322269  0.90438755  1
  O  O58  1  0.57184008  0.35010270  0.62009984  1
  O  O59  1  0.56727090  0.09830863  0.80480071  1
  O  O60  1  0.59661561  0.06432982  0.12911210  1
  O  O61  1  0.64248818  0.30805820  0.27378426  1
  O  O62  1  0.63703073  0.73463643  0.52260646  1
  O  O63  1  0.64000729  0.46511369  0.09492194  1
  O  O64  1  0.66078685  0.69197610  0.24395087  1
  O  O65  1  0.67502324  0.93386185  0.32539877  1
  O  O66  1  0.66851239  0.54525770  0.44263879  1
  O  O67  1  0.68842171  0.28175393  0.99257949  1
  O  O68  1  0.81157829  0.21824607  0.49257949  1
  O  O69  1  0.83148761  0.95474230  0.94263879  1
  O  O70  1  0.82497676  0.56613815  0.82539877  1
  O  O71  1  0.83921315  0.80802390  0.74395087  1
  O  O72  1  0.86296927  0.76536357  0.02260646  1
  O  O73  1  0.85999271  0.03488631  0.59492194  1
  O  O74  1  0.85751182  0.19194180  0.77378426  1
  O  O75  1  0.90338439  0.43567018  0.62911210  1
  O  O76  1  0.93126345  0.82677731  0.40438755  1
  O  O77  1  0.93272910  0.40169137  0.30480071  1
  O  O78  1  0.92815992  0.14989730  0.12009984  1
  O  O79  1  0.96142630  0.56473336  0.13325999  1
