# generated using pymatgen
data_TiO2
_symmetry_space_group_name_H-M   'P 1'
_cell_length_a   9.90433790
_cell_length_b   11.71480744
_cell_length_c   11.74485857
_cell_angle_alpha   64.58151712
_cell_angle_beta   65.02188101
_cell_angle_gamma   65.01953841
_symmetry_Int_Tables_number   1
_chemical_formula_structural   TiO2
_chemical_formula_sum   'Ti18 O36'
_cell_volume   1066.23430936
_cell_formula_units_Z   18
loop_
 _symmetry_equiv_pos_site_id
 _symmetry_equiv_pos_as_xyz
  1  'x, y, z'
loop_
 _atom_site_type_symbol
 _atom_site_label
 _atom_site_symmetry_multiplicity
 _atom_site_fract_x
 _atom_site_fract_y
 _atom_site_fract_z
 _atom_site_occupancy
  Ti  Ti0  1  0.16520361  0.08403390  0.08312005  1
  Ti  Ti1  1  0.02058497  0.08620463  0.41148491  1
  Ti  Ti2  1  0.16194507  0.50255698  0.16415009  1
  Ti  Ti3  1  0.16174621  0.00815291  0.68011719  1
  Ti  Ti4  1  0.34033473  0.24388401  0.58441561  1
  Ti  Ti5  1  0.15912083  0.57570769  0.58289610  1
  Ti  Ti6  1  0.48731602  0.24342008  0.25049143  1
  Ti  Ti7  1  0.34400911  0.74899327  0.08110672  1
  Ti  Ti8  1  0.48550109  0.67135521  0.35021985  1
  Ti  Ti9  1  0.81721592  0.33699374  0.01753570  1
  Ti  Ti10  1  0.50406830  0.16663563  0.83030949  1
  Ti  Ti11  1  0.82840369  0.41739151  0.41522474  1
  Ti  Ti12  1  0.50512468  0.75110627  0.74780664  1
  Ti  Ti13  1  0.67652426  0.90878395  0.24980482  1
  Ti  Ti14  1  0.68309156  0.41529053  0.74495927  1
  Ti  Ti15  1  0.83783141  0.83915220  0.49874354  1
  Ti  Ti16  1  0.83281472  0.90640561  0.91548849  1
  Ti  Ti17  1  0.00771800  0.57082532  0.91679076  1
  O  O18  1  0.15123134  0.07326070  0.24791173  1
  O  O19  1  0.12683551  0.04942998  0.52414658  1
  O  O20  1  0.30822466  0.34389687  0.20392677  1
  O  O21  1  0.22778707  0.63642891  0.14378842  1
  O  O22  1  0.20390627  0.14586196  0.67923327  1
  O  O23  1  0.23275417  0.41893665  0.55030957  1
  O  O24  1  0.56545381  0.08289034  0.22346877  1
  O  O25  1  0.21785081  0.91878603  0.07088940  1
  O  O26  1  0.11833716  0.53991470  0.75906073  1
  O  O27  1  0.44515732  0.21545268  0.42544128  1
  O  O28  1  0.63612777  0.32890098  0.15198565  1
  O  O29  1  0.30833792  0.66079026  0.48807754  1
  O  O30  1  0.31809885  0.15928948  0.95928377  1
  O  O31  1  0.45046202  0.70039655  0.19747406  1
  O  O32  1  0.47665381  0.19579045  0.67518665  1
  O  O33  1  0.14191758  0.52304926  0.00886535  1
  O  O34  1  0.63877613  0.51656044  0.38708551  1
  O  O35  1  0.97559170  0.18592327  0.05472567  1
  O  O36  1  0.56648536  0.30181739  0.81104743  1
  O  O37  1  0.86841208  0.47527253  0.00391143  1
  O  O38  1  0.54416313  0.80655397  0.33504516  1
  O  O39  1  0.32509013  0.85785620  0.70453060  1
  O  O40  1  0.88604192  0.25370907  0.39798156  1
  O  O41  1  0.56014582  0.58661487  0.73231575  1
  O  O42  1  0.78961684  0.88162766  0.08994693  1
  O  O43  1  0.47555651  0.73945718  0.91690408  1
  O  O44  1  0.81473508  0.40323115  0.58136986  1
  O  O45  1  0.97326084  0.50089783  0.29010016  1
  O  O46  1  0.78951091  0.36744684  0.86105890  1
  O  O47  1  0.65817175  0.82987249  0.63454163  1
  O  O48  1  0.80348171  0.86881847  0.34629528  1
  O  O49  1  0.65790285  0.01110061  0.86359966  1
  O  O50  1  0.98394911  0.67931050  0.53205758  1
  O  O51  1  0.91153476  0.96688316  0.48146824  1
  O  O52  1  0.90362709  0.74611831  0.88936749  1
  O  O53  1  0.98720703  0.98542683  0.81674617  1
