# generated using pymatgen
data_Al2O3
_symmetry_space_group_name_H-M   'P 1'
_cell_length_a   4.82757315
_cell_length_b   5.09036339
_cell_length_c   14.09522064
_cell_angle_alpha   90.00000000
_cell_angle_beta   90.00000000
_cell_angle_gamma   90.00000000
_symmetry_Int_Tables_number   1
_chemical_formula_structural   Al2O3
_chemical_formula_sum   'Al16 O24'
_cell_volume   346.37738444
_cell_formula_units_Z   8
loop_
 _symmetry_equiv_pos_site_id
 _symmetry_equiv_pos_as_xyz
  1  'x, y, z'
loop_
 _atom_site_type_symbol
 _atom_site_label
 _atom_site_symmetry_multiplicity
 _atom_site_fract_x
 _atom_site_fract_y
 _atom_site_fract_z
 _atom_site_occupancy
  Al  Al0  1  0.99973998  0.18504873  0.07285334  1
  Al  Al1  1  0.99795898  0.74703621  0.17863697  1
  Al  Al2  1  0.99973998  0.31495127  0.57285334  1
  Al  Al3  1  0.99795898  0.75296379  0.67863697  1
  Al  Al4  1  0.50204102  0.24703621  0.17863697  1
  Al  Al5  1  0.50204102  0.25296379  0.67863697  1
  Al  Al6  1  0.50026002  0.68504873  0.07285334  1
  Al  Al7  1  0.50026002  0.81495127  0.57285334  1
  Al  Al8  1  0.49973998  0.18504873  0.42714666  1
  Al  Al9  1  0.49973998  0.31495127  0.92714666  1
  Al  Al10  1  0.49795898  0.74703621  0.32136303  1
  Al  Al11  1  0.49795898  0.75296379  0.82136303  1
  Al  Al12  1  0.00026002  0.68504873  0.42714666  1
  Al  Al13  1  0.00204102  0.24703621  0.32136303  1
  Al  Al14  1  0.00204102  0.25296379  0.82136303  1
  Al  Al15  1  0.00026002  0.81495127  0.92714666  1
  O  O16  1  0.14301019  0.11866001  0.20328674  1
  O  O17  1  0.14301019  0.38133999  0.70328674  1
  O  O18  1  0.15379192  0.83651022  0.04984037  1
  O  O19  1  0.15379192  0.66348978  0.54984037  1
  O  O20  1  0.19800324  0.96329109  0.37660991  1
  O  O21  1  0.19800324  0.53670891  0.87660991  1
  O  O22  1  0.30199676  0.46329109  0.37660991  1
  O  O23  1  0.30199676  0.03670891  0.87660991  1
  O  O24  1  0.34620808  0.16348978  0.54984037  1
  O  O25  1  0.34620808  0.33651022  0.04984037  1
  O  O26  1  0.35698981  0.61866001  0.20328674  1
  O  O27  1  0.35698981  0.88133999  0.70328674  1
  O  O28  1  0.64301019  0.11866001  0.29671326  1
  O  O29  1  0.64301019  0.38133999  0.79671326  1
  O  O30  1  0.65379192  0.83651022  0.45015963  1
  O  O31  1  0.65379192  0.66348978  0.95015963  1
  O  O32  1  0.69800324  0.53670891  0.62339009  1
  O  O33  1  0.69800324  0.96329109  0.12339009  1
  O  O34  1  0.80199676  0.46329109  0.12339009  1
  O  O35  1  0.80199676  0.03670891  0.62339009  1
  O  O36  1  0.84620808  0.33651022  0.45015963  1
  O  O37  1  0.84620808  0.16348978  0.95015963  1
  O  O38  1  0.85698981  0.88133999  0.79671326  1
  O  O39  1  0.85698981  0.61866001  0.29671326  1
