# generated using pymatgen
data_LiFeF5
_symmetry_space_group_name_H-M   'P 1'
_cell_length_a   6.66935853
_cell_length_b   10.76771017
_cell_length_c   10.76771017
_cell_angle_alpha   95.50366676
_cell_angle_beta   108.04070109
_cell_angle_gamma   71.95929891
_symmetry_Int_Tables_number   1
_chemical_formula_structural   LiFeF5
_chemical_formula_sum   'Li8 Fe8 F40'
_cell_volume   699.10548104
_cell_formula_units_Z   8
loop_
 _symmetry_equiv_pos_site_id
 _symmetry_equiv_pos_as_xyz
  1  'x, y, z'
loop_
 _atom_site_type_symbol
 _atom_site_label
 _atom_site_symmetry_multiplicity
 _atom_site_fract_x
 _atom_site_fract_y
 _atom_site_fract_z
 _atom_site_occupancy
  Li  Li0  1  0.19073777  0.20702870  0.53201348  1
  Li  Li1  1  0.63424801  0.70702870  0.03201348  1
  Li  Li2  1  0.15872329  0.53201348  0.29297130  1
  Li  Li3  1  0.10223353  0.03201348  0.79297130  1
  Li  Li4  1  0.84127671  0.46798652  0.70702870  1
  Li  Li5  1  0.89776647  0.96798652  0.20702870  1
  Li  Li6  1  0.80926223  0.79297130  0.46798652  1
  Li  Li7  1  0.36575199  0.29297130  0.96798652  1
  Fe  Fe8  1  0.31883942  0.04307094  0.14266128  1
  Fe  Fe9  1  0.86191036  0.35733872  0.04307094  1
  Fe  Fe10  1  0.67617814  0.14266128  0.45692906  1
  Fe  Fe11  1  0.71925009  0.45692906  0.35733872  1
  Fe  Fe12  1  0.28074991  0.54307094  0.64266128  1
  Fe  Fe13  1  0.32382186  0.85733872  0.54307094  1
  Fe  Fe14  1  0.13808964  0.64266128  0.95692906  1
  Fe  Fe15  1  0.68116058  0.95692906  0.85733872  1
  F  F16  1  0.42769978  0.15661827  0.09099903  1
  F  F17  1  0.04977449  0.17607742  0.12741807  1
  F  F18  1  0.42235642  0.12741807  0.32392258  1
  F  F19  1  0.83670075  0.09099903  0.34338173  1
  F  F20  1  0.08431805  0.40900097  0.15661827  1
  F  F21  1  0.72585191  0.37258193  0.17607742  1
  F  F22  1  0.70186392  0.52787202  0.99002131  1
  F  F23  1  0.26028637  0.02787202  0.49002131  1
  F  F24  1  0.59843283  0.32392258  0.37258193  1
  F  F25  1  0.44057189  0.55680767  0.28450983  1
  F  F26  1  0.78712927  0.05680767  0.78450983  1
  F  F27  1  0.99173322  0.68196944  0.08418854  1
  F  F28  1  0.91048588  0.18196944  0.58418854  1
  F  F29  1  0.99331802  0.34338173  0.40900097  1
  F  F30  1  0.34393794  0.71549017  0.05680767  1
  F  F31  1  0.49738056  0.21549017  0.55680767  1
  F  F32  1  0.40754468  0.08418854  0.81803056  1
  F  F33  1  0.82629734  0.58418854  0.31803056  1
  F  F34  1  0.27026506  0.49002131  0.47212798  1
  F  F35  1  0.21184161  0.99002131  0.97212798  1
  F  F36  1  0.78815839  0.00997869  0.02787202  1
  F  F37  1  0.72973494  0.50997869  0.52787202  1
  F  F38  1  0.59245532  0.91581146  0.18196944  1
  F  F39  1  0.17370266  0.41581146  0.68196944  1
  F  F40  1  0.50261944  0.78450983  0.44319233  1
  F  F41  1  0.65606206  0.28450983  0.94319233  1
  F  F42  1  0.00668198  0.65661827  0.59099903  1
  F  F43  1  0.08951412  0.81803056  0.41581146  1
  F  F44  1  0.00826678  0.31803056  0.91581146  1
  F  F45  1  0.21287073  0.94319233  0.21549017  1
  F  F46  1  0.55942811  0.44319233  0.71549017  1
  F  F47  1  0.40156717  0.67607742  0.62741807  1
  F  F48  1  0.73971363  0.97212798  0.50997869  1
  F  F49  1  0.29813608  0.47212798  0.00997869  1
  F  F50  1  0.27414809  0.62741807  0.82392258  1
  F  F51  1  0.91568195  0.59099903  0.84338173  1
  F  F52  1  0.16329925  0.90900097  0.65661827  1
  F  F53  1  0.57764358  0.87258193  0.67607742  1
  F  F54  1  0.95022551  0.82392258  0.87258193  1
  F  F55  1  0.57230022  0.84338173  0.90900097  1
