# generated using pymatgen
data_Li2TiNi2O5
_symmetry_space_group_name_H-M   'P 1'
_cell_length_a   5.02486614
_cell_length_b   7.83726813
_cell_length_c   5.07763274
_cell_angle_alpha   95.88528780
_cell_angle_beta   108.65628508
_cell_angle_gamma   71.30214578
_symmetry_Int_Tables_number   1
_chemical_formula_structural   Li2TiNi2O5
_chemical_formula_sum   'Li4 Ti2 Ni4 O10'
_cell_volume   179.45716852
_cell_formula_units_Z   2
loop_
 _symmetry_equiv_pos_site_id
 _symmetry_equiv_pos_as_xyz
  1  'x, y, z'
loop_
 _atom_site_type_symbol
 _atom_site_label
 _atom_site_symmetry_multiplicity
 _atom_site_fract_x
 _atom_site_fract_y
 _atom_site_fract_z
 _atom_site_occupancy
  Li  Li0  1  0.90218874  0.19560387  0.49999490  1
  Li  Li1  1  0.09917845  0.80160862  0.49998639  1
  Li  Li2  1  0.60081862  0.79839974  0.00001373  1
  Li  Li3  1  0.79781292  0.40439526  0.00000618  1
  Ti  Ti4  1  0.70314412  0.59367331  0.50000260  1
  Ti  Ti5  1  0.99686234  0.00631159  0.99999615  1
  Ni  Ni6  1  0.30104119  0.39789100  0.50000228  1
  Ni  Ni7  1  0.50182291  0.99636626  0.50000139  1
  Ni  Ni8  1  0.19816721  0.60364073  -0.00000185  1
  Ni  Ni9  1  0.39896406  0.20210122  0.00000015  1
  O  O10  1  0.85000009  0.80000397  0.75000069  1
  O  O11  1  0.65964655  0.18801681  0.75688076  1
  O  O12  1  0.46256589  0.59675800  0.73418098  1
  O  O13  1  0.94063754  0.59676326  0.26582268  1
  O  O14  1  0.04035166  0.41198247  0.74312298  1
  O  O15  1  0.23743552  0.00324250  0.76581686  1
  O  O16  1  0.34999660  0.80000295  0.24999690  1
  O  O17  1  0.75936622  0.00323614  0.23418190  1
  O  O18  1  0.54764264  0.41198723  0.25687518  1
  O  O19  1  0.15235575  0.18801508  0.24311916  1
