# generated using pymatgen
data_Li2MnF4
_symmetry_space_group_name_H-M   'P 1'
_cell_length_a   10.24213431
_cell_length_b   12.62980055
_cell_length_c   5.11512135
_cell_angle_alpha   90.00000000
_cell_angle_beta   90.00000000
_cell_angle_gamma   90.00000000
_symmetry_Int_Tables_number   1
_chemical_formula_structural   Li2MnF4
_chemical_formula_sum   'Li16 Mn8 F32'
_cell_volume   661.67221813
_cell_formula_units_Z   8
loop_
 _symmetry_equiv_pos_site_id
 _symmetry_equiv_pos_as_xyz
  1  'x, y, z'
loop_
 _atom_site_type_symbol
 _atom_site_label
 _atom_site_symmetry_multiplicity
 _atom_site_fract_x
 _atom_site_fract_y
 _atom_site_fract_z
 _atom_site_occupancy
  Li  Li0  1  0.00000000  0.32764325  0.00000000  1
  Li  Li1  1  0.00000000  0.68842240  0.00000000  1
  Li  Li2  1  0.00000000  0.55519737  0.50000000  1
  Li  Li3  1  0.00000000  0.96816035  0.00000000  1
  Li  Li4  1  0.29682080  0.84555872  0.96879329  1
  Li  Li5  1  0.24864329  0.19172291  0.00682104  1
  Li  Li6  1  0.25135671  0.69172291  0.50682104  1
  Li  Li7  1  0.20317920  0.34555872  0.46879329  1
  Li  Li8  1  0.50000000  0.46816035  0.50000000  1
  Li  Li9  1  0.50000000  0.05519737  0.00000000  1
  Li  Li10  1  0.50000000  0.18842140  0.50000000  1
  Li  Li11  1  0.50000000  0.82764325  0.50000000  1
  Li  Li12  1  0.79682080  0.34555872  0.53120671  1
  Li  Li13  1  0.74864329  0.69172291  0.49317896  1
  Li  Li14  1  0.75135671  0.19172291  0.99317896  1
  Li  Li15  1  0.70317920  0.84555872  0.03120671  1
  Mn  Mn16  1  0.00000000  0.13785318  0.50000000  1
  Mn  Mn17  1  0.00000000  0.84562248  0.50000000  1
  Mn  Mn18  1  0.22562415  0.50111775  0.00887430  1
  Mn  Mn19  1  0.27437585  0.00111775  0.50887430  1
  Mn  Mn20  1  0.50000000  0.34562248  0.00000000  1
  Mn  Mn21  1  0.50000000  0.63785318  0.00000000  1
  Mn  Mn22  1  0.72562415  0.00111775  0.49112570  1
  Mn  Mn23  1  0.77437585  0.50111775  0.99112570  1
  F  F24  1  0.10472118  0.73403043  0.28814111  1
  F  F25  1  0.11284029  0.23643000  0.26193276  1
  F  F26  1  0.09398733  0.99449706  0.30643823  1
  F  F27  1  0.15619827  0.10626682  0.75726506  1
  F  F28  1  0.13193066  0.87727630  0.80140030  1
  F  F29  1  0.10505344  0.46229152  0.30657909  1
  F  F30  1  0.12798254  0.61201306  0.77163497  1
  F  F31  1  0.16176378  0.36006393  0.82434383  1
  F  F32  1  0.33823622  0.86006393  0.32434383  1
  F  F33  1  0.37201746  0.11201306  0.27163497  1
  F  F34  1  0.39494656  0.96229152  0.80657909  1
  F  F35  1  0.36806934  0.37727630  0.30140030  1
  F  F36  1  0.34380173  0.60626682  0.25726506  1
  F  F37  1  0.40601267  0.49449706  0.80643823  1
  F  F38  1  0.38715971  0.73643000  0.76193276  1
  F  F39  1  0.39527882  0.23403043  0.78814111  1
  F  F40  1  0.60472118  0.23403043  0.21185889  1
  F  F41  1  0.61284029  0.73643000  0.23806724  1
  F  F42  1  0.59398733  0.49449706  0.19356177  1
  F  F43  1  0.63193066  0.37727630  0.69859970  1
  F  F44  1  0.65619827  0.60626682  0.74273494  1
  F  F45  1  0.60505344  0.96229152  0.19342091  1
  F  F46  1  0.62798254  0.11201306  0.72836503  1
  F  F47  1  0.66176378  0.86006393  0.67565617  1
  F  F48  1  0.83823622  0.36006393  0.17565617  1
  F  F49  1  0.87201746  0.61201306  0.22836503  1
  F  F50  1  0.89494656  0.46229152  0.69342091  1
  F  F51  1  0.84380173  0.10626682  0.24273494  1
  F  F52  1  0.86806934  0.87727630  0.19859970  1
  F  F53  1  0.90601267  0.99449706  0.69356177  1
  F  F54  1  0.88715971  0.23643000  0.73806724  1
  F  F55  1  0.89527882  0.73403043  0.71185889  1
