# generated using pymatgen
data_Mn3O5F
_symmetry_space_group_name_H-M   'P 1'
_cell_length_a   10.40315430
_cell_length_b   6.31262904
_cell_length_c   2.98666956
_cell_angle_alpha   90.00000000
_cell_angle_beta   90.00000000
_cell_angle_gamma   107.66302844
_symmetry_Int_Tables_number   1
_chemical_formula_structural   Mn3O5F
_chemical_formula_sum   'Mn6 O10 F2'
_cell_volume   186.89187741
_cell_formula_units_Z   2
loop_
 _symmetry_equiv_pos_site_id
 _symmetry_equiv_pos_as_xyz
  1  'x, y, z'
loop_
 _atom_site_type_symbol
 _atom_site_label
 _atom_site_symmetry_multiplicity
 _atom_site_fract_x
 _atom_site_fract_y
 _atom_site_fract_z
 _atom_site_occupancy
  Mn  Mn0  1  0.02290878  0.01145010  0.00000000  1
  Mn  Mn1  1  0.34199553  0.17095105  0.50000000  1
  Mn  Mn2  1  0.99139037  0.49569152  0.50000000  1
  Mn  Mn3  1  0.66671168  0.33340521  0.00000000  1
  Mn  Mn4  1  0.31044759  0.65516599  0.00000000  1
  Mn  Mn5  1  0.66666445  0.83337676  0.50000000  1
  O  O6  1  0.14195999  0.07102474  0.50000000  1
  O  O7  1  0.99691959  0.30155232  0.00000000  1
  O  O8  1  0.33641709  0.36505619  0.00000000  1
  O  O9  1  0.99696470  0.69537025  0.00000000  1
  O  O10  1  0.66663265  0.02886966  0.00000000  1
  O  O11  1  0.53952651  0.26970645  0.50000000  1
  O  O12  1  0.19139094  0.59565299  0.50000000  1
  O  O13  1  0.79386991  0.39698586  0.50000000  1
  O  O14  1  0.66662131  0.63784125  0.00000000  1
  O  O15  1  0.33634243  0.97124826  0.00000000  1
  F  F16  1  0.44926916  0.72456236  0.50000000  1
  F  F17  1  0.88396733  0.94208904  0.50000000  1
