# generated using pymatgen
data_LiFeF4
_symmetry_space_group_name_H-M   'P 1'
_cell_length_a   3.92831463
_cell_length_b   7.95013813
_cell_length_c   12.54811658
_cell_angle_alpha   60.12777232
_cell_angle_beta   90.00000000
_cell_angle_gamma   75.69642225
_symmetry_Int_Tables_number   1
_chemical_formula_structural   LiFeF4
_chemical_formula_sum   'Li4 Fe4 F16'
_cell_volume   325.73472290
_cell_formula_units_Z   4
loop_
 _symmetry_equiv_pos_site_id
 _symmetry_equiv_pos_as_xyz
  1  'x, y, z'
loop_
 _atom_site_type_symbol
 _atom_site_label
 _atom_site_symmetry_multiplicity
 _atom_site_fract_x
 _atom_site_fract_y
 _atom_site_fract_z
 _atom_site_occupancy
  Li  Li0  1  0.80607474  0.38784952  0.83748224  1
  Li  Li1  1  0.65605643  0.68788615  0.32249317  1
  Li  Li2  1  0.34394357  0.31211385  0.67750683  1
  Li  Li3  1  0.19392526  0.61215048  0.16251776  1
  Fe  Fe4  1  0.03517109  0.92965883  0.86674546  1
  Fe  Fe5  1  0.13789718  0.72420465  0.63905405  1
  Fe  Fe6  1  0.86210282  0.27579535  0.36094595  1
  Fe  Fe7  1  0.96482891  0.07034117  0.13325454  1
  F  F8  1  0.51300183  0.97399634  0.84409338  1
  F  F9  1  0.07281682  0.85436537  0.74075220  1
  F  F10  1  0.16812238  0.66375524  0.99870264  1
  F  F11  1  0.64616230  0.70767541  0.65556426  1
  F  F12  1  0.27496915  0.45006170  0.78595534  1
  F  F13  1  0.20100152  0.59799597  0.54408143  1
  F  F14  1  0.11470479  0.77059043  0.25594459  1
  F  F15  1  0.88529521  0.22940957  0.74405541  1
  F  F16  1  0.79899848  0.40200403  0.45591857  1
  F  F17  1  0.72503085  0.54993830  0.21404466  1
  F  F18  1  0.35383770  0.29232459  0.34443574  1
  F  F19  1  0.83187762  0.33624476  0.00129736  1
  F  F20  1  0.00000000  0.00000000  0.50000000  1
  F  F21  1  0.92718318  0.14563463  0.25924780  1
  F  F22  1  0.48699817  0.02600366  0.15590662  1
  F  F23  1  0.00000000  0.00000000  0.00000000  1
