# generated using pymatgen
data_Mn2OF3
_symmetry_space_group_name_H-M   'P 1'
_cell_length_a   4.87168238
_cell_length_b   4.87168238
_cell_length_c   12.73520111
_cell_angle_alpha   90.00000000
_cell_angle_beta   90.00000000
_cell_angle_gamma   93.41860826
_symmetry_Int_Tables_number   1
_chemical_formula_structural   Mn2OF3
_chemical_formula_sum   'Mn8 O4 F12'
_cell_volume   301.71036527
_cell_formula_units_Z   4
loop_
 _symmetry_equiv_pos_site_id
 _symmetry_equiv_pos_as_xyz
  1  'x, y, z'
loop_
 _atom_site_type_symbol
 _atom_site_label
 _atom_site_symmetry_multiplicity
 _atom_site_fract_x
 _atom_site_fract_y
 _atom_site_fract_z
 _atom_site_occupancy
  Mn  Mn0  1  0.96391854  0.96391854  0.00000000  1
  Mn  Mn1  1  0.02318833  0.02318833  0.24906609  1
  Mn  Mn2  1  0.01622400  0.01622400  0.50000000  1
  Mn  Mn3  1  0.02318833  0.02318833  0.75093391  1
  Mn  Mn4  1  0.48549656  0.48549656  0.62529462  1
  Mn  Mn5  1  0.49539972  0.49539972  0.12485595  1
  Mn  Mn6  1  0.48549656  0.48549656  0.37470538  1
  Mn  Mn7  1  0.49539972  0.49539972  0.87514305  1
  O  O8  1  0.31869653  0.31869653  0.24682028  1
  O  O9  1  0.30697578  0.30697578  0.50000000  1
  O  O10  1  0.31869653  0.31869653  0.75317972  1
  O  O11  1  0.66653587  0.66653587  0.00000000  1
  F  F12  1  0.19588022  0.79419535  0.12520939  1
  F  F13  1  0.20031999  0.81231434  0.37576117  1
  F  F14  1  0.20031999  0.81231434  0.62423883  1
  F  F15  1  0.19588022  0.79419535  0.87479061  1
  F  F16  1  0.27814905  0.27814905  0.00000000  1
  F  F17  1  0.70778146  0.70778146  0.25521319  1
  F  F18  1  0.70165377  0.70165377  0.50000000  1
  F  F19  1  0.70778146  0.70778146  0.74478681  1
  F  F20  1  0.79419535  0.19588022  0.12520939  1
  F  F21  1  0.81231434  0.20031999  0.37576117  1
  F  F22  1  0.81231434  0.20031999  0.62423883  1
  F  F23  1  0.79419535  0.19588022  0.87479061  1
