# generated using pymatgen
data_Li3Mn4F19
_symmetry_space_group_name_H-M   'P 1'
_cell_length_a   5.58639036
_cell_length_b   12.11592638
_cell_length_c   12.13165115
_cell_angle_alpha   113.88628595
_cell_angle_beta   87.28596926
_cell_angle_gamma   113.61953533
_symmetry_Int_Tables_number   1
_chemical_formula_structural   Li3Mn4F19
_chemical_formula_sum   'Li6 Mn8 F38'
_cell_volume   681.39791376
_cell_formula_units_Z   2
loop_
 _symmetry_equiv_pos_site_id
 _symmetry_equiv_pos_as_xyz
  1  'x, y, z'
loop_
 _atom_site_type_symbol
 _atom_site_label
 _atom_site_symmetry_multiplicity
 _atom_site_fract_x
 _atom_site_fract_y
 _atom_site_fract_z
 _atom_site_occupancy
  Li  Li0  1  0.46710688  0.86254582  0.91832740  1
  Li  Li1  1  0.19696738  0.24042680  0.45963988  1
  Li  Li2  1  0.40288824  0.53656223  0.22459204  1
  Li  Li3  1  0.59711176  0.46343777  0.77540796  1
  Li  Li4  1  0.80303262  0.75957320  0.54036012  1
  Li  Li5  1  0.53289312  0.13745418  0.08167260  1
  Mn  Mn6  1  0.08479327  0.98578105  0.79491028  1
  Mn  Mn7  1  0.18707426  0.56796747  0.62118535  1
  Mn  Mn8  1  0.11186671  0.32899930  0.97350607  1
  Mn  Mn9  1  0.38649391  0.86760601  0.37626566  1
  Mn  Mn10  1  0.61350609  0.13239399  0.62373434  1
  Mn  Mn11  1  0.88813329  0.67100070  0.02649393  1
  Mn  Mn12  1  0.81292574  0.43203253  0.37881465  1
  Mn  Mn13  1  0.91520673  0.01421895  0.20508972  1
  F  F14  1  0.11235135  0.79901561  0.44759195  1
  F  F15  1  0.13602895  0.02131790  0.31158271  1
  F  F16  1  0.33433213  0.99586916  0.89999853  1
  F  F17  1  0.17503734  0.77915214  0.23237499  1
  F  F18  1  0.20680588  0.75920890  0.99322800  1
  F  F19  1  0.30727009  0.72263797  0.75406180  1
  F  F20  1  0.11946569  0.48630883  0.07585297  1
  F  F21  1  0.04810027  0.40436015  0.47274841  1
  F  F22  1  0.98804444  0.18337108  0.30505505  1
  F  F23  1  0.09889125  0.49908454  0.31132203  1
  F  F24  1  0.16539066  0.17051196  0.88239793  1
  F  F25  1  0.45524318  0.64306529  0.54649395  1
  F  F26  1  0.36625255  0.50051758  0.67487384  1
  F  F27  1  0.33181001  0.40350822  0.88595351  1
  F  F28  1  0.50096889  0.73912016  0.33647345  1
  F  F29  1  0.63888028  0.96470340  0.30301246  1
  F  F30  1  0.17226466  0.06253704  0.11840236  1
  F  F31  1  0.30926127  0.34292490  0.09354505  1
  F  F32  1  0.63210120  0.95663702  0.52236434  1
  F  F33  1  0.36789880  0.04336298  0.47763566  1
  F  F34  1  0.69073873  0.65707510  0.90645495  1
  F  F35  1  0.82773534  0.93746296  0.88159764  1
  F  F36  1  0.36111972  0.03529660  0.69698754  1
  F  F37  1  0.49903111  0.26087984  0.66352655  1
  F  F38  1  0.66818999  0.59649178  0.11404649  1
  F  F39  1  0.63374745  0.49948242  0.32512616  1
  F  F40  1  0.54475682  0.35693471  0.45350605  1
  F  F41  1  0.83460934  0.82948804  0.11760207  1
  F  F42  1  0.90110875  0.50091546  0.68867797  1
  F  F43  1  0.01195556  0.81662892  0.69494495  1
  F  F44  1  0.95189973  0.59563985  0.52725159  1
  F  F45  1  0.88053431  0.51369117  0.92414703  1
  F  F46  1  0.69272991  0.27736203  0.24593820  1
  F  F47  1  0.79319412  0.24079110  0.00677200  1
  F  F48  1  0.82496266  0.22084786  0.76762501  1
  F  F49  1  0.66566787  0.00413084  0.10000147  1
  F  F50  1  0.86397105  0.97868210  0.68841729  1
  F  F51  1  0.88764865  0.20098539  0.55240805  1
