# generated using pymatgen
data_Li5Ni2(PO4)3
_symmetry_space_group_name_H-M   'P 1'
_cell_length_a   8.62670312
_cell_length_b   8.73981529
_cell_length_c   12.28751511
_cell_angle_alpha   90.00042022
_cell_angle_beta   89.20419844
_cell_angle_gamma   90.00335133
_symmetry_Int_Tables_number   1
_chemical_formula_structural   Li5Ni2(PO4)3
_chemical_formula_sum   'Li20 Ni8 P12 O48'
_cell_volume   926.33757064
_cell_formula_units_Z   4
loop_
 _symmetry_equiv_pos_site_id
 _symmetry_equiv_pos_as_xyz
  1  'x, y, z'
loop_
 _atom_site_type_symbol
 _atom_site_label
 _atom_site_symmetry_multiplicity
 _atom_site_fract_x
 _atom_site_fract_y
 _atom_site_fract_z
 _atom_site_occupancy
  Li  Li0  1  0.93001999  0.51995469  0.35059886  1
  Li  Li1  1  0.92944885  0.09418682  0.69562358  1
  Li  Li2  1  0.85468568  0.73592381  0.74819883  1
  Li  Li3  1  0.90429079  0.65879620  0.97457618  1
  Li  Li4  1  0.79444473  0.76945561  0.18381668  1
  Li  Li5  1  0.70555630  0.26946832  0.31618130  1
  Li  Li6  1  0.59570679  0.15880740  0.52543100  1
  Li  Li7  1  0.64532160  0.23589470  0.75180266  1
  Li  Li8  1  0.57054344  0.59418504  0.80436327  1
  Li  Li9  1  0.56998820  0.01996141  0.14941000  1
  Li  Li10  1  0.43727097  0.98486197  0.84478262  1
  Li  Li11  1  0.42643232  0.40587077  0.19535425  1
  Li  Li12  1  0.37242505  0.76928991  0.25594818  1
  Li  Li13  1  0.34488676  0.68270143  0.49230391  1
  Li  Li14  1  0.29922587  0.73741392  0.69605753  1
  Li  Li15  1  0.20076233  0.23740396  0.80392684  1
  Li  Li16  1  0.15511645  0.18271075  0.00768318  1
  Li  Li17  1  0.12757700  0.26929083  0.24406734  1
  Li  Li18  1  0.07357078  0.90586889  0.30466366  1
  Li  Li19  1  0.06275917  0.48486208  0.65521560  1
  Ni  Ni20  1  0.75008740  0.53414016  0.60426085  1
  Ni  Ni21  1  0.74992846  0.03414756  0.89573596  1
  Ni  Ni22  1  0.75254809  0.45153682  0.11146742  1
  Ni  Ni23  1  0.74745770  0.95152546  0.38855202  1
  Ni  Ni24  1  0.25250161  0.04271667  0.60374962  1
  Ni  Ni25  1  0.24748345  0.54271160  0.89622406  1
  Ni  Ni26  1  0.25471058  0.94718371  0.11063450  1
  Ni  Ni27  1  0.24528321  0.44717597  0.38937787  1
  P  P28  1  0.95145425  0.24571181  0.49337091  1
  P  P29  1  0.89388387  0.39412261  0.84964532  1
  P  P30  1  0.89195286  0.10056485  0.15367740  1
  P  P31  1  0.60608969  0.89413439  0.65040839  1
  P  P32  1  0.60802772  0.60053650  0.34628049  1
  P  P33  1  0.54856904  0.74571358  0.00662978  1
  P  P34  1  0.45391215  0.24896213  0.99180719  1
  P  P35  1  0.39720832  0.39844334  0.64704126  1
  P  P36  1  0.39479610  0.10719186  0.34796467  1
  P  P37  1  0.10278437  0.89845731  0.85295137  1
  P  P38  1  0.10519041  0.60717958  0.15203885  1
  P  P39  1  0.04612603  0.74894969  0.50820042  1
  O  O40  1  0.95416758  0.86217399  0.44009596  1
  O  O41  1  0.92567743  0.86614041  0.87214285  1
  O  O42  1  0.95485426  0.67934518  0.60696974  1
  O  O43  1  0.93259361  0.58773105  0.19071637  1
  O  O44  1  0.90877360  0.37172593  0.57722474  1
  O  O45  1  0.85133031  0.22709731  0.81793442  1
  O  O46  1  0.87510972  0.42179678  0.97136740  1
  O  O47  1  0.86738230  0.97524736  0.24243482  1
  O  O48  1  0.84117105  0.26070619  0.19315929  1
  O  O49  1  0.79836661  0.17634475  0.44799328  1
  O  O50  1  0.79698180  0.05074297  0.05534966  1
  O  O51  1  0.79194354  0.51142693  0.78554519  1
  O  O52  1  0.70804989  0.01144036  0.71449312  1
  O  O53  1  0.70298353  0.55071536  0.44462708  1
  O  O54  1  0.70163618  0.67632038  0.05199884  1
  O  O55  1  0.65881561  0.76069277  0.30680363  1
  O  O56  1  0.62487362  0.92182529  0.52865646  1
  O  O57  1  0.63260437  0.47524517  0.25753232  1
  O  O58  1  0.64865487  0.72712751  0.68211384  1
  O  O59  1  0.59127897  0.87173875  0.92278739  1
  O  O60  1  0.54518460  0.17932624  0.89304683  1
  O  O61  1  0.57431224  0.36610316  0.62787137  1
  O  O62  1  0.56738186  0.08775124  0.30926961  1
  O  O63  1  0.54585186  0.36218960  0.05989277  1
  O  O64  1  0.45608655  0.62657264  0.94328645  1
  O  O65  1  0.43375624  0.91993901  0.68787874  1
  O  O66  1  0.42766701  0.61043037  0.36307174  1
  O  O67  1  0.45823651  0.81653122  0.10589582  1
  O  O68  1  0.39925326  0.12212882  0.07244278  1
  O  O69  1  0.34066875  0.26694748  0.30684278  1
  O  O70  1  0.37632638  0.51894003  0.73992338  1
  O  O71  1  0.38455016  0.10558419  0.47246321  1
  O  O72  1  0.32165021  0.24509654  0.67897824  1
  O  O73  1  0.30156774  0.31962790  0.94394678  1
  O  O74  1  0.31647894  0.47072438  0.54781221  1
  O  O75  1  0.29697550  0.97994232  0.29336605  1
  O  O76  1  0.20300042  0.47995259  0.20665381  1
  O  O77  1  0.18354286  0.97074053  0.95217301  1
  O  O78  1  0.19846611  0.81963559  0.55604353  1
  O  O79  1  0.17831260  0.74509598  0.82101915  1
  O  O80  1  0.12364638  0.01893122  0.76005435  1
  O  O81  1  0.11545471  0.60556359  0.02754174  1
  O  O82  1  0.15931676  0.76694513  0.19317024  1
  O  O83  1  0.10076075  0.62213451  0.42755839  1
  O  O84  1  0.06623057  0.41991236  0.81214342  1
  O  O85  1  0.04177121  0.31653512  0.39409885  1
  O  O86  1  0.07232689  0.11046042  0.13689651  1
  O  O87  1  0.04391871  0.12655326  0.55669004  1
