# generated using pymatgen
data_Na3VO4
_symmetry_space_group_name_H-M   'P 1'
_cell_length_a   9.22198732
_cell_length_b   10.70486960
_cell_length_c   9.77206756
_cell_angle_alpha   90.00000000
_cell_angle_beta   90.00000000
_cell_angle_gamma   90.00000000
_symmetry_Int_Tables_number   1
_chemical_formula_structural   Na3VO4
_chemical_formula_sum   'Na24 V8 O32'
_cell_volume   964.70018752
_cell_formula_units_Z   8
loop_
 _symmetry_equiv_pos_site_id
 _symmetry_equiv_pos_as_xyz
  1  'x, y, z'
loop_
 _atom_site_type_symbol
 _atom_site_label
 _atom_site_symmetry_multiplicity
 _atom_site_fract_x
 _atom_site_fract_y
 _atom_site_fract_z
 _atom_site_occupancy
  Na  Na0  1  0.03857781  0.59832424  0.62268944  1
  Na  Na1  1  0.03857781  0.90167576  0.12268944  1
  Na  Na2  1  0.11514520  0.14014057  0.54039113  1
  Na  Na3  1  0.11514520  0.35985943  0.04039113  1
  Na  Na4  1  0.22196520  0.62399785  0.23352502  1
  Na  Na5  1  0.22196520  0.87600215  0.73352502  1
  Na  Na6  1  0.27803480  0.12399785  0.23352502  1
  Na  Na7  1  0.27803480  0.37600215  0.73352502  1
  Na  Na8  1  0.38485480  0.85985943  0.04039113  1
  Na  Na9  1  0.38485480  0.64014057  0.54039113  1
  Na  Na10  1  0.46142219  0.09832424  0.62268944  1
  Na  Na11  1  0.46142219  0.40167576  0.12268944  1
  Na  Na12  1  0.53857781  0.59832424  0.87731056  1
  Na  Na13  1  0.53857781  0.90167576  0.37731056  1
  Na  Na14  1  0.61514520  0.35985943  0.45960887  1
  Na  Na15  1  0.61514520  0.14014057  0.95960887  1
  Na  Na16  1  0.72196520  0.62399785  0.26647498  1
  Na  Na17  1  0.72196520  0.87600215  0.76647498  1
  Na  Na18  1  0.77803480  0.12399785  0.26647498  1
  Na  Na19  1  0.77803480  0.37600215  0.76647498  1
  Na  Na20  1  0.88485480  0.64014057  0.95960887  1
  Na  Na21  1  0.88485480  0.85985943  0.45960887  1
  Na  Na22  1  0.96142219  0.09832424  0.87731056  1
  Na  Na23  1  0.96142219  0.40167576  0.37731056  1
  V  V24  1  0.20870765  0.88028844  0.40368536  1
  V  V25  1  0.20870765  0.61971156  0.90368536  1
  V  V26  1  0.29129235  0.11971156  0.90368536  1
  V  V27  1  0.29129235  0.38028844  0.40368536  1
  V  V28  1  0.70870765  0.88028844  0.09631464  1
  V  V29  1  0.70870765  0.61971156  0.59631464  1
  V  V30  1  0.79129235  0.11971156  0.59631464  1
  V  V31  1  0.79129235  0.38028844  0.09631464  1
  O  O32  1  0.08633179  0.99485021  0.34866151  1
  O  O33  1  0.08633179  0.50514979  0.84866151  1
  O  O34  1  0.11946872  0.74689330  0.97540776  1
  O  O35  1  0.11946872  0.75310670  0.47540776  1
  O  O36  1  0.17695806  0.05409528  0.02465587  1
  O  O37  1  0.17695806  0.44590472  0.52465587  1
  O  O38  1  0.18873351  0.17098309  0.76457440  1
  O  O39  1  0.18873351  0.32901691  0.26457440  1
  O  O40  1  0.31126649  0.82901691  0.26457440  1
  O  O41  1  0.31126649  0.67098309  0.76457440  1
  O  O42  1  0.32304194  0.55409528  0.02465587  1
  O  O43  1  0.32304194  0.94590472  0.52465587  1
  O  O44  1  0.38053128  0.24689330  0.97540776  1
  O  O45  1  0.38053128  0.25310670  0.47540776  1
  O  O46  1  0.41366821  0.49485021  0.34866151  1
  O  O47  1  0.41366821  0.00514979  0.84866151  1
  O  O48  1  0.58633179  0.50514979  0.65133849  1
  O  O49  1  0.58633179  0.99485021  0.15133849  1
  O  O50  1  0.61946872  0.74689330  0.52459224  1
  O  O51  1  0.61946872  0.75310670  0.02459224  1
  O  O52  1  0.67695806  0.05409528  0.47534413  1
  O  O53  1  0.67695806  0.44590472  0.97534413  1
  O  O54  1  0.68873351  0.32901691  0.23542560  1
  O  O55  1  0.68873351  0.17098309  0.73542560  1
  O  O56  1  0.81126649  0.67098309  0.73542560  1
  O  O57  1  0.81126649  0.82901691  0.23542560  1
  O  O58  1  0.82304194  0.94590472  0.97534413  1
  O  O59  1  0.82304194  0.55409528  0.47534413  1
  O  O60  1  0.88053128  0.24689330  0.52459224  1
  O  O61  1  0.88053128  0.25310670  0.02459224  1
  O  O62  1  0.91366821  0.00514979  0.65133849  1
  O  O63  1  0.91366821  0.49485021  0.15133849  1
