# generated using pymatgen
data_LiFeF3
_symmetry_space_group_name_H-M   'P 1'
_cell_length_a   5.36776806
_cell_length_b   5.40789770
_cell_length_c   10.05689002
_cell_angle_alpha   105.61668786
_cell_angle_beta   79.22703005
_cell_angle_gamma   121.41630202
_symmetry_Int_Tables_number   1
_chemical_formula_structural   LiFeF3
_chemical_formula_sum   'Li4 Fe4 F12'
_cell_volume   239.55487624
_cell_formula_units_Z   4
loop_
 _symmetry_equiv_pos_site_id
 _symmetry_equiv_pos_as_xyz
  1  'x, y, z'
loop_
 _atom_site_type_symbol
 _atom_site_label
 _atom_site_symmetry_multiplicity
 _atom_site_fract_x
 _atom_site_fract_y
 _atom_site_fract_z
 _atom_site_occupancy
  Li  Li0  1  0.29888153  0.72790206  0.92978021  1
  Li  Li1  1  0.32517746  0.59889644  0.56727236  1
  Li  Li2  1  0.68829954  0.40495836  0.44345260  1
  Li  Li3  1  0.72221406  0.28934779  0.06717805  1
  Fe  Fe4  1  0.34191463  0.67064604  0.24803246  1
  Fe  Fe5  1  0.02258873  0.01169260  0.25182950  1
  Fe  Fe6  1  0.99243767  -0.00115092  0.74799216  1
  Fe  Fe7  1  0.64640499  0.32590953  0.75191160  1
  F  F8  1  0.97057193  0.60180399  0.62126216  1
  F  F9  1  0.29494895  0.02522442  0.85942383  1
  F  F10  1  0.94353838  0.35910584  0.88104263  1
  F  F11  1  0.34262311  0.29335092  0.63010460  1
  F  F12  1  0.67858047  0.96452094  0.63995844  1
  F  F13  1  0.33290795  0.39251386  0.37560192  1
  F  F14  1  0.64844088  0.70221086  0.86212014  1
  F  F15  1  0.35722607  0.94532383  0.11940070  1
  F  F16  1  0.69335752  0.63821169  0.14048137  1
  F  F17  1  0.00907808  0.72095534  0.36042640  1
  F  F18  1  0.66427892  0.03987429  0.36514835  1
  F  F19  1  0.02632810  0.28869913  0.13757951  1
