# generated using pymatgen
data_Fe3O4
_symmetry_space_group_name_H-M   'P 1'
_cell_length_a   16.13268427
_cell_length_b   5.92397202
_cell_length_c   6.61708034
_cell_angle_alpha   90.00000000
_cell_angle_beta   90.00000000
_cell_angle_gamma   90.00000000
_symmetry_Int_Tables_number   1
_chemical_formula_structural   Fe3O4
_chemical_formula_sum   'Fe24 O32'
_cell_volume   632.39152422
_cell_formula_units_Z   8
loop_
 _symmetry_equiv_pos_site_id
 _symmetry_equiv_pos_as_xyz
  1  'x, y, z'
loop_
 _atom_site_type_symbol
 _atom_site_label
 _atom_site_symmetry_multiplicity
 _atom_site_fract_x
 _atom_site_fract_y
 _atom_site_fract_z
 _atom_site_occupancy
  Fe  Fe0  1  0.40224678  0.76746765  0.25000000  1
  Fe  Fe1  1  0.84499157  0.73646523  0.25000000  1
  Fe  Fe2  1  0.85282302  0.51046465  0.75000000  1
  Fe  Fe3  1  0.15500843  0.26353477  0.75000000  1
  Fe  Fe4  1  0.39863402  0.98084813  0.75000000  1
  Fe  Fe5  1  0.65500843  0.73646523  0.75000000  1
  Fe  Fe6  1  0.75000000  0.06456516  0.50000000  1
  Fe  Fe7  1  0.09775322  0.76746765  0.75000000  1
  Fe  Fe8  1  0.35282302  0.48953535  0.75000000  1
  Fe  Fe9  1  0.64717698  0.51046465  0.25000000  1
  Fe  Fe10  1  0.50000000  0.50000000  0.50000000  1
  Fe  Fe11  1  0.25000000  0.93543484  0.50000000  1
  Fe  Fe12  1  0.50000000  0.50000000  0.00000000  1
  Fe  Fe13  1  0.59775322  0.23253235  0.75000000  1
  Fe  Fe14  1  0.90224678  0.23253235  0.25000000  1
  Fe  Fe15  1  0.25000000  0.93543484  0.00000000  1
  Fe  Fe16  1  0.89863402  0.01915187  0.75000000  1
  Fe  Fe17  1  0.75000000  0.06456516  0.00000000  1
  Fe  Fe18  1  0.00000000  0.50000000  0.00000000  1
  Fe  Fe19  1  0.10136598  0.98084813  0.25000000  1
  Fe  Fe20  1  0.34499157  0.26353477  0.25000000  1
  Fe  Fe21  1  0.60136598  0.01915187  0.25000000  1
  Fe  Fe22  1  0.14717698  0.48953535  0.25000000  1
  Fe  Fe23  1  0.00000000  0.50000000  0.50000000  1
  O  O24  1  0.62493960  0.99143943  0.55177190  1
  O  O25  1  0.03435654  0.70468384  0.25000000  1
  O  O26  1  0.78815648  0.24137977  0.75000000  1
  O  O27  1  0.12745296  0.50617229  0.55464259  1
  O  O28  1  0.87506040  0.99143943  0.44822810  1
  O  O29  1  0.96564346  0.29531616  0.75000000  1
  O  O30  1  0.62493960  0.99143943  0.94822810  1
  O  O31  1  0.72381513  0.77917581  0.25000000  1
  O  O32  1  0.28815648  0.75862023  0.75000000  1
  O  O33  1  0.21184352  0.75862023  0.25000000  1
  O  O34  1  0.52597836  0.74897644  0.25000000  1
  O  O35  1  0.62745296  0.49382771  0.55464259  1
  O  O36  1  0.37254704  0.50617229  0.05464259  1
  O  O37  1  0.12493960  0.00856057  0.55177190  1
  O  O38  1  0.27618487  0.22082419  0.75000000  1
  O  O39  1  0.53435654  0.29531616  0.25000000  1
  O  O40  1  0.02597836  0.25102356  0.25000000  1
  O  O41  1  0.46564346  0.70468384  0.75000000  1
  O  O42  1  0.62745296  0.49382771  0.94535741  1
  O  O43  1  0.12493960  0.00856057  0.94822810  1
  O  O44  1  0.37506040  0.00856057  0.44822810  1
  O  O45  1  0.37506040  0.00856057  0.05177190  1
  O  O46  1  0.97402164  0.74897644  0.75000000  1
  O  O47  1  0.12745296  0.50617229  0.94535741  1
  O  O48  1  0.87254704  0.49382771  0.05464259  1
  O  O49  1  0.47402164  0.25102356  0.75000000  1
  O  O50  1  0.22381513  0.22082419  0.25000000  1
  O  O51  1  0.37254704  0.50617229  0.44535741  1
  O  O52  1  0.87506040  0.99143943  0.05177190  1
  O  O53  1  0.77618487  0.77917581  0.75000000  1
  O  O54  1  0.71184352  0.24137977  0.25000000  1
  O  O55  1  0.87254704  0.49382771  0.44535741  1
