# generated using pymatgen
data_Li2CrP2O7
_symmetry_space_group_name_H-M   'P 1'
_cell_length_a   5.01498782
_cell_length_b   7.24648040
_cell_length_c   8.58519601
_cell_angle_alpha   90.00258212
_cell_angle_beta   90.01129270
_cell_angle_gamma   69.67399385
_symmetry_Int_Tables_number   1
_chemical_formula_structural   Li2CrP2O7
_chemical_formula_sum   'Li4 Cr2 P4 O14'
_cell_volume   292.56721272
_cell_formula_units_Z   2
loop_
 _symmetry_equiv_pos_site_id
 _symmetry_equiv_pos_as_xyz
  1  'x, y, z'
loop_
 _atom_site_type_symbol
 _atom_site_label
 _atom_site_symmetry_multiplicity
 _atom_site_fract_x
 _atom_site_fract_y
 _atom_site_fract_z
 _atom_site_occupancy
  Li  Li0  1  0.28686666  0.89990709  0.83037803  1
  Li  Li1  1  0.82539163  0.65479803  0.65099804  1
  Li  Li2  1  0.17463764  0.34516739  0.15103805  1
  Li  Li3  1  0.71311167  0.10011486  0.33040666  1
  Cr  Cr4  1  0.79779352  0.71806271  0.00732803  1
  Cr  Cr5  1  0.20211770  0.28198778  0.50733785  1
  P  P6  1  0.20960561  0.91235176  0.20528127  1
  P  P7  1  0.60604729  0.51844646  0.32064299  1
  P  P8  1  0.39388107  0.48154067  0.82041955  1
  P  P9  1  0.79032860  0.08772317  0.70516102  1
  O  O10  1  0.92640723  0.87977379  0.18094015  1
  O  O11  1  0.85048550  0.89135992  0.78916310  1
  O  O12  1  0.37953457  0.90135780  0.05452997  1
  O  O13  1  0.39797984  0.74833398  0.32887927  1
  O  O14  1  0.57855769  0.61354180  0.82179050  1
  O  O15  1  0.77430475  0.48881667  0.17023834  1
  O  O16  1  0.79006873  0.49250713  0.46787512  1
  O  O17  1  0.20987057  0.50749611  0.96795832  1
  O  O18  1  0.22585292  0.51118457  0.67038281  1
  O  O19  1  0.42151682  0.38646937  0.32176073  1
  O  O20  1  0.60200542  0.25167280  0.82890849  1
  O  O21  1  0.62052983  0.09862498  0.55460903  1
  O  O22  1  0.14952901  0.10855919  0.28910535  1
  O  O23  1  0.07357171  0.12020298  0.68097632  1
