# generated using pymatgen
data_Cu(PO3)3
_symmetry_space_group_name_H-M   'P 1'
_cell_length_a   9.67840339
_cell_length_b   9.64124889
_cell_length_c   9.73900208
_cell_angle_alpha   113.02122317
_cell_angle_beta   107.83301699
_cell_angle_gamma   105.19511680
_symmetry_Int_Tables_number   1
_chemical_formula_structural   Cu(PO3)3
_chemical_formula_sum   'Cu4 P12 O36'
_cell_volume   716.59750618
_cell_formula_units_Z   4
loop_
 _symmetry_equiv_pos_site_id
 _symmetry_equiv_pos_as_xyz
  1  'x, y, z'
loop_
 _atom_site_type_symbol
 _atom_site_label
 _atom_site_symmetry_multiplicity
 _atom_site_fract_x
 _atom_site_fract_y
 _atom_site_fract_z
 _atom_site_occupancy
  Cu  Cu0  1  0.28297287  0.23317757  0.73464876  1
  Cu  Cu1  1  0.20833598  0.29049274  0.11180411  1
  Cu  Cu2  1  0.79166402  0.70950726  0.88819589  1
  Cu  Cu3  1  0.71702713  0.76682243  0.26535124  1
  P  P4  1  0.07689995  0.91496771  0.81819763  1
  P  P5  1  0.09763589  0.85168410  0.49346441  1
  P  P6  1  0.35570251  0.60391170  0.98685963  1
  P  P7  1  0.16043568  0.78841029  0.04445140  1
  P  P8  1  0.29564358  0.66158787  0.43103818  1
  P  P9  1  0.41011199  0.56644422  0.69233432  1
  P  P10  1  0.58988801  0.43355578  0.30766568  1
  P  P11  1  0.70435642  0.33841113  0.56896182  1
  P  P12  1  0.83956432  0.21158971  0.95554860  1
  P  P13  1  0.64429749  0.39608830  0.01314037  1
  P  P14  1  0.90236411  0.14831590  0.50653559  1
  P  P15  1  0.92310005  0.08503229  0.18180237  1
  O  O16  1  0.01108567  0.27513588  0.97539646  1
  O  O17  1  0.07436539  0.82395560  0.63834370  1
  O  O18  1  0.16499307  0.82215991  0.89580730  1
  O  O19  1  0.19950460  0.62627482  0.99094023  1
  O  O20  1  0.05842702  0.18160652  0.63710533  1
  O  O21  1  0.13843077  0.70025434  0.40493527  1
  O  O22  1  0.19196870  0.10055265  0.90874478  1
  O  O23  1  0.32017391  0.42379840  0.93880936  1
  O  O24  1  0.36192610  0.63999419  0.84234681  1
  O  O25  1  0.29721176  0.61003869  0.57040284  1
  O  O26  1  0.28108076  0.92731983  0.21547134  1
  O  O27  1  0.08791119  0.13410954  0.19624616  1
  O  O28  1  0.24808442  0.51147219  0.26375452  1
  O  O29  1  0.24116569  0.01571217  0.56776380  1
  O  O30  1  0.35306015  0.38331825  0.61980480  1
  O  O31  1  0.44288112  0.80722168  0.48661609  1
  O  O32  1  0.49872214  0.26143985  0.84719349  1
  O  O33  1  0.58327266  0.68127747  0.75128915  1
  O  O34  1  0.41672734  0.31872253  0.24871085  1
  O  O35  1  0.50127786  0.73856015  0.15280651  1
  O  O36  1  0.55711788  0.19277832  0.51338391  1
  O  O37  1  0.64693985  0.61668175  0.38019520  1
  O  O38  1  0.75883431  0.98428783  0.43223620  1
  O  O39  1  0.75191558  0.48852781  0.73624548  1
  O  O40  1  0.91208881  0.86589046  0.80375384  1
  O  O41  1  0.71891924  0.07268017  0.78452866  1
  O  O42  1  0.70278824  0.38996131  0.42959716  1
  O  O43  1  0.63807390  0.36000581  0.15765319  1
  O  O44  1  0.67982609  0.57620160  0.06119064  1
  O  O45  1  0.80803130  0.89944735  0.09125522  1
  O  O46  1  0.86156923  0.29974566  0.59506473  1
  O  O47  1  0.94157298  0.81839348  0.36289467  1
  O  O48  1  0.80049540  0.37372518  0.00905977  1
  O  O49  1  0.83500693  0.17784009  0.10419270  1
  O  O50  1  0.92563461  0.17604440  0.36165630  1
  O  O51  1  0.98891433  0.72486412  0.02460354  1
