# generated using pymatgen
data_Na3(W3O8)4
_symmetry_space_group_name_H-M   'P 1'
_cell_length_a   17.87693966
_cell_length_b   17.87693966
_cell_length_c   3.88802799
_cell_angle_alpha   90.00000000
_cell_angle_beta   90.00000000
_cell_angle_gamma   90.00000000
_symmetry_Int_Tables_number   1
_chemical_formula_structural   Na3(W3O8)4
_chemical_formula_sum   'Na6 W24 O64'
_cell_volume   1242.55531479
_cell_formula_units_Z   2
loop_
 _symmetry_equiv_pos_site_id
 _symmetry_equiv_pos_as_xyz
  1  'x, y, z'
loop_
 _atom_site_type_symbol
 _atom_site_label
 _atom_site_symmetry_multiplicity
 _atom_site_fract_x
 _atom_site_fract_y
 _atom_site_fract_z
 _atom_site_occupancy
  Na  Na0  1  0.00000000  0.50000000  0.57749379  1
  Na  Na1  1  0.26585459  0.42808728  0.54592803  1
  Na  Na2  1  0.42808728  0.73414541  0.54592803  1
  Na  Na3  1  0.50000000  0.00000000  0.57749379  1
  Na  Na4  1  0.57191272  0.26585459  0.54592803  1
  Na  Na5  1  0.73414541  0.57191272  0.54592803  1
  W  W6  1  0.06730727  0.36359421  0.07403975  1
  W  W7  1  0.07287737  0.14180355  0.06820723  1
  W  W8  1  0.07895265  0.74832089  0.07100399  1
  W  W9  1  0.14180355  0.92712263  0.06820723  1
  W  W10  1  0.14552621  0.56743395  0.07601526  1
  W  W11  1  0.25065527  0.26479646  0.07261982  1
  W  W12  1  0.25167911  0.07895265  0.07100399  1
  W  W13  1  0.26479646  0.74934473  0.07261982  1
  W  W14  1  0.35967953  0.55991255  0.07973880  1
  W  W15  1  0.36359421  0.93269273  0.07403975  1
  W  W16  1  0.43256605  0.14552621  0.07601526  1
  W  W17  1  0.44008745  0.35967953  0.07973880  1
  W  W18  1  0.55991255  0.64032047  0.07973880  1
  W  W19  1  0.56743395  0.85447379  0.07601526  1
  W  W20  1  0.63640579  0.06730727  0.07403975  1
  W  W21  1  0.64032047  0.44008745  0.07973880  1
  W  W22  1  0.73520354  0.25065527  0.07261982  1
  W  W23  1  0.74832089  0.92104735  0.07100399  1
  W  W24  1  0.74934473  0.73520354  0.07261982  1
  W  W25  1  0.85447379  0.43256605  0.07601526  1
  W  W26  1  0.85819645  0.07287737  0.06820723  1
  W  W27  1  0.92104735  0.25167911  0.07100399  1
  W  W28  1  0.92712263  0.85819645  0.06820723  1
  W  W29  1  0.93269273  0.63640579  0.07403975  1
  O  O30  1  0.03549650  0.25244032  0.07090259  1
  O  O31  1  0.04692206  0.63165652  0.07394689  1
  O  O32  1  0.04191290  0.86702461  0.06870595  1
  O  O33  1  0.06691003  0.36714289  0.57412885  1
  O  O34  1  0.07290920  0.14110166  0.56869641  1
  O  O35  1  0.07940953  0.74825944  0.57102841  1
  O  O36  1  0.08704578  0.47809108  0.07572712  1
  O  O37  1  0.14110166  0.92709080  0.56869641  1
  O  O38  1  0.13297539  0.04191290  0.06870595  1
  O  O39  1  0.14488630  0.56640874  0.57600593  1
  O  O40  1  0.17349551  0.81607760  0.07064462  1
  O  O41  1  0.17777768  0.34256354  0.07467257  1
  O  O42  1  0.17576235  0.67704819  0.07354473  1
  O  O43  1  0.18392240  0.17349551  0.07064462  1
  O  O44  1  0.25025301  0.53024829  0.07952919  1
  O  O45  1  0.25244032  0.96450350  0.07090259  1
  O  O46  1  0.25174056  0.07940953  0.57102841  1
  O  O47  1  0.24997119  0.26393314  0.57337689  1
  O  O48  1  0.26393314  0.75002881  0.57337689  1
  O  O49  1  0.32295181  0.17576235  0.07354473  1
  O  O50  1  0.33043370  0.66670275  0.07746497  1
  O  O51  1  0.33329725  0.33043370  0.07746497  1
  O  O52  1  0.34256354  0.82222232  0.07467257  1
  O  O53  1  0.35705048  0.55885767  0.58003806  1
  O  O54  1  0.36714289  0.93308997  0.57412885  1
  O  O55  1  0.36834348  0.04692206  0.07394689  1
  O  O56  1  0.39674226  0.45908980  0.08188854  1
  O  O57  1  0.43359126  0.14488630  0.57600593  1
  O  O58  1  0.44114233  0.35705048  0.58003806  1
  O  O59  1  0.45908980  0.60325774  0.08188854  1
  O  O60  1  0.46975171  0.25025301  0.07952919  1
  O  O61  1  0.47809108  0.91295422  0.07572712  1
  O  O62  1  0.52190892  0.08704578  0.07572712  1
  O  O63  1  0.53024829  0.74974699  0.07952919  1
  O  O64  1  0.54091020  0.39674226  0.08188854  1
  O  O65  1  0.55885767  0.64294952  0.58003806  1
  O  O66  1  0.56640874  0.85511370  0.57600593  1
  O  O67  1  0.60325774  0.54091020  0.08188854  1
  O  O68  1  0.63165652  0.95307794  0.07394689  1
  O  O69  1  0.63285711  0.06691003  0.57412885  1
  O  O70  1  0.64294952  0.44114233  0.58003806  1
  O  O71  1  0.65743646  0.17777768  0.07467257  1
  O  O72  1  0.66670275  0.66956630  0.07746497  1
  O  O73  1  0.66956630  0.33329725  0.07746497  1
  O  O74  1  0.67704819  0.82423765  0.07354473  1
  O  O75  1  0.73606686  0.24997119  0.57337689  1
  O  O76  1  0.75002881  0.73606686  0.57337689  1
  O  O77  1  0.74825944  0.92059047  0.57102841  1
  O  O78  1  0.74755968  0.03549650  0.07090259  1
  O  O79  1  0.74974699  0.46975171  0.07952919  1
  O  O80  1  0.81607760  0.82650449  0.07064462  1
  O  O81  1  0.82423765  0.32295181  0.07354473  1
  O  O82  1  0.82222232  0.65743646  0.07467257  1
  O  O83  1  0.82650449  0.18392240  0.07064462  1
  O  O84  1  0.85511370  0.43359126  0.57600593  1
  O  O85  1  0.86702461  0.95808710  0.06870595  1
  O  O86  1  0.85889834  0.07290920  0.56869641  1
  O  O87  1  0.91295422  0.52190892  0.07572712  1
  O  O88  1  0.92059047  0.25174056  0.57102841  1
  O  O89  1  0.92709080  0.85889834  0.56869641  1
  O  O90  1  0.93308997  0.63285711  0.57412885  1
  O  O91  1  0.95808710  0.13297539  0.06870595  1
  O  O92  1  0.95307794  0.36834348  0.07394689  1
  O  O93  1  0.96450350  0.74755968  0.07090259  1
