# generated using pymatgen
data_Na2Cr4O13
_symmetry_space_group_name_H-M   'P 1'
_cell_length_a   8.82557416
_cell_length_b   7.28333652
_cell_length_c   9.00239906
_cell_angle_alpha   90.00000000
_cell_angle_beta   91.82905066
_cell_angle_gamma   90.00000000
_symmetry_Int_Tables_number   1
_chemical_formula_structural   Na2Cr4O13
_chemical_formula_sum   'Na4 Cr8 O26'
_cell_volume   578.37602018
_cell_formula_units_Z   2
loop_
 _symmetry_equiv_pos_site_id
 _symmetry_equiv_pos_as_xyz
  1  'x, y, z'
loop_
 _atom_site_type_symbol
 _atom_site_label
 _atom_site_symmetry_multiplicity
 _atom_site_fract_x
 _atom_site_fract_y
 _atom_site_fract_z
 _atom_site_occupancy
  Na  Na0  1  0.06565184  0.10829684  0.75410093  1
  Na  Na1  1  0.06565184  0.89170316  0.25410093  1
  Na  Na2  1  0.81644774  0.59035158  0.61005204  1
  Na  Na3  1  0.81644774  0.40964842  0.11005204  1
  Cr  Cr4  1  0.09393832  0.58058575  0.88090825  1
  Cr  Cr5  1  0.09393832  0.41941425  0.38090825  1
  Cr  Cr6  1  0.44170004  0.55901363  0.83476048  1
  Cr  Cr7  1  0.43182472  0.90020013  0.59351541  1
  Cr  Cr8  1  0.44170004  0.44098637  0.33476048  1
  Cr  Cr9  1  0.43182472  0.09979987  0.09351541  1
  Cr  Cr10  1  0.76253109  0.91823863  0.96780347  1
  Cr  Cr11  1  0.76253109  0.08176137  0.46780347  1
  O  O12  1  0.07702083  0.75593400  0.76885844  1
  O  O13  1  0.07702083  0.24406600  0.26885844  1
  O  O14  1  0.10420934  0.35155007  0.55246527  1
  O  O15  1  0.10420934  0.64844993  0.05246527  1
  O  O16  1  0.26530332  0.45054897  0.83708931  1
  O  O17  1  0.27892689  0.09475594  0.99152384  1
  O  O18  1  0.26530332  0.54945103  0.33708931  1
  O  O19  1  0.27892689  0.90524406  0.49152384  1
  O  O20  1  0.41156794  0.04013213  0.72679818  1
  O  O21  1  0.44784049  0.70371396  0.96731015  1
  O  O22  1  0.41156794  0.95986787  0.22679818  1
  O  O23  1  0.45735908  0.67221859  0.66251864  1
  O  O24  1  0.44784049  0.29628604  0.46731015  1
  O  O25  1  0.45735908  0.32778141  0.16251864  1
  O  O26  1  0.57925303  0.41602652  0.85502239  1
  O  O27  1  0.57925303  0.58397348  0.35502239  1
  O  O28  1  0.59344848  0.94476032  0.49633093  1
  O  O29  1  0.59344848  0.05523968  0.99633093  1
  O  O30  1  0.74569506  0.82326257  0.80438147  1
  O  O31  1  0.74569506  0.17673743  0.30438147  1
  O  O32  1  0.78649788  0.23870625  0.59483523  1
  O  O33  1  0.78649788  0.76129375  0.09483523  1
  O  O34  1  0.90857624  0.05758352  0.97332405  1
  O  O35  1  0.90857624  0.94241648  0.47332405  1
  O  O36  1  0.94820766  0.44297550  0.85740252  1
  O  O37  1  0.94820766  0.55702450  0.35740252  1
