# generated using pymatgen
data_CrB3(HO3)3
_symmetry_space_group_name_H-M   'P 1'
_cell_length_a   11.76462115
_cell_length_b   9.31284394
_cell_length_c   14.27438186
_cell_angle_alpha   90.00000000
_cell_angle_beta   90.00000000
_cell_angle_gamma   90.00000000
_symmetry_Int_Tables_number   1
_chemical_formula_structural   CrB3(HO3)3
_chemical_formula_sum   'Cr8 B24 H24 O72'
_cell_volume   1563.93097848
_cell_formula_units_Z   8
loop_
 _symmetry_equiv_pos_site_id
 _symmetry_equiv_pos_as_xyz
  1  'x, y, z'
loop_
 _atom_site_type_symbol
 _atom_site_label
 _atom_site_symmetry_multiplicity
 _atom_site_fract_x
 _atom_site_fract_y
 _atom_site_fract_z
 _atom_site_occupancy
  Cr  Cr0  1  0.23550992  0.34369759  0.32485009  1
  Cr  Cr1  1  0.23550992  0.65630241  0.82485009  1
  Cr  Cr2  1  0.26449008  0.15630241  0.82485009  1
  Cr  Cr3  1  0.26449008  0.84369759  0.32485009  1
  Cr  Cr4  1  0.73550992  0.15630241  0.67514991  1
  Cr  Cr5  1  0.73550992  0.84369759  0.17514991  1
  Cr  Cr6  1  0.76449008  0.34369759  0.17514991  1
  Cr  Cr7  1  0.76449008  0.65630241  0.67514991  1
  B  B8  1  0.14789183  0.96638498  0.58070267  1
  B  B9  1  0.14789183  0.03361502  0.08070267  1
  B  B10  1  0.14457215  0.53257457  0.07430612  1
  B  B11  1  0.14457215  0.46742543  0.57430612  1
  B  B12  1  0.24563712  0.90937849  0.95022983  1
  B  B13  1  0.24563712  0.09062151  0.45022983  1
  B  B14  1  0.25436288  0.40937849  0.95022983  1
  B  B15  1  0.25436288  0.59062151  0.45022983  1
  B  B16  1  0.35542785  0.03257457  0.07430612  1
  B  B17  1  0.35542785  0.96742543  0.57430612  1
  B  B18  1  0.35210817  0.53361502  0.08070267  1
  B  B19  1  0.35210817  0.46638498  0.58070267  1
  B  B20  1  0.64789183  0.46638498  0.91929733  1
  B  B21  1  0.64789183  0.53361502  0.41929733  1
  B  B22  1  0.64457215  0.03257457  0.42569388  1
  B  B23  1  0.64457215  0.96742543  0.92569388  1
  B  B24  1  0.74563712  0.40937849  0.54977017  1
  B  B25  1  0.74563712  0.59062151  0.04977017  1
  B  B26  1  0.75436288  0.09062151  0.04977017  1
  B  B27  1  0.75436288  0.90937849  0.54977017  1
  B  B28  1  0.85542785  0.46742543  0.92569388  1
  B  B29  1  0.85542785  0.53257457  0.42569388  1
  B  B30  1  0.85210817  0.03361502  0.41929733  1
  B  B31  1  0.85210817  0.96638498  0.91929733  1
  H  H32  1  0.98324622  0.06422872  0.08686000  1
  H  H33  1  0.98324622  0.93577128  0.58686000  1
  H  H34  1  0.02259159  0.56266942  0.42253453  1
  H  H35  1  0.02259159  0.43733058  0.92253453  1
  H  H36  1  0.20387376  0.29654543  0.69454168  1
  H  H37  1  0.20387376  0.70345457  0.19454168  1
  H  H38  1  0.29612624  0.20345457  0.19454168  1
  H  H39  1  0.29612624  0.79654543  0.69454168  1
  H  H40  1  0.47740841  0.06266942  0.42253453  1
  H  H41  1  0.47740841  0.93733058  0.92253453  1
  H  H42  1  0.51675378  0.56422872  0.08686000  1
  H  H43  1  0.51675378  0.43577128  0.58686000  1
  H  H44  1  0.48324622  0.43577128  0.91314000  1
  H  H45  1  0.48324622  0.56422872  0.41314000  1
  H  H46  1  0.52259159  0.06266942  0.07746547  1
  H  H47  1  0.52259159  0.93733058  0.57746547  1
  H  H48  1  0.70387376  0.79654543  0.80545832  1
  H  H49  1  0.70387376  0.20345457  0.30545832  1
  H  H50  1  0.79612624  0.29654543  0.80545832  1
  H  H51  1  0.79612624  0.70345457  0.30545832  1
  H  H52  1  0.97740841  0.43733058  0.57746547  1
  H  H53  1  0.97740841  0.56266942  0.07746547  1
  H  H54  1  0.01675378  0.06422872  0.41314000  1
  H  H55  1  0.01675378  0.93577128  0.91314000  1
  O  O56  1  0.04772441  0.41770881  0.61297201  1
  O  O57  1  0.04772441  0.58229119  0.11297201  1
  O  O58  1  0.05313010  0.08631218  0.12160666  1
  O  O59  1  0.05313010  0.91368782  0.62160666  1
  O  O60  1  0.10890873  0.32848198  0.28940439  1
  O  O61  1  0.10890873  0.67151802  0.78940439  1
  O  O62  1  0.14533078  0.94537713  0.00256080  1
  O  O63  1  0.14533078  0.05462287  0.50256080  1
  O  O64  1  0.14833181  0.55013094  0.49394141  1
  O  O65  1  0.14833181  0.44986906  0.99394141  1
  O  O66  1  0.17540115  0.78131697  0.23862311  1
  O  O67  1  0.17540115  0.21868303  0.73862311  1
  O  O68  1  0.23509924  0.01628519  0.35354833  1
  O  O69  1  0.23509924  0.98371481  0.85354833  1
  O  O70  1  0.25058115  0.24617924  0.42540924  1
  O  O71  1  0.25058115  0.75382076  0.92540924  1
  O  O72  1  0.24603809  0.42766248  0.61945940  1
  O  O73  1  0.24603809  0.57233752  0.11945940  1
  O  O74  1  0.25396191  0.07233752  0.11945940  1
  O  O75  1  0.25396191  0.92766248  0.61945940  1
  O  O76  1  0.24941885  0.74617924  0.42540924  1
  O  O77  1  0.24941885  0.25382076  0.92540924  1
  O  O78  1  0.26490076  0.48371481  0.85354833  1
  O  O79  1  0.26490076  0.51628519  0.35354833  1
  O  O80  1  0.32459885  0.28131697  0.23862311  1
  O  O81  1  0.32459885  0.71868303  0.73862311  1
  O  O82  1  0.35166819  0.05013094  0.49394141  1
  O  O83  1  0.35166819  0.94986906  0.99394141  1
  O  O84  1  0.35466922  0.55462287  0.50256080  1
  O  O85  1  0.35466922  0.44537713  0.00256080  1
  O  O86  1  0.39109227  0.82848198  0.28940439  1
  O  O87  1  0.39109227  0.17151802  0.78940439  1
  O  O88  1  0.44686990  0.58631218  0.12160666  1
  O  O89  1  0.44686990  0.41368782  0.62160666  1
  O  O90  1  0.45227559  0.08229119  0.11297201  1
  O  O91  1  0.45227559  0.91770881  0.61297201  1
  O  O92  1  0.54772441  0.08229119  0.38702799  1
  O  O93  1  0.54772441  0.91770881  0.88702799  1
  O  O94  1  0.55313010  0.58631218  0.37839334  1
  O  O95  1  0.55313010  0.41368782  0.87839334  1
  O  O96  1  0.60890773  0.82848198  0.21059561  1
  O  O97  1  0.60890773  0.17151802  0.71059561  1
  O  O98  1  0.64533078  0.44537713  0.49743920  1
  O  O99  1  0.64533078  0.55462287  0.99743920  1
  O  O100  1  0.64833181  0.05013094  0.00605859  1
  O  O101  1  0.64833181  0.94986906  0.50605859  1
  O  O102  1  0.67540115  0.28131697  0.26137689  1
  O  O103  1  0.67540115  0.71868303  0.76137689  1
  O  O104  1  0.73509924  0.48371481  0.64645167  1
  O  O105  1  0.73509924  0.51628519  0.14645167  1
  O  O106  1  0.75058115  0.25382076  0.57459076  1
  O  O107  1  0.75058115  0.74617924  0.07459076  1
  O  O108  1  0.74603809  0.92766248  0.88054060  1
  O  O109  1  0.74603809  0.07233752  0.38054060  1
  O  O110  1  0.75396191  0.42766248  0.88054060  1
  O  O111  1  0.75396191  0.57233752  0.38054060  1
  O  O112  1  0.74941885  0.24617924  0.07459076  1
  O  O113  1  0.74941885  0.75382076  0.57459076  1
  O  O114  1  0.76490076  0.01628519  0.14645167  1
  O  O115  1  0.76490076  0.98371481  0.64645167  1
  O  O116  1  0.82459885  0.21868303  0.76137689  1
  O  O117  1  0.82459885  0.78131697  0.26137689  1
  O  O118  1  0.85166819  0.44986906  0.50605859  1
  O  O119  1  0.85166819  0.55013094  0.00605859  1
  O  O120  1  0.85466922  0.05462287  0.99743920  1
  O  O121  1  0.85466922  0.94537713  0.49743920  1
  O  O122  1  0.89109227  0.32848198  0.21059561  1
  O  O123  1  0.89109227  0.67151802  0.71059561  1
  O  O124  1  0.94686990  0.08631218  0.37839334  1
  O  O125  1  0.94686990  0.91368782  0.87839334  1
  O  O126  1  0.95227559  0.41770881  0.88702799  1
  O  O127  1  0.95227559  0.58229119  0.38702799  1
