# generated using pymatgen
data_Li2Co2OF6
_symmetry_space_group_name_H-M   'P 1'
_cell_length_a   8.45999134
_cell_length_b   6.83136180
_cell_length_c   5.21477483
_cell_angle_alpha   85.07978560
_cell_angle_beta   103.46031863
_cell_angle_gamma   110.09060613
_symmetry_Int_Tables_number   1
_chemical_formula_structural   Li2Co2OF6
_chemical_formula_sum   'Li4 Co4 O2 F12'
_cell_volume   275.25982446
_cell_formula_units_Z   2
loop_
 _symmetry_equiv_pos_site_id
 _symmetry_equiv_pos_as_xyz
  1  'x, y, z'
loop_
 _atom_site_type_symbol
 _atom_site_label
 _atom_site_symmetry_multiplicity
 _atom_site_fract_x
 _atom_site_fract_y
 _atom_site_fract_z
 _atom_site_occupancy
  Li  Li0  1  0.09722428  0.75713849  0.34354839  1
  Li  Li1  1  0.24893739  0.98398935  0.86881238  1
  Li  Li2  1  0.74075781  0.00869169  0.12627363  1
  Li  Li3  1  0.91190639  0.25368530  0.67137591  1
  Co  Co4  1  0.17611925  0.28416679  0.26883128  1
  Co  Co5  1  0.33519933  0.51946340  0.82332454  1
  Co  Co6  1  0.67014266  0.47755279  0.16168871  1
  Co  Co7  1  0.79606841  0.71126012  0.70568572  1
  O  O8  1  0.12576034  0.38822136  0.94284194  1
  O  O9  1  0.59183129  0.58225650  0.82194572  1
  F  F10  1  0.02517598  0.81101327  0.65093340  1
  F  F11  1  0.22400037  0.56624930  0.45718836  1
  F  F12  1  0.37126646  0.79152397  0.91185012  1
  F  F13  1  0.29581394  0.24462032  0.65260725  1
  F  F14  1  0.18855868  0.01768367  0.18956766  1
  F  F15  1  0.42923093  0.41807016  0.19671589  1
  F  F16  1  0.81161412  0.98613012  0.81495303  1
  F  F17  1  0.70347451  0.75386216  0.32831918  1
  F  F18  1  0.62802698  0.20689224  0.08640316  1
  F  F19  1  0.77791880  0.43799406  0.54450159  1
  F  F20  1  0.89865459  0.61840277  0.08027656  1
  F  F21  1  0.95231948  0.18113216  0.35235260  1
