# generated using pymatgen
data_P6H26N7ClO19
_symmetry_space_group_name_H-M   'P 1'
_cell_length_a   6.78596173
_cell_length_b   10.23677402
_cell_length_c   19.62185158
_cell_angle_alpha   101.94524183
_cell_angle_beta   90.24288392
_cell_angle_gamma   107.60481061
_symmetry_Int_Tables_number   1
_chemical_formula_structural   P6H26N7ClO19
_chemical_formula_sum   'P12 H52 N14 Cl2 O38'
_cell_volume   1267.81734580
_cell_formula_units_Z   2
loop_
 _symmetry_equiv_pos_site_id
 _symmetry_equiv_pos_as_xyz
  1  'x, y, z'
loop_
 _atom_site_type_symbol
 _atom_site_label
 _atom_site_symmetry_multiplicity
 _atom_site_fract_x
 _atom_site_fract_y
 _atom_site_fract_z
 _atom_site_occupancy
  P  P0  1  0.72096503  0.29177382  0.54344831  1
  P  P1  1  0.27903497  0.70822618  0.45655169  1
  P  P2  1  0.48502040  0.14075636  0.40964696  1
  P  P3  1  0.51497960  0.85924364  0.59035304  1
  P  P4  1  0.49149261  0.14310644  0.64789719  1
  P  P5  1  0.50850739  0.85689356  0.35210281  1
  P  P6  1  0.96816943  0.09854094  0.14901298  1
  P  P7  1  0.03183057  0.90145906  0.85098702  1
  P  P8  1  0.24227508  0.28740970  0.06579960  1
  P  P9  1  0.75772492  0.71259030  0.93420040  1
  P  P10  1  0.00789698  0.17449500  0.92900954  1
  P  P11  1  0.99210302  0.82550500  0.07099046  1
  H  H12  1  0.84465968  0.60001688  0.62106474  1
  H  H13  1  0.15534032  0.39998312  0.37893526  1
  H  H14  1  0.86963263  0.76963113  0.61719596  1
  H  H15  1  0.13036737  0.23036887  0.38280404  1
  H  H16  1  0.94270287  0.73770576  0.69207359  1
  H  H17  1  0.05729713  0.26229424  0.30792641  1
  H  H18  1  0.08290568  0.71682766  0.62191254  1
  H  H19  1  0.91709432  0.28317234  0.37808746  1
  H  H20  1  0.64895761  0.24895115  0.89430132  1
  H  H21  1  0.35104239  0.75104885  0.10569868  1
  H  H22  1  0.57901985  0.24445099  0.80912183  1
  H  H23  1  0.42098015  0.75554901  0.19087817  1
  H  H24  1  0.62606110  0.39529585  0.87383981  1
  H  H25  1  0.37393890  0.60470415  0.12616019  1
  H  H26  1  0.41000436  0.25790106  0.87094122  1
  H  H27  1  0.58999564  0.74209894  0.12905878  1
  H  H28  1  0.07551845  0.19907900  0.77852494  1
  H  H29  1  0.92448155  0.80092100  0.22147506  1
  H  H30  1  0.11028109  0.17315467  0.69029650  1
  H  H31  1  0.88971891  0.82684533  0.30970350  1
  H  H32  1  0.86832506  0.16199473  0.72105080  1
  H  H33  1  0.13167494  0.83800527  0.27894920  1
  H  H34  1  0.97805372  0.03889166  0.72724763  1
  H  H35  1  0.02194628  0.96110834  0.27275237  1
  H  H36  1  0.44136809  0.80103472  0.71906774  1
  H  H37  1  0.55863191  0.19896528  0.28093226  1
  H  H38  1  0.38631961  0.69518025  0.77514583  1
  H  H39  1  0.61368039  0.30481975  0.22485417  1
  H  H40  1  0.62491292  0.81106523  0.77977203  1
  H  H41  1  0.37508708  0.18893477  0.22022797  1
  H  H42  1  0.41811778  0.86710685  0.80640951  1
  H  H43  1  0.58188222  0.13289315  0.19359049  1
  H  H44  1  0.31848600  0.56095766  0.59271380  1
  H  H45  1  0.68151400  0.43904234  0.40728620  1
  H  H46  1  0.23159238  0.44592006  0.64327615  1
  H  H47  1  0.76840762  0.55407994  0.35672385  1
  H  H48  1  0.41296718  0.42444548  0.58620766  1
  H  H49  1  0.58703282  0.57555452  0.41379234  1
  H  H50  1  0.16062346  0.39123853  0.55729575  1
  H  H51  1  0.83937654  0.60876147  0.44270425  1
  H  H52  1  0.31188553  0.61855115  0.93205212  1
  H  H53  1  0.68811447  0.38144885  0.06794788  1
  H  H54  1  0.05176554  0.56445408  0.94401028  1
  H  H55  1  0.94823446  0.43554592  0.05598972  1
  H  H56  1  0.17511232  0.44161547  0.91783997  1
  H  H57  1  0.82488768  0.55838453  0.08216003  1
  H  H58  1  0.13723987  0.53852266  0.86366177  1
  H  H59  1  0.86276013  0.46147734  0.13633823  1
  H  H60  1  0.51485855  0.42728286  0.72641248  1
  H  H61  1  0.48514145  0.57271714  0.27358752  1
  H  H62  1  0.74890456  0.50587223  0.74904649  1
  H  H63  1  0.25109544  0.49412777  0.25095351  1
  N  N64  1  0.93450879  0.70498229  0.63812860  1
  N  N65  1  0.06549121  0.29501771  0.36187140  1
  N  N66  1  0.56665119  0.28631515  0.86156715  1
  N  N67  1  0.43334881  0.71368485  0.13843285  1
  N  N68  1  0.00878168  0.14465141  0.72895788  1
  N  N69  1  0.99121832  0.85534859  0.27104212  1
  N  N70  1  0.46885459  0.79555393  0.77051226  1
  N  N71  1  0.53114541  0.20444607  0.22948774  1
  N  N72  1  0.28104822  0.45495413  0.59406679  1
  N  N73  1  0.71895178  0.54504587  0.40593321  1
  N  N74  1  0.16999954  0.54134969  0.91587954  1
  N  N75  1  0.83000046  0.45865031  0.08412046  1
  N  N76  1  0.50000000  0.00000000  0.00000000  1
  N  N77  1  0.00000000  0.00000000  0.50000000  1
  Cl  Cl78  1  0.07996701  0.49662491  0.74532411  1
  Cl  Cl79  1  0.92003299  0.50337509  0.25467589  1
  O  O80  1  0.48428968  0.80533774  0.50677148  1
  O  O81  1  0.51571032  0.19466226  0.49322852  1
  O  O82  1  0.69300323  0.21611728  0.60874385  1
  O  O83  1  0.30699677  0.78388272  0.39125615  1
  O  O84  1  0.69622182  0.43600527  0.56533436  1
  O  O85  1  0.30377818  0.56399473  0.43466564  1
  O  O86  1  0.91678714  0.27878514  0.51123768  1
  O  O87  1  0.08321286  0.72121486  0.48876232  1
  O  O88  1  0.41247025  0.98536187  0.59984086  1
  O  O89  1  0.58752975  0.01463813  0.40015914  1
  O  O90  1  0.37677509  0.74799302  0.62490966  1
  O  O91  1  0.62322491  0.25200698  0.37509034  1
  O  O92  1  0.74222718  0.90865245  0.61119310  1
  O  O93  1  0.25777282  0.09134755  0.38880690  1
  O  O94  1  0.57281103  0.14087497  0.71910529  1
  O  O95  1  0.42718897  0.85912503  0.28089471  1
  O  O96  1  0.32409342  0.20876847  0.64128511  1
  O  O97  1  0.67590658  0.79123153  0.35871489  1
  O  O98  1  0.92167693  0.00810838  0.89686111  1
  O  O99  1  0.07832307  0.99189162  0.10313889  1
  O  O100  1  0.93525015  0.86608977  0.77721174  1
  O  O101  1  0.06474985  0.13391023  0.22278826  1
  O  O102  1  0.26300328  0.95543501  0.86220745  1
  O  O103  1  0.73699672  0.04456499  0.13779255  1
  O  O104  1  0.76178330  0.56977039  0.94138364  1
  O  O105  1  0.23821670  0.43022961  0.05861636  1
  O  O106  1  0.56330906  0.73307653  0.90893559  1
  O  O107  1  0.43669094  0.26692347  0.09106441  1
  O  O108  1  0.16467352  0.17571072  0.99152038  1
  O  O109  1  0.83532648  0.82428928  0.00847962  1
  O  O110  1  0.13620206  0.24887717  0.87677011  1
  O  O111  1  0.86379794  0.75112283  0.12322989  1
  O  O112  1  0.82997788  0.22317732  0.95494134  1
  O  O113  1  0.17002212  0.77682268  0.04505866  1
  O  O114  1  0.94838526  0.76734722  0.88614704  1
  O  O115  1  0.05161474  0.23265278  0.11385296  1
  O  O116  1  0.60929183  0.51667840  0.75201016  1
  O  O117  1  0.39070817  0.48332160  0.24798984  1
