# generated using pymatgen
data_Li3Cr2(FeO4)2
_symmetry_space_group_name_H-M   'P 1'
_cell_length_a   5.95222050
_cell_length_b   5.97150802
_cell_length_c   5.94739277
_cell_angle_alpha   120.07085265
_cell_angle_beta   119.76891540
_cell_angle_gamma   90.12225255
_symmetry_Int_Tables_number   1
_chemical_formula_structural   Li3Cr2(FeO4)2
_chemical_formula_sum   'Li3 Cr2 Fe2 O8'
_cell_volume   149.67827073
_cell_formula_units_Z   1
loop_
 _symmetry_equiv_pos_site_id
 _symmetry_equiv_pos_as_xyz
  1  'x, y, z'
loop_
 _atom_site_type_symbol
 _atom_site_label
 _atom_site_symmetry_multiplicity
 _atom_site_fract_x
 _atom_site_fract_y
 _atom_site_fract_z
 _atom_site_occupancy
  Li  Li0  1  0.00000000  0.50000000  0.50000000  1
  Li  Li1  1  0.50000000  0.50000000  0.00000000  1
  Li  Li2  1  0.50000000  0.00000000  0.00000000  1
  Cr  Cr3  1  0.00000000  0.00000000  0.50000000  1
  Cr  Cr4  1  0.00000000  0.00000000  0.00000000  1
  Fe  Fe5  1  0.00000000  0.50000000  0.00000000  1
  Fe  Fe6  1  0.50000000  0.00000000  0.50000000  1
  O  O7  1  0.21515892  0.22999466  0.96190223  1
  O  O8  1  0.22935418  0.77083083  0.48784657  1
  O  O9  1  0.23179762  0.21570361  0.48303287  1
  O  O10  1  0.24080553  0.75748113  0.01571302  1
  O  O11  1  0.75919447  0.24251887  0.98428698  1
  O  O12  1  0.76820238  0.78429639  0.51696713  1
  O  O13  1  0.77064582  0.22916917  0.51215343  1
  O  O14  1  0.78484108  0.77000534  0.03809777  1
