# generated using pymatgen
data_V4O7F5
_symmetry_space_group_name_H-M   'P 1'
_cell_length_a   5.15185813
_cell_length_b   7.55434502
_cell_length_c   5.37351814
_cell_angle_alpha   91.98404055
_cell_angle_beta   91.66834458
_cell_angle_gamma   89.90675080
_symmetry_Int_Tables_number   1
_chemical_formula_structural   V4O7F5
_chemical_formula_sum   'V4 O7 F5'
_cell_volume   208.91747860
_cell_formula_units_Z   1
loop_
 _symmetry_equiv_pos_site_id
 _symmetry_equiv_pos_as_xyz
  1  'x, y, z'
loop_
 _atom_site_type_symbol
 _atom_site_label
 _atom_site_symmetry_multiplicity
 _atom_site_fract_x
 _atom_site_fract_y
 _atom_site_fract_z
 _atom_site_occupancy
  V  V0  1  0.51979271  0.50292798  0.45097784  1
  V  V1  1  0.49983311  0.00218749  0.55374008  1
  V  V2  1  0.03052587  0.49126940  0.96277588  1
  V  V3  1  0.97983529  0.99648117  0.05310020  1
  O  O4  1  0.78680350  0.53874405  0.29417198  1
  O  O5  1  0.78322565  0.96314739  0.70894052  1
  O  O6  1  0.71165292  0.96032358  0.20891772  1
  O  O7  1  0.29383923  0.46505989  0.21935014  1
  O  O8  1  0.29052191  0.03905758  0.77825524  1
  O  O9  1  0.21163551  0.03703908  0.27582014  1
  O  O10  1  0.21055310  0.46167243  0.71419279  1
  F  F11  1  0.90644686  0.24629688  0.99482344  1
  F  F12  1  0.69750095  0.54120685  0.78901219  1
  F  F13  1  0.58671366  0.25234340  0.50177705  1
  F  F14  1  0.41078997  0.75024931  0.49754718  1
  F  F15  1  0.08032776  0.75199350  0.99659661  1
