# generated using pymatgen
data_Li3VCr3O8
_symmetry_space_group_name_H-M   'P 1'
_cell_length_a   5.93224478
_cell_length_b   5.97390337
_cell_length_c   5.94832173
_cell_angle_alpha   120.18187294
_cell_angle_beta   60.45004995
_cell_angle_gamma   88.91455479
_symmetry_Int_Tables_number   1
_chemical_formula_structural   Li3VCr3O8
_chemical_formula_sum   'Li3 V1 Cr3 O8'
_cell_volume   148.20111061
_cell_formula_units_Z   1
loop_
 _symmetry_equiv_pos_site_id
 _symmetry_equiv_pos_as_xyz
  1  'x, y, z'
loop_
 _atom_site_type_symbol
 _atom_site_label
 _atom_site_symmetry_multiplicity
 _atom_site_fract_x
 _atom_site_fract_y
 _atom_site_fract_z
 _atom_site_occupancy
  Li  Li0  1  0.50000000  0.50000000  0.99999900  1
  Li  Li1  1  0.00000000  0.50000000  0.00000000  1
  Li  Li2  1  0.50000000  0.00000000  0.50000000  1
  V  V3  1  0.00000000  0.00000100  0.00000100  1
  Cr  Cr4  1  0.49999900  0.50000100  0.50000100  1
  Cr  Cr5  1  0.49999900  0.99999900  0.00000000  1
  Cr  Cr6  1  0.00000000  0.50000000  0.50000000  1
  O  O7  1  0.73239567  0.73439934  0.52032698  1
  O  O8  1  0.23446802  0.74547104  0.52934688  1
  O  O9  1  0.74677667  0.23422254  0.01915979  1
  O  O10  1  0.76268143  0.76102797  0.98594736  1
  O  O11  1  0.23731857  0.23897403  0.01405164  1
  O  O12  1  0.25322333  0.76577546  0.98083921  1
  O  O13  1  0.76553198  0.25452896  0.47065312  1
  O  O14  1  0.26760433  0.26560066  0.47967302  1
