# generated using pymatgen
data_NiH18(I5N3)2
_symmetry_space_group_name_H-M   'P 1'
_cell_length_a   9.32398735
_cell_length_b   17.02501524
_cell_length_c   9.69122459
_cell_angle_alpha   90.00000000
_cell_angle_beta   111.26709566
_cell_angle_gamma   90.00000000
_symmetry_Int_Tables_number   1
_chemical_formula_structural   NiH18(I5N3)2
_chemical_formula_sum   'Ni2 H36 I20 N12'
_cell_volume   1433.62976223
_cell_formula_units_Z   2
loop_
 _symmetry_equiv_pos_site_id
 _symmetry_equiv_pos_as_xyz
  1  'x, y, z'
loop_
 _atom_site_type_symbol
 _atom_site_label
 _atom_site_symmetry_multiplicity
 _atom_site_fract_x
 _atom_site_fract_y
 _atom_site_fract_z
 _atom_site_occupancy
  Ni  Ni0  1  0.00000000  0.00000000  0.50000000  1
  Ni  Ni1  1  0.50000000  0.50000000  0.00000000  1
  H  H2  1  0.01784374  0.91492657  0.74215505  1
  H  H3  1  0.18590924  0.50791386  0.90220080  1
  H  H4  1  0.01831418  0.14567423  0.39585623  1
  H  H5  1  0.04107998  0.85919091  0.38977117  1
  H  H6  1  0.01399834  0.92392702  0.25944517  1
  H  H7  1  0.23149509  0.46050025  0.77793209  1
  H  H8  1  0.24063401  0.55629060  0.78498623  1
  H  H9  1  0.25936599  0.05629060  0.71501377  1
  H  H10  1  0.26850491  0.96050025  0.72206791  1
  H  H11  1  0.15746953  0.09432898  0.37741970  1
  H  H12  1  0.18317710  0.91551421  0.39087718  1
  H  H13  1  0.31409076  0.00791386  0.59779920  1
  H  H14  1  0.51831418  0.35432577  0.89585623  1
  H  H15  1  0.48215626  0.41492657  0.75784495  1
  H  H16  1  0.54107998  0.64080909  0.88977117  1
  H  H17  1  0.51399834  0.57607298  0.75944517  1
  H  H18  1  0.31682290  0.41551421  0.10912282  1
  H  H19  1  0.34253047  0.59432898  0.12258030  1
  H  H20  1  0.65746953  0.40567102  0.87741970  1
  H  H21  1  0.68317710  0.58448579  0.89087718  1
  H  H22  1  0.48600166  0.42392702  0.24055483  1
  H  H23  1  0.45892002  0.35919091  0.11022883  1
  H  H24  1  0.51784374  0.58507343  0.24215505  1
  H  H25  1  0.48168582  0.64567423  0.10414377  1
  H  H26  1  0.68590924  0.99208614  0.40220080  1
  H  H27  1  0.81682290  0.08448579  0.60912282  1
  H  H28  1  0.84253047  0.90567102  0.62258030  1
  H  H29  1  0.73149509  0.03949975  0.27793209  1
  H  H30  1  0.74063401  0.94370940  0.28498623  1
  H  H31  1  0.75936599  0.44370940  0.21501377  1
  H  H32  1  0.76850491  0.53949975  0.22206791  1
  H  H33  1  0.98600166  0.07607298  0.74055483  1
  H  H34  1  0.95892002  0.14080909  0.61022883  1
  H  H35  1  0.98168582  0.85432577  0.60414377  1
  H  H36  1  0.81409076  0.49208614  0.09779920  1
  H  H37  1  0.98215626  0.08507343  0.25784495  1
  I  I38  1  0.99714875  0.64243991  0.98951550  1
  I  I39  1  0.14733173  0.29319320  0.64905962  1
  I  I40  1  0.08155494  0.33252676  0.34374319  1
  I  I41  1  0.35266827  0.79319320  0.85094038  1
  I  I42  1  0.23992232  0.52699279  0.43039640  1
  I  I43  1  0.13745223  0.18054683  0.02507601  1
  I  I44  1  0.36254777  0.68054683  0.47492399  1
  I  I45  1  0.26007768  0.02699279  0.06960360  1
  I  I46  1  0.58155494  0.16747324  0.84374319  1
  I  I47  1  0.50285125  0.14243991  0.51048450  1
  I  I48  1  0.49714875  0.85756009  0.48951550  1
  I  I49  1  0.41844506  0.83252676  0.15625681  1
  I  I50  1  0.73992232  0.97300721  0.93039640  1
  I  I51  1  0.63745223  0.31945317  0.52507601  1
  I  I52  1  0.86254777  0.81945317  0.97492399  1
  I  I53  1  0.76007768  0.47300721  0.56960360  1
  I  I54  1  0.64733173  0.20680680  0.14905962  1
  I  I55  1  0.91844506  0.66747324  0.65625681  1
  I  I56  1  0.85266827  0.70680680  0.35094038  1
  I  I57  1  0.00285125  0.35756009  0.01048450  1
  N  N58  1  0.04468336  0.09107022  0.36821572  1
  N  N59  1  0.06751363  0.91570461  0.37109974  1
  N  N60  1  0.26326526  0.50701328  0.84967294  1
  N  N61  1  0.23673474  0.00701328  0.65032706  1
  N  N62  1  0.54468336  0.40892978  0.86821572  1
  N  N63  1  0.56751363  0.58429539  0.87109974  1
  N  N64  1  0.43248637  0.41570461  0.12890026  1
  N  N65  1  0.45531664  0.59107022  0.13178428  1
  N  N66  1  0.76326526  0.99298672  0.34967294  1
  N  N67  1  0.73673474  0.49298672  0.15032706  1
  N  N68  1  0.93248637  0.08429539  0.62890026  1
  N  N69  1  0.95531664  0.90892978  0.63178428  1
