# generated using pymatgen
data_Li5V3F14
_symmetry_space_group_name_H-M   'P 1'
_cell_length_a   11.62895414
_cell_length_b   7.28849559
_cell_length_c   12.53588335
_cell_angle_alpha   90.00000000
_cell_angle_beta   90.00000000
_cell_angle_gamma   90.00000000
_symmetry_Int_Tables_number   1
_chemical_formula_structural   Li5V3F14
_chemical_formula_sum   'Li20 V12 F56'
_cell_volume   1062.51114801
_cell_formula_units_Z   4
loop_
 _symmetry_equiv_pos_site_id
 _symmetry_equiv_pos_as_xyz
  1  'x, y, z'
loop_
 _atom_site_type_symbol
 _atom_site_label
 _atom_site_symmetry_multiplicity
 _atom_site_fract_x
 _atom_site_fract_y
 _atom_site_fract_z
 _atom_site_occupancy
  Li  Li0  1  0.00995613  0.00272640  0.00995759  1
  Li  Li1  1  0.09125939  0.80758364  0.26764342  1
  Li  Li2  1  0.09052477  0.31222871  0.26468452  1
  Li  Li3  1  0.22150838  0.80138677  0.01235034  1
  Li  Li4  1  0.21713742  0.81811553  0.49410255  1
  Li  Li5  1  0.28286258  0.31811553  0.99410255  1
  Li  Li6  1  0.27849162  0.30138677  0.51235034  1
  Li  Li7  1  0.40947523  0.81222871  0.76468452  1
  Li  Li8  1  0.40874061  0.30758364  0.76764342  1
  Li  Li9  1  0.49004387  0.50272640  0.50995759  1
  Li  Li10  1  0.50995613  0.49727360  0.00995759  1
  Li  Li11  1  0.59125939  0.69241636  0.26764342  1
  Li  Li12  1  0.59052477  0.18777129  0.26468452  1
  Li  Li13  1  0.72150838  0.69861323  0.01235034  1
  Li  Li14  1  0.71713742  0.68188447  0.49410255  1
  Li  Li15  1  0.78286258  0.18188447  0.99410255  1
  Li  Li16  1  0.77849162  0.19861323  0.51235034  1
  Li  Li17  1  0.90947523  0.68777129  0.76468452  1
  Li  Li18  1  0.90874061  0.19241636  0.76764342  1
  Li  Li19  1  0.99004387  0.99727360  0.50995759  1
  V  V20  1  0.00123180  0.50148840  0.49597453  1
  V  V21  1  0.15633734  0.00076400  0.75075895  1
  V  V22  1  0.17149314  0.50016015  0.74739137  1
  V  V23  1  0.32850686  0.00016015  0.24739137  1
  V  V24  1  0.34366266  0.50076400  0.25075895  1
  V  V25  1  0.49876820  0.00148840  0.99597453  1
  V  V26  1  0.50123180  0.99851160  0.49597453  1
  V  V27  1  0.65633734  0.49923600  0.75075895  1
  V  V28  1  0.67149314  -0.00016015  0.74739137  1
  V  V29  1  0.82850686  0.49983985  0.24739137  1
  V  V30  1  0.84366266  0.99923600  0.25075895  1
  V  V31  1  0.99876820  0.49851160  0.99597453  1
  F  F32  1  0.99135213  0.93058866  0.75018629  1
  F  F33  1  0.06642831  0.73275487  0.44035750  1
  F  F34  1  0.06587407  0.72732235  0.04831326  1
  F  F35  1  0.05156402  0.57994836  0.84838550  1
  F  F36  1  0.06225127  0.58258192  0.63945119  1
  F  F37  1  0.13397168  0.35576248  0.45442610  1
  F  F38  1  0.13068337  0.35323697  0.03746186  1
  F  F39  1  0.08993650  0.25681795  0.74808722  1
  F  F40  1  0.14347400  0.99430285  0.90749708  1
  F  F41  1  0.14271751  0.99430454  0.59250183  1
  F  F42  1  0.18292827  0.57702091  0.25019138  1
  F  F43  1  0.22264286  0.93632825  0.35838934  1
  F  F44  1  0.21630777  0.93304371  0.14274041  1
  F  F45  1  0.23788634  0.75326938  0.75042177  1
  F  F46  1  0.26211366  0.25326938  0.25042177  1
  F  F47  1  0.28369223  0.43304371  0.64274041  1
  F  F48  1  0.27735714  0.43632825  0.85838934  1
  F  F49  1  0.31707173  0.07702091  0.75019138  1
  F  F50  1  0.35728249  0.49430454  0.09250183  1
  F  F51  1  0.35652600  0.49430285  0.40749708  1
  F  F52  1  0.36931663  0.85323697  0.53746186  1
  F  F53  1  0.41006350  0.75681795  0.24808722  1
  F  F54  1  0.36602832  0.85576248  0.95442610  1
  F  F55  1  0.43774873  0.08258192  0.13945119  1
  F  F56  1  0.44843598  0.07994836  0.34838550  1
  F  F57  1  0.43412593  0.22732235  0.54831326  1
  F  F58  1  0.43357169  0.23275487  0.94035750  1
  F  F59  1  0.50864787  0.43058866  0.25018629  1
  F  F60  1  0.49135213  0.56941134  0.75018629  1
  F  F61  1  0.56642831  0.76724513  0.44035750  1
  F  F62  1  0.56587407  0.77267765  0.04831326  1
  F  F63  1  0.55156402  0.92005164  0.84838550  1
  F  F64  1  0.56225127  0.91741808  0.63945119  1
  F  F65  1  0.63397168  0.14423752  0.45442610  1
  F  F66  1  0.63068337  0.14676303  0.03746186  1
  F  F67  1  0.58993650  0.24318205  0.74808722  1
  F  F68  1  0.64347400  0.50569715  0.90749708  1
  F  F69  1  0.64271751  0.50569546  0.59250183  1
  F  F70  1  0.68292827  0.92297909  0.25019138  1
  F  F71  1  0.72264286  0.56367175  0.35838934  1
  F  F72  1  0.71630777  0.56695629  0.14274041  1
  F  F73  1  0.73788634  0.74673062  0.75042177  1
  F  F74  1  0.76211366  0.24673062  0.25042177  1
  F  F75  1  0.78369223  0.06695629  0.64274041  1
  F  F76  1  0.77735714  0.06367175  0.85838934  1
  F  F77  1  0.81707173  0.42297909  0.75019138  1
  F  F78  1  0.85728249  0.00569546  0.09250183  1
  F  F79  1  0.85652600  0.00569715  0.40749708  1
  F  F80  1  0.86931663  0.64676303  0.53746186  1
  F  F81  1  0.91006350  0.74318205  0.24808722  1
  F  F82  1  0.86602832  0.64423752  0.95442610  1
  F  F83  1  0.93774873  0.41741808  0.13945119  1
  F  F84  1  0.94843598  0.42005164  0.34838550  1
  F  F85  1  0.93412593  0.27267765  0.54831326  1
  F  F86  1  0.93357169  0.26724513  0.94035750  1
  F  F87  1  0.00864787  0.06941134  0.25018629  1
