# generated using pymatgen
data_Mn2OF3
_symmetry_space_group_name_H-M   'P 1'
_cell_length_a   4.89243182
_cell_length_b   4.89243182
_cell_length_c   12.64426184
_cell_angle_alpha   90.00000000
_cell_angle_beta   90.00000000
_cell_angle_gamma   93.28941584
_symmetry_Int_Tables_number   1
_chemical_formula_structural   Mn2OF3
_chemical_formula_sum   'Mn8 O4 F12'
_cell_volume   302.15301019
_cell_formula_units_Z   4
loop_
 _symmetry_equiv_pos_site_id
 _symmetry_equiv_pos_as_xyz
  1  'x, y, z'
loop_
 _atom_site_type_symbol
 _atom_site_label
 _atom_site_symmetry_multiplicity
 _atom_site_fract_x
 _atom_site_fract_y
 _atom_site_fract_z
 _atom_site_occupancy
  Mn  Mn0  1  0.96889718  0.96889718  0.00017444  1
  Mn  Mn1  1  0.96889718  0.96889718  0.24982556  1
  Mn  Mn2  1  0.03110282  0.03110282  0.50017444  1
  Mn  Mn3  1  0.03110282  0.03110282  0.74982556  1
  Mn  Mn4  1  0.50069051  0.50069051  0.62500000  1
  Mn  Mn5  1  0.49930949  0.49930949  0.12500000  1
  Mn  Mn6  1  0.50000000  0.50000000  0.37500000  1
  Mn  Mn7  1  0.50000000  0.50000000  0.87500000  1
  O  O8  1  0.32781954  0.32781954  0.50006750  1
  O  O9  1  0.32781954  0.32781954  0.74993250  1
  O  O10  1  0.67218046  0.67218046  0.00006750  1
  O  O11  1  0.67218046  0.67218046  0.24993250  1
  F  F12  1  0.17607058  0.78621172  0.12500000  1
  F  F13  1  0.20077513  0.79922487  0.37500000  1
  F  F14  1  0.21378828  0.82392942  0.62500000  1
  F  F15  1  0.20077513  0.79922487  0.87500000  1
  F  F16  1  0.28797020  0.28797020  0.00577833  1
  F  F17  1  0.28797020  0.28797020  0.24422167  1
  F  F18  1  0.71202980  0.71202980  0.50577833  1
  F  F19  1  0.71202980  0.71202980  0.74422167  1
  F  F20  1  0.78621172  0.17607058  0.12500000  1
  F  F21  1  0.79922487  0.20077513  0.37500000  1
  F  F22  1  0.82392942  0.21378828  0.62500000  1
  F  F23  1  0.79922487  0.20077513  0.87500000  1
