# generated using pymatgen
data_Co2OF3
_symmetry_space_group_name_H-M   'P 1'
_cell_length_a   9.06721280
_cell_length_b   5.64493814
_cell_length_c   5.64493814
_cell_angle_alpha   72.00590822
_cell_angle_beta   86.53705110
_cell_angle_gamma   86.53705110
_symmetry_Int_Tables_number   1
_chemical_formula_structural   Co2OF3
_chemical_formula_sum   'Co8 O4 F12'
_cell_volume   274.03062425
_cell_formula_units_Z   4
loop_
 _symmetry_equiv_pos_site_id
 _symmetry_equiv_pos_as_xyz
  1  'x, y, z'
loop_
 _atom_site_type_symbol
 _atom_site_label
 _atom_site_symmetry_multiplicity
 _atom_site_fract_x
 _atom_site_fract_y
 _atom_site_fract_z
 _atom_site_occupancy
  Co  Co0  1  0.60246422  0.89303131  0.89303131  1
  Co  Co1  1  0.88253588  0.64162689  0.64162689  1
  Co  Co2  1  0.50000000  0.50000000  0.50000000  1
  Co  Co3  1  0.76789133  0.25565158  0.25565158  1
  Co  Co4  1  0.23210867  0.74434842  0.74434842  1
  Co  Co5  1  0.39753578  0.10696869  0.10696869  1
  Co  Co6  1  0.11746412  0.35837311  0.35837311  1
  Co  Co7  1  0.00000000  0.00000000  0.00000000  1
  O  O8  1  0.50000000  0.21865495  0.78134505  1
  O  O9  1  0.96874622  0.22423042  0.22423042  1
  O  O10  1  0.03125378  0.77576958  0.77576958  1
  O  O11  1  0.50000000  0.78134505  0.21865495  1
  F  F12  1  0.73999609  0.56783919  0.94757967  1
  F  F13  1  0.73999609  0.94757967  0.56783919  1
  F  F14  1  0.73063651  0.47900126  0.47900126  1
  F  F15  1  0.23197950  0.96922780  0.96922780  1
  F  F16  1  0.46004146  0.72648127  0.72648127  1
  F  F17  1  0.53995854  0.27351873  0.27351873  1
  F  F18  1  0.76802050  0.03077220  0.03077220  1
  F  F19  1  0.26936349  0.52099874  0.52099874  1
  F  F20  1  0.00000000  0.30416222  0.69583778  1
  F  F21  1  0.26000391  0.05242033  0.43216081  1
  F  F22  1  0.26000391  0.43216081  0.05242033  1
  F  F23  1  0.00000000  0.69583778  0.30416222  1
