# generated using pymatgen
data_Cr3O8
_symmetry_space_group_name_H-M   'P 1'
_cell_length_a   5.49211928
_cell_length_b   8.24373037
_cell_length_c   6.61019584
_cell_angle_alpha   90.00194692
_cell_angle_beta   90.00035843
_cell_angle_gamma   90.00010668
_symmetry_Int_Tables_number   1
_chemical_formula_structural   Cr3O8
_chemical_formula_sum   'Cr6 O16'
_cell_volume   299.28025551
_cell_formula_units_Z   2
loop_
 _symmetry_equiv_pos_site_id
 _symmetry_equiv_pos_as_xyz
  1  'x, y, z'
loop_
 _atom_site_type_symbol
 _atom_site_label
 _atom_site_symmetry_multiplicity
 _atom_site_fract_x
 _atom_site_fract_y
 _atom_site_fract_z
 _atom_site_occupancy
  Cr  Cr0  1  -0.00000902  0.99996931  0.00011712  1
  Cr  Cr1  1  0.99999583  0.65736813  0.28414612  1
  Cr  Cr2  1  0.99999649  0.34260526  0.71585637  1
  Cr  Cr3  1  0.49999859  0.15738493  0.21588492  1
  Cr  Cr4  1  0.49999853  0.84266366  0.78408892  1
  Cr  Cr5  1  0.49997588  0.49997385  0.50002693  1
  O  O6  1  0.00000329  0.22591394  0.52635751  1
  O  O7  1  0.00000304  0.76681245  0.06901771  1
  O  O8  1  0.00000101  0.23317712  0.93097603  1
  O  O9  1  0.00000287  0.77408093  0.47360566  1
  O  O10  1  0.24712634  0.03635513  0.20126293  1
  O  O11  1  0.24709299  0.96366094  0.79874063  1
  O  O12  1  0.25289637  0.46363279  0.70125654  1
  O  O13  1  0.25291091  0.53636195  0.29872523  1
  O  O14  1  0.50000103  0.26681585  0.43094223  1
  O  O15  1  0.50000253  0.27409203  0.02632686  1
  O  O16  1  0.50000316  0.73318576  0.56904128  1
  O  O17  1  0.50000126  0.72593336  0.97363185  1
  O  O18  1  0.74711075  0.46363114  0.70125612  1
  O  O19  1  0.74709418  0.53636371  0.29872890  1
  O  O20  1  0.75287518  0.03635460  0.20126698  1
  O  O21  1  0.75291879  0.96366313  0.79874316  1
