# generated using pymatgen
data_AlB3H14N
_symmetry_space_group_name_H-M   'P 1'
_cell_length_a   11.27598707
_cell_length_b   11.40562172
_cell_length_c   12.09452862
_cell_angle_alpha   90.00000000
_cell_angle_beta   101.35211060
_cell_angle_gamma   90.00000000
_symmetry_Int_Tables_number   1
_chemical_formula_structural   AlB3H14N
_chemical_formula_sum   'Al8 B24 H112 N8'
_cell_volume   1525.04179596
_cell_formula_units_Z   8
loop_
 _symmetry_equiv_pos_site_id
 _symmetry_equiv_pos_as_xyz
  1  'x, y, z'
loop_
 _atom_site_type_symbol
 _atom_site_label
 _atom_site_symmetry_multiplicity
 _atom_site_fract_x
 _atom_site_fract_y
 _atom_site_fract_z
 _atom_site_occupancy
  Al  Al0  1  0.23729935  0.93698206  0.38229321  1
  Al  Al1  1  0.73729935  0.56301794  0.88229321  1
  Al  Al2  1  0.76270065  0.06301794  0.61770679  1
  Al  Al3  1  0.26270065  0.43698206  0.11770679  1
  Al  Al4  1  0.73337612  0.66791704  0.41689265  1
  Al  Al5  1  0.23337612  0.83208296  0.91689265  1
  Al  Al6  1  0.26662388  0.33208296  0.58310735  1
  Al  Al7  1  0.76662388  0.16791704  0.08310735  1
  B  B8  1  0.09561325  0.06301843  0.31227298  1
  B  B9  1  0.59561325  0.43698157  0.81227298  1
  B  B10  1  0.90438675  0.93698157  0.68772702  1
  B  B11  1  0.40438675  0.56301843  0.18772702  1
  B  B12  1  0.25759573  0.92292599  0.56619771  1
  B  B13  1  0.75759573  0.57707401  0.06619771  1
  B  B14  1  0.74240427  0.07707401  0.43380229  1
  B  B15  1  0.24240427  0.42292599  0.93380229  1
  B  B16  1  0.36797846  0.94427585  0.26574540  1
  B  B17  1  0.86797846  0.55572415  0.76574540  1
  B  B18  1  0.63202154  0.05572415  0.73425460  1
  B  B19  1  0.13202154  0.44427585  0.23425460  1
  B  B20  1  0.72450988  0.47458732  0.42982395  1
  B  B21  1  0.22450988  0.02541268  0.92982395  1
  B  B22  1  0.27549012  0.52541268  0.57017605  1
  B  B23  1  0.77549012  0.97458732  0.07017605  1
  B  B24  1  0.60522342  0.74013363  0.52186583  1
  B  B25  1  0.10522342  0.75986637  0.02186583  1
  B  B26  1  0.39477658  0.25986637  0.47813417  1
  B  B27  1  0.89477658  0.24013363  0.97813417  1
  B  B28  1  0.92448134  0.70954473  0.40858341  1
  B  B29  1  0.42448134  0.79045527  0.90858341  1
  B  B30  1  0.07551866  0.29045527  0.59141659  1
  B  B31  1  0.57551866  0.20954473  0.09141659  1
  H  H32  1  0.40561536  0.85808164  0.22601871  1
  H  H33  1  0.90561536  0.64191836  0.72601871  1
  H  H34  1  0.59438464  0.14191836  0.77398129  1
  H  H35  1  0.09438464  0.35808164  0.27398129  1
  H  H36  1  0.08069284  0.95347692  0.30796591  1
  H  H37  1  0.58069284  0.54652308  0.80796591  1
  H  H38  1  0.91930716  0.04652308  0.69203409  1
  H  H39  1  0.41930716  0.45347692  0.19203409  1
  H  H40  1  0.29983011  0.59016738  0.13486944  1
  H  H41  1  0.79983011  0.90983262  0.63486944  1
  H  H42  1  0.70016989  0.40983262  0.86513056  1
  H  H43  1  0.20016989  0.09016738  0.36513056  1
  H  H44  1  0.41024200  0.59401456  0.28435729  1
  H  H45  1  0.91024200  0.90598544  0.78435729  1
  H  H46  1  0.58975800  0.40598544  0.71564271  1
  H  H47  1  0.08975800  0.09401456  0.21564271  1
  H  H48  1  0.47367751  0.60229863  0.13324495  1
  H  H49  1  0.97367751  0.89770137  0.63324495  1
  H  H50  1  0.52632249  0.39770137  0.86675505  1
  H  H51  1  0.02632249  0.10229863  0.36675505  1
  H  H52  1  0.09178032  0.53840781  0.25657412  1
  H  H53  1  0.59178032  0.96159219  0.75657412  1
  H  H54  1  0.90821968  0.46159219  0.74342588  1
  H  H55  1  0.40821968  0.03840781  0.24342588  1
  H  H56  1  0.39714191  0.93607202  0.37072373  1
  H  H57  1  0.89714191  0.56392798  0.87072373  1
  H  H58  1  0.60285809  0.06392798  0.62927627  1
  H  H59  1  0.10285809  0.43607202  0.12927627  1
  H  H60  1  0.25679847  0.94754644  0.23141207  1
  H  H61  1  0.75679847  0.55245356  0.73141207  1
  H  H62  1  0.74320153  0.05245356  0.76858793  1
  H  H63  1  0.24320153  0.44754644  0.26858793  1
  H  H64  1  0.01471187  0.67164582  0.46831620  1
  H  H65  1  0.51471187  0.82835418  0.96831620  1
  H  H66  1  0.98528813  0.32835418  0.53168380  1
  H  H67  1  0.48528813  0.17164582  0.03168380  1
  H  H68  1  0.78627202  0.67335194  0.10301195  1
  H  H69  1  0.28627202  0.82664806  0.60301195  1
  H  H70  1  0.21372798  0.32664806  0.89698805  1
  H  H71  1  0.71372798  0.17335194  0.39698805  1
  H  H72  1  0.75031806  0.50109336  0.13390533  1
  H  H73  1  0.25031806  0.99890664  0.63390533  1
  H  H74  1  0.24968194  0.49890664  0.86609467  1
  H  H75  1  0.74968194  0.00109336  0.36609467  1
  H  H76  1  0.57034402  0.66665971  0.44653841  1
  H  H77  1  0.07034402  0.83334029  0.94653841  1
  H  H78  1  0.42965598  0.33334029  0.55346159  1
  H  H79  1  0.92965598  0.16665971  0.05346159  1
  H  H80  1  0.85240481  0.92174203  0.03424066  1
  H  H81  1  0.35240481  0.57825797  0.53424066  1
  H  H82  1  0.14759519  0.07825797  0.96575934  1
  H  H83  1  0.64759519  0.42174203  0.46575934  1
  H  H84  1  0.69694661  0.91982078  0.10163403  1
  H  H85  1  0.19694661  0.58017922  0.60163403  1
  H  H86  1  0.30305339  0.08017922  0.89836597  1
  H  H87  1  0.80305339  0.41982078  0.39836597  1
  H  H88  1  0.93400992  0.78623414  0.34195051  1
  H  H89  1  0.43400992  0.71376586  0.84195051  1
  H  H90  1  0.06599008  0.21376586  0.65804949  1
  H  H91  1  0.56599008  0.28623414  0.15804949  1
  H  H92  1  0.10772481  0.80467592  0.11267592  1
  H  H93  1  0.60772481  0.69532408  0.61267592  1
  H  H94  1  0.89227519  0.19532408  0.88732408  1
  H  H95  1  0.39227519  0.30467592  0.38732408  1
  H  H96  1  0.77715000  0.54151542  0.50756434  1
  H  H97  1  0.27715000  0.95848458  0.00756434  1
  H  H98  1  0.22285000  0.45848458  0.49243566  1
  H  H99  1  0.72285000  0.04151542  0.99243566  1
  H  H100  1  0.67003120  0.53318535  0.34631480  1
  H  H101  1  0.17003120  0.96681465  0.84631480  1
  H  H102  1  0.32996880  0.46681465  0.65368520  1
  H  H103  1  0.82996880  0.03318535  0.15368520  1
  H  H104  1  0.26128566  0.69073396  0.32353058  1
  H  H105  1  0.76128566  0.80926604  0.82353058  1
  H  H106  1  0.73871434  0.30926604  0.67646942  1
  H  H107  1  0.23871434  0.19073396  0.17646942  1
  H  H108  1  0.69341698  0.75289100  0.21383603  1
  H  H109  1  0.19341698  0.74710900  0.71383603  1
  H  H110  1  0.30658302  0.24710900  0.78616397  1
  H  H111  1  0.80658302  0.25289100  0.28616397  1
  H  H112  1  0.68530738  0.85585047  0.30636928  1
  H  H113  1  0.18530738  0.64414953  0.80636928  1
  H  H114  1  0.31469262  0.14414953  0.69363072  1
  H  H115  1  0.81469262  0.35585047  0.19363072  1
  H  H116  1  0.56986162  0.76570652  0.26816184  1
  H  H117  1  0.06986162  0.73429348  0.76816184  1
  H  H118  1  0.43013838  0.23429348  0.73183816  1
  H  H119  1  0.93013838  0.26570652  0.23183816  1
  H  H120  1  0.86721973  0.75251371  0.47785135  1
  H  H121  1  0.36721973  0.74748629  0.97785135  1
  H  H122  1  0.13278027  0.24748629  0.52214865  1
  H  H123  1  0.63278027  0.25251371  0.02214865  1
  H  H124  1  0.21098309  0.72623868  0.02194672  1
  H  H125  1  0.71098309  0.77376132  0.52194672  1
  H  H126  1  0.78901691  0.27376132  0.97805328  1
  H  H127  1  0.28901691  0.22623868  0.47805328  1
  H  H128  1  0.86902226  0.62497171  0.35691182  1
  H  H129  1  0.36902226  0.87502829  0.85691182  1
  H  H130  1  0.13097774  0.37502829  0.64308818  1
  H  H131  1  0.63097774  0.12497171  0.14308818  1
  H  H132  1  0.54442948  0.82768402  0.50085620  1
  H  H133  1  0.04442948  0.67231598  0.00085620  1
  H  H134  1  0.45557052  0.17231598  0.49914380  1
  H  H135  1  0.95557052  0.32768402  0.99914380  1
  H  H136  1  0.15662788  0.91888578  0.50092005  1
  H  H137  1  0.65662788  0.58111422  0.00092005  1
  H  H138  1  0.84337212  0.08111422  0.49907995  1
  H  H139  1  0.34337212  0.41888578  0.99907995  1
  H  H140  1  0.84107122  0.54434858  0.01895980  1
  H  H141  1  0.34107122  0.95565142  0.51895980  1
  H  H142  1  0.15892878  0.45565142  0.98104020  1
  H  H143  1  0.65892878  0.04434858  0.48104020  1
  N  N144  1  0.23288487  0.76937594  0.35110456  1
  N  N145  1  0.73288487  0.73062406  0.85110456  1
  N  N146  1  0.76711513  0.23062406  0.64889544  1
  N  N147  1  0.26711513  0.26937594  0.14889544  1
  N  N148  1  0.66308690  0.76979684  0.28693907  1
  N  N149  1  0.16308690  0.73020316  0.78693907  1
  N  N150  1  0.33691310  0.23020316  0.71306093  1
  N  N151  1  0.83691310  0.26979684  0.21306093  1
