# generated using pymatgen
data_V6O7F5
_symmetry_space_group_name_H-M   'P 1'
_cell_length_a   4.66284068
_cell_length_b   7.80082144
_cell_length_c   5.61553799
_cell_angle_alpha   93.78106725
_cell_angle_beta   91.52147768
_cell_angle_gamma   88.68690942
_symmetry_Int_Tables_number   1
_chemical_formula_structural   V6O7F5
_chemical_formula_sum   'V6 O7 F5'
_cell_volume   203.69717327
_cell_formula_units_Z   1
loop_
 _symmetry_equiv_pos_site_id
 _symmetry_equiv_pos_as_xyz
  1  'x, y, z'
loop_
 _atom_site_type_symbol
 _atom_site_label
 _atom_site_symmetry_multiplicity
 _atom_site_fract_x
 _atom_site_fract_y
 _atom_site_fract_z
 _atom_site_occupancy
  V  V0  1  0.51567687  0.65140222  0.16598174  1
  V  V1  1  0.51266401  0.00493463  0.51528999  1
  V  V2  1  0.49248236  0.34163582  0.83286460  1
  V  V3  1  0.02017726  0.68414190  0.65928756  1
  V  V4  1  0.98318238  0.31515715  0.34148365  1
  V  V5  1  0.98367405  0.00483307  0.98919380  1
  O  O6  1  0.79384703  0.08815058  0.29780312  1
  O  O7  1  0.69583454  0.10731625  0.79356491  1
  O  O8  1  0.68946315  0.76855917  0.46433967  1
  O  O9  1  0.70556788  0.42791620  0.13292279  1
  O  O10  1  0.29685703  0.57123007  0.87174603  1
  O  O11  1  0.30688641  0.23204337  0.53696124  1
  O  O12  1  0.20581010  0.90850908  0.70005173  1
  F  F13  1  0.80354324  0.44288138  0.63440448  1
  F  F14  1  0.79997900  0.76948588  0.96140034  1
  F  F15  1  0.29709292  0.89465274  0.19861750  1
  F  F16  1  0.20028104  0.22967277  0.03908921  1
  F  F17  1  0.19697871  0.55747772  0.36499463  1
