# generated using pymatgen
data_LiMnP3HO10
_symmetry_space_group_name_H-M   'P 1'
_cell_length_a   8.70299464
_cell_length_b   4.90900765
_cell_length_c   9.52911435
_cell_angle_alpha   90.00000000
_cell_angle_beta   101.44261794
_cell_angle_gamma   90.00000000
_symmetry_Int_Tables_number   1
_chemical_formula_structural   LiMnP3HO10
_chemical_formula_sum   'Li2 Mn2 P6 H2 O20'
_cell_volume   399.02116751
_cell_formula_units_Z   2
loop_
 _symmetry_equiv_pos_site_id
 _symmetry_equiv_pos_as_xyz
  1  'x, y, z'
loop_
 _atom_site_type_symbol
 _atom_site_label
 _atom_site_symmetry_multiplicity
 _atom_site_fract_x
 _atom_site_fract_y
 _atom_site_fract_z
 _atom_site_occupancy
  Li  Li0  1  0.25000000  0.56003512  0.75000000  1
  Li  Li1  1  0.75000000  0.43996488  0.25000000  1
  Mn  Mn2  1  0.00000000  0.50000000  0.00000000  1
  Mn  Mn3  1  0.50000000  0.50000000  0.50000000  1
  P  P4  1  0.26247611  0.99905014  0.53772554  1
  P  P5  1  0.25000000  0.76820680  0.25000000  1
  P  P6  1  0.23752389  0.99905014  0.96227446  1
  P  P7  1  0.76247611  0.00094986  0.03772554  1
  P  P8  1  0.75000000  0.23179320  0.75000000  1
  P  P9  1  0.73752389  0.00094986  0.46227446  1
  H  H10  1  0.00000000  0.00000000  0.50000000  1
  H  H11  1  0.50000000  0.00000000  0.00000000  1
  O  O12  1  0.09634687  0.80928606  0.91336926  1
  O  O13  1  0.20096835  0.29601954  0.92786259  1
  O  O14  1  0.11308622  0.90127632  0.58550473  1
  O  O15  1  0.38691378  0.90127632  0.91449527  1
  O  O16  1  0.10830405  0.59475842  0.18997493  1
  O  O17  1  0.21293831  0.97731150  0.36364999  1
  O  O18  1  0.29903165  0.29601954  0.57213741  1
  O  O19  1  0.40365313  0.80928606  0.58663074  1
  O  O20  1  0.28706169  0.97731150  0.13635001  1
  O  O21  1  0.39169595  0.59475842  0.31002507  1
  O  O22  1  0.60830405  0.40524158  0.68997493  1
  O  O23  1  0.71293831  0.02268850  0.86364999  1
  O  O24  1  0.59634687  0.19071394  0.41336926  1
  O  O25  1  0.70096835  0.70398046  0.42786259  1
  O  O26  1  0.78706169  0.02268850  0.63635001  1
  O  O27  1  0.89169595  0.40524158  0.81002507  1
  O  O28  1  0.61308622  0.09872368  0.08550473  1
  O  O29  1  0.88691378  0.09872368  0.41449527  1
  O  O30  1  0.79903165  0.70398046  0.07213741  1
  O  O31  1  0.90365313  0.19071394  0.08663074  1
