# generated using pymatgen
data_Li8TbO6
_symmetry_space_group_name_H-M   'P 1'
_cell_length_a   6.30715780
_cell_length_b   6.30715780
_cell_length_c   6.30715780
_cell_angle_alpha   53.15338515
_cell_angle_beta   53.15338515
_cell_angle_gamma   53.15338517
_symmetry_Int_Tables_number   1
_chemical_formula_structural   Li8TbO6
_chemical_formula_sum   'Li8 Tb1 O6'
_cell_volume   148.95706261
_cell_formula_units_Z   1
loop_
 _symmetry_equiv_pos_site_id
 _symmetry_equiv_pos_as_xyz
  1  'x, y, z'
loop_
 _atom_site_type_symbol
 _atom_site_label
 _atom_site_symmetry_multiplicity
 _atom_site_fract_x
 _atom_site_fract_y
 _atom_site_fract_z
 _atom_site_occupancy
  Li  Li0  1  0.35344031  0.35344031  0.35344031  1
  Li  Li1  1  0.50719767  0.89786811  0.22653614  1
  Li  Li2  1  0.22653614  0.50719767  0.89786811  1
  Li  Li3  1  0.89786811  0.22653614  0.50719767  1
  Li  Li4  1  0.49280233  0.10213189  0.77346386  1
  Li  Li5  1  0.77346386  0.49280233  0.10213189  1
  Li  Li6  1  0.64655969  0.64655969  0.64655969  1
  Li  Li7  1  0.10213189  0.77346386  0.49280233  1
  O  O8  1  0.24281661  0.89850481  0.60166397  1
  O  O9  1  0.10149519  0.39833603  0.75718339  1
  O  O10  1  0.75718339  0.10149519  0.39833603  1
  O  O11  1  0.60166397  0.24281661  0.89850481  1
  O  O12  1  0.89850481  0.60166397  0.24281661  1
  O  O13  1  0.39833603  0.75718339  0.10149519  1
  Tb  Tb14  1  0.00000000  0.00000000  0.00000000  1
