# generated using pymatgen
data_LiMnO2
_symmetry_space_group_name_H-M   'P 1'
_cell_length_a   4.29809476
_cell_length_b   5.91777455
_cell_length_c   8.72162975
_cell_angle_alpha   90.01836696
_cell_angle_beta   89.99995441
_cell_angle_gamma   90.00011104
_symmetry_Int_Tables_number   1
_chemical_formula_structural   LiMnO2
_chemical_formula_sum   'Li6 Mn6 O12'
_cell_volume   221.83599989
_cell_formula_units_Z   6
loop_
 _symmetry_equiv_pos_site_id
 _symmetry_equiv_pos_as_xyz
  1  'x, y, z'
loop_
 _atom_site_type_symbol
 _atom_site_label
 _atom_site_symmetry_multiplicity
 _atom_site_fract_x
 _atom_site_fract_y
 _atom_site_fract_z
 _atom_site_occupancy
  Li  Li0  1  0.24999788  0.12952582  0.08389095  1
  Li  Li1  1  0.24999623  0.12948440  0.41611108  1
  Li  Li2  1  0.24999738  0.62279932  0.75002687  1
  Li  Li3  1  0.74999766  0.37728346  0.24996413  1
  Li  Li4  1  0.74999769  0.87057464  0.58385171  1
  Li  Li5  1  0.74999568  0.87042855  0.91616371  1
  Mn  Mn6  1  0.25000540  0.63124202  0.07857105  1
  Mn  Mn7  1  0.25000982  0.09265603  0.75005151  1
  Mn  Mn8  1  0.25000985  0.63128657  0.42142044  1
  Mn  Mn9  1  0.75000370  0.36873209  0.57856867  1
  Mn  Mn10  1  0.74999599  0.36868895  0.92142409  1
  Mn  Mn11  1  0.75000802  0.90737627  0.24996021  1
  O  O12  1  0.24999805  0.41967700  0.24994815  1
  O  O13  1  0.24999767  0.37554656  0.57660938  1
  O  O14  1  0.24999919  0.37521092  0.92320659  1
  O  O15  1  0.25000100  0.86619839  0.25011852  1
  O  O16  1  0.24999934  0.86027420  0.57860702  1
  O  O17  1  0.24999746  0.86014552  0.92148244  1
  O  O18  1  0.75000073  0.13982310  0.07853742  1
  O  O19  1  0.74999562  0.13381147  0.74989704  1
  O  O20  1  0.74999769  0.13979539  0.42138498  1
  O  O21  1  0.74999844  0.58029380  0.75006083  1
  O  O22  1  0.74999818  0.62465365  0.07675855  1
  O  O23  1  0.75000132  0.62449189  0.42338464  1
