# generated using pymatgen
data_Li4Mn3P4(HO8)2
_symmetry_space_group_name_H-M   'P 1'
_cell_length_a   9.38749736
_cell_length_b   9.43554950
_cell_length_c   8.66752481
_cell_angle_alpha   90.00000000
_cell_angle_beta   116.75423760
_cell_angle_gamma   90.00000000
_symmetry_Int_Tables_number   1
_chemical_formula_structural   Li4Mn3P4(HO8)2
_chemical_formula_sum   'Li8 Mn6 P8 H4 O32'
_cell_volume   685.54685890
_cell_formula_units_Z   2
loop_
 _symmetry_equiv_pos_site_id
 _symmetry_equiv_pos_as_xyz
  1  'x, y, z'
loop_
 _atom_site_type_symbol
 _atom_site_label
 _atom_site_symmetry_multiplicity
 _atom_site_fract_x
 _atom_site_fract_y
 _atom_site_fract_z
 _atom_site_occupancy
  Li  Li0  1  0.04937507  0.64409986  0.59128675  1
  Li  Li1  1  0.29350169  0.00617909  0.70789363  1
  Li  Li2  1  0.04937507  0.85590014  0.09128675  1
  Li  Li3  1  0.29350169  0.49382091  0.20789363  1
  Li  Li4  1  0.70649831  0.50617909  0.79210637  1
  Li  Li5  1  0.95062493  0.14409986  0.90871325  1
  Li  Li6  1  0.70649831  0.99382091  0.29210637  1
  Li  Li7  1  0.95062493  0.35590014  0.40871325  1
  Mn  Mn8  1  0.37399196  0.36447865  0.59899082  1
  Mn  Mn9  1  0.62600804  0.86447865  0.90100918  1
  Mn  Mn10  1  0.50000000  0.00000000  0.50000000  1
  Mn  Mn11  1  0.37399196  0.13552135  0.09899082  1
  Mn  Mn12  1  0.62600804  0.63552135  0.40100918  1
  Mn  Mn13  1  0.50000000  0.50000000  0.00000000  1
  P  P14  1  0.16189993  0.32123585  0.80361930  1
  P  P15  1  0.16189993  0.17876415  0.30361930  1
  P  P16  1  0.37823874  0.68586613  0.56463661  1
  P  P17  1  0.62176126  0.18586613  0.93536339  1
  P  P18  1  0.37823874  0.81413387  0.06463661  1
  P  P19  1  0.62176126  0.31413387  0.43536339  1
  P  P20  1  0.83810007  0.82123585  0.69638070  1
  P  P21  1  0.83810007  0.67876415  0.19638070  1
  H  H22  1  0.10410924  0.80007379  0.85185816  1
  H  H23  1  0.10410924  0.69992621  0.35185816  1
  H  H24  1  0.89589076  0.30007379  0.64814184  1
  H  H25  1  0.89589076  0.19992621  0.14814184  1
  O  O26  1  0.01363055  0.80976868  0.71293172  1
  O  O27  1  0.19960215  0.78832849  0.01699892  1
  O  O28  1  0.23079875  0.16788801  0.83059709  1
  O  O29  1  0.26391446  0.41343346  0.96294087  1
  O  O30  1  0.14816723  0.38803788  0.63318907  1
  O  O31  1  0.01363055  0.69023132  0.21293172  1
  O  O32  1  0.19960215  0.71167151  0.51699892  1
  O  O33  1  0.39280269  0.86266400  0.90260149  1
  O  O34  1  0.23079875  0.33211199  0.33059709  1
  O  O35  1  0.26391446  0.08656654  0.46294087  1
  O  O36  1  0.52677921  0.32588261  0.86740382  1
  O  O37  1  0.14816723  0.11196212  0.13318907  1
  O  O38  1  0.44900625  0.57340001  0.71068048  1
  O  O39  1  0.55099375  0.07340001  0.78931952  1
  O  O40  1  0.47322079  0.82588261  0.63259618  1
  O  O41  1  0.39280269  0.63733600  0.40260149  1
  O  O42  1  0.60719731  0.36266400  0.59739851  1
  O  O43  1  0.52677921  0.17411739  0.36740382  1
  O  O44  1  0.44900625  0.92659999  0.21068048  1
  O  O45  1  0.55099375  0.42659999  0.28931952  1
  O  O46  1  0.85183277  0.88803788  0.86681093  1
  O  O47  1  0.47322079  0.67411739  0.13259618  1
  O  O48  1  0.73608554  0.91343346  0.53705913  1
  O  O49  1  0.76920125  0.66788801  0.66940291  1
  O  O50  1  0.60719731  0.13733600  0.09739851  1
  O  O51  1  0.80039785  0.28832849  0.48300108  1
  O  O52  1  0.98636945  0.30976868  0.78706828  1
  O  O53  1  0.85183277  0.61196212  0.36681093  1
  O  O54  1  0.73608554  0.58656654  0.03705913  1
  O  O55  1  0.76920125  0.83211199  0.16940291  1
  O  O56  1  0.80039785  0.21167151  0.98300108  1
  O  O57  1  0.98636945  0.19023132  0.28706828  1
