# generated using pymatgen
data_Ni3O4
_symmetry_space_group_name_H-M   'P 1'
_cell_length_a   5.09446701
_cell_length_b   9.73681195
_cell_length_c   2.90250723
_cell_angle_alpha   98.53522281
_cell_angle_beta   90.03346836
_cell_angle_gamma   87.87338182
_symmetry_Int_Tables_number   1
_chemical_formula_structural   Ni3O4
_chemical_formula_sum   'Ni6 O8'
_cell_volume   142.28119770
_cell_formula_units_Z   2
loop_
 _symmetry_equiv_pos_site_id
 _symmetry_equiv_pos_as_xyz
  1  'x, y, z'
loop_
 _atom_site_type_symbol
 _atom_site_label
 _atom_site_symmetry_multiplicity
 _atom_site_fract_x
 _atom_site_fract_y
 _atom_site_fract_z
 _atom_site_occupancy
  Ni  Ni0  1  0.00000000  0.00000000  0.00000000  1
  Ni  Ni1  1  0.13267203  0.25245974  0.62617813  1
  Ni  Ni2  1  0.25129843  0.51438006  0.25705175  1
  Ni  Ni3  1  0.50000000  0.00000000  0.50000000  1
  Ni  Ni4  1  0.74870157  0.48561994  0.74294825  1
  Ni  Ni5  1  0.86732797  0.74754026  0.37382187  1
  O  O6  1  0.04640734  0.62089341  0.81119025  1
  O  O7  1  0.14849015  0.89694695  0.44871007  1
  O  O8  1  0.29071735  0.11508562  0.05751335  1
  O  O9  1  0.40142691  0.39842988  0.69819796  1
  O  O10  1  0.59857309  0.60157012  0.30180204  1
  O  O11  1  0.70928265  0.88491438  0.94248665  1
  O  O12  1  0.85150985  0.10305305  0.55128993  1
  O  O13  1  0.95359266  0.37910659  0.18880975  1
