# generated using pymatgen
data_Li2Mn3VO8
_symmetry_space_group_name_H-M   'P 1'
_cell_length_a   8.77373909
_cell_length_b   8.25653109
_cell_length_c   8.35979002
_cell_angle_alpha   89.99515457
_cell_angle_beta   89.89910784
_cell_angle_gamma   89.97639283
_symmetry_Int_Tables_number   1
_chemical_formula_structural   Li2Mn3VO8
_chemical_formula_sum   'Li8 Mn12 V4 O32'
_cell_volume   605.58762675
_cell_formula_units_Z   4
loop_
 _symmetry_equiv_pos_site_id
 _symmetry_equiv_pos_as_xyz
  1  'x, y, z'
loop_
 _atom_site_type_symbol
 _atom_site_label
 _atom_site_symmetry_multiplicity
 _atom_site_fract_x
 _atom_site_fract_y
 _atom_site_fract_z
 _atom_site_occupancy
  Li  Li0  1  0.00382355  0.00103978  0.99767805  1
  Li  Li1  1  0.24785145  0.25279430  0.24879080  1
  Li  Li2  1  0.25471581  0.74436504  0.75148636  1
  Li  Li3  1  0.49686863  0.00197823  0.49593740  1
  Li  Li4  1  0.50342256  0.50195836  0.00421581  1
  Li  Li5  1  0.74515087  0.24428116  0.74852953  1
  Li  Li6  1  0.75197538  0.75274054  0.25115028  1
  Li  Li7  1  0.99627445  0.50102704  0.50236497  1
  Mn  Mn8  1  0.12771661  0.13015184  0.62471601  1
  Mn  Mn9  1  0.12683525  0.37663795  0.87410097  1
  Mn  Mn10  1  0.12243663  0.62614765  0.12307304  1
  Mn  Mn11  1  0.38108888  0.37206860  0.62303142  1
  Mn  Mn12  1  0.37928878  0.62141134  0.36967482  1
  Mn  Mn13  1  0.36733393  0.87744032  0.12444478  1
  Mn  Mn14  1  0.63278738  0.37734549  0.37571290  1
  Mn  Mn15  1  0.62086017  0.12137016  0.13040681  1
  Mn  Mn16  1  0.61912219  0.87207370  0.87708669  1
  Mn  Mn17  1  0.87751446  0.12609958  0.37682330  1
  Mn  Mn18  1  0.87300286  0.87649334  0.62571099  1
  Mn  Mn19  1  0.87204887  0.62992429  0.87509764  1
  V  V20  1  0.12593998  0.87302666  0.38248371  1
  V  V21  1  0.37476735  0.12981803  0.87621191  1
  V  V22  1  0.62534188  0.62968452  0.62377790  1
  V  V23  1  0.87392942  0.37318661  0.11758411  1
  O  O24  1  0.10368207  0.11742009  0.38722672  1
  O  O25  1  0.13256441  0.88682165  0.60062208  1
  O  O26  1  0.11785121  0.61114845  0.89163959  1
  O  O27  1  0.14333313  0.13758960  0.85933244  1
  O  O28  1  0.10483956  0.39103134  0.11370791  1
  O  O29  1  0.13889385  0.36732190  0.64034458  1
  O  O30  1  0.12435114  0.63893483  0.35418389  1
  O  O31  1  0.14168871  0.86288991  0.13812485  1
  O  O32  1  0.37462920  0.14013660  0.63729077  1
  O  O33  1  0.37956485  0.35119555  0.87195548  1
  O  O34  1  0.35033395  0.63757394  0.13411358  1
  O  O35  1  0.39492850  0.60777522  0.60616491  1
  O  O36  1  0.35526600  0.86138673  0.35775521  1
  O  O37  1  0.40950708  0.38347009  0.37594563  1
  O  O38  1  0.37085449  0.10709603  0.11596024  1
  O  O39  1  0.37478223  0.89240198  0.89359918  1
  O  O40  1  0.62540435  0.39235670  0.60653765  1
  O  O41  1  0.62916503  0.60697137  0.38416147  1
  O  O42  1  0.59062286  0.88350679  0.12423427  1
  O  O43  1  0.64466686  0.36135666  0.14243945  1
  O  O44  1  0.60511293  0.10775546  0.89398465  1
  O  O45  1  0.65010470  0.13741532  0.36589374  1
  O  O46  1  0.62031019  0.85097745  0.62808348  1
  O  O47  1  0.62602050  0.64006180  0.86291173  1
  O  O48  1  0.85833985  0.36293308  0.36194199  1
  O  O49  1  0.87571298  0.13905977  0.14574515  1
  O  O50  1  0.86111925  0.86720011  0.85946704  1
  O  O51  1  0.89513111  0.89093318  0.38611144  1
  O  O52  1  0.85679470  0.63744366  0.64043473  1
  O  O53  1  0.88123855  0.11093660  0.60812547  1
  O  O54  1  0.86735391  0.38669374  0.89937361  1
  O  O55  1  0.89573350  0.61728085  0.11263488  1
