# generated using pymatgen
data_MnOF
_symmetry_space_group_name_H-M   'P 1'
_cell_length_a   4.78788442
_cell_length_b   14.13417469
_cell_length_c   3.10399755
_cell_angle_alpha   90.00000000
_cell_angle_beta   90.00000000
_cell_angle_gamma   92.24679183
_symmetry_Int_Tables_number   1
_chemical_formula_structural   MnOF
_chemical_formula_sum   'Mn6 O6 F6'
_cell_volume   209.89470520
_cell_formula_units_Z   6
loop_
 _symmetry_equiv_pos_site_id
 _symmetry_equiv_pos_as_xyz
  1  'x, y, z'
loop_
 _atom_site_type_symbol
 _atom_site_label
 _atom_site_symmetry_multiplicity
 _atom_site_fract_x
 _atom_site_fract_y
 _atom_site_fract_z
 _atom_site_occupancy
  Mn  Mn0  1  0.00000000  0.00000000  0.00000000  1
  Mn  Mn1  1  0.04730527  0.33247940  0.00000000  1
  Mn  Mn2  1  0.95269473  0.66752060  0.00000000  1
  Mn  Mn3  1  0.58961466  0.16757679  0.50000000  1
  Mn  Mn4  1  0.50000000  0.50000000  0.50000000  1
  Mn  Mn5  1  0.41038534  0.83242321  0.50000000  1
  O  O6  1  0.16727897  0.93486828  0.50000000  1
  O  O7  1  0.23744234  0.76787633  0.00000000  1
  O  O8  1  0.32369930  0.43420604  0.00000000  1
  O  O9  1  0.76255766  0.23212367  0.00000000  1
  O  O10  1  0.67630070  0.56579396  0.00000000  1
  O  O11  1  0.83272103  0.06513172  0.50000000  1
  F  F12  1  0.25972918  0.26435248  0.50000000  1
  F  F13  1  0.15712581  0.60631957  0.50000000  1
  F  F14  1  0.35751832  0.10552524  0.00000000  1
  F  F15  1  0.64248168  0.89447476  0.00000000  1
  F  F16  1  0.84287419  0.39368043  0.50000000  1
  F  F17  1  0.74027082  0.73564752  0.50000000  1
