# generated using pymatgen
data_H4CS(NO)2
_symmetry_space_group_name_H-M   'P 1'
_cell_length_a   10.15072433
_cell_length_b   10.88116700
_cell_length_c   4.03713341
_cell_angle_alpha   90.00000000
_cell_angle_beta   90.00000000
_cell_angle_gamma   90.00000000
_symmetry_Int_Tables_number   1
_chemical_formula_structural   H4CS(NO)2
_chemical_formula_sum   'H16 C4 S4 N8 O8'
_cell_volume   445.90835567
_cell_formula_units_Z   4
loop_
 _symmetry_equiv_pos_site_id
 _symmetry_equiv_pos_as_xyz
  1  'x, y, z'
loop_
 _atom_site_type_symbol
 _atom_site_label
 _atom_site_symmetry_multiplicity
 _atom_site_fract_x
 _atom_site_fract_y
 _atom_site_fract_z
 _atom_site_occupancy
  H  H0  1  0.12935213  0.75279033  0.24548275  1
  H  H1  1  0.37064787  0.25279033  0.25451725  1
  H  H2  1  0.62935213  0.24720967  0.75451725  1
  H  H3  1  0.87064787  0.74720967  0.74548275  1
  H  H4  1  0.87064787  0.24720967  0.75451725  1
  H  H5  1  0.62935213  0.74720967  0.74548275  1
  H  H6  1  0.37064787  0.75279033  0.24548275  1
  H  H7  1  0.12935213  0.25279033  0.25451725  1
  H  H8  1  0.04845569  0.61968921  0.39349281  1
  H  H9  1  0.45154431  0.11968921  0.10650719  1
  H  H10  1  0.54845569  0.38031079  0.60650719  1
  H  H11  1  0.95154431  0.88031079  0.89349281  1
  H  H12  1  0.95154431  0.38031079  0.60650719  1
  H  H13  1  0.54845569  0.88031079  0.89349281  1
  H  H14  1  0.45154431  0.61968921  0.39349281  1
  H  H15  1  0.04845569  0.11968921  0.10650719  1
  C  C16  1  0.25000000  0.61435039  0.40652912  1
  C  C17  1  0.25000000  0.11435039  0.09347088  1
  C  C18  1  0.75000000  0.38564961  0.59347088  1
  C  C19  1  0.75000000  0.88564961  0.90652912  1
  S  S20  1  0.25000000  0.96009999  0.87219128  1
  S  S21  1  0.25000000  0.46009999  0.62780872  1
  S  S22  1  0.75000000  0.03990001  0.12780872  1
  S  S23  1  0.75000000  0.53990001  0.37219128  1
  N  N24  1  0.13536121  0.66632671  0.35052814  1
  N  N25  1  0.36463879  0.16632671  0.14947186  1
  N  N26  1  0.63536121  0.33367329  0.64947186  1
  N  N27  1  0.86463879  0.83367329  0.85052814  1
  N  N28  1  0.86463879  0.33367329  0.64947186  1
  N  N29  1  0.63536121  0.83367329  0.85052814  1
  N  N30  1  0.36463879  0.66632671  0.35052814  1
  N  N31  1  0.13536121  0.16632671  0.14947186  1
  O  O32  1  0.12768902  0.90143670  0.01648638  1
  O  O33  1  0.37231098  0.40143670  0.48351362  1
  O  O34  1  0.62768902  0.09856330  0.98351362  1
  O  O35  1  0.87231098  0.59856330  0.51648638  1
  O  O36  1  0.87231098  0.09856330  0.98351362  1
  O  O37  1  0.62768902  0.59856330  0.51648638  1
  O  O38  1  0.37231098  0.90143670  0.01648638  1
  O  O39  1  0.12768902  0.40143670  0.48351362  1
