# generated using pymatgen
data_VO2
_symmetry_space_group_name_H-M   'P 1'
_cell_length_a   5.63288869
_cell_length_b   7.23922790
_cell_length_c   5.36548761
_cell_angle_alpha   70.13712851
_cell_angle_beta   58.95238149
_cell_angle_gamma   78.47307749
_symmetry_Int_Tables_number   1
_chemical_formula_structural   VO2
_chemical_formula_sum   'V5 O10'
_cell_volume   176.21444223
_cell_formula_units_Z   5
loop_
 _symmetry_equiv_pos_site_id
 _symmetry_equiv_pos_as_xyz
  1  'x, y, z'
loop_
 _atom_site_type_symbol
 _atom_site_label
 _atom_site_symmetry_multiplicity
 _atom_site_fract_x
 _atom_site_fract_y
 _atom_site_fract_z
 _atom_site_occupancy
  V  V0  1  0.00249558  0.00652937  0.01003581  1
  V  V1  1  0.49311327  0.61625146  0.71653278  1
  V  V2  1  0.50483480  0.17847273  0.88494288  1
  V  V3  1  0.50314256  0.39596566  0.29821989  1
  V  V4  1  0.99936116  0.78521826  0.58782400  1
  O  O5  1  0.68983397  0.61048830  0.91842965  1
  O  O6  1  0.78992510  0.80422987  0.39232201  1
  O  O7  1  0.79411864  0.00057018  0.78572717  1
  O  O8  1  0.68327386  0.40938841  0.52714992  1
  O  O9  1  0.74102054  0.20308007  0.11686839  1
  O  O10  1  0.20394400  0.79707867  0.81272780  1
  O  O11  1  0.30769133  0.18624255  0.68300231  1
  O  O12  1  0.25898270  0.59115317  0.48769278  1
  O  O13  1  0.20882885  0.98934486  0.20666954  1
  O  O14  1  0.31546665  0.38637347  0.07541509  1
