# generated using pymatgen
data_Li3V3P8O29
_symmetry_space_group_name_H-M   'P 1'
_cell_length_a   9.79302219
_cell_length_b   9.74019435
_cell_length_c   14.34304805
_cell_angle_alpha   90.24242861
_cell_angle_beta   90.27068451
_cell_angle_gamma   60.00726443
_symmetry_Int_Tables_number   1
_chemical_formula_structural   Li3V3P8O29
_chemical_formula_sum   'Li6 V6 P16 O58'
_cell_volume   1184.90183997
_cell_formula_units_Z   2
loop_
 _symmetry_equiv_pos_site_id
 _symmetry_equiv_pos_as_xyz
  1  'x, y, z'
loop_
 _atom_site_type_symbol
 _atom_site_label
 _atom_site_symmetry_multiplicity
 _atom_site_fract_x
 _atom_site_fract_y
 _atom_site_fract_z
 _atom_site_occupancy
  Li  Li0  1  0.92140138  0.29445541  0.54983694  1
  Li  Li1  1  0.32681878  0.90286430  0.05922532  1
  Li  Li2  1  0.31364381  0.77434508  0.55595010  1
  Li  Li3  1  0.08222790  0.69426058  0.43851428  1
  Li  Li4  1  0.08784178  0.23007671  0.94683285  1
  Li  Li5  1  0.94225365  0.97874762  0.99818454  1
  V  V6  1  0.56958721  0.43327575  0.24560930  1
  V  V7  1  0.43685673  0.55948781  0.75962421  1
  V  V8  1  0.56775232  0.00285867  0.74574708  1
  V  V9  1  0.43825696  0.00094293  0.25611404  1
  V  V10  1  0.99391448  0.57120968  0.24261498  1
  V  V11  1  0.00039207  0.43804146  0.75161713  1
  P  P12  1  0.91386894  0.78320719  0.83622749  1
  P  P13  1  0.77549043  0.91499688  0.34431512  1
  P  P14  1  0.91061663  0.31893001  0.33697631  1
  P  P15  1  0.66129720  0.66929115  0.13092742  1
  P  P16  1  0.66441337  0.66411300  0.63523078  1
  P  P17  1  0.78240375  0.30183867  0.84405175  1
  P  P18  1  0.68692707  0.22950420  0.66027787  1
  P  P19  1  0.31760300  0.91613215  0.84135300  1
  P  P20  1  0.69175678  0.08146049  0.16162104  1
  P  P21  1  0.32090024  0.76871591  0.34173511  1
  P  P22  1  0.22254037  0.69533191  0.16104770  1
  P  P23  1  0.32922640  0.34392161  0.36523524  1
  P  P24  1  0.33250385  0.32808707  0.86735909  1
  P  P25  1  0.09483478  0.67950944  0.65803603  1
  P  P26  1  0.22625530  0.08741703  0.66079247  1
  P  P27  1  0.09341843  0.22250157  0.16020105  1
  O  O28  1  0.02257954  0.74029908  0.56558675  1
  O  O29  1  0.91845760  0.74220045  0.33505693  1
  O  O30  1  0.78329210  0.00204659  0.07749707  1
  O  O31  1  0.73998289  0.91734730  0.82719056  1
  O  O32  1  0.91924703  0.61979489  0.82636893  1
  O  O33  1  0.81120400  0.67210375  0.17284763  1
  O  O34  1  0.90229225  0.47924081  0.31515461  1
  O  O35  1  0.01981665  0.21666397  0.07036587  1
  O  O36  1  0.91778324  0.34327250  0.83610175  1
  O  O37  1  0.66026456  0.81571232  0.67672811  1
  O  O38  1  0.62149176  0.90563178  0.32345767  1
  O  O39  1  0.81876803  0.51878805  0.67899247  1
  O  O40  1  0.65790386  0.66871603  0.02749629  1
  O  O41  1  0.66626687  0.65651159  0.53196310  1
  O  O42  1  0.67020984  0.51740702  0.17559884  1
  O  O43  1  0.47346255  0.91441858  0.82467940  1
  O  O44  1  0.51078742  0.81501313  0.17324443  1
  O  O45  1  0.74284779  0.34130212  0.32800007  1
  O  O46  1  0.79761345  0.20455267  0.75012505  1
  O  O47  1  0.76562682  0.24056020  0.57554188  1
  O  O48  1  0.80563200  0.20418719  0.92749324  1
  O  O49  1  0.61979802  0.46018869  0.83303466  1
  O  O50  1  0.52080469  0.65943641  0.67958981  1
  O  O51  1  0.65073803  0.25782172  0.16869683  1
  O  O52  1  0.47947241  0.61827022  0.32185689  1
  O  O53  1  0.34438686  0.91446775  0.33404411  1
  O  O54  1  0.79534901  0.00090901  0.25369263  1
  O  O55  1  0.77220348  0.99463704  0.43214817  1
  O  O56  1  0.22992535  0.99190772  0.57911565  1
  O  O57  1  0.65728789  0.08731329  0.66509841  1
  O  O58  1  0.52612919  0.38128135  0.68292002  1
  O  O59  1  0.34625989  0.74429330  0.83359984  1
  O  O60  1  0.47017731  0.34946973  0.31782022  1
  O  O61  1  0.38354455  0.54102046  0.16700762  1
  O  O62  1  0.20220601  0.80382979  0.08255557  1
  O  O63  1  0.24709105  0.76089280  0.43150561  1
  O  O64  1  0.20138517  0.78846335  0.25917771  1
  O  O65  1  0.26232623  0.65893280  0.66732093  1
  O  O66  1  0.48040733  0.18765732  0.82079877  1
  O  O67  1  0.53670023  0.07658820  0.17422093  1
  O  O68  1  0.32787799  0.48202316  0.82630287  1
  O  O69  1  0.32467225  0.32531176  0.97041491  1
  O  O70  1  0.32976868  0.34458488  0.46850714  1
  O  O71  1  0.17555437  0.48903582  0.32497070  1
  O  O72  1  0.37997968  0.09418997  0.67508490  1
  O  O73  1  0.33963714  0.18791490  0.32088288  1
  O  O74  1  0.08639816  0.65660302  0.16525697  1
  O  O75  1  0.99496253  0.79749312  0.74120147  1
  O  O76  1  0.99298940  0.80070765  0.91936323  1
  O  O77  1  0.10168386  0.51944935  0.68252202  1
  O  O78  1  0.18360863  0.32380299  0.82531042  1
  O  O79  1  0.09248637  0.38203774  0.17410831  1
  O  O80  1  0.26455335  0.08029121  0.16608444  1
  O  O81  1  0.23816302  0.99509000  0.93106828  1
  O  O82  1  0.20189250  0.01164621  0.75623501  1
  O  O83  1  0.08059292  0.25829542  0.66083679  1
  O  O84  1  0.98916913  0.24980592  0.42692054  1
  O  O85  1  0.00582449  0.20390669  0.24986682  1
