# generated using pymatgen
data_La2Nb2N2O5
_symmetry_space_group_name_H-M   'P 1'
_cell_length_a   8.02746813
_cell_length_b   13.76058174
_cell_length_c   5.71193327
_cell_angle_alpha   90.03465112
_cell_angle_beta   90.12351205
_cell_angle_gamma   98.38113707
_symmetry_Int_Tables_number   1
_chemical_formula_structural   La2Nb2N2O5
_chemical_formula_sum   'La8 Nb8 N8 O20'
_cell_volume   624.21509344
_cell_formula_units_Z   4
loop_
 _symmetry_equiv_pos_site_id
 _symmetry_equiv_pos_as_xyz
  1  'x, y, z'
loop_
 _atom_site_type_symbol
 _atom_site_label
 _atom_site_symmetry_multiplicity
 _atom_site_fract_x
 _atom_site_fract_y
 _atom_site_fract_z
 _atom_site_occupancy
  La  La0  1  0.13525280  0.57136958  0.34095234  1
  La  La1  1  0.22311631  0.90793938  0.76103239  1
  La  La2  1  0.28066690  0.12257744  0.25304895  1
  La  La3  1  0.35181041  0.38912630  0.77967973  1
  La  La4  1  0.66086018  0.60847242  0.27412829  1
  La  La5  1  0.72494678  0.87867696  0.74773852  1
  La  La6  1  0.77597932  0.09575705  0.26251280  1
  La  La7  1  0.85901424  0.43177924  0.83792156  1
  Nb  Nb8  1  0.06343797  0.31610289  0.27919939  1
  Nb  Nb9  1  0.01952089  0.11793823  0.75194582  1
  Nb  Nb10  1  0.40106385  0.67487309  0.78334256  1
  Nb  Nb11  1  0.47279928  0.88572855  0.25870466  1
  Nb  Nb12  1  0.53444204  0.12258476  0.75080819  1
  Nb  Nb13  1  0.59088117  0.32134056  0.29075277  1
  Nb  Nb14  1  0.97056732  0.88138084  0.24263702  1
  Nb  Nb15  1  0.92459420  0.67286863  0.78782210  1
  N  N16  1  0.03050062  0.18414809  0.45122553  1
  N  N17  1  0.18043181  0.69873043  0.68920135  1
  N  N18  1  0.56361412  0.18081377  0.44530043  1
  N  N19  1  0.87141590  0.57088459  0.55910627  1
  N  N20  1  0.77486236  0.10414779  0.81954757  1
  N  N21  1  0.82630621  0.30381746  0.19353665  1
  N  N22  1  0.97646849  0.82130095  0.94947123  1
  N  N23  1  0.91337427  0.58678690  0.05055801  1
  O  O24  1  0.08703534  0.40710810  0.54600101  1
  O  O25  1  0.22628842  0.88998973  0.32444081  1
  O  O26  1  0.13536636  0.42576601  0.05472041  1
  O  O27  1  0.04901483  0.01940736  0.04990354  1
  O  O28  1  0.11831309  0.22465509  0.96503981  1
  O  O29  1  0.37601876  0.61257641  0.07680732  1
  O  O30  1  0.43585452  0.82148769  0.94609720  1
  O  O31  1  0.27411983  0.08254537  0.67763696  1
  O  O32  1  0.33171993  0.30585635  0.34307973  1
  O  O33  1  0.41006116  0.55905840  0.58521116  1
  O  O34  1  0.53257591  0.97787635  0.53076869  1
  O  O35  1  0.50196656  0.77601405  0.45241386  1
  O  O36  1  0.49566535  0.22883365  0.95582468  1
  O  O37  1  0.45943519  0.01571869  0.04317187  1
  O  O38  1  0.58602765  0.43587824  0.07414760  1
  O  O39  1  0.67240290  0.70179425  0.84736892  1
  O  O40  1  0.72683623  0.91464218  0.17610870  1
  O  O41  1  0.62023830  0.38966933  0.57614143  1
  O  O42  1  0.87526626  0.77966710  0.45089903  1
  O  O43  1  0.95986898  0.98231173  0.54902214  1
