# generated using pymatgen
data_K2SO3
_symmetry_space_group_name_H-M   'P 1'
_cell_length_a   6.03599801
_cell_length_b   6.03599801
_cell_length_c   7.11659089
_cell_angle_alpha   90.00000000
_cell_angle_beta   90.00000000
_cell_angle_gamma   120.00000006
_symmetry_Int_Tables_number   1
_chemical_formula_structural   K2SO3
_chemical_formula_sum   'K4 S2 O6'
_cell_volume   224.54366533
_cell_formula_units_Z   2
loop_
 _symmetry_equiv_pos_site_id
 _symmetry_equiv_pos_as_xyz
  1  'x, y, z'
loop_
 _atom_site_type_symbol
 _atom_site_label
 _atom_site_symmetry_multiplicity
 _atom_site_fract_x
 _atom_site_fract_y
 _atom_site_fract_z
 _atom_site_occupancy
  O  O0  1  0.39573973  0.19786987  0.73225484  1
  O  O1  1  0.80213013  0.19786987  0.73225484  1
  O  O2  1  0.80213013  0.60426027  0.73225484  1
  O  O3  1  0.19786987  0.39573973  0.26774516  1
  O  O4  1  0.60426027  0.80213013  0.26774516  1
  O  O5  1  0.19786987  0.80213013  0.26774516  1
  S  S6  1  0.33333333  0.66666667  0.18129116  1
  S  S7  1  0.66666667  0.33333333  0.81870884  1
  K  K8  1  0.33333333  0.66666667  0.67734571  1
  K  K9  1  0.66666667  0.33333333  0.32265429  1
  K  K10  1  0.00000000  0.00000000  0.50000000  1
  K  K11  1  0.00000000  0.00000000  0.00000000  1
