# generated using pymatgen
data_Li5Fe4(P2O7)4
_symmetry_space_group_name_H-M   'P 1'
_cell_length_a   9.78187097
_cell_length_b   9.83334769
_cell_length_c   11.12405406
_cell_angle_alpha   89.94449587
_cell_angle_beta   101.73463522
_cell_angle_gamma   90.16054074
_symmetry_Int_Tables_number   1
_chemical_formula_structural   Li5Fe4(P2O7)4
_chemical_formula_sum   'Li10 Fe8 P16 O56'
_cell_volume   1047.63921508
_cell_formula_units_Z   2
loop_
 _symmetry_equiv_pos_site_id
 _symmetry_equiv_pos_as_xyz
  1  'x, y, z'
loop_
 _atom_site_type_symbol
 _atom_site_label
 _atom_site_symmetry_multiplicity
 _atom_site_fract_x
 _atom_site_fract_y
 _atom_site_fract_z
 _atom_site_occupancy
  Li  Li0  1  0.08762982  0.11093978  0.02503394  1
  Li  Li1  1  0.40974003  0.61099423  0.97498245  1
  Li  Li2  1  0.38713493  0.20629226  0.54640040  1
  Li  Li3  1  0.61000460  0.79683412  0.45978302  1
  Li  Li4  1  0.58996750  0.39625085  0.03244783  1
  Li  Li5  1  0.85727671  0.58978574  0.95467955  1
  Li  Li6  1  0.64429161  0.09153964  0.04792059  1
  Li  Li7  1  0.90921175  0.89428116  0.96812583  1
  Li  Li8  1  0.87430101  0.56152993  0.49071247  1
  Li  Li9  1  0.88513438  0.27965469  0.54459308  1
  Fe  Fe10  1  0.20924078  0.91641680  0.66550707  1
  Fe  Fe11  1  0.24882321  0.20141989  0.82093599  1
  Fe  Fe12  1  0.25130698  0.70645313  0.17717108  1
  Fe  Fe13  1  0.28977400  0.42317765  0.33109461  1
  Fe  Fe14  1  0.70042460  0.57687095  0.67733802  1
  Fe  Fe15  1  0.75385800  0.28450833  0.82584195  1
  Fe  Fe16  1  0.74689218  0.78369654  0.17651225  1
  Fe  Fe17  1  0.79359130  0.07056926  0.32873776  1
  P  P18  1  0.02157088  0.45087703  0.74991074  1
  P  P19  1  0.11953008  0.71099274  0.88243544  1
  P  P20  1  0.05960292  0.92478807  0.23643439  1
  P  P21  1  0.12403671  0.14329649  0.42566620  1
  P  P22  1  0.37527988  0.64508958  0.57235689  1
  P  P23  1  0.43854954  0.42701087  0.76240410  1
  P  P24  1  0.52630608  0.05298444  0.75856618  1
  P  P25  1  0.37974222  0.21167879  0.11683591  1
  P  P26  1  0.61571561  0.79404124  0.88364441  1
  P  P27  1  0.47254498  0.94820951  0.24638054  1
  P  P28  1  0.56113841  0.57592854  0.24289811  1
  P  P29  1  0.62271533  0.35159960  0.42432381  1
  P  P30  1  0.87859397  0.85525366  0.57342620  1
  P  P31  1  0.93765052  0.07549864  0.75706067  1
  P  P32  1  0.88262686  0.29100756  0.11806186  1
  P  P33  1  0.97466053  0.55179556  0.24133965  1
  O  O34  1  0.00316813  0.43227531  0.61350275  1
  O  O35  1  0.03129081  0.84961453  0.56483991  1
  O  O36  1  0.09142224  0.08104603  0.73468936  1
  O  O37  1  0.11070264  0.58752552  0.78542937  1
  O  O38  1  0.10618382  0.34010107  0.83014926  1
  O  O39  1  0.17976797  0.82704663  0.81859561  1
  O  O40  1  0.22272314  0.66187731  0.00140301  1
  O  O41  1  0.02152137  0.26111565  0.09007999  1
  O  O42  1  0.12873375  0.05948836  0.30355084  1
  O  O43  1  0.05758723  0.94198532  0.10159079  1
  O  O44  1  0.13046623  0.53448162  0.22289809  1
  O  O45  1  0.19060862  0.28061341  0.40594350  1
  O  O46  1  0.15516823  0.80465606  0.28614659  1
  O  O47  1  0.21495024  0.07142636  0.53499275  1
  O  O48  1  0.29501424  0.56299123  0.46572767  1
  O  O49  1  0.34654098  0.30447046  0.70737604  1
  O  O50  1  0.31584976  0.78291619  0.59465069  1
  O  O51  1  0.36918770  0.03577737  0.77725301  1
  O  O52  1  0.37044760  0.56131727  0.69683693  1
  O  O53  1  0.43765011  0.43910511  0.89685569  1
  O  O54  1  0.47635919  0.76106463  0.90855442  1
  O  O55  1  0.27433114  0.16556430  0.99736844  1
  O  O56  1  0.32178646  0.32861729  0.18166545  1
  O  O57  1  0.38710952  0.08808829  0.21271078  1
  O  O58  1  0.40747002  0.58467036  0.26447518  1
  O  O59  1  0.39241181  0.84216575  0.15569685  1
  O  O60  1  0.47050064  0.33915739  0.43799262  1
  O  O61  1  0.53440085  0.09912764  0.63250573  1
  O  O62  1  0.47677251  0.91942171  0.37823279  1
  O  O63  1  0.53339229  0.65791379  0.56916144  1
  O  O64  1  0.60821262  0.13784454  0.86573915  1
  O  O65  1  0.58794174  0.41808184  0.73257489  1
  O  O66  1  0.59749080  0.90375413  0.77346430  1
  O  O67  1  0.69077616  0.67321229  0.83179788  1
  O  O68  1  0.71987037  0.85663079  0.99543590  1
  O  O69  1  0.52170230  0.23368189  0.08915564  1
  O  O70  1  0.56835590  0.57223094  0.10901174  1
  O  O71  1  0.61927657  0.43162152  0.29707503  1
  O  O72  1  0.62221243  0.97252612  0.21477800  1
  O  O73  1  0.69506955  0.21776716  0.40736941  1
  O  O74  1  0.65571963  0.68759157  0.31126256  1
  O  O75  1  0.71571683  0.43743537  0.52566876  1
  O  O76  1  0.78378731  0.92834528  0.46651744  1
  O  O77  1  0.84925656  0.19360541  0.69408768  1
  O  O78  1  0.81441036  0.71394099  0.59209427  1
  O  O79  1  0.87551969  0.47356873  0.78826942  1
  O  O80  1  0.93125584  0.06799583  0.89076728  1
  O  O81  1  0.87109043  0.93610294  0.69777013  1
  O  O82  1  0.97684104  0.73319478  0.90891680  1
  O  O83  1  0.77748735  0.35388710  0.00634829  1
  O  O84  1  0.80954439  0.17027498  0.17162514  1
  O  O85  1  0.89302146  0.63729885  0.13465287  1
  O  O86  1  0.90235283  0.40196037  0.22684938  1
  O  O87  1  0.91138657  0.91574252  0.26765972  1
  O  O88  1  0.96906341  0.15480649  0.43394385  1
  O  O89  1  0.96480174  0.59617528  0.36672394  1
