# generated using pymatgen
data_Li4V3P8O29
_symmetry_space_group_name_H-M   'P 1'
_cell_length_a   9.77116264
_cell_length_b   9.78637671
_cell_length_c   14.15848648
_cell_angle_alpha   90.24346915
_cell_angle_beta   90.21434643
_cell_angle_gamma   59.87096980
_symmetry_Int_Tables_number   1
_chemical_formula_structural   Li4V3P8O29
_chemical_formula_sum   'Li8 V6 P16 O58'
_cell_volume   1170.96745624
_cell_formula_units_Z   2
loop_
 _symmetry_equiv_pos_site_id
 _symmetry_equiv_pos_as_xyz
  1  'x, y, z'
loop_
 _atom_site_type_symbol
 _atom_site_label
 _atom_site_symmetry_multiplicity
 _atom_site_fract_x
 _atom_site_fract_y
 _atom_site_fract_z
 _atom_site_occupancy
  Li  Li0  1  0.77233059  0.90491869  0.55446257  1
  Li  Li1  1  0.91727174  0.31160460  0.56083161  1
  Li  Li2  1  0.76480074  0.33377908  0.05934326  1
  Li  Li3  1  0.32990608  0.90727221  0.06178424  1
  Li  Li4  1  0.68423988  0.22532666  0.43869415  1
  Li  Li5  1  0.30673823  0.77792056  0.55559884  1
  Li  Li6  1  0.23053134  0.66949788  0.94450842  1
  Li  Li7  1  0.95210054  0.01007013  0.00100187  1
  V  V8  1  0.56828377  0.43321458  0.25078949  1
  V  V9  1  0.43241488  0.56739737  0.74711190  1
  V  V10  1  0.56458500  0.00065522  0.75575704  1
  V  V11  1  0.43457876  0.00226027  0.24909422  1
  V  V12  1  0.99478215  0.56894500  0.24646929  1
  V  V13  1  0.00490631  0.43427454  0.75403787  1
  P  P14  1  0.91811300  0.77686874  0.84072672  1
  P  P15  1  0.77212805  0.91132355  0.33946398  1
  P  P16  1  0.91549690  0.31848651  0.34603946  1
  P  P17  1  0.66544470  0.66594428  0.12823578  1
  P  P18  1  0.66854431  0.66806345  0.63209417  1
  P  P19  1  0.77399728  0.31534869  0.84148327  1
  P  P20  1  0.68102365  0.22740049  0.66076470  1
  P  P21  1  0.31315716  0.91312110  0.84513045  1
  P  P22  1  0.69308911  0.08464569  0.15733065  1
  P  P23  1  0.31955170  0.77236527  0.33965392  1
  P  P24  1  0.22542563  0.68544323  0.16037000  1
  P  P25  1  0.33190907  0.33526515  0.36788643  1
  P  P26  1  0.33351879  0.33485201  0.87044811  1
  P  P27  1  0.08387005  0.68474567  0.65501353  1
  P  P28  1  0.22827427  0.08596284  0.66212907  1
  P  P29  1  0.08207072  0.22313944  0.16156439  1
  O  O30  1  0.98990819  0.76554822  0.57033453  1
  O  O31  1  0.91514056  0.74315755  0.33415902  1
  O  O32  1  0.79287725  0.00369880  0.07477119  1
  O  O33  1  0.74402049  0.91371523  0.83448758  1
  O  O34  1  0.92054431  0.61690942  0.83045861  1
  O  O35  1  0.81056879  0.67164468  0.17542894  1
  O  O36  1  0.90256718  0.47905425  0.32064755  1
  O  O37  1  0.98973804  0.20743118  0.08233084  1
  O  O38  1  0.91541760  0.34513581  0.82812828  1
  O  O39  1  0.66763831  0.81789915  0.67600231  1
  O  O40  1  0.61920589  0.90351714  0.31950520  1
  O  O41  1  0.81729587  0.51896618  0.67550525  1
  O  O42  1  0.66658403  0.66833586  0.02327783  1
  O  O43  1  0.67422182  0.66918482  0.52716096  1
  O  O44  1  0.67607221  0.51130162  0.16667898  1
  O  O45  1  0.47384739  0.90825843  0.82700596  1
  O  O46  1  0.51081366  0.81426198  0.16847460  1
  O  O47  1  0.74877441  0.33477398  0.33949838  1
  O  O48  1  0.79137743  0.20451792  0.75117266  1
  O  O49  1  0.75715330  0.23989914  0.57183195  1
  O  O50  1  0.79293267  0.22891688  0.93132971  1
  O  O51  1  0.61722041  0.47007452  0.82903074  1
  O  O52  1  0.51568795  0.67041280  0.66971920  1
  O  O53  1  0.65575517  0.25927159  0.16346237  1
  O  O54  1  0.47983666  0.61952223  0.31915820  1
  O  O55  1  0.34520980  0.91610528  0.32832084  1
  O  O56  1  0.79105969  0.00754891  0.25454564  1
  O  O57  1  0.75670424  0.99802002  0.43004800  1
  O  O58  1  0.23539662  0.99148121  0.57878850  1
  O  O59  1  0.66207077  0.07938007  0.66120263  1
  O  O60  1  0.51922716  0.37815036  0.67903119  1
  O  O61  1  0.33850661  0.74383985  0.83496598  1
  O  O62  1  0.48633480  0.33132242  0.33283141  1
  O  O63  1  0.38046244  0.52923597  0.17076808  1
  O  O64  1  0.21751298  0.77615991  0.07251520  1
  O  O65  1  0.24961325  0.76662196  0.43040616  1
  O  O66  1  0.20477053  0.79341928  0.25187476  1
  O  O67  1  0.25314170  0.66163667  0.65621170  1
  O  O68  1  0.48373201  0.18647579  0.82465590  1
  O  O69  1  0.53803122  0.07895338  0.16863774  1
  O  O70  1  0.32465614  0.48866452  0.83323287  1
  O  O71  1  0.32934536  0.32749754  0.97459334  1
  O  O72  1  0.32796072  0.32714127  0.47203080  1
  O  O73  1  0.18426031  0.47531011  0.31916327  1
  O  O74  1  0.38282395  0.09146356  0.68033070  1
  O  O75  1  0.34178274  0.18228232  0.31790882  1
  O  O76  1  0.08252063  0.65804018  0.16635322  1
  O  O77  1  0.00096457  0.79385892  0.74755218  1
  O  O78  1  0.00329307  0.79082304  0.92452600  1
  O  O79  1  0.09398279  0.52426301  0.67750365  1
  O  O80  1  0.18826880  0.32924441  0.82238682  1
  O  O81  1  0.07812530  0.38320315  0.16898409  1
  O  O82  1  0.25727425  0.08449027  0.15967426  1
  O  O83  1  0.23989259  0.98439683  0.93724361  1
  O  O84  1  0.20194516  0.01081065  0.75821669  1
  O  O85  1  0.08396651  0.25662324  0.66151424  1
  O  O86  1  0.99394267  0.25282358  0.43753955  1
  O  O87  1  0.01471468  0.20072704  0.26074592  1
