# generated using pymatgen
data_Li35(FeO4)8
_symmetry_space_group_name_H-M   'P 1'
_cell_length_a   9.43769175
_cell_length_b   9.18812665
_cell_length_c   9.26759723
_cell_angle_alpha   90.03934521
_cell_angle_beta   90.25285503
_cell_angle_gamma   89.82815025
_symmetry_Int_Tables_number   1
_chemical_formula_structural   Li35(FeO4)8
_chemical_formula_sum   'Li35 Fe8 O32'
_cell_volume   803.62535656
_cell_formula_units_Z   1
loop_
 _symmetry_equiv_pos_site_id
 _symmetry_equiv_pos_as_xyz
  1  'x, y, z'
loop_
 _atom_site_type_symbol
 _atom_site_label
 _atom_site_symmetry_multiplicity
 _atom_site_fract_x
 _atom_site_fract_y
 _atom_site_fract_z
 _atom_site_occupancy
  Li  Li0  1  0.10053189  0.62660855  0.13614784  1
  Li  Li1  1  0.10154465  0.87603307  0.63824074  1
  Li  Li2  1  0.11588604  0.38514108  0.33202569  1
  Li  Li3  1  0.11369510  0.84700599  0.36227299  1
  Li  Li4  1  0.11496713  0.64765357  0.85474847  1
  Li  Li5  1  0.16022756  0.11874817  0.41262968  1
  Li  Li6  1  0.15730206  0.37015370  0.91596471  1
  Li  Li7  1  0.33539833  0.88292440  0.91632568  1
  Li  Li8  1  0.33757744  0.61855151  0.41551113  1
  Li  Li9  1  0.36830489  0.15411022  0.85728407  1
  Li  Li10  1  0.38410771  0.34431562  0.36055994  1
  Li  Li11  1  0.38244562  0.61079821  0.83252927  1
  Li  Li12  1  0.38227316  0.88937111  0.33106557  1
  Li  Li13  1  0.39961512  0.13125013  0.13662576  1
  Li  Li14  1  0.40277183  0.37709338  0.63106596  1
  Li  Li15  1  0.61293744  0.61607782  0.36083738  1
  Li  Li16  1  0.61134336  0.88497231  0.86486211  1
  Li  Li17  1  0.60878953  0.11399239  0.65542189  1
  Li  Li18  1  0.60817245  0.38617921  0.15418872  1
  Li  Li19  1  0.62147242  0.64942730  0.62772567  1
  Li  Li20  1  0.61977241  0.84768595  0.13058874  1
  Li  Li21  1  0.64875276  0.62035934  0.89721502  1
  Li  Li22  1  0.64872974  0.87832035  0.39323542  1
  Li  Li23  1  0.66301891  0.11650676  0.10216959  1
  Li  Li24  1  0.66278808  0.38542101  0.60425609  1
  Li  Li25  1  0.83529352  0.61154436  0.10775860  1
  Li  Li26  1  0.83675566  0.88248735  0.59849751  1
  Li  Li27  1  0.85039815  0.37808240  0.39606056  1
  Li  Li28  1  0.86713006  0.12550454  0.89511954  1
  Li  Li29  1  0.87773444  0.15283698  0.62865988  1
  Li  Li30  1  0.87752138  0.34959147  0.13179883  1
  Li  Li31  1  0.89462424  0.60912823  0.65267684  1
  Li  Li32  1  0.88945489  0.88903371  0.15818453  1
  Li  Li33  1  0.88821772  0.11685847  0.36039085  1
  Li  Li34  1  0.88817432  0.38372934  0.86414163  1
  Fe  Fe35  1  0.12436916  0.12895852  0.11888233  1
  Fe  Fe36  1  0.12717134  0.36949409  0.62190588  1
  Fe  Fe37  1  0.37616696  0.62995404  0.12090702  1
  Fe  Fe38  1  0.37621098  0.87023590  0.62146320  1
  Fe  Fe39  1  0.61792867  0.14844197  0.37829727  1
  Fe  Fe40  1  0.61724405  0.35055936  0.87811086  1
  Fe  Fe41  1  0.88295901  0.64947564  0.37978497  1
  Fe  Fe42  1  0.88241114  0.85126996  0.87772625  1
  O  O43  1  0.00602485  0.26490074  0.49637190  1
  O  O44  1  0.00334058  0.24212338  0.00512844  1
  O  O45  1  0.02577279  0.01742492  0.25240499  1
  O  O46  1  0.02567138  0.47872671  0.75220466  1
  O  O47  1  0.25666884  0.05604816  0.00224175  1
  O  O48  1  0.24999747  0.44248432  0.48802476  1
  O  O49  1  0.24143360  0.22412900  0.24864638  1
  O  O50  1  0.25363093  0.29636249  0.74587781  1
  O  O51  1  0.25878592  0.72442518  0.24698492  1
  O  O52  1  0.25869483  0.77624700  0.74758990  1
  O  O53  1  0.24654458  0.56050286  0.99154555  1
  O  O54  1  0.24868592  0.94150699  0.49076089  1
  O  O55  1  0.47361696  0.51899440  0.25273963  1
  O  O56  1  0.47433090  0.97973570  0.75280441  1
  O  O57  1  0.49629216  0.76611161  0.49572152  1
  O  O58  1  0.49577571  0.73511689  0.99524193  1
  O  O59  1  0.51807635  0.23622024  0.00543058  1
  O  O60  1  0.51977481  0.26374799  0.50743471  1
  O  O61  1  0.53550542  0.00643796  0.25063325  1
  O  O62  1  0.53741842  0.49625256  0.75172133  1
  O  O63  1  0.74345413  0.03673028  0.49831550  1
  O  O64  1  0.74137707  0.46217332  0.00076252  1
  O  O65  1  0.74684547  0.25107923  0.25897852  1
  O  O66  1  0.74883398  0.25005369  0.75954524  1
  O  O67  1  0.75238674  0.75024461  0.25779845  1
  O  O68  1  0.75918033  0.74548484  0.76197167  1
  O  O69  1  0.75699168  0.53871520  0.49965160  1
  O  O70  1  0.76395134  0.96311938  0.99869871  1
  O  O71  1  0.94738091  0.98364631  0.75085917  1
  O  O72  1  0.96611598  0.50899785  0.25264399  1
  O  O73  1  0.97268841  0.73323641  0.00298375  1
  O  O74  1  0.98304620  0.76282030  0.50934485  1
