# generated using pymatgen
data_Li4V3P8O29
_symmetry_space_group_name_H-M   'P 1'
_cell_length_a   9.79349738
_cell_length_b   9.78406993
_cell_length_c   14.13026242
_cell_angle_alpha   89.79403776
_cell_angle_beta   90.26564577
_cell_angle_gamma   59.87728604
_symmetry_Int_Tables_number   1
_chemical_formula_structural   Li4V3P8O29
_chemical_formula_sum   'Li8 V6 P16 O58'
_cell_volume   1171.07583098
_cell_formula_units_Z   2
loop_
 _symmetry_equiv_pos_site_id
 _symmetry_equiv_pos_as_xyz
  1  'x, y, z'
loop_
 _atom_site_type_symbol
 _atom_site_label
 _atom_site_symmetry_multiplicity
 _atom_site_fract_x
 _atom_site_fract_y
 _atom_site_fract_z
 _atom_site_occupancy
  Li  Li0  1  0.91318971  0.77012206  0.06252566  1
  Li  Li1  1  0.77268357  0.32278768  0.05819924  1
  Li  Li2  1  0.30797725  0.91397561  0.06009421  1
  Li  Li3  1  0.66965113  0.23306204  0.43794210  1
  Li  Li4  1  0.33088139  0.76103469  0.55910280  1
  Li  Li5  1  0.68285620  0.08997348  0.93983258  1
  Li  Li6  1  0.23251625  0.10135665  0.43975567  1
  Li  Li7  1  0.97564832  0.97104486  0.49534513  1
  V  V8  1  0.56675410  0.43525165  0.24937467  1
  V  V9  1  0.43105899  0.56481108  0.75378378  1
  V  V10  1  0.56970401  0.99216369  0.74483263  1
  V  V11  1  0.43255901  0.00129235  0.24888578  1
  V  V12  1  0.00504925  0.56208157  0.25701596  1
  V  V13  1  0.99817639  0.43734225  0.74713445  1
  P  P14  1  0.91407036  0.76973983  0.84385964  1
  P  P15  1  0.77688525  0.91432125  0.33832897  1
  P  P16  1  0.91818786  0.30595518  0.34161361  1
  P  P17  1  0.67030969  0.66699595  0.13125477  1
  P  P18  1  0.66281508  0.66449035  0.62933650  1
  P  P19  1  0.77437063  0.31738973  0.83834171  1
  P  P20  1  0.68429557  0.22756121  0.65742800  1
  P  P21  1  0.31994879  0.91056942  0.84251461  1
  P  P22  1  0.67880559  0.08884513  0.15622555  1
  P  P23  1  0.31526166  0.77298025  0.34499557  1
  P  P24  1  0.22656452  0.68605079  0.16342034  1
  P  P25  1  0.33631601  0.32884260  0.37236207  1
  P  P26  1  0.33627447  0.32661453  0.86862379  1
  P  P27  1  0.08300878  0.69617932  0.65934497  1
  P  P28  1  0.22476746  0.08927077  0.66104984  1
  P  P29  1  0.08286924  0.23293731  0.15607311  1
  O  O30  1  0.00179638  0.79845665  0.57664326  1
  O  O31  1  0.91635649  0.74105746  0.33431791  1
  O  O32  1  0.74910195  0.00086298  0.06602863  1
  O  O33  1  0.74441445  0.91691942  0.83550004  1
  O  O34  1  0.90575729  0.61842359  0.82056205  1
  O  O35  1  0.81758434  0.66864930  0.17664220  1
  O  O36  1  0.91747962  0.46524388  0.33021946  1
  O  O37  1  0.99036153  0.24588030  0.06998411  1
  O  O38  1  0.91656197  0.34327551  0.83375489  1
  O  O39  1  0.66665258  0.81282750  0.67512434  1
  O  O40  1  0.61870624  0.91959534  0.33209493  1
  O  O41  1  0.81071384  0.51745488  0.67463239  1
  O  O42  1  0.67593656  0.66764262  0.02565404  1
  O  O43  1  0.65820711  0.67441857  0.52472412  1
  O  O44  1  0.67329192  0.51338543  0.16960603  1
  O  O45  1  0.47872377  0.90288658  0.82033785  1
  O  O46  1  0.51679721  0.81448784  0.17011123  1
  O  O47  1  0.74526887  0.33980910  0.33833140  1
  O  O48  1  0.79480891  0.20739272  0.74826407  1
  O  O49  1  0.76583963  0.21327483  0.56647332  1
  O  O50  1  0.76060141  0.24177364  0.92744016  1
  O  O51  1  0.61999331  0.47818222  0.82055369  1
  O  O52  1  0.50982047  0.67138544  0.66896826  1
  O  O53  1  0.66264282  0.25433133  0.15742172  1
  O  O54  1  0.47169519  0.61897466  0.33093993  1
  O  O55  1  0.34033508  0.91795999  0.33330562  1
  O  O56  1  0.79720224  0.99207417  0.24129282  1
  O  O57  1  0.79673649  0.00321042  0.41804884  1
  O  O58  1  0.22743823  0.00261410  0.57317790  1
  O  O59  1  0.65150951  0.08835952  0.67000881  1
  O  O60  1  0.52936373  0.38513673  0.67226349  1
  O  O61  1  0.34515809  0.74110837  0.83144641  1
  O  O62  1  0.48904369  0.32206198  0.33406815  1
  O  O63  1  0.38075710  0.52456208  0.18056878  1
  O  O64  1  0.23407055  0.77160521  0.07851438  1
  O  O65  1  0.23166359  0.78969302  0.43617514  1
  O  O66  1  0.20136114  0.78844001  0.25804839  1
  O  O67  1  0.25876794  0.65753976  0.66381773  1
  O  O68  1  0.48604167  0.17688049  0.82994769  1
  O  O69  1  0.51821046  0.10202372  0.17828439  1
  O  O70  1  0.34258775  0.47402535  0.82177431  1
  O  O71  1  0.33755559  0.33471278  0.97309344  1
  O  O72  1  0.32519160  0.33487612  0.47751570  1
  O  O73  1  0.18915482  0.48208127  0.32463466  1
  O  O74  1  0.38207198  0.09062422  0.67431982  1
  O  O75  1  0.32234682  0.18748635  0.33216524  1
  O  O76  1  0.08294915  0.65983677  0.16330905  1
  O  O77  1  0.00901293  0.78979805  0.75742322  1
  O  O78  1  0.98837002  0.76261579  0.93634120  1
  O  O79  1  0.07789379  0.54016082  0.66948753  1
  O  O80  1  0.18588823  0.33856457  0.82011938  1
  O  O81  1  0.09152439  0.38386931  0.17908817  1
  O  O82  1  0.25151513  0.08669790  0.15777764  1
  O  O83  1  0.25042217  0.98718092  0.93341453  1
  O  O84  1  0.20503027  0.00415857  0.75350597  1
  O  O85  1  0.08493526  0.26005499  0.66479135  1
  O  O86  1  0.00624767  0.20911156  0.42582291  1
  O  O87  1  0.99771047  0.20753099  0.24741357  1
