# generated using pymatgen
data_Li2Mn3(BO3)3
_symmetry_space_group_name_H-M   'P 1'
_cell_length_a   11.78264526
_cell_length_b   5.29341945
_cell_length_c   6.20144561
_cell_angle_alpha   87.45505727
_cell_angle_beta   95.52276042
_cell_angle_gamma   100.99509546
_symmetry_Int_Tables_number   1
_chemical_formula_structural   Li2Mn3(BO3)3
_chemical_formula_sum   'Li4 Mn6 B6 O18'
_cell_volume   377.79030536
_cell_formula_units_Z   2
loop_
 _symmetry_equiv_pos_site_id
 _symmetry_equiv_pos_as_xyz
  1  'x, y, z'
loop_
 _atom_site_type_symbol
 _atom_site_label
 _atom_site_symmetry_multiplicity
 _atom_site_fract_x
 _atom_site_fract_y
 _atom_site_fract_z
 _atom_site_occupancy
  Li  Li0  1  0.87625703  0.51266007  0.80810777  1
  Li  Li1  1  0.46756292  0.14505719  0.87287891  1
  Li  Li2  1  0.79040997  0.82067293  0.52522523  1
  Li  Li3  1  0.19910408  0.18827681  0.46045409  1
  Mn  Mn4  1  0.78095926  0.97558200  0.97442322  1
  Mn  Mn5  1  0.88570774  0.35775100  0.35890978  1
  Mn  Mn6  1  0.54473046  0.68257829  0.70106629  1
  Mn  Mn7  1  0.45474853  0.31030550  0.29836003  1
  Mn  Mn8  1  0.12193654  0.65075471  0.63226671  1
  Mn  Mn9  1  0.21191747  0.02302850  0.03497397  1
  B  B10  1  0.66517579  0.25680965  0.59404404  1
  B  B11  1  0.99615483  0.92183058  0.28195385  1
  B  B12  1  0.32919606  0.58535275  0.90800391  1
  B  B13  1  0.67051117  0.41150342  0.05137915  1
  B  B14  1  0.00149121  0.07652435  0.73928896  1
  B  B15  1  0.33747094  0.74798125  0.42532909  1
  O  O16  1  0.98970969  0.33043556  0.69534799  1
  O  O17  1  0.91044872  0.88857512  0.79096339  1
  O  O18  1  0.67695731  0.00289744  0.63798601  1
  O  O19  1  0.75621828  0.44475888  0.54236961  1
  O  O20  1  0.55623353  0.32036231  0.62022755  1
  O  O21  1  0.88204932  0.96612053  0.28391749  1
  O  O22  1  0.34814503  0.34209046  0.97487304  1
  O  O23  1  0.78461768  0.36721247  0.04941551  1
  O  O24  1  0.41796487  0.77907610  0.84885653  1
  O  O25  1  0.58421874  0.23125820  0.12389647  1
  O  O26  1  0.21792668  0.64864532  0.90951462  1
  O  O27  1  0.65058511  0.65093221  0.96281756  1
  O  O28  1  0.11043347  0.01297069  0.71310645  1
  O  O29  1  0.44874032  0.68468868  0.42381838  1
  O  O30  1  0.24870113  0.55425690  0.48447647  1
  O  O31  1  0.31852097  0.99124254  0.35845996  1
  O  O32  1  0.08244826  0.10207580  0.20943653  1
  O  O33  1  0.01608089  0.68240079  0.37051644  1
