# generated using pymatgen
data_Nb10Pb14O39
_symmetry_space_group_name_H-M   'P 1'
_cell_length_a   19.69628418
_cell_length_b   9.50579736
_cell_length_c   12.92945518
_cell_angle_alpha   90.00000000
_cell_angle_beta   59.43129469
_cell_angle_gamma   90.00000000
_symmetry_Int_Tables_number   1
_chemical_formula_structural   Nb10Pb14O39
_chemical_formula_sum   'Nb20 Pb28 O78'
_cell_volume   2084.32906806
_cell_formula_units_Z   2
loop_
 _symmetry_equiv_pos_site_id
 _symmetry_equiv_pos_as_xyz
  1  'x, y, z'
loop_
 _atom_site_type_symbol
 _atom_site_label
 _atom_site_symmetry_multiplicity
 _atom_site_fract_x
 _atom_site_fract_y
 _atom_site_fract_z
 _atom_site_occupancy
  Nb  Nb0  1  0.08520207  0.77871430  0.14451258  1
  Nb  Nb1  1  0.17696252  -0.03040451  0.34824690  1
  Nb  Nb2  1  0.18293532  0.57325745  0.31387235  1
  Nb  Nb3  1  0.98372304  0.54572642  0.00067264  1
  Nb  Nb4  1  0.34193711  0.79796547  0.15768797  1
  Nb  Nb5  1  0.15869137  0.29983673  0.83574947  1
  Nb  Nb6  1  0.51019527  0.05487673  0.98656925  1
  Nb  Nb7  1  0.31819188  0.08108829  0.68786103  1
  Nb  Nb8  1  0.32475080  0.48053275  0.66096422  1
  Nb  Nb9  1  0.58047208  0.80481413  0.13743040  1
  Nb  Nb10  1  0.41952792  0.30481413  0.86256960  1
  Nb  Nb11  1  0.67524920  -0.01946725  0.33903578  1
  Nb  Nb12  1  0.68180812  0.58108829  0.31213897  1
  Nb  Nb13  1  0.48980473  0.55487673  0.01343075  1
  Nb  Nb14  1  0.84130863  0.79983673  0.16425053  1
  Nb  Nb15  1  0.65806289  0.29796547  0.84231203  1
  Nb  Nb16  1  0.01627696  0.04572642  -0.00067264  1
  Nb  Nb17  1  0.81706468  0.07325745  0.68612765  1
  Nb  Nb18  1  0.82303748  0.46959549  0.65175310  1
  Nb  Nb19  1  0.91479793  0.27871430  0.85548742  1
  Pb  Pb20  1  0.12556007  0.24234485  0.15773793  1
  Pb  Pb21  1  0.98459002  0.75306379  0.50408029  1
  Pb  Pb22  1  0.24094988  0.53598280  0.02951226  1
  Pb  Pb23  1  0.06579703  -0.04956131  0.67898797  1
  Pb  Pb24  1  0.06634171  0.54524063  0.66826623  1
  Pb  Pb25  1  0.31327727  0.28755162  0.20492989  1
  Pb  Pb26  1  0.27007744  0.78319793  0.48902983  1
  Pb  Pb27  1  0.22454014  0.28270131  0.51563764  1
  Pb  Pb28  1  0.17492903  0.75150672  0.80486334  1
  Pb  Pb29  1  0.42641731  0.07539204  0.34375243  1
  Pb  Pb30  1  0.42423291  0.46394449  0.33139558  1
  Pb  Pb31  1  0.25011519  0.02591451  0.98765171  1
  Pb  Pb32  1  0.62312834  0.26666663  0.15693347  1
  Pb  Pb33  1  0.48696794  0.77523351  0.50419967  1
  Pb  Pb34  1  0.51303206  0.27523351  0.49580033  1
  Pb  Pb35  1  0.37687166  0.76666663  0.84306653  1
  Pb  Pb36  1  0.74988481  0.52591451  0.01234829  1
  Pb  Pb37  1  0.57576709  0.96394449  0.66860442  1
  Pb  Pb38  1  0.57358269  0.57539204  0.65624757  1
  Pb  Pb39  1  0.82507097  0.25150672  0.19513666  1
  Pb  Pb40  1  0.77545986  0.78270131  0.48436236  1
  Pb  Pb41  1  0.72992256  0.28319793  0.51097017  1
  Pb  Pb42  1  0.68672273  0.78755162  0.79507011  1
  Pb  Pb43  1  0.93365829  0.04524063  0.33173377  1
  Pb  Pb44  1  0.93420297  0.45043869  0.32101203  1
  Pb  Pb45  1  0.75905012  0.03598280  0.97048774  1
  Pb  Pb46  1  0.01540998  0.25306379  0.49591971  1
  Pb  Pb47  1  0.87443993  0.74234485  0.84226207  1
  O  O48  1  0.03585635  0.64756635  0.09556139  1
  O  O49  1  0.05773202  0.97869800  0.09919115  1
  O  O50  1  0.18557448  0.40926489  0.21434094  1
  O  O51  1  0.02593701  0.85699471  0.30264523  1
  O  O52  1  0.92392903  0.42118846  0.52120424  1
  O  O53  1  0.91658652  0.07613293  0.54202144  1
  O  O54  1  0.13682123  0.65895600  0.20678328  1
  O  O55  1  0.14859280  0.12444283  0.28790409  1
  O  O56  1  0.21733150  0.76355698  0.34257118  1
  O  O57  1  -0.00698859  0.75220364  0.69103799  1
  O  O58  1  0.14640180  0.76895273  0.64762258  1
  O  O59  1  0.12472096  0.26517505  0.73161384  1
  O  O60  1  0.40785265  0.00555007  0.10305202  1
  O  O61  1  0.43025809  0.42114419  0.13024000  1
  O  O62  1  0.93393084  0.72997902  0.01502908  1
  O  O63  1  0.22361355  0.04391796  0.43082844  1
  O  O64  1  0.24265513  0.46522562  0.36270720  1
  O  O65  1  0.26199053  0.93220992  0.16828777  1
  O  O66  1  0.29590567  0.62064986  0.14224272  1
  O  O67  1  0.21567890  0.12896439  0.84867016  1
  O  O68  1  0.23412105  0.44015503  0.83237137  1
  O  O69  1  0.27764273  0.93211530  0.64698035  1
  O  O70  1  0.27353429  0.55628846  0.58684464  1
  O  O71  1  0.55941328  0.23111866  0.99079435  1
  O  O72  1  0.07016777  0.92003215  0.87217541  1
  O  O73  1  0.08962546  0.50169731  0.88009761  1
  O  O74  1  0.37477228  0.78261676  0.26445105  1
  O  O75  1  0.35184825  0.26011463  0.35722996  1
  O  O76  1  0.50512177  0.26986620  0.31078093  1
  O  O77  1  0.28148705  0.27145692  0.65363878  1
  O  O78  1  0.34916368  0.64389878  0.72027964  1
  O  O79  1  0.52742189  0.64357024  0.12070039  1
  O  O80  1  0.54753206  0.97915008  0.10501734  1
  O  O81  1  0.31592041  0.29004480  -0.01708253  1
  O  O82  1  0.18877015  0.81126385  0.99906065  1
  O  O83  1  0.58380837  0.60859756  0.46328505  1
  O  O84  1  0.57439412  0.94717150  0.48181014  1
  O  O85  1  0.64194964  0.49841495  0.21540450  1
  O  O86  1  0.58103411  0.82406595  0.28092961  1
  O  O87  1  0.41896589  0.32406595  0.71907039  1
  O  O88  1  0.35805036  -0.00158505  0.78459550  1
  O  O89  1  0.42560588  0.44717150  0.51818986  1
  O  O90  1  0.41619163  0.10859756  0.53671495  1
  O  O91  1  0.81122985  0.31126385  0.00093935  1
  O  O92  1  0.68407959  0.79004480  0.01708253  1
  O  O93  1  0.45246794  0.47915008  0.89498266  1
  O  O94  1  0.47257811  0.14357024  0.87929961  1
  O  O95  1  0.65083632  0.14389878  0.27972036  1
  O  O96  1  0.71851295  0.77145692  0.34636122  1
  O  O97  1  0.49487823  0.76986620  0.68921907  1
  O  O98  1  0.64815175  0.76011463  0.64277004  1
  O  O99  1  0.62522772  0.28261676  0.73554895  1
  O  O100  1  0.91037454  0.00169731  0.11990239  1
  O  O101  1  0.92983223  0.42003215  0.12782459  1
  O  O102  1  0.44058672  0.73111866  0.00920565  1
  O  O103  1  0.72646571  0.05628846  0.41315536  1
  O  O104  1  0.72235727  0.43211530  0.35301965  1
  O  O105  1  0.76587895  0.94015503  0.16762863  1
  O  O106  1  0.78432110  0.62896439  0.15132984  1
  O  O107  1  0.70409433  0.12064986  0.85775728  1
  O  O108  1  0.73800947  0.43220992  0.83171223  1
  O  O109  1  0.75734487  0.96522562  0.63729280  1
  O  O110  1  0.77638645  0.54391796  0.56917156  1
  O  O111  1  0.06606916  0.22997902  0.98497092  1
  O  O112  1  0.56974191  0.92114419  0.86976000  1
  O  O113  1  0.59214735  0.50555007  0.89694798  1
  O  O114  1  0.87527904  0.76517505  0.26838616  1
  O  O115  1  0.85359820  0.26895273  0.35237742  1
  O  O116  1  0.00698859  0.25220364  0.30896201  1
  O  O117  1  0.78266850  0.26355698  0.65742882  1
  O  O118  1  0.85140720  0.62444283  0.71209591  1
  O  O119  1  0.86317877  0.15895600  0.79321672  1
  O  O120  1  0.08341348  0.57613293  0.45797856  1
  O  O121  1  0.07607097  0.92118846  0.47879576  1
  O  O122  1  0.97406299  0.35699471  0.69735477  1
  O  O123  1  0.81442552  0.90926489  0.78565906  1
  O  O124  1  0.94226798  0.47869800  0.90080885  1
  O  O125  1  0.96414365  0.14756635  0.90443861  1
