# generated using pymatgen
data_V3(O2F)2
_symmetry_space_group_name_H-M   'P 1'
_cell_length_a   4.69058984
_cell_length_b   7.71569693
_cell_length_c   5.61887761
_cell_angle_alpha   94.48055376
_cell_angle_beta   91.40342473
_cell_angle_gamma   88.66446461
_symmetry_Int_Tables_number   1
_chemical_formula_structural   V3(O2F)2
_chemical_formula_sum   'V6 O8 F4'
_cell_volume   202.62477031
_cell_formula_units_Z   2
loop_
 _symmetry_equiv_pos_site_id
 _symmetry_equiv_pos_as_xyz
  1  'x, y, z'
loop_
 _atom_site_type_symbol
 _atom_site_label
 _atom_site_symmetry_multiplicity
 _atom_site_fract_x
 _atom_site_fract_y
 _atom_site_fract_z
 _atom_site_occupancy
  V  V0  1  0.49401401  0.67374436  0.16905009  1
  V  V1  1  0.49395880  0.98672587  0.50392675  1
  V  V2  1  0.52971611  0.34380446  0.83404276  1
  V  V3  1  0.00660209  0.67070192  0.65998578  1
  V  V4  1  0.94198768  0.32568866  0.33956101  1
  V  V5  1  0.00942446  0.00335260  0.99760148  1
  O  O6  1  0.81147269  0.42949477  0.62782890  1
  O  O7  1  0.80622408  0.10567049  0.30378315  1
  O  O8  1  0.68167522  0.11976877  0.80502236  1
  O  O9  1  0.70251482  0.75436245  0.46057633  1
  O  O10  1  0.71145165  0.43389514  0.13254547  1
  O  O11  1  0.31919787  0.55005880  0.86044218  1
  O  O12  1  0.29894784  0.89725548  0.20132802  1
  O  O13  1  0.19480730  0.89872696  0.70486340  1
  F  F14  1  0.80125534  0.77029297  0.96305037  1
  F  F15  1  0.29480885  0.24214900  0.52931565  1
  F  F16  1  0.20202800  0.24119261  0.04282925  1
  F  F17  1  0.19991021  0.55311470  0.36424805  1
