# generated using pymatgen
data_Li2Mn5(PO4)4
_symmetry_space_group_name_H-M   'P 1'
_cell_length_a   8.27567980
_cell_length_b   8.37550360
_cell_length_c   5.35187826
_cell_angle_alpha   90.21551243
_cell_angle_beta   102.13628359
_cell_angle_gamma   111.37014033
_symmetry_Int_Tables_number   1
_chemical_formula_structural   Li2Mn5(PO4)4
_chemical_formula_sum   'Li2 Mn5 P4 O16'
_cell_volume   336.41077733
_cell_formula_units_Z   1
loop_
 _symmetry_equiv_pos_site_id
 _symmetry_equiv_pos_as_xyz
  1  'x, y, z'
loop_
 _atom_site_type_symbol
 _atom_site_label
 _atom_site_symmetry_multiplicity
 _atom_site_fract_x
 _atom_site_fract_y
 _atom_site_fract_z
 _atom_site_occupancy
  Li  Li0  1  0.06237981  0.29645096  0.60834571  1
  Li  Li1  1  0.93762019  0.70354904  0.39165429  1
  Mn  Mn2  1  0.25605269  0.78443806  0.10062973  1
  Mn  Mn3  1  0.00000000  0.00000000  0.00000000  1
  Mn  Mn4  1  0.40925233  0.66808205  0.64455869  1
  Mn  Mn5  1  0.59074767  0.33191795  0.35544131  1
  Mn  Mn6  1  0.74394731  0.21556194  0.89937027  1
  P  P7  1  0.20670409  0.42483345  0.13151794  1
  P  P8  1  0.29665552  0.02812864  0.61914807  1
  P  P9  1  0.70334448  0.97187136  0.38085193  1
  P  P10  1  0.79329591  0.57516655  0.86848206  1
  O  O11  1  0.20686846  0.96173067  0.33062842  1
  O  O12  1  0.32041206  0.86949717  0.75642238  1
  O  O13  1  0.02988108  0.26366907  0.07911039  1
  O  O14  1  0.22975932  0.50845653  0.87491280  1
  O  O15  1  0.18432835  0.55712372  0.31924606  1
  O  O16  1  0.17525027  0.09464963  0.73557577  1
  O  O17  1  0.51509763  0.83024162  0.35160391  1
  O  O18  1  0.36370569  0.37903275  0.26243955  1
  O  O19  1  0.63629431  0.62096725  0.73756045  1
  O  O20  1  0.48490237  0.16975838  0.64839609  1
  O  O21  1  0.82474973  0.90535037  0.26442423  1
  O  O22  1  0.81567165  0.44287628  0.68075394  1
  O  O23  1  0.77024068  0.49154347  0.12508720  1
  O  O24  1  0.97011892  0.73633093  0.92088961  1
  O  O25  1  0.67958794  0.13050283  0.24357762  1
  O  O26  1  0.79313154  0.03826933  0.66937158  1
