# generated using pymatgen
data_Li2Mn3(BO3)3
_symmetry_space_group_name_H-M   'P 1'
_cell_length_a   5.86676907
_cell_length_b   14.06006603
_cell_length_c   5.22572019
_cell_angle_alpha   101.02558899
_cell_angle_beta   112.38580512
_cell_angle_gamma   99.56645501
_symmetry_Int_Tables_number   1
_chemical_formula_structural   Li2Mn3(BO3)3
_chemical_formula_sum   'Li4 Mn6 B6 O18'
_cell_volume   377.40213597
_cell_formula_units_Z   2
loop_
 _symmetry_equiv_pos_site_id
 _symmetry_equiv_pos_as_xyz
  1  'x, y, z'
loop_
 _atom_site_type_symbol
 _atom_site_label
 _atom_site_symmetry_multiplicity
 _atom_site_fract_x
 _atom_site_fract_y
 _atom_site_fract_z
 _atom_site_occupancy
  Li  Li0  1  0.65856051  0.12780349  0.31298782  1
  Li  Li1  1  0.68432593  0.46094311  0.98592354  1
  Li  Li2  1  0.31567407  0.53905689  0.01407646  1
  Li  Li3  1  0.34143949  0.87219651  0.68701218  1
  Mn  Mn4  1  0.74580755  0.25608428  0.89197497  1
  Mn  Mn5  1  0.75397311  0.59118131  0.57843371  1
  Mn  Mn6  1  0.76169043  0.91703658  0.24039822  1
  Mn  Mn7  1  0.23830957  0.08296342  0.75960178  1
  Mn  Mn8  1  0.24602689  0.40881869  0.42156629  1
  Mn  Mn9  1  0.25419245  0.74391572  0.10802503  1
  B  B10  1  0.74288403  0.03418484  0.79046914  1
  B  B11  1  0.74405725  0.36147027  0.45359208  1
  B  B12  1  0.73833626  0.69048461  0.11620158  1
  B  B13  1  0.26166374  0.30951539  0.88379842  1
  B  B14  1  0.25594275  0.63852973  0.54640792  1
  B  B15  1  0.25711597  0.96581516  0.20953086  1
  O  O16  1  0.82872524  0.04885334  0.57936417  1
  O  O17  1  0.82713887  0.37908060  0.24253216  1
  O  O18  1  0.73143115  0.27064425  0.51215417  1
  O  O19  1  0.69785980  0.59714810  0.16035989  1
  O  O20  1  0.67633744  0.11457467  0.92732704  1
  O  O21  1  0.67336839  0.43821484  0.59330187  1
  O  O22  1  0.62652162  0.76294440  0.20290612  1
  O  O23  1  0.87702106  0.71265419  0.95756331  1
  O  O24  1  0.29421036  0.05566876  0.15253382  1
  O  O25  1  0.70578964  0.94433124  0.84746618  1
  O  O26  1  0.12297894  0.28734581  0.04243669  1
  O  O27  1  0.37347838  0.23705560  0.79709388  1
  O  O28  1  0.32663161  0.56178516  0.40669813  1
  O  O29  1  0.32366256  0.88542533  0.07267296  1
  O  O30  1  0.30214020  0.40285190  0.83964011  1
  O  O31  1  0.26856885  0.72935575  0.48784583  1
  O  O32  1  0.17286113  0.62091940  0.75746784  1
  O  O33  1  0.17127476  0.95114666  0.42063583  1
