# generated using pymatgen
data_Li4V3P8O29
_symmetry_space_group_name_H-M   'P 1'
_cell_length_a   9.80035883
_cell_length_b   9.81637153
_cell_length_c   14.13035123
_cell_angle_alpha   89.76818455
_cell_angle_beta   90.04648699
_cell_angle_gamma   59.73913039
_symmetry_Int_Tables_number   1
_chemical_formula_structural   Li4V3P8O29
_chemical_formula_sum   'Li8 V6 P16 O58'
_cell_volume   1174.14840757
_cell_formula_units_Z   2
loop_
 _symmetry_equiv_pos_site_id
 _symmetry_equiv_pos_as_xyz
  1  'x, y, z'
loop_
 _atom_site_type_symbol
 _atom_site_label
 _atom_site_symmetry_multiplicity
 _atom_site_fract_x
 _atom_site_fract_y
 _atom_site_fract_z
 _atom_site_occupancy
  Li  Li0  1  0.76948169  0.90676351  0.55946126  1
  Li  Li1  1  0.76506316  0.32663095  0.05462768  1
  Li  Li2  1  0.33080919  0.89955407  0.05740241  1
  Li  Li3  1  0.69407335  0.22293644  0.44322177  1
  Li  Li4  1  0.31506438  0.77255252  0.56319823  1
  Li  Li5  1  0.22524938  0.09059192  0.44351037  1
  Li  Li6  1  0.09825017  0.23668773  0.93821685  1
  Li  Li7  1  0.96809742  0.96065885  0.99807065  1
  V  V8  1  0.56394021  0.43813023  0.24880286  1
  V  V9  1  0.43070861  0.56621441  0.75249811  1
  V  V10  1  0.56667527  0.00569903  0.75761279  1
  V  V11  1  0.43490503  0.00053845  0.24758457  1
  V  V12  1  0.99853697  0.56971488  0.25024056  1
  V  V13  1  0.99724541  0.43722540  0.74521114  1
  P  P14  1  0.91950950  0.77043476  0.84238304  1
  P  P15  1  0.76887940  0.91260265  0.34027404  1
  P  P16  1  0.91466259  0.31499500  0.34054916  1
  P  P17  1  0.66892235  0.66287578  0.12934589  1
  P  P18  1  0.66122019  0.67626606  0.63046836  1
  P  P19  1  0.77611046  0.31331776  0.84101978  1
  P  P20  1  0.68261778  0.22994455  0.65962927  1
  P  P21  1  0.31526075  0.91184752  0.84064160  1
  P  P22  1  0.68985697  0.08776503  0.15750374  1
  P  P23  1  0.31788410  0.77189203  0.34489793  1
  P  P24  1  0.22049728  0.69412413  0.16230300  1
  P  P25  1  0.33313196  0.33411713  0.36801501  1
  P  P26  1  0.32680611  0.33504901  0.87142525  1
  P  P27  1  0.08444062  0.68696200  0.65713014  1
  P  P28  1  0.23144218  0.09007456  0.65999403  1
  P  P29  1  0.08485741  0.23187874  0.15679202  1
  O  O30  1  0.98985605  0.76740290  0.57193664  1
  O  O31  1  0.91408453  0.74461281  0.33352852  1
  O  O32  1  0.79098429  0.00992486  0.07494333  1
  O  O33  1  0.74426170  0.90911943  0.83222960  1
  O  O34  1  0.92175431  0.61265629  0.82947644  1
  O  O35  1  0.81304817  0.66601918  0.17622013  1
  O  O36  1  0.90832690  0.47427859  0.32358260  1
  O  O37  1  0.00165592  0.23527748  0.06645601  1
  O  O38  1  0.92136437  0.33905926  0.83328859  1
  O  O39  1  0.66355842  0.82350886  0.67210873  1
  O  O40  1  0.61830940  0.90198648  0.32012234  1
  O  O41  1  0.81290179  0.52843973  0.67930710  1
  O  O42  1  0.67701788  0.64410336  0.02435510  1
  O  O43  1  0.67413701  0.67204809  0.52535270  1
  O  O44  1  0.67525274  0.50821402  0.17359036  1
  O  O45  1  0.47366036  0.90937089  0.82758154  1
  O  O46  1  0.51339808  0.80957187  0.16445160  1
  O  O47  1  0.74387327  0.34006927  0.33961685  1
  O  O48  1  0.79486622  0.20594188  0.74958047  1
  O  O49  1  0.75601300  0.23324320  0.56862884  1
  O  O50  1  0.79194928  0.22499411  0.93079524  1
  O  O51  1  0.62221457  0.47058571  0.82856546  1
  O  O52  1  0.51223606  0.67377852  0.66779020  1
  O  O53  1  0.65655648  0.26278059  0.16411645  1
  O  O54  1  0.47925071  0.62048770  0.31911581  1
  O  O55  1  0.33625598  0.91927758  0.33786009  1
  O  O56  1  0.78882629  0.00927480  0.25505101  1
  O  O57  1  0.75527750  0.99660496  0.43111529  1
  O  O58  1  0.24132440  0.00283091  0.57095809  1
  O  O59  1  0.65937334  0.08367624  0.66528942  1
  O  O60  1  0.52295138  0.38259560  0.67912096  1
  O  O61  1  0.34308143  0.74360158  0.83577970  1
  O  O62  1  0.48345031  0.33537285  0.32465337  1
  O  O63  1  0.38146891  0.53502284  0.17300026  1
  O  O64  1  0.21254550  0.79195584  0.07928314  1
  O  O65  1  0.25621305  0.75555137  0.43719505  1
  O  O66  1  0.20177989  0.78990947  0.25891099  1
  O  O67  1  0.25270684  0.66344009  0.65879042  1
  O  O68  1  0.48119828  0.18466397  0.82640948  1
  O  O69  1  0.53507293  0.08609928  0.16740740  1
  O  O70  1  0.32491098  0.48129582  0.82913450  1
  O  O71  1  0.32934414  0.31683965  0.97611017  1
  O  O72  1  0.33928625  0.33352555  0.47324435  1
  O  O73  1  0.18437625  0.48035773  0.32244504  1
  O  O74  1  0.38323272  0.09542338  0.67916182  1
  O  O75  1  0.33178100  0.18529053  0.32815829  1
  O  O76  1  0.08438497  0.65809966  0.16580339  1
  O  O77  1  0.00311812  0.79183708  0.75023545  1
  O  O78  1  0.99452305  0.78668596  0.92897032  1
  O  O79  1  0.09513371  0.52422649  0.67700929  1
  O  O80  1  0.18297938  0.32488365  0.82805675  1
  O  O81  1  0.09038372  0.38410567  0.17396200  1
  O  O82  1  0.25400433  0.08524347  0.15986686  1
  O  O83  1  0.23144685  0.99778923  0.92953864  1
  O  O84  1  0.20694078  0.00085193  0.74942244  1
  O  O85  1  0.08665225  0.25882520  0.66349967  1
  O  O86  1  0.00689589  0.22657975  0.42483292  1
  O  O87  1  0.99241016  0.21208773  0.24484022  1
