# generated using pymatgen
data_Li5Fe7O3F13
_symmetry_space_group_name_H-M   'P 1'
_cell_length_a   6.21648670
_cell_length_b   6.21579044
_cell_length_c   10.73511432
_cell_angle_alpha   106.84488070
_cell_angle_beta   89.78632470
_cell_angle_gamma   59.87027600
_symmetry_Int_Tables_number   1
_chemical_formula_structural   Li5Fe7O3F13
_chemical_formula_sum   'Li5 Fe7 O3 F13'
_cell_volume   337.74829943
_cell_formula_units_Z   1
loop_
 _symmetry_equiv_pos_site_id
 _symmetry_equiv_pos_as_xyz
  1  'x, y, z'
loop_
 _atom_site_type_symbol
 _atom_site_label
 _atom_site_symmetry_multiplicity
 _atom_site_fract_x
 _atom_site_fract_y
 _atom_site_fract_z
 _atom_site_occupancy
  Li  Li0  1  0.23166917  0.51930516  0.24966327  1
  Li  Li1  1  0.32632595  0.86562495  0.56717206  1
  Li  Li2  1  0.67297871  0.13430855  0.43742007  1
  Li  Li3  1  0.25932357  0.49754446  0.74598449  1
  Li  Li4  1  0.19485763  0.12538879  0.93611096  1
  Fe  Fe5  1  0.84232112  0.83914092  0.07763891  1
  Fe  Fe6  1  0.48908179  0.51253689  0.00620367  1
  Fe  Fe7  1  0.73767521  0.51474531  0.24733204  1
  Fe  Fe8  1  0.25399175  0.98728047  0.24330212  1
  Fe  Fe9  1  0.98165582  0.51795213  0.50374228  1
  Fe  Fe10  1  0.74899615  0.50863274  0.74308944  1
  Fe  Fe11  1  0.74202348  0.99056412  0.74045114  1
  O  O12  1  0.62072835  0.73394695  0.13019813  1
  O  O13  1  0.16402906  0.73626056  0.13260505  1
  O  O14  1  0.65481280  0.74369065  0.62751153  1
  F  F15  1  0.37277416  0.73712767  0.37279792  1
  F  F16  1  0.62215469  0.25481889  0.12936862  1
  F  F17  1  0.87715151  0.74334101  0.37176840  1
  F  F18  1  0.11964005  0.26094874  0.13297075  1
  F  F19  1  0.86755874  0.26650744  0.36566677  1
  F  F20  1  0.32831738  0.26290497  0.37496339  1
  F  F21  1  0.12899025  0.73669768  0.63101138  1
  F  F22  1  0.89662099  0.73879425  0.86536120  1
  F  F23  1  0.11896930  0.27030448  0.63538315  1
  F  F24  1  0.39381100  0.72631958  0.86381681  1
  F  F25  1  0.62184531  0.26256545  0.63211454  1
  F  F26  1  0.84802119  0.24975605  0.86590273  1
  F  F27  1  0.38367385  0.26299110  0.87044817  1
