# generated using pymatgen
data_Li4V3P8O29
_symmetry_space_group_name_H-M   'P 1'
_cell_length_a   9.80551928
_cell_length_b   9.78632624
_cell_length_c   14.24359819
_cell_angle_alpha   90.22072470
_cell_angle_beta   90.12774720
_cell_angle_gamma   60.02628354
_symmetry_Int_Tables_number   1
_chemical_formula_structural   Li4V3P8O29
_chemical_formula_sum   'Li8 V6 P16 O58'
_cell_volume   1184.00175348
_cell_formula_units_Z   2
loop_
 _symmetry_equiv_pos_site_id
 _symmetry_equiv_pos_as_xyz
  1  'x, y, z'
loop_
 _atom_site_type_symbol
 _atom_site_label
 _atom_site_symmetry_multiplicity
 _atom_site_fract_x
 _atom_site_fract_y
 _atom_site_fract_z
 _atom_site_occupancy
  Li  Li0  1  0.76875886  0.91497498  0.56098689  1
  Li  Li1  1  0.91687401  0.30750354  0.56105340  1
  Li  Li2  1  0.76953169  0.32692243  0.05695475  1
  Li  Li3  1  0.33235347  0.89800691  0.05582493  1
  Li  Li4  1  0.32310446  0.77142840  0.56213818  1
  Li  Li5  1  0.32581234  0.33701871  0.10453256  1
  Li  Li6  1  0.08845872  0.68375516  0.43964757  1
  Li  Li7  1  0.97286771  0.97558268  0.99862870  1
  V  V8  1  0.57408292  0.42980326  0.25288188  1
  V  V9  1  0.43333647  0.56560235  0.75044898  1
  V  V10  1  0.56357619  0.00237717  0.75334288  1
  V  V11  1  0.43212133  0.99748665  0.25183426  1
  V  V12  1  0.99545658  0.57250940  0.24521223  1
  V  V13  1  0.00185243  0.43400249  0.75581522  1
  P  P14  1  0.91616930  0.77945817  0.83898809  1
  P  P15  1  0.76775297  0.91624236  0.34247939  1
  P  P16  1  0.91875587  0.31841455  0.34348775  1
  P  P17  1  0.66209246  0.66800045  0.12989522  1
  P  P18  1  0.66962167  0.66745912  0.63157456  1
  P  P19  1  0.77163687  0.31371642  0.84382094  1
  P  P20  1  0.68569610  0.22766559  0.66261525  1
  P  P21  1  0.31333425  0.91372866  0.84222346  1
  P  P22  1  0.69049547  0.08642613  0.15935696  1
  P  P23  1  0.31735566  0.76866093  0.34200392  1
  P  P24  1  0.22503773  0.68794662  0.16009456  1
  P  P25  1  0.33257661  0.33685379  0.36745565  1
  P  P26  1  0.33266828  0.33463295  0.86878726  1
  P  P27  1  0.08769816  0.68025928  0.65703796  1
  P  P28  1  0.22671346  0.08796866  0.66195192  1
  P  P29  1  0.08828206  0.22227334  0.16179098  1
  O  O30  1  0.00005281  0.75205104  0.56723341  1
  O  O31  1  0.91639630  0.75111989  0.33490800  1
  O  O32  1  0.79272625  0.00325256  0.07877681  1
  O  O33  1  0.74104495  0.91297325  0.83026028  1
  O  O34  1  0.92119503  0.61764497  0.83013537  1
  O  O35  1  0.80499596  0.67249771  0.17080056  1
  O  O36  1  0.90837260  0.47699244  0.31831687  1
  O  O37  1  0.99171850  0.21377183  0.08428378  1
  O  O38  1  0.91399367  0.34289090  0.82811868  1
  O  O39  1  0.66546575  0.82044353  0.67292846  1
  O  O40  1  0.61821330  0.90376467  0.31590640  1
  O  O41  1  0.81870971  0.52233563  0.67788037  1
  O  O42  1  0.64722923  0.66634107  0.02615821  1
  O  O43  1  0.68308568  0.66433959  0.52722536  1
  O  O44  1  0.66596127  0.51547509  0.17281595  1
  O  O45  1  0.47290342  0.91005555  0.82477173  1
  O  O46  1  0.50872091  0.81685224  0.17250238  1
  O  O47  1  0.74960575  0.33983139  0.32865939  1
  O  O48  1  0.78671382  0.19870533  0.75861069  1
  O  O49  1  0.77554113  0.23142281  0.58043674  1
  O  O50  1  0.79033173  0.23150980  0.93484209  1
  O  O51  1  0.61949622  0.46972172  0.83021313  1
  O  O52  1  0.51924440  0.66687153  0.66627690  1
  O  O53  1  0.65473295  0.26285547  0.16149180  1
  O  O54  1  0.47792724  0.61880916  0.32029500  1
  O  O55  1  0.33913891  0.91510786  0.33377497  1
  O  O56  1  0.78163925  0.01682290  0.25801819  1
  O  O57  1  0.75149044  0.99153198  0.43490947  1
  O  O58  1  0.23266747  0.99323552  0.57902866  1
  O  O59  1  0.65774530  0.08402579  0.66196341  1
  O  O60  1  0.52601695  0.38048643  0.67793102  1
  O  O61  1  0.34259384  0.74536432  0.82693491  1
  O  O62  1  0.47815936  0.34167103  0.31981597  1
  O  O63  1  0.37855232  0.52577347  0.16820991  1
  O  O64  1  0.21286468  0.79197695  0.08109413  1
  O  O65  1  0.24903801  0.75701476  0.43312254  1
  O  O66  1  0.20241773  0.78400284  0.25831086  1
  O  O67  1  0.25290616  0.66198201  0.65778060  1
  O  O68  1  0.48155914  0.18399046  0.82561204  1
  O  O69  1  0.52831119  0.09346313  0.16748607  1
  O  O70  1  0.32931034  0.48063558  0.82829971  1
  O  O71  1  0.33298337  0.32551219  0.97335715  1
  O  O72  1  0.34551391  0.32690827  0.47080150  1
  O  O73  1  0.18329043  0.48629282  0.33073565  1
  O  O74  1  0.38085046  0.09330837  0.67861904  1
  O  O75  1  0.34058891  0.18544065  0.31842617  1
  O  O76  1  0.08666981  0.65367609  0.16318948  1
  O  O77  1  0.99331550  0.79735428  0.74270330  1
  O  O78  1  0.99510604  0.79912104  0.92185918  1
  O  O79  1  0.09726776  0.52127934  0.67948929  1
  O  O80  1  0.18562923  0.32939659  0.82578354  1
  O  O81  1  0.10386499  0.37162027  0.16828899  1
  O  O82  1  0.26100062  0.07824600  0.16036085  1
  O  O83  1  0.24156755  0.98196554  0.93459221  1
  O  O84  1  0.19975413  0.01491653  0.75771672  1
  O  O85  1  0.08398792  0.25864628  0.66134334  1
  O  O86  1  0.98555498  0.25555014  0.43627709  1
  O  O87  1  0.02155963  0.19864325  0.26119136  1
