# generated using pymatgen
data_Li3V(BO3)2
_symmetry_space_group_name_H-M   'P 1'
_cell_length_a   5.06407389
_cell_length_b   6.39178800
_cell_length_c   8.09468225
_cell_angle_alpha   74.44332864
_cell_angle_beta   89.71678971
_cell_angle_gamma   89.69674028
_symmetry_Int_Tables_number   1
_chemical_formula_structural   Li3V(BO3)2
_chemical_formula_sum   'Li6 V2 B4 O12'
_cell_volume   252.40873058
_cell_formula_units_Z   2
loop_
 _symmetry_equiv_pos_site_id
 _symmetry_equiv_pos_as_xyz
  1  'x, y, z'
loop_
 _atom_site_type_symbol
 _atom_site_label
 _atom_site_symmetry_multiplicity
 _atom_site_fract_x
 _atom_site_fract_y
 _atom_site_fract_z
 _atom_site_occupancy
  Li  Li0  1  0.17591596  0.89594072  0.92572484  1
  Li  Li1  1  0.32782971  0.02563387  0.25718953  1
  Li  Li2  1  0.33116439  0.74317915  0.61168205  1
  Li  Li3  1  0.66883561  0.25682085  0.38831795  1
  Li  Li4  1  0.67217029  0.97436613  0.74281047  1
  Li  Li5  1  0.82408404  0.10405928  0.07427516  1
  V  V6  1  0.14968211  0.55121255  0.27207774  1
  V  V7  1  0.85031789  0.44878745  0.72792226  1
  B  B8  1  0.16339422  0.16730545  0.57320718  1
  B  B9  1  0.33562285  0.32383007  0.91278119  1
  B  B10  1  0.66437715  0.67616993  0.08721881  1
  B  B11  1  0.83660578  0.83269455  0.42679282  1
  O  O12  1  0.10166122  0.77173128  0.40085654  1
  O  O13  1  0.20971038  0.48771049  0.78648830  1
  O  O14  1  0.19828884  0.16845852  0.02933816  1
  O  O15  1  0.28259628  0.27612338  0.41664540  1
  O  O16  1  0.29139785  0.00662406  0.68795884  1
  O  O17  1  0.38785709  0.67756327  0.09038303  1
  O  O18  1  0.61214291  0.32243673  0.90961697  1
  O  O19  1  0.70860215  0.99337594  0.31204116  1
  O  O20  1  0.71740372  0.72387662  0.58335460  1
  O  O21  1  0.80171116  0.83154148  0.97066184  1
  O  O22  1  0.79028962  0.51228951  0.21351170  1
  O  O23  1  0.89833878  0.22826872  0.59914346  1
