# generated using pymatgen
data_Li9Mn7Cr12O48
_symmetry_space_group_name_H-M   'P 1'
_cell_length_a   5.14581789
_cell_length_b   10.33076762
_cell_length_c   17.52119834
_cell_angle_alpha   89.93041612
_cell_angle_beta   90.25748212
_cell_angle_gamma   89.94911346
_symmetry_Int_Tables_number   1
_chemical_formula_structural   Li9Mn7Cr12O48
_chemical_formula_sum   'Li9 Mn7 Cr12 O48'
_cell_volume   931.42079908
_cell_formula_units_Z   1
loop_
 _symmetry_equiv_pos_site_id
 _symmetry_equiv_pos_as_xyz
  1  'x, y, z'
loop_
 _atom_site_type_symbol
 _atom_site_label
 _atom_site_symmetry_multiplicity
 _atom_site_fract_x
 _atom_site_fract_y
 _atom_site_fract_z
 _atom_site_occupancy
  Li  Li0  1  0.09343491  0.24851217  0.24914216  1
  Li  Li1  1  0.24668561  0.42227514  0.97083727  1
  Li  Li2  1  0.24889517  0.58163071  0.47309767  1
  Li  Li3  1  0.24928481  0.91857588  0.47313146  1
  Li  Li4  1  0.25698793  0.25265230  0.80169110  1
  Li  Li5  1  0.74648714  0.75362669  0.19419076  1
  Li  Li6  1  0.75086291  0.92197086  0.02909201  1
  Li  Li7  1  0.76342010  0.25126681  0.70223891  1
  Li  Li8  1  0.90832995  0.74952684  0.74820510  1
  Mn  Mn9  1  0.24844013  0.75029089  0.30136393  1
  Mn  Mn10  1  0.24558689  0.07417097  0.97348391  1
  Mn  Mn11  1  0.41110283  0.74923613  0.75147846  1
  Mn  Mn12  1  0.59225568  0.24937629  0.24795413  1
  Mn  Mn13  1  0.75273011  0.07261002  0.52735951  1
  Mn  Mn14  1  0.75218680  0.42735049  0.52713235  1
  Mn  Mn15  1  0.75099098  0.57451140  0.02658133  1
  Cr  Cr16  1  0.22172999  0.75007176  0.94404621  1
  Cr  Cr17  1  0.22972242  0.02661969  0.65673871  1
  Cr  Cr18  1  0.22834403  0.47182908  0.65614704  1
  Cr  Cr19  1  0.27712005  0.52871643  0.15483396  1
  Cr  Cr20  1  0.27523675  0.97101273  0.15596611  1
  Cr  Cr21  1  0.27968124  0.24993918  0.44383916  1
  Cr  Cr22  1  0.72331999  0.75001881  0.55653625  1
  Cr  Cr23  1  0.71802361  0.47430760  0.84239215  1
  Cr  Cr24  1  0.71891063  0.02643849  0.84344533  1
  Cr  Cr25  1  0.77355605  0.52915316  0.34452716  1
  Cr  Cr26  1  0.77463615  0.97047373  0.34514898  1
  Cr  Cr27  1  0.77725027  0.24998521  0.05548397  1
  O  O28  1  0.04676210  0.24790781  0.00000975  1
  O  O29  1  0.04698349  0.60871541  0.36929830  1
  O  O30  1  0.04791065  0.89080103  0.37027798  1
  O  O31  1  0.09926409  0.62463011  0.20961488  1
  O  O32  1  0.09350910  0.87543012  0.21084669  1
  O  O33  1  0.09982293  0.12168727  0.46564816  1
  O  O34  1  0.09981081  0.37828533  0.46539571  1
  O  O35  1  0.09473491  0.00284285  0.07861461  1
  O  O36  1  0.09657509  0.49796114  0.07771842  1
  O  O37  1  0.15879674  0.74953411  0.84987526  1
  O  O38  1  0.17615907  0.61465860  0.70411760  1
  O  O39  1  0.17937895  0.88264028  0.70499982  1
  O  O40  1  0.33952471  0.11002963  0.20257034  1
  O  O41  1  0.34020469  0.39021272  0.20139289  1
  O  O42  1  0.34673965  0.25003941  0.35118250  1
  O  O43  1  0.40342544  0.50087976  0.57837623  1
  O  O44  1  0.40444403  0.99872101  0.57884667  1
  O  O45  1  0.39797067  0.88006985  0.96541293  1
  O  O46  1  0.40550389  0.62251366  0.96539687  1
  O  O47  1  0.40105539  0.12383505  0.70946414  1
  O  O48  1  0.40164232  0.37445971  0.70865653  1
  O  O49  1  0.44796000  0.10666912  0.86959654  1
  O  O50  1  0.45311588  0.39514749  0.86810868  1
  O  O51  1  0.46018659  0.75020599  0.50089308  1
  O  O52  1  0.55428391  0.24988201  0.50174316  1
  O  O53  1  0.55135761  0.60720642  0.12919320  1
  O  O54  1  0.54437345  0.89417537  0.13080561  1
  O  O55  1  0.58547661  0.62405922  0.29153442  1
  O  O56  1  0.58607707  0.87543344  0.29265524  1
  O  O57  1  0.59282111  0.12305526  0.03376063  1
  O  O58  1  0.60101491  0.38025379  0.03380956  1
  O  O59  1  0.60119542  0.00457237  0.42293542  1
  O  O60  1  0.60088344  0.49565222  0.42252688  1
  O  O61  1  0.65336510  0.75027063  0.65012988  1
  O  O62  1  0.64779571  0.61762175  0.79424934  1
  O  O63  1  0.64895914  0.88572819  0.79571769  1
  O  O64  1  0.83868153  0.10803031  0.29787685  1
  O  O65  1  0.83751219  0.39154316  0.29738196  1
  O  O66  1  0.84060820  0.24948667  0.14954271  1
  O  O67  1  0.89761200  0.50617144  0.91969250  1
  O  O68  1  0.89833356  0.99545559  0.92074124  1
  O  O69  1  0.90584458  0.62075928  0.53630479  1
  O  O70  1  0.90615820  0.87908454  0.53634540  1
  O  O71  1  0.89564611  0.12126038  0.79014908  1
  O  O72  1  0.89955133  0.38075266  0.78942813  1
  O  O73  1  0.95193323  0.10268671  0.63117109  1
  O  O74  1  0.95114174  0.39502893  0.63047331  1
  O  O75  1  0.95268153  0.74779974  0.99942824  1
