# generated using pymatgen
data_Na2Li2CoO4
_symmetry_space_group_name_H-M   'P 1'
_cell_length_a   8.31292919
_cell_length_b   8.00536909
_cell_length_c   6.58529321
_cell_angle_alpha   90.29692259
_cell_angle_beta   88.87040438
_cell_angle_gamma   90.13391111
_symmetry_Int_Tables_number   1
_chemical_formula_structural   Na2Li2CoO4
_chemical_formula_sum   'Na8 Li8 Co4 O16'
_cell_volume   438.14638512
_cell_formula_units_Z   4
loop_
 _symmetry_equiv_pos_site_id
 _symmetry_equiv_pos_as_xyz
  1  'x, y, z'
loop_
 _atom_site_type_symbol
 _atom_site_label
 _atom_site_symmetry_multiplicity
 _atom_site_fract_x
 _atom_site_fract_y
 _atom_site_fract_z
 _atom_site_occupancy
  Na  Na0  1  0.03154245  0.51053421  0.26526711  1
  Na  Na1  1  0.00834413  0.50683570  0.73665875  1
  Na  Na2  1  0.24344395  0.21101848  0.46690935  1
  Na  Na3  1  0.23404199  0.78063441  0.02690098  1
  Na  Na4  1  0.48882939  0.00106119  0.75737787  1
  Na  Na5  1  0.50181008  0.99870528  0.24339084  1
  Na  Na6  1  0.76719095  0.25899588  0.00619325  1
  Na  Na7  1  0.74983715  0.75828876  0.49141263  1
  Li  Li8  1  0.34952483  0.48541259  0.74663122  1
  Li  Li9  1  0.41132203  0.29382694  0.02144903  1
  Li  Li10  1  0.57961677  0.73190658  0.99870352  1
  Li  Li11  1  0.63045498  0.51224201  0.24786797  1
  Li  Li12  1  0.64919311  0.51607294  0.75188342  1
  Li  Li13  1  0.87541642  0.01064678  0.25013461  1
  Li  Li14  1  0.87101816  0.00900971  0.74793292  1
  Li  Li15  1  0.91908669  0.23728781  0.49957461  1
  Co  Co16  1  0.12585613  0.21971112  0.99232418  1
  Co  Co17  1  0.36745266  0.72025132  0.49638073  1
  Co  Co18  1  0.62963333  0.27085961  0.50420099  1
  Co  Co19  1  0.86027630  0.76506448  0.99810353  1
  O  O20  1  0.00454497  0.21387503  0.22668946  1
  O  O21  1  0.00257006  0.20813890  0.76832261  1
  O  O22  1  0.21448252  0.42856648  0.98262719  1
  O  O23  1  0.22864747  0.54653453  0.51230890  1
  O  O24  1  0.29117818  0.07710470  0.00631271  1
  O  O25  1  0.30956372  0.93113682  0.49963032  1
  O  O26  1  0.49914577  0.70860395  0.26964582  1
  O  O27  1  0.48524677  0.69352658  0.73738622  1
  O  O28  1  0.53101111  0.28765582  0.26728026  1
  O  O29  1  0.51671134  0.30331577  0.73863597  1
  O  O30  1  0.73546780  0.07248305  0.50554333  1
  O  O31  1  0.73174172  0.95682645  0.00307036  1
  O  O32  1  0.77405553  0.44226641  0.50208068  1
  O  O33  1  0.76566037  0.55430937  0.00038101  1
  O  O34  1  0.94590019  0.78114978  0.23486483  1
  O  O35  1  0.93050199  0.77831355  0.75168086  1
