# generated using pymatgen
data_Li4V3P8O29
_symmetry_space_group_name_H-M   'P 1'
_cell_length_a   9.75417069
_cell_length_b   9.80095727
_cell_length_c   14.20400362
_cell_angle_alpha   89.84267889
_cell_angle_beta   89.98778064
_cell_angle_gamma   59.97635356
_symmetry_Int_Tables_number   1
_chemical_formula_structural   Li4V3P8O29
_chemical_formula_sum   'Li8 V6 P16 O58'
_cell_volume   1175.69506129
_cell_formula_units_Z   2
loop_
 _symmetry_equiv_pos_site_id
 _symmetry_equiv_pos_as_xyz
  1  'x, y, z'
loop_
 _atom_site_type_symbol
 _atom_site_label
 _atom_site_symmetry_multiplicity
 _atom_site_fract_x
 _atom_site_fract_y
 _atom_site_fract_z
 _atom_site_occupancy
  Li  Li0  1  0.76589836  0.90314496  0.55535108  1
  Li  Li1  1  0.77080251  0.32192425  0.05729565  1
  Li  Li2  1  0.30767375  0.91646277  0.06056907  1
  Li  Li3  1  0.32298304  0.76848392  0.55666963  1
  Li  Li4  1  0.69489943  0.08248447  0.94197027  1
  Li  Li5  1  0.22489545  0.68682163  0.95016844  1
  Li  Li6  1  0.23142168  0.10042564  0.44184494  1
  Li  Li7  1  0.94599824  0.04527683  0.49014373  1
  V  V8  1  0.56684914  0.43092778  0.25978577  1
  V  V9  1  0.43748349  0.56178209  0.74378018  1
  V  V10  1  0.56912742  0.99713914  0.75314147  1
  V  V11  1  0.43321157  0.00189345  0.24656293  1
  V  V12  1  0.00285920  0.56454412  0.24960612  1
  V  V13  1  0.99697864  0.43586208  0.74713726  1
  P  P14  1  0.91901569  0.76640709  0.84422582  1
  P  P15  1  0.77599772  0.91049261  0.33967656  1
  P  P16  1  0.92116253  0.30473580  0.34095015  1
  P  P17  1  0.66578634  0.66049481  0.13319767  1
  P  P18  1  0.66625315  0.66865179  0.62976861  1
  P  P19  1  0.77205078  0.31808548  0.83948418  1
  P  P20  1  0.69550274  0.21860100  0.65840184  1
  P  P21  1  0.32054376  0.90501175  0.84091385  1
  P  P22  1  0.68256788  0.09276665  0.16041750  1
  P  P23  1  0.31392613  0.77584185  0.34283918  1
  P  P24  1  0.23097797  0.67997377  0.16328118  1
  P  P25  1  0.32872339  0.33387480  0.37035976  1
  P  P26  1  0.33280188  0.33652827  0.86598928  1
  P  P27  1  0.08044427  0.69448483  0.65793167  1
  P  P28  1  0.22715136  0.08765335  0.66177395  1
  P  P29  1  0.08308088  0.23154482  0.15502258  1
  O  O30  1  0.99159322  0.79754953  0.57653523  1
  O  O31  1  0.91595292  0.73919556  0.32800680  1
  O  O32  1  0.75285662  0.01645569  0.06933409  1
  O  O33  1  0.75023893  0.91395287  0.84234411  1
  O  O34  1  0.90707789  0.61731502  0.82225139  1
  O  O35  1  0.81413698  0.65552280  0.18099639  1
  O  O36  1  0.92637353  0.45858711  0.33317518  1
  O  O37  1  0.99017403  0.24080224  0.07053840  1
  O  O38  1  0.91585730  0.34181101  0.83379794  1
  O  O39  1  0.67592966  0.81282217  0.66722592  1
  O  O40  1  0.61814813  0.91404088  0.32882015  1
  O  O41  1  0.80957770  0.51861170  0.67658909  1
  O  O42  1  0.67261802  0.64880324  0.02876599  1
  O  O43  1  0.65997862  0.66441188  0.52532951  1
  O  O44  1  0.66280480  0.51396812  0.17786803  1
  O  O45  1  0.48132708  0.89733801  0.82047141  1
  O  O46  1  0.51398439  0.81429123  0.16834014  1
  O  O47  1  0.74566748  0.34202279  0.33630379  1
  O  O48  1  0.79121387  0.20147406  0.75505704  1
  O  O49  1  0.79279995  0.20272717  0.57502365  1
  O  O50  1  0.75445440  0.24924651  0.93001057  1
  O  O51  1  0.61936389  0.47793924  0.81690809  1
  O  O52  1  0.50890207  0.67687939  0.67111164  1
  O  O53  1  0.66103871  0.26089269  0.16653106  1
  O  O54  1  0.47299025  0.61879784  0.32916178  1
  O  O55  1  0.34119914  0.91874449  0.33467129  1
  O  O56  1  0.79366456  0.00231062  0.24945187  1
  O  O57  1  0.79490424  0.97989585  0.42891962  1
  O  O58  1  0.22144540  0.00575327  0.57347168  1
  O  O59  1  0.65867735  0.08164554  0.66504580  1
  O  O60  1  0.53787296  0.37992342  0.66912596  1
  O  O61  1  0.34061399  0.73704535  0.83375788  1
  O  O62  1  0.48265191  0.33000575  0.32693372  1
  O  O63  1  0.38310238  0.52197390  0.18277377  1
  O  O64  1  0.24281732  0.75782296  0.07492285  1
  O  O65  1  0.23231652  0.78310210  0.43269131  1
  O  O66  1  0.20728921  0.79274079  0.25212906  1
  O  O67  1  0.25614560  0.65941783  0.65829853  1
  O  O68  1  0.48657377  0.18408914  0.83326984  1
  O  O69  1  0.52060681  0.10187519  0.17988059  1
  O  O70  1  0.33803651  0.48182834  0.81715708  1
  O  O71  1  0.32418804  0.35820785  0.96967987  1
  O  O72  1  0.32696187  0.34382937  0.47450923  1
  O  O73  1  0.18774403  0.48230303  0.32112957  1
  O  O74  1  0.38189773  0.08955913  0.67405275  1
  O  O75  1  0.32288972  0.18728541  0.33330753  1
  O  O76  1  0.08594078  0.65692582  0.16478118  1
  O  O77  1  0.00587170  0.79051952  0.75353182  1
  O  O78  1  0.01079798  0.75507616  0.92962953  1
  O  O79  1  0.07756630  0.53834177  0.66825349  1
  O  O80  1  0.18629630  0.34042500  0.81794626  1
  O  O81  1  0.09339146  0.38142383  0.17557473  1
  O  O82  1  0.25282863  0.08511911  0.15653514  1
  O  O83  1  0.25112107  0.97947189  0.93259234  1
  O  O84  1  0.20724142  0.99871963  0.75289461  1
  O  O85  1  0.08391941  0.25772278  0.66791582  1
  O  O86  1  0.00444328  0.19915515  0.42317519  1
  O  O87  1  0.00044373  0.20529545  0.24712835  1
