# generated using pymatgen
data_Sc3Tc
_symmetry_space_group_name_H-M   'P 1'
_cell_length_a   6.25228169
_cell_length_b   6.25228091
_cell_length_c   4.77954474
_cell_angle_alpha   90.00000000
_cell_angle_beta   90.00000000
_cell_angle_gamma   120.00000406
_symmetry_Int_Tables_number   1
_chemical_formula_structural   Sc3Tc
_chemical_formula_sum   'Sc6 Tc2'
_cell_volume   161.80582946
_cell_formula_units_Z   2
loop_
 _symmetry_equiv_pos_site_id
 _symmetry_equiv_pos_as_xyz
  1  'x, y, z'
loop_
 _atom_site_type_symbol
 _atom_site_label
 _atom_site_symmetry_multiplicity
 _atom_site_fract_x
 _atom_site_fract_y
 _atom_site_fract_z
 _atom_site_occupancy
  Sc  Sc0  1  0.17177965  0.34355831  0.25000000  1
  Sc  Sc1  1  0.65644269  0.82822035  0.25000000  1
  Sc  Sc2  1  0.17177865  0.82822035  0.25000000  1
  Sc  Sc3  1  0.82822035  0.65644169  0.74999800  1
  Sc  Sc4  1  0.34355731  0.17177965  0.74999800  1
  Sc  Sc5  1  0.82822135  0.17177965  0.74999800  1
  Tc  Tc6  1  0.33333400  0.66666800  0.74999800  1
  Tc  Tc7  1  0.66666600  0.33333200  0.25000000  1
