# generated using pymatgen
data_LiNi4(PO4)3
_symmetry_space_group_name_H-M   'P 1'
_cell_length_a   6.13742939
_cell_length_b   16.16092949
_cell_length_c   9.53058671
_cell_angle_alpha   90.00000000
_cell_angle_beta   90.00000000
_cell_angle_gamma   90.00000000
_symmetry_Int_Tables_number   1
_chemical_formula_structural   LiNi4(PO4)3
_chemical_formula_sum   'Li4 Ni16 P12 O48'
_cell_volume   945.30614506
_cell_formula_units_Z   4
loop_
 _symmetry_equiv_pos_site_id
 _symmetry_equiv_pos_as_xyz
  1  'x, y, z'
loop_
 _atom_site_type_symbol
 _atom_site_label
 _atom_site_symmetry_multiplicity
 _atom_site_fract_x
 _atom_site_fract_y
 _atom_site_fract_z
 _atom_site_occupancy
  Li  Li0  1  0.00000000  0.45234910  0.24893370  1
  Li  Li1  1  0.00000000  0.54765090  0.75106630  1
  Li  Li2  1  0.50000000  0.95234910  0.25106630  1
  Li  Li3  1  0.50000000  0.04765090  0.74893370  1
  Ni  Ni4  1  0.00000000  0.09208580  0.53891041  1
  Ni  Ni5  1  0.00000000  0.14073132  0.99333244  1
  Ni  Ni6  1  0.00000000  0.85926868  0.00666756  1
  Ni  Ni7  1  0.00000000  0.90791420  0.46108959  1
  Ni  Ni8  1  0.24868635  0.29901763  0.75471143  1
  Ni  Ni9  1  0.24868635  0.70098237  0.24528857  1
  Ni  Ni10  1  0.25131365  0.20098237  0.25471143  1
  Ni  Ni11  1  0.25131365  0.79901763  0.74528857  1
  Ni  Ni12  1  0.50000000  0.59208580  0.96108959  1
  Ni  Ni13  1  0.50000000  0.64073132  0.50666756  1
  Ni  Ni14  1  0.50000000  0.40791420  0.03891041  1
  Ni  Ni15  1  0.50000000  0.35926868  0.49333244  1
  Ni  Ni16  1  0.74868635  0.79901763  0.74528857  1
  Ni  Ni17  1  0.74868635  0.20098237  0.25471143  1
  Ni  Ni18  1  0.75131365  0.29901763  0.75471143  1
  Ni  Ni19  1  0.75131365  0.70098237  0.24528857  1
  P  P20  1  0.00000000  0.03369394  0.20786287  1
  P  P21  1  0.00000000  0.33963910  0.05010553  1
  P  P22  1  0.00000000  0.28217024  0.45665570  1
  P  P23  1  0.00000000  0.71782976  0.54334430  1
  P  P24  1  0.00000000  0.66036090  0.94989447  1
  P  P25  1  0.00000000  0.96630606  0.79213713  1
  P  P26  1  0.50000000  0.21782976  0.95665570  1
  P  P27  1  0.50000000  0.53369394  0.29213713  1
  P  P28  1  0.50000000  0.16036090  0.55010553  1
  P  P29  1  0.50000000  0.46630606  0.70786287  1
  P  P30  1  0.50000000  0.78217024  0.04334430  1
  P  P31  1  0.50000000  0.83963910  0.44989447  1
  O  O32  1  0.00000000  0.02025697  0.36919925  1
  O  O33  1  0.00000000  0.24843578  0.11816759  1
  O  O34  1  0.00000000  0.18890291  0.39845707  1
  O  O35  1  0.00000000  0.05010908  0.85980953  1
  O  O36  1  0.00000000  0.27761541  0.61905624  1
  O  O37  1  0.00000000  0.66926171  0.11236988  1
  O  O38  1  0.00000000  0.33073829  0.88763012  1
  O  O39  1  0.00000000  0.72238459  0.38094376  1
  O  O40  1  0.00000000  0.94989092  0.14019047  1
  O  O41  1  0.00000000  0.81109709  0.60154293  1
  O  O42  1  0.00000000  0.75156422  0.88183241  1
  O  O43  1  0.00000000  0.97974303  0.63080075  1
  O  O44  1  0.20287152  0.08731251  0.16257479  1
  O  O45  1  0.20287152  0.91268749  0.83742521  1
  O  O46  1  0.19775680  0.61178501  0.89612014  1
  O  O47  1  0.19775680  0.38821499  0.10387986  1
  O  O48  1  0.21068558  0.31850046  0.39383895  1
  O  O49  1  0.21068558  0.68149954  0.60616105  1
  O  O50  1  0.28931442  0.18149954  0.89383895  1
  O  O51  1  0.28931442  0.81850046  0.10616105  1
  O  O52  1  0.30224320  0.88821499  0.39612014  1
  O  O53  1  0.30224320  0.11178501  0.60387986  1
  O  O54  1  0.29712848  0.58731251  0.33742521  1
  O  O55  1  0.29712848  0.41268749  0.66257479  1
  O  O56  1  0.50000000  0.16926171  0.38763012  1
  O  O57  1  0.50000000  0.44989092  0.35980953  1
  O  O58  1  0.50000000  0.52025697  0.13080075  1
  O  O59  1  0.50000000  0.55010908  0.64019047  1
  O  O60  1  0.50000000  0.22238459  0.11905624  1
  O  O61  1  0.50000000  0.47974303  0.86919925  1
  O  O62  1  0.50000000  0.77761541  0.88094376  1
  O  O63  1  0.50000000  0.25156422  0.61816759  1
  O  O64  1  0.50000000  0.31109709  0.89845707  1
  O  O65  1  0.50000000  0.68890291  0.10154293  1
  O  O66  1  0.50000000  0.83073829  0.61236988  1
  O  O67  1  0.50000000  0.74843578  0.38183241  1
  O  O68  1  0.70287152  0.41268749  0.66257479  1
  O  O69  1  0.70287152  0.58731251  0.33742521  1
  O  O70  1  0.69775680  0.11178501  0.60387986  1
  O  O71  1  0.69775680  0.88821499  0.39612014  1
  O  O72  1  0.71068558  0.18149954  0.89383895  1
  O  O73  1  0.71068558  0.81850046  0.10616105  1
  O  O74  1  0.78931442  0.31850046  0.39383895  1
  O  O75  1  0.78931442  0.68149954  0.60616105  1
  O  O76  1  0.80224320  0.38821499  0.10387986  1
  O  O77  1  0.80224320  0.61178501  0.89612014  1
  O  O78  1  0.79712848  0.08731251  0.16257479  1
  O  O79  1  0.79712848  0.91268749  0.83742521  1
