# generated using pymatgen
data_LiMnPO4
_symmetry_space_group_name_H-M   'P 1'
_cell_length_a   8.60523380
_cell_length_b   5.32762458
_cell_length_c   8.23573404
_cell_angle_alpha   90.00000000
_cell_angle_beta   105.90864746
_cell_angle_gamma   90.00000000
_symmetry_Int_Tables_number   1
_chemical_formula_structural   LiMnPO4
_chemical_formula_sum   'Li4 Mn4 P4 O16'
_cell_volume   363.10998807
_cell_formula_units_Z   4
loop_
 _symmetry_equiv_pos_site_id
 _symmetry_equiv_pos_as_xyz
  1  'x, y, z'
loop_
 _atom_site_type_symbol
 _atom_site_label
 _atom_site_symmetry_multiplicity
 _atom_site_fract_x
 _atom_site_fract_y
 _atom_site_fract_z
 _atom_site_occupancy
  Li  Li0  1  0.21232808  0.33926446  0.86935435  1
  Li  Li1  1  0.38135550  0.82484050  0.36128418  1
  Li  Li2  1  0.71232808  0.66073554  0.86935435  1
  Li  Li3  1  0.88135550  0.17515950  0.36128418  1
  Mn  Mn4  1  0.07031054  0.83984538  0.96209416  1
  Mn  Mn5  1  0.26658629  0.32362220  0.48924442  1
  Mn  Mn6  1  0.57031054  0.16015462  0.96209416  1
  Mn  Mn7  1  0.76658629  0.67637780  0.48924442  1
  P  P8  1  0.00579537  0.67557774  0.25117653  1
  P  P9  1  0.33651049  0.82008115  0.74012058  1
  P  P10  1  0.50579537  0.32442226  0.25117653  1
  P  P11  1  0.83651049  0.17991885  0.74012058  1
  O  O12  1  0.00414057  0.20106009  0.87359697  1
  O  O13  1  0.04323421  0.40174314  0.31744460  1
  O  O14  1  0.20336139  0.69758667  0.80924785  1
  O  O15  1  0.30132991  0.10937581  0.71059632  1
  O  O16  1  0.16224720  0.80081561  0.22741847  1
  O  O17  1  0.34264722  0.68674222  0.57549663  1
  O  O18  1  0.50414057  0.79893991  0.87359697  1
  O  O19  1  0.43791657  0.17764361  0.38028809  1
  O  O20  1  0.38603763  0.31161827  0.07143787  1
  O  O21  1  0.54323421  0.59825686  0.31744460  1
  O  O22  1  0.70336139  0.30241333  0.80924785  1
  O  O23  1  0.80132991  0.89062419  0.71059632  1
  O  O24  1  0.66224720  0.19918439  0.22741847  1
  O  O25  1  0.84264722  0.31325778  0.57549663  1
  O  O26  1  0.93791657  0.82235639  0.38028809  1
  O  O27  1  0.88603763  0.68838173  0.07143787  1
