# generated using pymatgen
data_GdH18C3S3(O2F)9
_symmetry_space_group_name_H-M   'P 1'
_cell_length_a   13.89353793
_cell_length_b   13.89350809
_cell_length_c   7.53934239
_cell_angle_alpha   90.00000000
_cell_angle_beta   90.00000000
_cell_angle_gamma   120.00052696
_symmetry_Int_Tables_number   1
_chemical_formula_structural   GdH18C3S3(O2F)9
_chemical_formula_sum   'Gd2 H36 C6 S6 O36 F18'
_cell_volume   1260.33663841
_cell_formula_units_Z   2
loop_
 _symmetry_equiv_pos_site_id
 _symmetry_equiv_pos_as_xyz
  1  'x, y, z'
loop_
 _atom_site_type_symbol
 _atom_site_label
 _atom_site_symmetry_multiplicity
 _atom_site_fract_x
 _atom_site_fract_y
 _atom_site_fract_z
 _atom_site_occupancy
  Gd  Gd0  1  0.33333416  0.66666732  0.25000000  1
  Gd  Gd1  1  0.66666584  0.33333268  0.75000000  1
  H  H2  1  0.09982328  0.64774691  0.35520912  1
  H  H3  1  0.54792436  0.90017739  0.35520937  1
  H  H4  1  0.35225278  0.45207594  0.35520921  1
  H  H5  1  0.90017672  0.35225309  0.85520912  1
  H  H6  1  0.45207564  0.09982261  0.85520937  1
  H  H7  1  0.64774722  0.54792406  0.85520921  1
  H  H8  1  0.90017672  0.35225309  0.64479088  1
  H  H9  1  0.45207564  0.09982261  0.64479063  1
  H  H10  1  0.64774722  0.54792406  0.64479079  1
  H  H11  1  0.09982328  0.64774691  0.14479088  1
  H  H12  1  0.54792436  0.90017739  0.14479063  1
  H  H13  1  0.35225278  0.45207594  0.14479079  1
  H  H14  1  0.36733546  0.87130499  0.04078674  1
  H  H15  1  0.50396968  0.63266488  0.04078659  1
  H  H16  1  0.12869518  0.49603036  0.04078753  1
  H  H17  1  0.63266454  0.12869501  0.54078674  1
  H  H18  1  0.49603032  0.36733512  0.54078659  1
  H  H19  1  0.87130482  0.50396964  0.54078753  1
  H  H20  1  0.63266454  0.12869501  0.95921326  1
  H  H21  1  0.49603032  0.36733512  0.95921341  1
  H  H22  1  0.87130482  0.50396964  0.95921247  1
  H  H23  1  0.36733546  0.87130499  0.45921326  1
  H  H24  1  0.50396968  0.63266488  0.45921341  1
  H  H25  1  0.12869518  0.49603036  0.45921247  1
  H  H26  1  0.28028533  0.76763108  0.93050034  1
  H  H27  1  0.48734672  0.71971472  0.93049994  1
  H  H28  1  0.23236840  0.51265393  0.93050116  1
  H  H29  1  0.71971467  0.23236892  0.43050034  1
  H  H30  1  0.51265328  0.28028528  0.43049994  1
  H  H31  1  0.76763160  0.48734607  0.43050116  1
  H  H32  1  0.71971467  0.23236892  0.06949966  1
  H  H33  1  0.51265328  0.28028528  0.06950006  1
  H  H34  1  0.76763160  0.48734607  0.06949884  1
  H  H35  1  0.28028533  0.76763108  0.56949966  1
  H  H36  1  0.48734672  0.71971472  0.56950006  1
  H  H37  1  0.23236840  0.51265393  0.56949884  1
  C  C38  1  0.01906674  0.78672962  0.75000000  1
  C  C39  1  0.76766391  0.98093420  0.75000000  1
  C  C40  1  0.21327023  0.23233528  0.75000000  1
  C  C41  1  0.98093326  0.21327038  0.25000000  1
  C  C42  1  0.23233609  0.01906580  0.25000000  1
  C  C43  1  0.78672977  0.76766472  0.25000000  1
  S  S44  1  0.06504816  0.68051058  0.75000000  1
  S  S45  1  0.61546238  0.93495170  0.75000000  1
  S  S46  1  0.31948963  0.38453747  0.75000000  1
  S  S47  1  0.93495184  0.31948942  0.25000000  1
  S  S48  1  0.38453762  0.06504830  0.25000000  1
  S  S49  1  0.68051037  0.61546253  0.25000000  1
  O  O50  1  0.14518547  0.65662841  0.25000000  1
  O  O51  1  0.51144328  0.85481495  0.25000000  1
  O  O52  1  0.34336930  0.48855499  0.25000000  1
  O  O53  1  0.85481453  0.34337159  0.75000000  1
  O  O54  1  0.48855672  0.14518505  0.75000000  1
  O  O55  1  0.65663070  0.51144501  0.75000000  1
  O  O56  1  0.34159816  0.79250002  0.01653844  1
  O  O57  1  0.45090251  0.65840240  0.01653933  1
  O  O58  1  0.20750049  0.54909779  0.01653926  1
  O  O59  1  0.65840184  0.20749998  0.51653844  1
  O  O60  1  0.54909749  0.34159760  0.51653933  1
  O  O61  1  0.79249951  0.45090221  0.51653926  1
  O  O62  1  0.65840184  0.20749998  0.98346156  1
  O  O63  1  0.54909749  0.34159760  0.98346067  1
  O  O64  1  0.79249951  0.45090221  0.98346074  1
  O  O65  1  0.34159816  0.79250002  0.48346156  1
  O  O66  1  0.45090251  0.65840240  0.48346067  1
  O  O67  1  0.20750049  0.54909779  0.48346074  1
  O  O68  1  0.18673261  0.74655155  0.75000000  1
  O  O69  1  0.55981853  0.81326757  0.75000000  1
  O  O70  1  0.25344987  0.44018054  0.75000000  1
  O  O71  1  0.81326739  0.25344845  0.25000000  1
  O  O72  1  0.44018147  0.18673243  0.25000000  1
  O  O73  1  0.74655013  0.55981946  0.25000000  1
  O  O74  1  0.01822351  0.61760049  0.91412702  1
  O  O75  1  0.59937715  0.98177625  0.91412698  1
  O  O76  1  0.38240033  0.40062412  0.91412727  1
  O  O77  1  0.98177649  0.38239951  0.41412702  1
  O  O78  1  0.40062285  0.01822375  0.41412698  1
  O  O79  1  0.61759967  0.59937588  0.41412727  1
  O  O80  1  0.98177649  0.38239951  0.08587298  1
  O  O81  1  0.40062285  0.01822375  0.08587302  1
  O  O82  1  0.61759967  0.59937588  0.08587273  1
  O  O83  1  0.01822351  0.61760049  0.58587298  1
  O  O84  1  0.59937715  0.98177625  0.58587302  1
  O  O85  1  0.38240033  0.40062412  0.58587273  1
  F  F86  1  0.90672882  0.73458978  0.75000000  1
  F  F87  1  0.82786255  0.09327264  0.75000000  1
  F  F88  1  0.26541057  0.17213806  0.75000000  1
  F  F89  1  0.09327118  0.26541022  0.25000000  1
  F  F90  1  0.17213745  0.90672736  0.25000000  1
  F  F91  1  0.73458943  0.82786194  0.25000000  1
  F  F92  1  0.05748257  0.85159595  0.89570652  1
  F  F93  1  0.79411385  0.94251815  0.89570743  1
  F  F94  1  0.14840397  0.20588512  0.89570798  1
  F  F95  1  0.94251743  0.14840405  0.39570652  1
  F  F96  1  0.20588615  0.05748185  0.39570743  1
  F  F97  1  0.85159603  0.79411488  0.39570798  1
  F  F98  1  0.94251743  0.14840405  0.10429348  1
  F  F99  1  0.20588615  0.05748185  0.10429257  1
  F  F100  1  0.85159603  0.79411488  0.10429202  1
  F  F101  1  0.05748257  0.85159595  0.60429348  1
  F  F102  1  0.79411385  0.94251815  0.60429257  1
  F  F103  1  0.14840397  0.20588512  0.60429202  1
