# generated using pymatgen
data_LiNi4(PO4)3
_symmetry_space_group_name_H-M   'P 1'
_cell_length_a   8.51123756
_cell_length_b   8.51123756
_cell_length_c   6.42161335
_cell_angle_alpha   72.75747380
_cell_angle_beta   107.24252620
_cell_angle_gamma   86.04341653
_symmetry_Int_Tables_number   1
_chemical_formula_structural   LiNi4(PO4)3
_chemical_formula_sum   'Li2 Ni8 P6 O24'
_cell_volume   417.99456152
_cell_formula_units_Z   2
loop_
 _symmetry_equiv_pos_site_id
 _symmetry_equiv_pos_as_xyz
  1  'x, y, z'
loop_
 _atom_site_type_symbol
 _atom_site_label
 _atom_site_symmetry_multiplicity
 _atom_site_fract_x
 _atom_site_fract_y
 _atom_site_fract_z
 _atom_site_occupancy
  Li  Li0  1  0.01650477  0.02097341  0.74879383  1
  Li  Li1  1  0.97902659  0.98349523  0.24879383  1
  Ni  Ni2  1  0.05496981  0.62522343  0.63075893  1
  Ni  Ni3  1  0.37477657  0.94503019  0.13075893  1
  Ni  Ni4  1  0.73843050  0.73635744  0.75252373  1
  Ni  Ni5  1  0.49875443  0.51733826  0.52312726  1
  Ni  Ni6  1  0.26364256  0.26156950  0.25252373  1
  Ni  Ni7  1  0.48266174  0.50124557  0.02312726  1
  Ni  Ni8  1  0.62427608  0.05831502  0.86532723  1
  Ni  Ni9  1  0.94168498  0.37572392  0.36532723  1
  P  P10  1  0.33470662  0.87721765  0.62786463  1
  P  P11  1  0.12278235  0.66529438  0.12786463  1
  P  P12  1  0.29737949  0.29909923  0.75078657  1
  P  P13  1  0.70090077  0.70262051  0.25078657  1
  P  P14  1  0.87840436  0.33803194  0.86934590  1
  P  P15  1  0.66196806  0.12159564  0.36934590  1
  O  O16  1  0.39934307  0.95421778  0.81971258  1
  O  O17  1  0.15383848  0.84532673  0.60034599  1
  O  O18  1  0.04578222  0.60065693  0.31971258  1
  O  O19  1  0.15467327  0.84616152  0.10034599  1
  O  O20  1  0.66871327  0.99489831  0.60439499  1
  O  O21  1  0.46420618  0.71042407  0.69605171  1
  O  O22  1  0.27812313  0.47708059  0.77368465  1
  O  O23  1  0.00510069  0.33128673  0.10439499  1
  O  O24  1  0.26638037  0.18517680  0.96703860  1
  O  O25  1  0.18590341  0.26816751  0.53265853  1
  O  O26  1  0.28957593  0.53579382  0.19605171  1
  O  O27  1  0.52291941  0.72187687  0.27368465  1
  O  O28  1  0.47651126  0.28598707  0.73220407  1
  O  O29  1  0.71784098  0.47182673  0.80470193  1
  O  O30  1  0.81482320  0.73361963  0.46703860  1
  O  O31  1  0.73183249  0.81409659  0.03265853  1
  O  O32  1  0.99672553  0.66977291  0.89450840  1
  O  O33  1  0.71401293  0.52348874  0.23220407  1
  O  O34  1  0.52817327  0.28215902  0.30470193  1
  O  O35  1  0.33022709  0.00327447  0.39450840  1
  O  O36  1  0.84322898  0.15778450  0.89714519  1
  O  O37  1  0.95711089  0.39806722  0.67824628  1
  O  O38  1  0.84221550  0.15677102  0.39714519  1
  O  O39  1  0.60193278  0.04288911  0.17824628  1
