# generated using pymatgen
data_Ba5V5O14
_symmetry_space_group_name_H-M   'P 1'
_cell_length_a   5.84167128
_cell_length_b   5.78510925
_cell_length_c   23.81486566
_cell_angle_alpha   89.49931463
_cell_angle_beta   89.55619153
_cell_angle_gamma   120.16284948
_symmetry_Int_Tables_number   1
_chemical_formula_structural   Ba5V5O14
_chemical_formula_sum   'Ba10 V10 O28'
_cell_volume   695.74975228
_cell_formula_units_Z   2
loop_
 _symmetry_equiv_pos_site_id
 _symmetry_equiv_pos_as_xyz
  1  'x, y, z'
loop_
 _atom_site_type_symbol
 _atom_site_label
 _atom_site_symmetry_multiplicity
 _atom_site_fract_x
 _atom_site_fract_y
 _atom_site_fract_z
 _atom_site_occupancy
  Ba  Ba0  1  0.33334601  0.66674404  0.20591159  1
  Ba  Ba1  1  0.32484150  0.66374240  0.38792296  1
  Ba  Ba2  1  0.32670726  0.65836228  0.70474471  1
  Ba  Ba3  1  0.33245232  0.65982867  0.88808223  1
  Ba  Ba4  1  0.00533439  0.00458713  0.00009711  1
  Ba  Ba5  1  0.99827774  0.00026034  0.50089996  1
  Ba  Ba6  1  0.66262695  0.33378322  0.10967097  1
  Ba  Ba7  1  0.66437443  0.33058718  0.60882976  1
  Ba  Ba8  1  0.66673297  0.32994351  0.79219219  1
  Ba  Ba9  1  0.65840415  0.32901802  0.29234478  1
  V  V10  1  0.31113110  0.67840229  0.05391364  1
  V  V11  1  0.36987437  0.68493679  0.55321843  1
  V  V12  1  0.99571388  0.00457125  0.14007606  1
  V  V13  1  0.01577681  0.00041738  0.85953833  1
  V  V14  1  0.99367016  0.99520565  0.25115464  1
  V  V15  1  0.97649261  0.98533920  0.36078593  1
  V  V16  1  0.99916059  0.99866405  0.64049005  1
  V  V17  1  0.99452329  0.99429940  0.75104392  1
  V  V18  1  0.61789751  0.30920567  0.44544343  1
  V  V19  1  0.68269618  0.31143673  0.94561063  1
  O  O20  1  0.04464600  0.51422327  0.99594489  1
  O  O21  1  0.15253570  0.84224759  0.10073317  1
  O  O22  1  0.16372224  0.82237282  0.59310342  1
  O  O23  1  0.13934011  0.84550774  0.30417199  1
  O  O24  1  0.14995919  0.83912191  0.80423430  1
  O  O25  1  0.12554955  0.29135263  0.29971486  1
  O  O26  1  0.16662908  0.30404373  0.79948654  1
  O  O27  1  0.18027481  0.34100716  0.09324473  1
  O  O28  1  0.16476991  0.33906024  0.59433987  1
  O  O29  1  0.70674823  0.85221999  0.80188632  1
  O  O30  1  0.67734245  0.83374180  0.30263646  1
  O  O31  1  0.69037675  0.83996552  0.59980995  1
  O  O32  1  0.66397807  0.83230372  0.09296664  1
  O  O33  1  0.51675692  0.50015894  0.50096825  1
  O  O34  1  0.34187105  0.17599678  0.40146100  1
  O  O35  1  0.34246643  0.16505608  0.90577480  1
  O  O36  1  0.29522995  0.15076864  0.19772453  1
  O  O37  1  0.29253112  0.14191596  0.69394929  1
  O  O38  1  0.84920193  0.66205058  0.41021692  1
  O  O39  1  0.79623469  0.64583612  0.91414563  1
  O  O40  1  0.84268238  0.70189536  0.19973651  1
  O  O41  1  0.85506871  0.69596339  0.69847549  1
  O  O42  1  0.51721492  0.06590634  0.00393639  1
  O  O43  1  0.51985053  0.01529240  0.50078056  1
  O  O44  1  0.85145353  0.15211957  0.19244947  1
  O  O45  1  0.84892742  0.14767842  0.69686569  1
  O  O46  1  0.84315363  0.18383216  0.40795936  1
  O  O47  1  0.83404750  0.16222794  0.90130963  1
