# generated using pymatgen
data_DyAgH2C2SO9
_symmetry_space_group_name_H-M   'P 1'
_cell_length_a   7.73725518
_cell_length_b   7.73725518
_cell_length_c   9.08685372
_cell_angle_alpha   65.99483703
_cell_angle_beta   114.00516297
_cell_angle_gamma   126.56489691
_symmetry_Int_Tables_number   1
_chemical_formula_structural   DyAgH2C2SO9
_chemical_formula_sum   'Dy2 Ag2 H4 C4 S2 O18'
_cell_volume   388.97385495
_cell_formula_units_Z   2
loop_
 _symmetry_equiv_pos_site_id
 _symmetry_equiv_pos_as_xyz
  1  'x, y, z'
loop_
 _atom_site_type_symbol
 _atom_site_label
 _atom_site_symmetry_multiplicity
 _atom_site_fract_x
 _atom_site_fract_y
 _atom_site_fract_z
 _atom_site_occupancy
  Dy  Dy0  1  0.24278759  0.75721141  0.26823496  1
  Dy  Dy1  1  0.75721141  0.24278759  0.73176504  1
  Ag  Ag2  1  0.08668184  0.91331816  0.66866436  1
  Ag  Ag3  1  0.91331816  0.08668184  0.33133564  1
  H  H4  1  0.41477716  0.58522284  0.14637110  1
  H  H5  1  0.58522284  0.41477616  0.85362890  1
  H  H6  1  0.30117861  0.69882139  0.98861778  1
  H  H7  1  0.69882139  0.30117861  0.01138222  1
  C  C8  1  0.01693720  0.98306280  0.93045131  1
  C  C9  1  0.98306180  0.01693820  0.06954869  1
  C  C10  1  0.60911160  0.60911060  0.50000100  1
  C  C11  1  0.39088940  0.39088740  0.50000100  1
  S  S12  1  0.33378357  0.66621543  0.71604454  1
  S  S13  1  0.66621543  0.33378457  0.28395546  1
  O  O14  1  0.33537659  0.66462241  0.10899618  1
  O  O15  1  0.66462241  0.33537659  0.89100382  1
  O  O16  1  0.44804911  0.55195089  0.75243754  1
  O  O17  1  0.55195089  0.44804911  0.24756246  1
  O  O18  1  0.47975708  0.86570602  0.79005408  1
  O  O19  1  0.86570602  0.47975808  0.20994592  1
  O  O20  1  0.52024292  0.13429498  0.20994592  1
  O  O21  1  0.13429498  0.52024392  0.79005408  1
  O  O22  1  0.26064708  0.73935292  0.53323349  1
  O  O23  1  0.73935292  0.26064608  0.46676651  1
  O  O24  1  0.60016642  0.78221844  0.41786347  1
  O  O25  1  0.78221944  0.60016442  0.58213853  1
  O  O26  1  0.39983458  0.21777956  0.58213853  1
  O  O27  1  0.21778056  0.39983358  0.41786347  1
  O  O28  1  0.94257055  0.05742845  0.78263372  1
  O  O29  1  0.05742945  0.94257055  0.21736628  1
  O  O30  1  0.11816118  0.88183882  0.97323534  1
  O  O31  1  0.88183882  0.11816118  0.02676466  1
