# generated using pymatgen
data_Li4V3P8O29
_symmetry_space_group_name_H-M   'P 1'
_cell_length_a   9.77317395
_cell_length_b   9.74220329
_cell_length_c   14.18125938
_cell_angle_alpha   90.31793742
_cell_angle_beta   90.81429955
_cell_angle_gamma   60.41782858
_symmetry_Int_Tables_number   1
_chemical_formula_structural   Li4V3P8O29
_chemical_formula_sum   'Li8 V6 P16 O58'
_cell_volume   1174.10498467
_cell_formula_units_Z   2
loop_
 _symmetry_equiv_pos_site_id
 _symmetry_equiv_pos_as_xyz
  1  'x, y, z'
loop_
 _atom_site_type_symbol
 _atom_site_label
 _atom_site_symmetry_multiplicity
 _atom_site_fract_x
 _atom_site_fract_y
 _atom_site_fract_z
 _atom_site_occupancy
  Li  Li0  1  0.77096209  0.31470179  0.05616720  1
  Li  Li1  1  0.31572689  0.90750681  0.06025753  1
  Li  Li2  1  0.67079171  0.23254633  0.44425516  1
  Li  Li3  1  0.33651255  0.76817963  0.55922653  1
  Li  Li4  1  0.68827877  0.08023339  0.93514431  1
  Li  Li5  1  0.09445746  0.67166722  0.44311953  1
  Li  Li6  1  0.09375407  0.22875513  0.93807526  1
  Li  Li7  1  0.98871118  0.04693474  0.50990560  1
  V  V8  1  0.56214686  0.43397594  0.25020369  1
  V  V9  1  0.42904518  0.56864897  0.75468385  1
  V  V10  1  0.57105499  0.99071563  0.74354799  1
  V  V11  1  0.43216496  0.00417772  0.25398798  1
  V  V12  1  0.99866852  0.56666462  0.25037324  1
  V  V13  1  0.99878372  0.43571455  0.74733380  1
  P  P14  1  0.91826321  0.77235116  0.83974306  1
  P  P15  1  0.77864546  0.91744306  0.33726112  1
  P  P16  1  0.91536957  0.30551811  0.34137272  1
  P  P17  1  0.66382854  0.66452633  0.13260277  1
  P  P18  1  0.66096170  0.66197385  0.63008323  1
  P  P19  1  0.77026451  0.31990886  0.84000133  1
  P  P20  1  0.68266633  0.22940145  0.65873790  1
  P  P21  1  0.32009090  0.91240593  0.84403370  1
  P  P22  1  0.67914585  0.08735714  0.15439932  1
  P  P23  1  0.31670929  0.77150465  0.34163186  1
  P  P24  1  0.22375754  0.68566034  0.16025432  1
  P  P25  1  0.33277782  0.33678823  0.37003777  1
  P  P26  1  0.34084189  0.32296584  0.86905277  1
  P  P27  1  0.08524220  0.69000966  0.65660300  1
  P  P28  1  0.22029349  0.08528542  0.66209180  1
  P  P29  1  0.08522668  0.23013363  0.15835656  1
  O  O30  1  0.02035365  0.77492010  0.56506062  1
  O  O31  1  0.92060407  0.74353591  0.33799198  1
  O  O32  1  0.74446014  0.01845067  0.06142059  1
  O  O33  1  0.74384371  0.91402287  0.83323677  1
  O  O34  1  0.91301697  0.61711701  0.82041491  1
  O  O35  1  0.81397404  0.65923221  0.18285070  1
  O  O36  1  0.92388267  0.46020344  0.33155922  1
  O  O37  1  0.99844692  0.24693680  0.06681279  1
  O  O38  1  0.91856624  0.33652890  0.84116452  1
  O  O39  1  0.66681698  0.81164860  0.67492161  1
  O  O40  1  0.62354906  0.91538951  0.32963908  1
  O  O41  1  0.80491108  0.51677363  0.67178463  1
  O  O42  1  0.67765886  0.64755105  0.02846918  1
  O  O43  1  0.64074437  0.67896498  0.52580693  1
  O  O44  1  0.66563168  0.51238647  0.17508616  1
  O  O45  1  0.47869519  0.90376837  0.82332498  1
  O  O46  1  0.51640936  0.81375048  0.16873315  1
  O  O47  1  0.73913187  0.34445021  0.33629936  1
  O  O48  1  0.79170731  0.20926858  0.74995618  1
  O  O49  1  0.77017557  0.21269533  0.56994733  1
  O  O50  1  0.75390468  0.24368217  0.92781878  1
  O  O51  1  0.62101865  0.48152003  0.82119725  1
  O  O52  1  0.50616170  0.67480772  0.67354796  1
  O  O53  1  0.65936941  0.25712458  0.16408663  1
  O  O54  1  0.47450905  0.61692311  0.32474618  1
  O  O55  1  0.34453139  0.91285192  0.33372791  1
  O  O56  1  0.79967883  0.98732509  0.23785351  1
  O  O57  1  0.79546814  0.00991657  0.41651289  1
  O  O58  1  0.20276002  0.99546197  0.58120979  1
  O  O59  1  0.65062094  0.08842535  0.66779172  1
  O  O60  1  0.52926743  0.38683208  0.67070706  1
  O  O61  1  0.34287721  0.74334098  0.83807357  1
  O  O62  1  0.48769851  0.32833758  0.32528489  1
  O  O63  1  0.37815236  0.52444666  0.17877270  1
  O  O64  1  0.23350914  0.76938115  0.07676452  1
  O  O65  1  0.24103209  0.76658960  0.43212137  1
  O  O66  1  0.20194417  0.78896909  0.25513448  1
  O  O67  1  0.25797795  0.66267692  0.66830192  1
  O  O68  1  0.48740105  0.17580081  0.82558348  1
  O  O69  1  0.52092180  0.09544551  0.17784519  1
  O  O70  1  0.34411271  0.47088674  0.82060258  1
  O  O71  1  0.35501117  0.32618803  0.97350120  1
  O  O72  1  0.34655213  0.34744515  0.47425857  1
  O  O73  1  0.18533142  0.49283151  0.33059243  1
  O  O74  1  0.38217105  0.07833786  0.66992580  1
  O  O75  1  0.32429641  0.19528309  0.32804639  1
  O  O76  1  0.08229850  0.65582331  0.16563518  1
  O  O77  1  0.99294165  0.80029056  0.74418764  1
  O  O78  1  0.00032207  0.77604721  0.92647494  1
  O  O79  1  0.08797183  0.53318913  0.66838194  1
  O  O80  1  0.18834986  0.32659086  0.83263783  1
  O  O81  1  0.09743435  0.38076675  0.18028044  1
  O  O82  1  0.24989438  0.08324725  0.16074000  1
  O  O83  1  0.24812624  0.99656669  0.93428298  1
  O  O84  1  0.20175941  0.00844222  0.75920146  1
  O  O85  1  0.08745459  0.25744496  0.66644431  1
  O  O86  1  0.99429967  0.20300173  0.42362637  1
  O  O87  1  0.98853338  0.21118177  0.24317058  1
