# generated using pymatgen
data_Cu5Si4(HO7)2
_symmetry_space_group_name_H-M   'P 1'
_cell_length_a   10.50888316
_cell_length_b   21.27036039
_cell_length_c   5.33874920
_cell_angle_alpha   90.00000000
_cell_angle_beta   90.00000000
_cell_angle_gamma   90.00000000
_symmetry_Int_Tables_number   1
_chemical_formula_structural   Cu5Si4(HO7)2
_chemical_formula_sum   'Cu20 Si16 H8 O56'
_cell_volume   1193.35850098
_cell_formula_units_Z   4
loop_
 _symmetry_equiv_pos_site_id
 _symmetry_equiv_pos_as_xyz
  1  'x, y, z'
loop_
 _atom_site_type_symbol
 _atom_site_label
 _atom_site_symmetry_multiplicity
 _atom_site_fract_x
 _atom_site_fract_y
 _atom_site_fract_z
 _atom_site_occupancy
  Cu  Cu0  1  0.00000000  0.50000000  0.50000000  1
  Cu  Cu1  1  0.50000000  0.50000000  0.00000000  1
  Cu  Cu2  1  0.00000000  0.00000000  0.00000000  1
  Cu  Cu3  1  0.50000000  0.00000000  0.50000000  1
  Cu  Cu4  1  0.81699150  0.52849507  0.02242200  1
  Cu  Cu5  1  0.31699150  0.47150493  0.47757800  1
  Cu  Cu6  1  0.18300850  0.97150493  0.52242200  1
  Cu  Cu7  1  0.68300850  0.02849507  0.97757800  1
  Cu  Cu8  1  0.18300850  0.47150493  0.97757800  1
  Cu  Cu9  1  0.68300850  0.52849507  0.52242200  1
  Cu  Cu10  1  0.81699150  0.02849507  0.47757800  1
  Cu  Cu11  1  0.31699150  0.97150493  0.02242200  1
  Cu  Cu12  1  0.75231707  0.21995110  0.47367860  1
  Cu  Cu13  1  0.25231707  0.78004890  0.02632140  1
  Cu  Cu14  1  0.24768293  0.28004890  0.97367860  1
  Cu  Cu15  1  0.74768293  0.71995110  0.52632140  1
  Cu  Cu16  1  0.24768293  0.78004890  0.52632140  1
  Cu  Cu17  1  0.74768293  0.21995110  0.97367860  1
  Cu  Cu18  1  0.75231707  0.71995110  0.02632140  1
  Cu  Cu19  1  0.25231707  0.28004890  0.47367860  1
  Si  Si20  1  0.05513153  0.36705229  0.22622912  1
  Si  Si21  1  0.55513153  0.63294771  0.27377088  1
  Si  Si22  1  0.94486847  0.13294771  0.72622912  1
  Si  Si23  1  0.44486847  0.86705229  0.77377088  1
  Si  Si24  1  0.94486847  0.63294771  0.77377088  1
  Si  Si25  1  0.44486847  0.36705229  0.72622912  1
  Si  Si26  1  0.05513153  0.86705229  0.27377088  1
  Si  Si27  1  0.55513153  0.13294771  0.22622912  1
  Si  Si28  1  0.90058389  0.33951551  0.73452854  1
  Si  Si29  1  0.40058389  0.66048449  0.76547146  1
  Si  Si30  1  0.09941611  0.16048449  0.23452854  1
  Si  Si31  1  0.59941611  0.83951551  0.26547146  1
  Si  Si32  1  0.09941611  0.66048449  0.26547146  1
  Si  Si33  1  0.59941611  0.33951551  0.23452854  1
  Si  Si34  1  0.90058389  0.83951551  0.76547146  1
  Si  Si35  1  0.40058389  0.16048449  0.73452854  1
  H  H36  1  0.25815909  0.08155432  0.67309839  1
  H  H37  1  0.75815909  0.91844568  0.82690161  1
  H  H38  1  0.74184091  0.41844568  0.17309839  1
  H  H39  1  0.24184091  0.58155432  0.32690161  1
  H  H40  1  0.74184091  0.91844568  0.32690161  1
  H  H41  1  0.24184091  0.08155432  0.17309839  1
  H  H42  1  0.25815909  0.58155432  0.82690161  1
  H  H43  1  0.75815909  0.41844568  0.67309839  1
  O  O44  1  0.04828928  0.44414991  0.21172234  1
  O  O45  1  0.54828928  0.55585009  0.28827766  1
  O  O46  1  0.95171072  0.05585009  0.71172234  1
  O  O47  1  0.45171072  0.94414991  0.78827766  1
  O  O48  1  0.95171072  0.55585009  0.78827766  1
  O  O49  1  0.45171072  0.44414991  0.71172234  1
  O  O50  1  0.04828928  0.94414991  0.28827766  1
  O  O51  1  0.54828928  0.05585009  0.21172234  1
  O  O52  1  0.82739626  0.40678324  0.78774072  1
  O  O53  1  0.32739626  0.59321676  0.71225928  1
  O  O54  1  0.17260374  0.09321676  0.28774072  1
  O  O55  1  0.67260374  0.90678324  0.21225928  1
  O  O56  1  0.17260374  0.59321676  0.21225928  1
  O  O57  1  0.67260374  0.40678324  0.28774072  1
  O  O58  1  0.82739626  0.90678324  0.71225928  1
  O  O59  1  0.32739626  0.09321676  0.78774072  1
  O  O60  1  0.20400461  0.34286472  0.22963475  1
  O  O61  1  0.70400461  0.65713528  0.27036525  1
  O  O62  1  0.79599539  0.15713528  0.72963475  1
  O  O63  1  0.29599539  0.84286472  0.77036525  1
  O  O64  1  0.79599539  0.65713528  0.77036525  1
  O  O65  1  0.29599539  0.34286472  0.72963475  1
  O  O66  1  0.20400461  0.84286472  0.27036525  1
  O  O67  1  0.70400461  0.15713528  0.22963475  1
  O  O68  1  0.99478257  0.33285831  0.97598037  1
  O  O69  1  0.49478257  0.66714169  0.52401963  1
  O  O70  1  0.00521743  0.16714169  0.47598037  1
  O  O71  1  0.50521743  0.83285831  0.02401963  1
  O  O72  1  0.00521743  0.66714169  0.02401963  1
  O  O73  1  0.50521743  0.33285831  0.47598037  1
  O  O74  1  0.99478257  0.83285831  0.52401963  1
  O  O75  1  0.49478257  0.16714169  0.97598037  1
  O  O76  1  0.98147348  0.34047140  0.47392490  1
  O  O77  1  0.48147348  0.65952860  0.02607510  1
  O  O78  1  0.01852652  0.15952860  0.97392490  1
  O  O79  1  0.51852652  0.84047140  0.52607510  1
  O  O80  1  0.01852652  0.65952860  0.52607510  1
  O  O81  1  0.51852652  0.34047140  0.97392490  1
  O  O82  1  0.98147348  0.84047140  0.02607510  1
  O  O83  1  0.48147348  0.15952860  0.47392490  1
  O  O84  1  0.80273617  0.28048453  0.72272953  1
  O  O85  1  0.30273617  0.71951547  0.77727047  1
  O  O86  1  0.19726383  0.21951547  0.22272953  1
  O  O87  1  0.69726383  0.78048453  0.27727047  1
  O  O88  1  0.19726383  0.71951547  0.27727047  1
  O  O89  1  0.69726383  0.28048453  0.22272953  1
  O  O90  1  0.80273617  0.78048453  0.77727047  1
  O  O91  1  0.30273617  0.21951547  0.72272953  1
  O  O92  1  0.16184920  0.48534642  0.64133736  1
  O  O93  1  0.66184920  0.51465358  0.85866264  1
  O  O94  1  0.83815080  0.01465358  0.14133736  1
  O  O95  1  0.33815080  0.98534642  0.35866264  1
  O  O96  1  0.83815080  0.51465358  0.35866264  1
  O  O97  1  0.33815080  0.48534642  0.14133736  1
  O  O98  1  0.16184920  0.98534642  0.85866264  1
  O  O99  1  0.66184920  0.01465358  0.64133736  1
