# generated using pymatgen
data_Li3V3P8O29
_symmetry_space_group_name_H-M   'P 1'
_cell_length_a   9.76579836
_cell_length_b   9.76314839
_cell_length_c   14.16125181
_cell_angle_alpha   90.05926584
_cell_angle_beta   90.25659000
_cell_angle_gamma   60.14193618
_symmetry_Int_Tables_number   1
_chemical_formula_structural   Li3V3P8O29
_chemical_formula_sum   'Li6 V6 P16 O58'
_cell_volume   1170.96664487
_cell_formula_units_Z   2
loop_
 _symmetry_equiv_pos_site_id
 _symmetry_equiv_pos_as_xyz
  1  'x, y, z'
loop_
 _atom_site_type_symbol
 _atom_site_label
 _atom_site_symmetry_multiplicity
 _atom_site_fract_x
 _atom_site_fract_y
 _atom_site_fract_z
 _atom_site_occupancy
  Li  Li0  1  0.91222623  0.77105862  0.06177113  1
  Li  Li1  1  0.90511238  0.32875717  0.55575665  1
  Li  Li2  1  0.31161182  0.91498674  0.06069596  1
  Li  Li3  1  0.32960360  0.76370072  0.55776733  1
  Li  Li4  1  0.68355762  0.09275953  0.94373489  1
  Li  Li5  1  0.97036686  0.98224469  0.49556215  1
  V  V6  1  0.56770277  0.43356792  0.24702486  1
  V  V7  1  0.43423039  0.56434900  0.75443578  1
  V  V8  1  0.56849913  0.99400968  0.74030832  1
  V  V9  1  0.43199681  0.00447690  0.25639102  1
  V  V10  1  0.00453596  0.56041480  0.25327850  1
  V  V11  1  0.00136458  0.43556848  0.75309706  1
  P  P12  1  0.91130471  0.77322283  0.84217978  1
  P  P13  1  0.77931938  0.91292672  0.34072454  1
  P  P14  1  0.91294710  0.31102242  0.34057530  1
  P  P15  1  0.66462455  0.67235743  0.13098397  1
  P  P16  1  0.66606228  0.66132911  0.62900012  1
  P  P17  1  0.77331969  0.31410390  0.84300028  1
  P  P18  1  0.69046422  0.22766114  0.65877468  1
  P  P19  1  0.32048067  0.91337289  0.84309926  1
  P  P20  1  0.68127496  0.08793828  0.15926012  1
  P  P21  1  0.31430302  0.77053662  0.34290958  1
  P  P22  1  0.22700089  0.68596992  0.16000730  1
  P  P23  1  0.33668696  0.33509120  0.36995309  1
  P  P24  1  0.33905371  0.32688367  0.86890262  1
  P  P25  1  0.08554050  0.69175664  0.65942212  1
  P  P26  1  0.22117194  0.08606849  0.66103541  1
  P  P27  1  0.08543891  0.22649279  0.15739476  1
  O  O28  1  0.00438222  0.78823575  0.57509554  1
  O  O29  1  0.91330615  0.73906269  0.33068509  1
  O  O30  1  0.75393828  0.00187290  0.06910610  1
  O  O31  1  0.74270392  0.91904173  0.83399945  1
  O  O32  1  0.90189946  0.62015141  0.82029252  1
  O  O33  1  0.81778064  0.66732708  0.17046378  1
  O  O34  1  0.91081380  0.47082127  0.32585313  1
  O  O35  1  0.00023643  0.23226253  0.07084024  1
  O  O36  1  0.91367381  0.34529213  0.83359439  1
  O  O37  1  0.67100990  0.81069129  0.67268900  1
  O  O38  1  0.61774729  0.91816466  0.33008227  1
  O  O39  1  0.81484647  0.51045592  0.66930762  1
  O  O40  1  0.65739836  0.67587082  0.02611194  1
  O  O41  1  0.66141293  0.66551659  0.52411945  1
  O  O42  1  0.65858621  0.52686666  0.17668859  1
  O  O43  1  0.47937749  0.90502710  0.81757891  1
  O  O44  1  0.51775824  0.82151412  0.17514795  1
  O  O45  1  0.74174094  0.34332684  0.32916881  1
  O  O46  1  0.79462910  0.20506291  0.75230552  1
  O  O47  1  0.78747267  0.21518718  0.57481287  1
  O  O48  1  0.76308795  0.23538547  0.92940332  1
  O  O49  1  0.61894518  0.47565648  0.82358751  1
  O  O50  1  0.51276385  0.67128194  0.67103680  1
  O  O51  1  0.65645079  0.25672051  0.16402623  1
  O  O52  1  0.47089567  0.61517344  0.32779349  1
  O  O53  1  0.34519690  0.91182488  0.33078231  1
  O  O54  1  0.79777067  0.99427052  0.24529094  1
  O  O55  1  0.79657758  0.99263827  0.42493722  1
  O  O56  1  0.21718075  0.99178715  0.57968085  1
  O  O57  1  0.65337454  0.09001269  0.66564726  1
  O  O58  1  0.53432615  0.38496891  0.67168366  1
  O  O59  1  0.34455805  0.74409299  0.83010171  1
  O  O60  1  0.48213692  0.33377735  0.32403845  1
  O  O61  1  0.38049974  0.52560825  0.17643875  1
  O  O62  1  0.23389553  0.77338151  0.07644880  1
  O  O63  1  0.23374493  0.78300609  0.43441906  1
  O  O64  1  0.20114740  0.78782609  0.25599060  1
  O  O65  1  0.26065136  0.65435832  0.66446794  1
  O  O66  1  0.48533428  0.17858840  0.82731992  1
  O  O67  1  0.52225630  0.09564905  0.17929224  1
  O  O68  1  0.34054342  0.47523744  0.82233128  1
  O  O69  1  0.33669995  0.33317392  0.97324625  1
  O  O70  1  0.33194487  0.33542688  0.47434419  1
  O  O71  1  0.18601357  0.48305555  0.32481914  1
  O  O72  1  0.38066623  0.08726211  0.67118940  1
  O  O73  1  0.33189852  0.18702161  0.32598662  1
  O  O74  1  0.08327607  0.65893442  0.16027366  1
  O  O75  1  0.00802206  0.78997848  0.75624394  1
  O  O76  1  0.98653956  0.76201149  0.93504012  1
  O  O77  1  0.08173338  0.53521952  0.67362403  1
  O  O78  1  0.18533730  0.33686649  0.82226590  1
  O  O79  1  0.09184076  0.38096166  0.17942800  1
  O  O80  1  0.25842062  0.08395752  0.16385858  1
  O  O81  1  0.25690856  0.98636899  0.93541663  1
  O  O82  1  0.20059568  0.01399283  0.75910345  1
  O  O83  1  0.08232977  0.25876582  0.66093552  1
  O  O84  1  0.98387345  0.23463744  0.43281666  1
  O  O85  1  0.00735175  0.20122665  0.25338983  1
