# generated using pymatgen
data_Li3V3P8O29
_symmetry_space_group_name_H-M   'P 1'
_cell_length_a   9.77117187
_cell_length_b   9.76363048
_cell_length_c   14.32613019
_cell_angle_alpha   89.75248266
_cell_angle_beta   90.53915157
_cell_angle_gamma   59.91541056
_symmetry_Int_Tables_number   1
_chemical_formula_structural   Li3V3P8O29
_chemical_formula_sum   'Li6 V6 P16 O58'
_cell_volume   1182.50716348
_cell_formula_units_Z   2
loop_
 _symmetry_equiv_pos_site_id
 _symmetry_equiv_pos_as_xyz
  1  'x, y, z'
loop_
 _atom_site_type_symbol
 _atom_site_label
 _atom_site_symmetry_multiplicity
 _atom_site_fract_x
 _atom_site_fract_y
 _atom_site_fract_z
 _atom_site_occupancy
  Li  Li0  1  0.77514596  0.31460937  0.05425600  1
  Li  Li1  1  0.29600563  0.92036894  0.05322524  1
  Li  Li2  1  0.32364427  0.76594937  0.56219393  1
  Li  Li3  1  0.69197789  0.08252342  0.93690741  1
  Li  Li4  1  0.22640564  0.09766235  0.45032656  1
  Li  Li5  1  0.91937502  0.01016891  0.51048392  1
  V  V6  1  0.56500677  0.43271475  0.25820280  1
  V  V7  1  0.43286440  0.56358620  0.75099470  1
  V  V8  1  0.57344897  0.99062951  0.74522519  1
  V  V9  1  0.43743539  0.00158083  0.24965514  1
  V  V10  1  0.00291774  0.56467098  0.24848229  1
  V  V11  1  0.99742611  0.44009052  0.74816320  1
  P  P12  1  0.92014007  0.77176240  0.84372963  1
  P  P13  1  0.78131416  0.91195777  0.33572221  1
  P  P14  1  0.92196362  0.30556216  0.34040419  1
  P  P15  1  0.66404734  0.66451654  0.13458085  1
  P  P16  1  0.66256411  0.66557546  0.62972261  1
  P  P17  1  0.77469334  0.31828092  0.83930035  1
  P  P18  1  0.69228569  0.22396849  0.66007618  1
  P  P19  1  0.32163438  0.90841289  0.83993706  1
  P  P20  1  0.68009154  0.09350518  0.15639279  1
  P  P21  1  0.31592386  0.77480448  0.34455940  1
  P  P22  1  0.22708047  0.68634681  0.16452263  1
  P  P23  1  0.33217297  0.33106675  0.36767478  1
  P  P24  1  0.33856492  0.32543952  0.86692261  1
  P  P25  1  0.07993310  0.69934766  0.65836736  1
  P  P26  1  0.22525332  0.09174235  0.66260262  1
  P  P27  1  0.08507514  0.22839736  0.15717382  1
  O  O28  1  0.00251848  0.80124799  0.57564377  1
  O  O29  1  0.91615924  0.73792506  0.32942309  1
  O  O30  1  0.74037963  0.02185443  0.06451820  1
  O  O31  1  0.74615421  0.91564903  0.83504149  1
  O  O32  1  0.91102084  0.61892713  0.82091134  1
  O  O33  1  0.81449542  0.65846431  0.17920959  1
  O  O34  1  0.92461031  0.46182248  0.32847065  1
  O  O35  1  0.99495988  0.23338146  0.07238612  1
  O  O36  1  0.91779757  0.34352487  0.83287518  1
  O  O37  1  0.66802728  0.81327050  0.67506734  1
  O  O38  1  0.61895275  0.91628959  0.32382857  1
  O  O39  1  0.80956798  0.51898778  0.67589005  1
  O  O40  1  0.65642431  0.66894136  0.03125691  1
  O  O41  1  0.65791201  0.67560040  0.52649701  1
  O  O42  1  0.66111625  0.51721719  0.17625899  1
  O  O43  1  0.48123702  0.89978445  0.81920369  1
  O  O44  1  0.51787976  0.81840373  0.17776700  1
  O  O45  1  0.74675591  0.34325772  0.33277098  1
  O  O46  1  0.79305950  0.20283845  0.75539716  1
  O  O47  1  0.79085751  0.19994789  0.57772264  1
  O  O48  1  0.76168977  0.24580210  0.92876425  1
  O  O49  1  0.62117562  0.47915111  0.81921420  1
  O  O50  1  0.50860638  0.67453271  0.66894819  1
  O  O51  1  0.66029073  0.26107870  0.16570290  1
  O  O52  1  0.47544274  0.61770270  0.32777064  1
  O  O53  1  0.34174820  0.91962697  0.33414476  1
  O  O54  1  0.79783087  0.99188842  0.24022340  1
  O  O55  1  0.78986788  0.99680695  0.41783271  1
  O  O56  1  0.22865288  0.00486913  0.57541700  1
  O  O57  1  0.65158099  0.08895541  0.67100150  1
  O  O58  1  0.53808728  0.38516661  0.66911990  1
  O  O59  1  0.34473610  0.73943931  0.82850616  1
  O  O60  1  0.48479040  0.32778599  0.32705166  1
  O  O61  1  0.38095757  0.52505115  0.18406376  1
  O  O62  1  0.23484071  0.77198891  0.08186154  1
  O  O63  1  0.24499641  0.77872004  0.43622423  1
  O  O64  1  0.20289150  0.78993591  0.25888816  1
  O  O65  1  0.25829400  0.65571143  0.66362174  1
  O  O66  1  0.48765241  0.17450458  0.83001823  1
  O  O67  1  0.51945914  0.10218151  0.18042733  1
  O  O68  1  0.34826900  0.46963303  0.81818676  1
  O  O69  1  0.33798321  0.33574899  0.96983591  1
  O  O70  1  0.33020805  0.32278011  0.47078128  1
  O  O71  1  0.18996943  0.48044366  0.32129030  1
  O  O72  1  0.38293183  0.09232632  0.67611659  1
  O  O73  1  0.32704497  0.18343079  0.32472469  1
  O  O74  1  0.08478679  0.65759349  0.16736459  1
  O  O75  1  0.00458577  0.79497069  0.75302835  1
  O  O76  1  0.99958291  0.76922044  0.93153733  1
  O  O77  1  0.07398626  0.54330104  0.66892616  1
  O  O78  1  0.18703082  0.33959520  0.81857761  1
  O  O79  1  0.09236487  0.38146603  0.17540852  1
  O  O80  1  0.25692617  0.08287898  0.16026349  1
  O  O81  1  0.25128483  0.98449245  0.92916537  1
  O  O82  1  0.20563637  0.00438418  0.75259461  1
  O  O83  1  0.08460558  0.26200562  0.66570235  1
  O  O84  1  0.00574680  0.20700385  0.42365018  1
  O  O85  1  0.00277612  0.20353675  0.24799640  1
