# generated using pymatgen
data_LiAg2F4
_symmetry_space_group_name_H-M   'P 1'
_cell_length_a   8.06743471
_cell_length_b   8.16101669
_cell_length_c   6.17348030
_cell_angle_alpha   89.97300832
_cell_angle_beta   89.98367560
_cell_angle_gamma   89.29160180
_symmetry_Int_Tables_number   1
_chemical_formula_structural   LiAg2F4
_chemical_formula_sum   'Li4 Ag8 F16'
_cell_volume   406.42136662
_cell_formula_units_Z   4
loop_
 _symmetry_equiv_pos_site_id
 _symmetry_equiv_pos_as_xyz
  1  'x, y, z'
loop_
 _atom_site_type_symbol
 _atom_site_label
 _atom_site_symmetry_multiplicity
 _atom_site_fract_x
 _atom_site_fract_y
 _atom_site_fract_z
 _atom_site_occupancy
  Li  Li0  1  0.25017389  0.24996873  0.02941025  1
  Li  Li1  1  0.25004937  0.24995556  0.52907290  1
  Li  Li2  1  0.74997364  0.75016543  0.47096190  1
  Li  Li3  1  0.74996864  0.75010741  0.97047384  1
  Ag  Ag4  1  0.08148480  0.91946206  0.75049079  1
  Ag  Ag5  1  0.09559076  0.59463397  0.25090396  1
  Ag  Ag6  1  0.40397707  0.90497131  0.25072435  1
  Ag  Ag7  1  0.41856021  0.58035956  0.75063049  1
  Ag  Ag8  1  0.59365513  0.09252353  0.74932062  1
  Ag  Ag9  1  0.58454945  0.41632202  0.24937496  1
  Ag  Ag10  1  0.90629140  0.40735916  0.74907427  1
  Ag  Ag11  1  0.91554062  0.08365987  0.24943894  1
  F  F12  1  0.01140272  0.30610309  0.04222480  1
  F  F13  1  0.02103123  0.19727650  0.56743268  1
  F  F14  1  0.19659228  0.02475116  0.07005216  1
  F  F15  1  0.19208057  0.48547863  0.54500452  1
  F  F16  1  0.30760873  0.01462664  0.54465090  1
  F  F17  1  0.30344655  0.47521553  0.07096378  1
  F  F18  1  0.47871022  0.30294033  0.56777665  1
  F  F19  1  0.48858827  0.19400031  0.04258562  1
  F  F20  1  0.51177575  0.80755722  0.95707192  1
  F  F21  1  0.52104706  0.69831121  0.43301700  1
  F  F22  1  0.69544517  0.52495250  0.92883107  1
  F  F23  1  0.69368142  0.98551903  0.45551670  1
  F  F24  1  0.80659835  0.51450115  0.45514833  1
  F  F25  1  0.80476308  0.97518097  0.92964790  1
  F  F26  1  0.97910733  0.80174021  0.43278735  1
  F  F27  1  0.98836828  0.69241791  0.95740936  1
