# generated using pymatgen
data_Li3Cr4(PO4)6
_symmetry_space_group_name_H-M   'P 1'
_cell_length_a   8.54965927
_cell_length_b   8.64311825
_cell_length_c   8.58943021
_cell_angle_alpha   60.76528651
_cell_angle_beta   59.97268776
_cell_angle_gamma   89.77277051
_symmetry_Int_Tables_number   1
_chemical_formula_structural   Li3Cr4(PO4)6
_chemical_formula_sum   'Li3 Cr4 P6 O24'
_cell_volume   454.60751470
_cell_formula_units_Z   1
loop_
 _symmetry_equiv_pos_site_id
 _symmetry_equiv_pos_as_xyz
  1  'x, y, z'
loop_
 _atom_site_type_symbol
 _atom_site_label
 _atom_site_symmetry_multiplicity
 _atom_site_fract_x
 _atom_site_fract_y
 _atom_site_fract_z
 _atom_site_occupancy
  Li  Li0  1  0.35027720  0.55795937  0.61963822  1
  Li  Li1  1  0.03038440  0.05459441  0.61376397  1
  Li  Li2  1  0.74133230  0.33925604  0.36579330  1
  Cr  Cr3  1  0.84891520  0.57524093  0.78923857  1
  Cr  Cr4  1  0.35502161  0.07328393  0.79587352  1
  Cr  Cr5  1  0.64600034  0.92915143  0.20145337  1
  Cr  Cr6  1  0.15382485  0.43227392  0.20114740  1
  P  P7  1  0.52861047  0.74183910  0.72008336  1
  P  P8  1  0.24930553  0.75975683  0.27867630  1
  P  P9  1  0.75294583  0.24323300  0.72100699  1
  P  P10  1  0.03561164  0.25254986  0.00014977  1
  P  P11  1  0.47539122  0.25682776  0.27751401  1
  P  P12  1  0.95766457  0.75256372  0.99967046  1
  O  O13  1  0.11940344  0.93284348  0.87062869  1
  O  O14  1  0.01065207  0.44108021  0.86425508  1
  O  O15  1  0.48486778  0.89635288  0.75802106  1
  O  O16  1  0.06193191  0.71320234  0.48370634  1
  O  O17  1  0.36931768  0.55088455  0.90188275  1
  O  O18  1  0.23228728  0.26472790  0.82170786  1
  O  O19  1  0.28800935  0.95260708  0.08728227  1
  O  O20  1  0.54872108  0.77833154  0.51562098  1
  O  O21  1  0.72275582  0.73460974  0.69257315  1
  O  O22  1  0.94477375  0.76468162  0.81914083  1
  O  O23  1  0.40756199  0.75885110  0.32065516  1
  O  O24  1  0.24887410  0.61111115  0.23015371  1
  O  O25  1  0.75820202  0.39423557  0.76432905  1
  O  O26  1  0.04185383  0.24884300  0.17841164  1
  O  O27  1  0.59684369  0.24355935  0.67929886  1
  O  O28  1  0.27709690  0.25667049  0.32223334  1
  O  O29  1  0.72643738  0.04994798  0.90354398  1
  O  O30  1  0.47310887  0.21832805  0.47477436  1
  O  O31  1  0.76633430  0.74902315  0.17445402  1
  O  O32  1  0.63457288  0.44813843  0.08910029  1
  O  O33  1  0.93933434  0.27949427  0.51623251  1
  O  O34  1  0.52045394  0.10185743  0.23873233  1
  O  O35  1  0.98260422  0.56744596  0.13296197  1
  O  O36  1  0.87638422  0.07722040  0.11620051  1
