# generated using pymatgen
data_Na6FeS4
_symmetry_space_group_name_H-M   'P 1'
_cell_length_a   8.94658788
_cell_length_b   8.94658788
_cell_length_c   6.94735417
_cell_angle_alpha   90.00000000
_cell_angle_beta   90.00000000
_cell_angle_gamma   120.00000000
_symmetry_Int_Tables_number   1
_chemical_formula_structural   Na6FeS4
_chemical_formula_sum   'Na12 Fe2 S8'
_cell_volume   481.57611132
_cell_formula_units_Z   2
loop_
 _symmetry_equiv_pos_site_id
 _symmetry_equiv_pos_as_xyz
  1  'x, y, z'
loop_
 _atom_site_type_symbol
 _atom_site_label
 _atom_site_symmetry_multiplicity
 _atom_site_fract_x
 _atom_site_fract_y
 _atom_site_fract_z
 _atom_site_occupancy
  Na  Na0  1  0.14686863  0.85313137  0.53943018  1
  Na  Na1  1  0.29373726  0.14686863  0.03943018  1
  Na  Na2  1  0.85313137  0.70626274  0.03943018  1
  Na  Na3  1  0.14686863  0.29373726  0.53943018  1
  Na  Na4  1  0.70626274  0.85313137  0.53943018  1
  Na  Na5  1  0.85313137  0.14686863  0.03943018  1
  Na  Na6  1  0.53170751  0.46829249  0.36870382  1
  Na  Na7  1  0.06341501  0.53170751  0.86870382  1
  Na  Na8  1  0.46829249  0.93658499  0.86870382  1
  Na  Na9  1  0.53170751  0.06341501  0.36870382  1
  Na  Na10  1  0.93658499  0.46829249  0.36870382  1
  Na  Na11  1  0.46829249  0.53170751  0.86870382  1
  S  S12  1  0.81089111  0.18910889  0.64587913  1
  S  S13  1  0.62178222  0.81089111  0.14587913  1
  S  S14  1  0.33333333  0.66666667  0.59199127  1
  S  S15  1  0.66666667  0.33333333  0.09199127  1
  S  S16  1  0.18910889  0.81089111  0.14587913  1
  S  S17  1  0.37821778  0.18910889  0.64587913  1
  S  S18  1  0.81089111  0.62178222  0.64587913  1
  S  S19  1  0.18910889  0.37821778  0.14587913  1
  Fe  Fe20  1  0.66666667  0.33333333  0.75286932  1
  Fe  Fe21  1  0.33333333  0.66666667  0.25286932  1
