# generated using pymatgen
data_Mn7F16
_symmetry_space_group_name_H-M   'P 1'
_cell_length_a   6.56383075
_cell_length_b   9.64476393
_cell_length_c   6.56422646
_cell_angle_alpha   70.11298817
_cell_angle_beta   60.00165266
_cell_angle_gamma   70.10941703
_symmetry_Int_Tables_number   1
_chemical_formula_structural   Mn7F16
_chemical_formula_sum   'Mn7 F16'
_cell_volume   330.95970718
_cell_formula_units_Z   1
loop_
 _symmetry_equiv_pos_site_id
 _symmetry_equiv_pos_as_xyz
  1  'x, y, z'
loop_
 _atom_site_type_symbol
 _atom_site_label
 _atom_site_symmetry_multiplicity
 _atom_site_fract_x
 _atom_site_fract_y
 _atom_site_fract_z
 _atom_site_occupancy
  Mn  Mn0  1  0.88821458  0.33912291  0.51947604  1
  Mn  Mn1  1  0.48058310  0.66085549  0.74675964  1
  Mn  Mn2  1  0.74669932  0.66089344  0.11193755  1
  Mn  Mn3  1  0.25330068  0.33910656  0.88806245  1
  Mn  Mn4  1  0.51941690  0.33914451  0.25324036  1
  Mn  Mn5  1  0.11178542  0.66087709  0.48052396  1
  Mn  Mn6  1  0.00000000  0.00000000  0.00000000  1
  F  F7  1  0.76379515  0.70865874  0.76386782  1
  F  F8  1  0.98269458  0.12055482  0.71986125  1
  F  F9  1  0.85208439  0.58677527  0.40323698  1
  F  F10  1  0.59686472  0.41330669  0.84185869  1
  F  F11  1  0.82296800  0.87942859  0.01750651  1
  F  F12  1  0.28011466  0.87937333  0.82313033  1
  F  F13  1  0.84181906  0.41342870  0.14799716  1
  F  F14  1  0.42469594  0.72579260  0.42484295  1
  F  F15  1  0.57530406  0.27420740  0.57515705  1
  F  F16  1  0.15818094  0.58657130  0.85200284  1
  F  F17  1  0.71988534  0.12062667  0.17686967  1
  F  F18  1  0.17703200  0.12057141  0.98249349  1
  F  F19  1  0.40313528  0.58669331  0.15814131  1
  F  F20  1  0.14791561  0.41322473  0.59676302  1
  F  F21  1  0.01730542  0.87944518  0.28013875  1
  F  F22  1  0.23620485  0.29134126  0.23613218  1
