# generated using pymatgen
data_SnS
_symmetry_space_group_name_H-M   'P 1'
_cell_length_a   4.16294912
_cell_length_b   4.16294912
_cell_length_c   11.23619252
_cell_angle_alpha   90.00000000
_cell_angle_beta   90.00000000
_cell_angle_gamma   89.30130325
_symmetry_Int_Tables_number   1
_chemical_formula_structural   SnS
_chemical_formula_sum   'Sn2 S2'
_cell_volume   194.71037160
_cell_formula_units_Z   2
loop_
 _symmetry_equiv_pos_site_id
 _symmetry_equiv_pos_as_xyz
  1  'x, y, z'
loop_
 _atom_site_type_symbol
 _atom_site_label
 _atom_site_symmetry_multiplicity
 _atom_site_fract_x
 _atom_site_fract_y
 _atom_site_fract_z
 _atom_site_occupancy
  S  S0  1  0.71864300  0.21864300  0.89665157  1
  S  S1  1  0.21864300  0.71864300  0.10334843  1
  Sn  Sn2  1  0.25735700  0.75735700  0.87441546  1
  Sn  Sn3  1  0.75735700  0.25735700  0.12558454  1
