# generated using pymatgen
data_K2Fe2(SO4)3
_symmetry_space_group_name_H-M   'P 1'
_cell_length_a   10.14497025
_cell_length_b   10.14497025
_cell_length_c   10.14497025
_cell_angle_alpha   90.00000000
_cell_angle_beta   90.00000000
_cell_angle_gamma   90.00000000
_symmetry_Int_Tables_number   1
_chemical_formula_structural   K2Fe2(SO4)3
_chemical_formula_sum   'K8 Fe8 S12 O48'
_cell_volume   1044.12461295
_cell_formula_units_Z   4
loop_
 _symmetry_equiv_pos_site_id
 _symmetry_equiv_pos_as_xyz
  1  'x, y, z'
loop_
 _atom_site_type_symbol
 _atom_site_label
 _atom_site_symmetry_multiplicity
 _atom_site_fract_x
 _atom_site_fract_y
 _atom_site_fract_z
 _atom_site_occupancy
  K  K0  1  0.68469664  0.18469664  0.31530336  1
  K  K1  1  0.31530336  0.68469664  0.18469664  1
  K  K2  1  0.94919528  0.55080472  0.44919428  1
  K  K3  1  0.18469664  0.31530336  0.68469664  1
  K  K4  1  0.05080472  0.05080472  0.05080472  1
  K  K5  1  0.44919428  0.94919528  0.55080472  1
  K  K6  1  0.55080472  0.44919428  0.94919528  1
  K  K7  1  0.81530436  0.81530436  0.81530436  1
  Fe  Fe8  1  0.33519381  0.33519381  0.33519381  1
  Fe  Fe9  1  0.16480619  0.66480519  0.83519381  1
  Fe  Fe10  1  0.83519381  0.16480619  0.66480519  1
  Fe  Fe11  1  0.66480519  0.83519381  0.16480619  1
  Fe  Fe12  1  0.59385809  0.59385809  0.59385809  1
  Fe  Fe13  1  0.09385809  0.90614191  0.40614191  1
  Fe  Fe14  1  0.40614191  0.09385809  0.90614191  1
  Fe  Fe15  1  0.90614191  0.40614191  0.09385809  1
  S  S16  1  0.28089723  0.62339472  0.51895820  1
  S  S17  1  0.78089723  0.87660528  0.48104180  1
  S  S18  1  0.71910277  0.12339472  0.98104180  1
  S  S19  1  0.87660528  0.48104180  0.78089723  1
  S  S20  1  0.98104180  0.71910277  0.12339472  1
  S  S21  1  0.48104180  0.78089723  0.87660528  1
  S  S22  1  0.62339472  0.51895820  0.28089723  1
  S  S23  1  0.51895820  0.28089723  0.62339472  1
  S  S24  1  0.12339472  0.98104180  0.71910277  1
  S  S25  1  0.21910377  0.37660528  0.01895820  1
  S  S26  1  0.01895820  0.21910377  0.37660528  1
  S  S27  1  0.37660528  0.01895820  0.21910377  1
  O  O28  1  0.25206735  0.59447163  0.65920360  1
  O  O29  1  0.75206735  0.90552937  0.34079640  1
  O  O30  1  0.74793265  0.09447163  0.84079640  1
  O  O31  1  0.90552937  0.34079640  0.75206735  1
  O  O32  1  0.84079640  0.74793265  0.09447163  1
  O  O33  1  0.34079640  0.75206735  0.90552937  1
  O  O34  1  0.59447163  0.65920360  0.25206735  1
  O  O35  1  0.65920360  0.25206735  0.59447163  1
  O  O36  1  0.09447163  0.84079640  0.74793265  1
  O  O37  1  0.40552837  0.15920360  0.24793265  1
  O  O38  1  0.15920360  0.24793265  0.40552837  1
  O  O39  1  0.24793265  0.40552837  0.15920360  1
  O  O40  1  0.25901192  0.49983021  0.44227367  1
  O  O41  1  0.75901192  0.00017079  0.55772633  1
  O  O42  1  0.74098708  0.99983021  0.05772633  1
  O  O43  1  0.00017079  0.55772633  0.75901192  1
  O  O44  1  0.05772633  0.74098708  0.99983021  1
  O  O45  1  0.55772633  0.75901192  0.00017079  1
  O  O46  1  0.99638096  0.58039919  0.17106743  1
  O  O47  1  0.44227367  0.25901192  0.49983021  1
  O  O48  1  0.99983021  0.05772633  0.74098708  1
  O  O49  1  0.50017079  0.94227467  0.24098808  1
  O  O50  1  0.94227467  0.24098808  0.50017079  1
  O  O51  1  0.24098808  0.50017079  0.94227467  1
  O  O52  1  0.41960081  0.67106843  0.50361804  1
  O  O53  1  0.91960081  0.82893257  0.49638096  1
  O  O54  1  0.58039919  0.17106743  0.99638096  1
  O  O55  1  0.82893257  0.49638096  0.91960081  1
  O  O56  1  0.30967215  0.27575855  0.96384472  1
  O  O57  1  0.96384472  0.30967215  0.27575855  1
  O  O58  1  0.27575855  0.96384472  0.30967215  1
  O  O59  1  0.22424045  0.03615628  0.80967215  1
  O  O60  1  0.46384372  0.19032685  0.72424145  1
  O  O61  1  0.72424145  0.46384372  0.19032685  1
  O  O62  1  0.53615628  0.69032785  0.77575855  1
  O  O63  1  0.03615628  0.80967215  0.22424045  1
  O  O64  1  0.77575855  0.53615628  0.69032785  1
  O  O65  1  0.80967215  0.22424045  0.03615628  1
  O  O66  1  0.69032785  0.77575855  0.53615628  1
  O  O67  1  0.19032685  0.72424145  0.46384372  1
  O  O68  1  0.08039919  0.32893257  0.00361804  1
  O  O69  1  0.00361804  0.08039919  0.32893257  1
  O  O70  1  0.32893257  0.00361804  0.08039919  1
  O  O71  1  0.17106743  0.99638096  0.58039919  1
  O  O72  1  0.50361804  0.41960081  0.67106843  1
  O  O73  1  0.67106843  0.50361804  0.41960081  1
  O  O74  1  0.49638096  0.91960081  0.82893257  1
  O  O75  1  0.49983021  0.44227367  0.25901192  1
