# generated using pymatgen
data_Li6TiFe5O12
_symmetry_space_group_name_H-M   'P 1'
_cell_length_a   5.15927250
_cell_length_b   5.16677466
_cell_length_c   10.19668522
_cell_angle_alpha   93.69433414
_cell_angle_beta   85.53456025
_cell_angle_gamma   59.96879889
_symmetry_Int_Tables_number   1
_chemical_formula_structural   Li6TiFe5O12
_chemical_formula_sum   'Li6 Ti1 Fe5 O12'
_cell_volume   232.91732515
_cell_formula_units_Z   1
loop_
 _symmetry_equiv_pos_site_id
 _symmetry_equiv_pos_as_xyz
  1  'x, y, z'
loop_
 _atom_site_type_symbol
 _atom_site_label
 _atom_site_symmetry_multiplicity
 _atom_site_fract_x
 _atom_site_fract_y
 _atom_site_fract_z
 _atom_site_occupancy
  Li  Li0  1  0.05738822  0.28804378  0.75674243  1
  Li  Li1  1  0.71959815  0.94807629  0.75815428  1
  Li  Li2  1  0.61059748  0.38200005  0.24502672  1
  Li  Li3  1  0.38802261  0.61549757  0.75478931  1
  Li  Li4  1  0.28046488  0.05296980  0.24410907  1
  Li  Li5  1  0.94347167  0.71274946  0.24111724  1
  Ti  Ti6  1  0.00426205  0.00406260  0.99996102  1
  Fe  Fe7  1  0.50016060  0.50034586  0.49993089  1
  Fe  Fe8  1  0.33287047  0.33263777  0.00001311  1
  Fe  Fe9  1  0.66455038  0.66467239  0.00006295  1
  Fe  Fe10  1  0.83370028  0.83366342  0.49971070  1
  Fe  Fe11  1  0.16638755  0.16675715  0.50035594  1
  O  O12  1  0.86782609  0.13396859  0.38783453  1
  O  O13  1  0.72840311  0.29084158  0.88682004  1
  O  O14  1  0.46296886  0.20210139  0.61472705  1
  O  O15  1  0.79816031  0.53493329  0.61329511  1
  O  O16  1  0.36083893  0.94803458  0.88584807  1
  O  O17  1  0.02412382  0.65114403  0.88987060  1
  O  O18  1  0.94629332  0.35866060  0.11416791  1
  O  O19  1  0.64955958  0.02198347  0.11007138  1
  O  O20  1  0.20347984  0.46432025  0.38521752  1
  O  O21  1  0.53600047  0.80008837  0.38682637  1
  O  O22  1  0.28893835  0.72644508  0.11316793  1
  O  O23  1  0.13193896  0.86598961  0.61217782  1
