# generated using pymatgen
data_TlAgBr3
_symmetry_space_group_name_H-M   'P 1'
_cell_length_a   5.40763850
_cell_length_b   5.40652567
_cell_length_c   5.40948838
_cell_angle_alpha   89.84020864
_cell_angle_beta   89.90346030
_cell_angle_gamma   89.93057935
_symmetry_Int_Tables_number   1
_chemical_formula_structural   TlAgBr3
_chemical_formula_sum   'Tl1 Ag1 Br3'
_cell_volume   158.15374906
_cell_formula_units_Z   1
loop_
 _symmetry_equiv_pos_site_id
 _symmetry_equiv_pos_as_xyz
  1  'x, y, z'
loop_
 _atom_site_type_symbol
 _atom_site_label
 _atom_site_symmetry_multiplicity
 _atom_site_fract_x
 _atom_site_fract_y
 _atom_site_fract_z
 _atom_site_occupancy
  Tl  Tl0  1  0.00234340  0.99856689  0.00335372  1
  Ag  Ag1  1  0.50036561  0.51490461  0.50351112  1
  Br  Br2  1  0.00011391  0.51781439  0.50646324  1
  Br  Br3  1  0.49491224  0.01504279  0.49353534  1
  Br  Br4  1  0.50226685  0.51367333  0.00313658  1
