# generated using pymatgen
data_K4Tc2H6C8O21
_symmetry_space_group_name_H-M   'P 1'
_cell_length_a   9.59400113
_cell_length_b   10.11132757
_cell_length_c   12.97084115
_cell_angle_alpha   84.24598076
_cell_angle_beta   87.54362839
_cell_angle_gamma   69.53486421
_symmetry_Int_Tables_number   1
_chemical_formula_structural   K4Tc2H6C8O21
_chemical_formula_sum   'K8 Tc4 H12 C16 O42'
_cell_volume   1172.87970885
_cell_formula_units_Z   2
loop_
 _symmetry_equiv_pos_site_id
 _symmetry_equiv_pos_as_xyz
  1  'x, y, z'
loop_
 _atom_site_type_symbol
 _atom_site_label
 _atom_site_symmetry_multiplicity
 _atom_site_fract_x
 _atom_site_fract_y
 _atom_site_fract_z
 _atom_site_occupancy
  K  K0  1  0.88752280  0.71240272  0.06046820  1
  K  K1  1  0.11247720  0.28759728  0.93953180  1
  K  K2  1  0.58578826  0.59976351  0.63139340  1
  K  K3  1  0.41421174  0.40023649  0.36860660  1
  K  K4  1  0.40126267  0.65591729  0.11023406  1
  K  K5  1  0.59873733  0.34408271  0.88976594  1
  K  K6  1  0.22446156  0.01301057  0.64689979  1
  K  K7  1  0.77553844  0.98698943  0.35310021  1
  Tc  Tc8  1  0.72053161  0.91697732  0.73175430  1
  Tc  Tc9  1  0.27946839  0.08302268  0.26824570  1
  Tc  Tc10  1  0.96859303  0.73850551  0.72200248  1
  Tc  Tc11  1  0.03140697  0.26149449  0.27799752  1
  H  H12  1  0.87135937  0.37067752  0.69788431  1
  H  H13  1  0.12864063  0.62932248  0.30211569  1
  H  H14  1  0.85263981  0.47728716  0.78232229  1
  H  H15  1  0.14736019  0.52271284  0.21767771  1
  H  H16  1  0.81006574  0.64812448  0.30822231  1
  H  H17  1  0.18993426  0.35187552  0.69177769  1
  H  H18  1  0.66888159  0.74173983  0.24783253  1
  H  H19  1  0.33111841  0.25826017  0.75216747  1
  H  H20  1  0.97543965  0.03147484  0.01344852  1
  H  H21  1  0.02456035  0.96852516  0.98655148  1
  H  H22  1  0.94102252  0.00041265  0.70181526  1
  H  H23  1  0.05897748  0.99958735  0.29818474  1
  C  C24  1  0.59170596  0.22144631  0.66568753  1
  C  C25  1  0.40829404  0.77855369  0.33431247  1
  C  C26  1  0.64494131  0.14738707  0.56519348  1
  C  C27  1  0.35505869  0.85261293  0.43480652  1
  C  C28  1  0.45062880  0.92213884  0.83530587  1
  C  C29  1  0.54937120  0.07786116  0.16469413  1
  C  C30  1  0.57319177  0.86641651  0.91919929  1
  C  C31  1  0.42680823  0.13358349  0.08080071  1
  C  C32  1  0.28137399  0.66410894  0.81279401  1
  C  C33  1  0.71862601  0.33589106  0.18720599  1
  C  C34  1  0.23199282  0.61115273  0.91950802  1
  C  C35  1  0.76800718  0.38884727  0.08049198  1
  C  C36  1  0.05181251  0.72368701  0.50086674  1
  C  C37  1  0.94818749  0.27631299  0.49913326  1
  C  C38  1  0.10338219  0.56824737  0.55030282  1
  C  C39  1  0.89661781  0.43175263  0.44969718  1
  O  O40  1  0.61657639  0.13407476  0.74981382  1
  O  O41  1  0.38342361  0.86592524  0.25018618  1
  O  O42  1  0.70796131  0.01026207  0.58070880  1
  O  O43  1  0.29203869  0.98973793  0.41929120  1
  O  O44  1  0.50282647  0.92395942  0.73896179  1
  O  O45  1  0.49717353  0.07604058  0.26103821  1
  O  O46  1  0.70631739  0.86229069  0.88433611  1
  O  O47  1  0.29368261  0.13770931  0.11566389  1
  O  O48  1  0.18587447  0.72643249  0.73804018  1
  O  O49  1  0.81412553  0.27356751  0.26195982  1
  O  O50  1  0.97461732  0.64540666  0.84307485  1
  O  O51  1  0.02538268  0.35459334  0.15692515  1
  O  O52  1  0.00614160  0.81664834  0.56775785  1
  O  O53  1  0.99385840  0.18335166  0.43224215  1
  O  O54  1  0.06195402  0.55369057  0.64736778  1
  O  O55  1  0.93804598  0.44630943  0.35263222  1
  O  O56  1  0.77564460  0.73443612  0.68351835  1
  O  O57  1  0.22435540  0.26556388  0.31648165  1
  O  O58  1  0.91703710  0.94350040  0.76112167  1
  O  O59  1  0.08296290  0.05649960  0.23887833  1
  O  O60  1  0.52985980  0.35126816  0.66416278  1
  O  O61  1  0.47014020  0.64873184  0.33583722  1
  O  O62  1  0.62746074  0.21395609  0.47857972  1
  O  O63  1  0.37253926  0.78604391  0.52142028  1
  O  O64  1  0.31731681  0.96120610  0.85759883  1
  O  O65  1  0.68268319  0.03879390  0.14240117  1
  O  O66  1  0.54880383  0.82900071  0.00906185  1
  O  O67  1  0.45119617  0.17099929  0.99093815  1
  O  O68  1  0.41677028  0.64629559  0.80203421  1
  O  O69  1  0.58322972  0.35370441  0.19796579  1
  O  O70  1  0.27849518  0.47789519  0.93824967  1
  O  O71  1  0.72150482  0.52210481  0.06175033  1
  O  O72  1  0.05559112  0.75240084  0.40537098  1
  O  O73  1  0.94440888  0.24759916  0.59462902  1
  O  O74  1  0.17846884  0.46876902  0.50133585  1
  O  O75  1  0.82153116  0.53123098  0.49866415  1
  O  O76  1  0.81529664  0.40614127  0.76118290  1
  O  O77  1  0.18470336  0.59385873  0.23881710  1
  O  O78  1  0.83524940  0.29602904  0.01963083  1
  O  O79  1  0.16475060  0.70397096  0.98036917  1
  O  O80  1  0.76647820  0.74020341  0.26786816  1
  O  O81  1  0.23352180  0.25979659  0.73213184  1
