# generated using pymatgen
data_SmI
_symmetry_space_group_name_H-M   'P 1'
_cell_length_a   3.88957166
_cell_length_b   3.88959446
_cell_length_c   4.71081783
_cell_angle_alpha   90.00103940
_cell_angle_beta   89.99898374
_cell_angle_gamma   119.99928419
_symmetry_Int_Tables_number   1
_chemical_formula_structural   SmI
_chemical_formula_sum   'Sm1 I1'
_cell_volume   61.72145771
_cell_formula_units_Z   1
loop_
 _symmetry_equiv_pos_site_id
 _symmetry_equiv_pos_as_xyz
  1  'x, y, z'
loop_
 _atom_site_type_symbol
 _atom_site_label
 _atom_site_symmetry_multiplicity
 _atom_site_fract_x
 _atom_site_fract_y
 _atom_site_fract_z
 _atom_site_occupancy
  Sm  Sm0  1  0.33333418  0.66666988  0.24999802  1
  I  I1  1  0.66666782  0.33333212  0.74999898  1
