# generated using pymatgen
data_MoAs
_symmetry_space_group_name_H-M   'P 1'
_cell_length_a   3.38629758
_cell_length_b   6.04702118
_cell_length_c   6.44967562
_cell_angle_alpha   90.00000000
_cell_angle_beta   90.00000000
_cell_angle_gamma   90.00000000
_symmetry_Int_Tables_number   1
_chemical_formula_structural   MoAs
_chemical_formula_sum   'Mo4 As4'
_cell_volume   132.07009273
_cell_formula_units_Z   4
loop_
 _symmetry_equiv_pos_site_id
 _symmetry_equiv_pos_as_xyz
  1  'x, y, z'
loop_
 _atom_site_type_symbol
 _atom_site_label
 _atom_site_symmetry_multiplicity
 _atom_site_fract_x
 _atom_site_fract_y
 _atom_site_fract_z
 _atom_site_occupancy
  As  As0  1  0.25000000  0.68785843  0.93178218  1
  As  As1  1  0.75000000  0.31214157  0.06821782  1
  As  As2  1  0.25000000  0.18785843  0.56821782  1
  As  As3  1  0.75000000  0.81214157  0.43178218  1
  Mo  Mo4  1  0.25000000  0.51351377  0.31593693  1
  Mo  Mo5  1  0.75000000  0.48648623  0.68406307  1
  Mo  Mo6  1  0.25000000  0.01351377  0.18406307  1
  Mo  Mo7  1  0.75000000  0.98648623  0.81593693  1
