# generated using pymatgen
data_Ti2ZnS4
_symmetry_space_group_name_H-M   'P 1'
_cell_length_a   7.14939918
_cell_length_b   7.14940033
_cell_length_c   7.19972464
_cell_angle_alpha   119.76904441
_cell_angle_beta   119.76904800
_cell_angle_gamma   89.99999362
_symmetry_Int_Tables_number   1
_chemical_formula_structural   Ti2ZnS4
_chemical_formula_sum   'Ti4 Zn2 S8'
_cell_volume   262.02590825
_cell_formula_units_Z   2
loop_
 _symmetry_equiv_pos_site_id
 _symmetry_equiv_pos_as_xyz
  1  'x, y, z'
loop_
 _atom_site_type_symbol
 _atom_site_label
 _atom_site_symmetry_multiplicity
 _atom_site_fract_x
 _atom_site_fract_y
 _atom_site_fract_z
 _atom_site_occupancy
  Ti  Ti0  1  0.00000000  0.00000000  0.50000000  1
  Ti  Ti1  1  0.00000000  0.50000000  0.00000000  1
  Ti  Ti2  1  0.50000000  0.00000000  0.50000000  1
  Ti  Ti3  1  0.00000000  0.00000000  0.00000000  1
  Zn  Zn4  1  0.37500000  0.62500000  0.75000000  1
  Zn  Zn5  1  0.62500000  0.37500000  0.25000000  1
  S  S6  1  0.75875936  0.77011144  0.51751873  1
  S  S7  1  0.75259371  0.24124063  0.98248127  1
  S  S8  1  0.22988856  0.24124063  0.98248127  1
  S  S9  1  0.24124064  0.22988856  0.48248127  1
  S  S10  1  0.24124063  0.75259370  0.48248127  1
  S  S11  1  0.24740629  0.75875937  0.01751873  1
  S  S12  1  0.75875937  0.24740630  0.51751873  1
  S  S13  1  0.77011144  0.75875937  0.01751873  1
