# generated using pymatgen
data_ZnCrF5
_symmetry_space_group_name_H-M   'P 1'
_cell_length_a   5.22931415
_cell_length_b   7.47944891
_cell_length_c   9.81967078
_cell_angle_alpha   90.00000000
_cell_angle_beta   90.00000000
_cell_angle_gamma   110.30832522
_symmetry_Int_Tables_number   1
_chemical_formula_structural   ZnCrF5
_chemical_formula_sum   'Zn4 Cr4 F20'
_cell_volume   360.19636395
_cell_formula_units_Z   4
loop_
 _symmetry_equiv_pos_site_id
 _symmetry_equiv_pos_as_xyz
  1  'x, y, z'
loop_
 _atom_site_type_symbol
 _atom_site_label
 _atom_site_symmetry_multiplicity
 _atom_site_fract_x
 _atom_site_fract_y
 _atom_site_fract_z
 _atom_site_occupancy
  Zn  Zn0  1  0.48759589  0.75100892  0.00616580  1
  Zn  Zn1  1  0.51240411  0.74899108  0.50616580  1
  Zn  Zn2  1  0.51240411  0.24899108  0.99383420  1
  Zn  Zn3  1  0.48759589  0.25100892  0.49383420  1
  Cr  Cr4  1  0.90277064  0.60287103  0.75439172  1
  Cr  Cr5  1  0.09722936  0.89712897  0.25439172  1
  Cr  Cr6  1  0.09722936  0.39712897  0.24560828  1
  Cr  Cr7  1  0.90277064  0.10287103  0.74560828  1
  F  F8  1  0.60554212  0.56178251  0.88563826  1
  F  F9  1  0.39445788  0.93821749  0.38563826  1
  F  F10  1  0.39445788  0.43821749  0.11436174  1
  F  F11  1  0.60554212  0.06178251  0.61436174  1
  F  F12  1  0.64183701  0.50152092  0.60832575  1
  F  F13  1  0.35816299  0.99847908  0.10832575  1
  F  F14  1  0.35816299  0.49847908  0.39167425  1
  F  F15  1  0.64183701  0.00152092  0.89167425  1
  F  F16  1  0.85215185  0.80426342  0.40660304  1
  F  F17  1  0.14784815  0.69573658  0.90660304  1
  F  F18  1  0.14784815  0.19573658  0.59339696  1
  F  F19  1  0.85215185  0.30426342  0.09339696  1
  F  F20  1  0.79326668  0.84937359  0.12987558  1
  F  F21  1  0.20673332  0.65062641  0.62987558  1
  F  F22  1  0.20673332  0.15062641  0.87012442  1
  F  F23  1  0.79326668  0.34937359  0.37012442  1
  F  F24  1  0.86622925  0.84293224  0.69700216  1
  F  F25  1  0.13377075  0.65706776  0.19700216  1
  F  F26  1  0.13377075  0.15706776  0.30299784  1
  F  F27  1  0.86622925  0.34293224  0.80299784  1
