# generated using pymatgen
data_Mn4(CuO4)3
_symmetry_space_group_name_H-M   'P 1'
_cell_length_a   6.30076891
_cell_length_b   6.30089282
_cell_length_c   6.30090862
_cell_angle_alpha   109.45554833
_cell_angle_beta   109.48654360
_cell_angle_gamma   109.47163616
_symmetry_Int_Tables_number   1
_chemical_formula_structural   Mn4(CuO4)3
_chemical_formula_sum   'Mn4 Cu3 O12'
_cell_volume   192.56464603
_cell_formula_units_Z   1
loop_
 _symmetry_equiv_pos_site_id
 _symmetry_equiv_pos_as_xyz
  1  'x, y, z'
loop_
 _atom_site_type_symbol
 _atom_site_label
 _atom_site_symmetry_multiplicity
 _atom_site_fract_x
 _atom_site_fract_y
 _atom_site_fract_z
 _atom_site_occupancy
  Mn  Mn0  1  0.00000241  0.00000929  0.50000632  1
  Mn  Mn1  1  0.00000831  0.49999810  0.00001006  1
  Mn  Mn2  1  0.50000347  0.50000699  0.50001202  1
  Mn  Mn3  1  0.49999417  0.00001898  0.00000492  1
  Cu  Cu4  1  0.49999818  0.50000017  0.99999264  1
  Cu  Cu5  1  0.00000022  0.49999322  0.50000649  1
  Cu  Cu6  1  0.50000369  -0.00001080  0.50000692  1
  O  O7  1  0.50362203  0.82057855  0.68305294  1
  O  O8  1  0.13753391  0.82056295  0.31697702  1
  O  O9  1  0.86246607  0.17943521  0.68301457  1
  O  O10  1  0.17947510  0.31689603  0.49635724  1
  O  O11  1  0.31692476  0.49647337  0.17954057  1
  O  O12  1  0.68308476  0.50352450  0.82046223  1
  O  O13  1  0.82051266  0.31690923  0.13741252  1
  O  O14  1  0.68311867  0.86263022  0.17951865  1
  O  O15  1  0.49637676  0.17942814  0.31694318  1
  O  O16  1  0.17948002  0.68307927  0.86257717  1
  O  O17  1  0.82051861  0.68310311  0.50364048  1
  O  O18  1  0.31687522  0.13736847  0.82047005  1
