# generated using pymatgen
data_Ca3Cr2(Si2O7)2
_symmetry_space_group_name_H-M   'P 1'
_cell_length_a   7.69240745
_cell_length_b   9.42133079
_cell_length_c   9.64147745
_cell_angle_alpha   64.55678711
_cell_angle_beta   66.48915409
_cell_angle_gamma   65.90541193
_symmetry_Int_Tables_number   1
_chemical_formula_structural   Ca3Cr2(Si2O7)2
_chemical_formula_sum   'Ca6 Cr4 Si8 O28'
_cell_volume   554.41717881
_cell_formula_units_Z   2
loop_
 _symmetry_equiv_pos_site_id
 _symmetry_equiv_pos_as_xyz
  1  'x, y, z'
loop_
 _atom_site_type_symbol
 _atom_site_label
 _atom_site_symmetry_multiplicity
 _atom_site_fract_x
 _atom_site_fract_y
 _atom_site_fract_z
 _atom_site_occupancy
  Ca  Ca0  1  0.83479779  0.93626772  0.46068113  1
  Ca  Ca1  1  0.23174664  0.56373228  0.03931887  1
  Ca  Ca2  1  0.76825336  0.43626772  0.96068113  1
  Ca  Ca3  1  0.65571906  0.25000000  0.75000000  1
  Ca  Ca4  1  0.16520221  0.06373228  0.53931887  1
  Ca  Ca5  1  0.34428094  0.75000000  0.25000000  1
  Cr  Cr6  1  0.20910360  0.25000000  0.75000000  1
  Cr  Cr7  1  0.79089640  0.75000000  0.25000000  1
  Cr  Cr8  1  0.00000000  0.00000000  0.00000000  1
  Cr  Cr9  1  0.00000000  0.50000000  0.50000000  1
  Si  Si10  1  0.46501826  0.30473049  0.34829831  1
  Si  Si11  1  0.88195194  0.80473049  0.84829831  1
  Si  Si12  1  0.46460883  0.89687475  0.85096887  1
  Si  Si13  1  0.78754854  0.39687475  0.35096887  1
  Si  Si14  1  0.11804806  0.19526951  0.15170169  1
  Si  Si15  1  0.53539117  0.10312525  0.14903113  1
  Si  Si16  1  0.21245146  0.60312525  0.64903113  1
  Si  Si17  1  0.53498174  0.69526951  0.65170169  1
  O  O18  1  0.11852863  0.66557279  0.50012991  1
  O  O19  1  0.03837441  0.58352543  0.27253016  1
  O  O20  1  0.53682953  0.91752900  0.19255644  1
  O  O21  1  0.10557000  0.08352543  0.77253016  1
  O  O22  1  0.73599772  0.68675009  0.50255647  1
  O  O23  1  0.94981505  0.36997431  0.17880727  1
  O  O24  1  0.35308403  0.41752900  0.69255644  1
  O  O25  1  0.92530429  0.81324991  0.99744353  1
  O  O26  1  0.05018495  0.63002569  0.82119273  1
  O  O27  1  0.34104207  0.73803526  0.58870473  1
  O  O28  1  0.96162559  0.41647457  0.72746984  1
  O  O29  1  0.26400228  0.31324991  0.49744353  1
  O  O30  1  0.49859763  0.13002569  0.32119273  1
  O  O31  1  0.71576768  0.16557279  0.00012991  1
  O  O32  1  0.33221795  0.23803526  0.08870473  1
  O  O33  1  0.07469571  0.18675009  0.00255647  1
  O  O34  1  0.10572810  0.04573820  0.31678367  1
  O  O35  1  0.65895793  0.26196474  0.41129527  1
  O  O36  1  0.46824898  0.45426180  0.18321633  1
  O  O37  1  0.66778205  0.76196474  0.91129527  1
  O  O38  1  0.50140237  0.86997431  0.67880727  1
  O  O39  1  0.89443000  0.91647457  0.22746984  1
  O  O40  1  0.53175102  0.54573820  0.81678367  1
  O  O41  1  0.46317047  0.08247100  0.80744356  1
  O  O42  1  0.89427190  0.95426180  0.68321633  1
  O  O43  1  0.64691597  0.58247100  0.30744356  1
  O  O44  1  0.28423232  0.83442721  -0.00012991  1
  O  O45  1  0.88147137  0.33442721  0.49987009  1
