# generated using pymatgen
data_Ca2NiSbO6
_symmetry_space_group_name_H-M   'P 1'
_cell_length_a   5.52848291
_cell_length_b   5.62289207
_cell_length_c   7.71394766
_cell_angle_alpha   90.00000000
_cell_angle_beta   90.00000000
_cell_angle_gamma   92.60023738
_symmetry_Int_Tables_number   1
_chemical_formula_structural   Ca2NiSbO6
_chemical_formula_sum   'Ca4 Ni2 Sb2 O12'
_cell_volume   239.54936213
_cell_formula_units_Z   2
loop_
 _symmetry_equiv_pos_site_id
 _symmetry_equiv_pos_as_xyz
  1  'x, y, z'
loop_
 _atom_site_type_symbol
 _atom_site_label
 _atom_site_symmetry_multiplicity
 _atom_site_fract_x
 _atom_site_fract_y
 _atom_site_fract_z
 _atom_site_occupancy
  Ca  Ca0  1  0.52054657  0.56355620  0.75000000  1
  Ca  Ca1  1  0.47945343  0.43644380  0.25000000  1
  Ca  Ca2  1  0.00222774  0.03950290  0.75000000  1
  Ca  Ca3  1  0.99777226  0.96049710  0.25000000  1
  Ni  Ni4  1  0.50000000  0.00000000  0.50000000  1
  Ni  Ni5  1  0.50000000  0.00000000  0.00000000  1
  Sb  Sb6  1  0.00000000  0.50000000  0.50000000  1
  Sb  Sb7  1  0.00000000  0.50000000  0.00000000  1
  O  O8  1  0.30182394  0.70029482  0.45250729  1
  O  O9  1  0.18592853  0.21559511  0.05021814  1
  O  O10  1  0.69817606  0.29970518  0.95250729  1
  O  O11  1  0.81407147  0.78440489  0.55021814  1
  O  O12  1  0.18592853  0.21559511  0.44978186  1
  O  O13  1  0.81407147  0.78440489  0.94978186  1
  O  O14  1  0.89685002  0.53849967  0.25000000  1
  O  O15  1  0.30182394  0.70029482  0.04749271  1
  O  O16  1  0.41494042  0.96339359  0.75000000  1
  O  O17  1  0.69817606  0.29970518  0.54749271  1
  O  O18  1  0.10314998  0.46150033  0.75000000  1
  O  O19  1  0.58505958  0.03660641  0.25000000  1
