# generated using pymatgen
data_MnH16C4N(OF2)2
_symmetry_space_group_name_H-M   'P 1'
_cell_length_a   8.59642993
_cell_length_b   8.59642993
_cell_length_c   10.87523347
_cell_angle_alpha   82.55761693
_cell_angle_beta   97.44238307
_cell_angle_gamma   141.89834876
_symmetry_Int_Tables_number   1
_chemical_formula_structural   MnH16C4N(OF2)2
_chemical_formula_sum   'Mn2 H32 C8 N2 O4 F8'
_cell_volume   491.22985495
_cell_formula_units_Z   2
loop_
 _symmetry_equiv_pos_site_id
 _symmetry_equiv_pos_as_xyz
  1  'x, y, z'
loop_
 _atom_site_type_symbol
 _atom_site_label
 _atom_site_symmetry_multiplicity
 _atom_site_fract_x
 _atom_site_fract_y
 _atom_site_fract_z
 _atom_site_occupancy
  Mn  Mn0  1  0.00000000  0.50000000  0.00000000  1
  Mn  Mn1  1  0.50000000  0.00000000  0.50000000  1
  H  H2  1  0.74227341  0.20945348  0.77486267  1
  H  H3  1  0.20945348  0.74227341  0.72513733  1
  H  H4  1  0.25772659  0.79054652  0.22513733  1
  H  H5  1  0.79054652  0.25772659  0.27486267  1
  H  H6  1  0.58708428  0.01605774  0.88761544  1
  H  H7  1  0.01605774  0.58708428  0.61238456  1
  H  H8  1  0.41291572  0.98394226  0.11238456  1
  H  H9  1  0.98394226  0.41291572  0.38761544  1
  H  H10  1  0.20938701  0.39555823  0.59470433  1
  H  H11  1  0.39555823  0.20938701  0.90529567  1
  H  H12  1  0.79061299  0.60444177  0.40529567  1
  H  H13  1  0.60444177  0.79061299  0.09470433  1
  H  H14  1  0.99836065  0.19681870  0.71956394  1
  H  H15  1  0.19681870  0.99836065  0.78043606  1
  H  H16  1  0.00163935  0.80318130  0.28043606  1
  H  H17  1  0.80318130  0.00163935  0.21956394  1
  H  H18  1  0.03967143  0.07944672  0.62219119  1
  H  H19  1  0.07944672  0.03967143  0.87780881  1
  H  H20  1  0.96032857  0.92055328  0.37780881  1
  H  H21  1  0.92055328  0.96032857  0.12219119  1
  H  H22  1  0.52919099  0.70718688  0.75809424  1
  H  H23  1  0.70718688  0.52919099  0.74190576  1
  H  H24  1  0.47080901  0.29281312  0.24190576  1
  H  H25  1  0.29281312  0.47080901  0.25809424  1
  H  H26  1  0.60257836  0.61423560  0.88655253  1
  H  H27  1  0.61423560  0.60257836  0.61344747  1
  H  H28  1  0.39742164  0.38576440  0.11344747  1
  H  H29  1  0.38576440  0.39742164  0.38655253  1
  H  H30  1  0.30410261  0.48151828  0.87579496  1
  H  H31  1  0.48151828  0.30410261  0.62420504  1
  H  H32  1  0.69589739  0.51848172  0.12420504  1
  H  H33  1  0.51848172  0.69589739  0.37579496  1
  C  C34  1  0.13239594  0.24690256  0.66497127  1
  C  C35  1  0.24690256  0.13239594  0.83502873  1
  C  C36  1  0.86760406  0.75309744  0.33502873  1
  C  C37  1  0.75309744  0.86760406  0.16497127  1
  C  C38  1  0.45290257  0.55300519  0.82351996  1
  C  C39  1  0.55300519  0.45290257  0.67648004  1
  C  C40  1  0.54709743  0.44699481  0.17648004  1
  C  C41  1  0.44699481  0.54709743  0.32351996  1
  N  N42  1  0.34604805  0.34604805  0.75000000  1
  N  N43  1  0.65395195  0.65395195  0.25000000  1
  O  O44  1  0.76091941  0.18088472  0.86365143  1
  O  O45  1  0.18088472  0.76091941  0.63634857  1
  O  O46  1  0.23908059  0.81911528  0.13634857  1
  O  O47  1  0.81911528  0.23908059  0.36365143  1
  F  F48  1  0.85076970  0.57435982  0.93946501  1
  F  F49  1  0.57435982  0.85076970  0.56053499  1
  F  F50  1  0.14923030  0.42564018  0.06053499  1
  F  F51  1  0.42564018  0.14923030  0.43946501  1
  F  F52  1  0.25830890  0.73943902  0.88174147  1
  F  F53  1  0.73943902  0.25830890  0.61825853  1
  F  F54  1  0.74169110  0.26056098  0.11825853  1
  F  F55  1  0.26056098  0.74169110  0.38174147  1
