# generated using pymatgen
data_CrF5
_symmetry_space_group_name_H-M   'P 1'
_cell_length_a   5.36137529
_cell_length_b   5.37699970
_cell_length_c   7.55629969
_cell_angle_alpha   96.01895615
_cell_angle_beta   111.75735355
_cell_angle_gamma   109.55836378
_symmetry_Int_Tables_number   1
_chemical_formula_structural   CrF5
_chemical_formula_sum   'Cr2 F10'
_cell_volume   184.00338522
_cell_formula_units_Z   2
loop_
 _symmetry_equiv_pos_site_id
 _symmetry_equiv_pos_as_xyz
  1  'x, y, z'
loop_
 _atom_site_type_symbol
 _atom_site_label
 _atom_site_symmetry_multiplicity
 _atom_site_fract_x
 _atom_site_fract_y
 _atom_site_fract_z
 _atom_site_occupancy
  Cr  Cr0  1  0.99535375  0.99975577  0.99926987  1
  Cr  Cr1  1  0.49916843  0.00065523  0.49851260  1
  F  F2  1  0.32756685  0.07746501  0.24793345  1
  F  F3  1  0.66580063  0.92303954  0.74968124  1
  F  F4  1  0.58854138  0.75976176  0.38672583  1
  F  F5  1  0.87223213  0.20535950  0.11259530  1
  F  F6  1  0.77625992  0.71765078  0.04935642  1
  F  F7  1  0.16432887  0.73611139  0.44998518  1
  F  F8  1  0.21610015  0.28275898  0.95112032  1
  F  F9  1  0.83573843  0.26346845  0.54661000  1
  F  F10  1  0.11430430  0.79264575  0.88367753  1
  F  F11  1  0.41285316  0.24297685  0.61040925  1
