# generated using pymatgen
data_MoF5
_symmetry_space_group_name_H-M   'P 1'
_cell_length_a   5.60068337
_cell_length_b   7.93028819
_cell_length_c   9.99088385
_cell_angle_alpha   90.00000000
_cell_angle_beta   90.00000000
_cell_angle_gamma   110.66329681
_symmetry_Int_Tables_number   1
_chemical_formula_structural   MoF5
_chemical_formula_sum   'Mo4 F20'
_cell_volume   415.19941422
_cell_formula_units_Z   4
loop_
 _symmetry_equiv_pos_site_id
 _symmetry_equiv_pos_as_xyz
  1  'x, y, z'
loop_
 _atom_site_type_symbol
 _atom_site_label
 _atom_site_symmetry_multiplicity
 _atom_site_fract_x
 _atom_site_fract_y
 _atom_site_fract_z
 _atom_site_occupancy
  Mo  Mo0  1  0.88121983  0.59676948  0.75132580  1
  Mo  Mo1  1  0.11878017  0.90323052  0.25132580  1
  Mo  Mo2  1  0.11878017  0.40323052  0.24867420  1
  Mo  Mo3  1  0.88121983  0.09676948  0.74867420  1
  F  F4  1  0.60174873  0.56774095  0.86651466  1
  F  F5  1  0.39825127  0.93225905  0.36651466  1
  F  F6  1  0.39825127  0.43225905  0.13348534  1
  F  F7  1  0.60174873  0.06774095  0.63348534  1
  F  F8  1  0.64156880  0.48773271  0.61818971  1
  F  F9  1  0.35843120  0.01226729  0.11818971  1
  F  F10  1  0.35843120  0.51226729  0.38181029  1
  F  F11  1  0.64156880  0.98773271  0.88181029  1
  F  F12  1  0.88168390  0.79783918  0.38849598  1
  F  F13  1  0.11831610  0.70216082  0.88849598  1
  F  F14  1  0.11831610  0.20216082  0.61150402  1
  F  F15  1  0.88168390  0.29783918  0.11150402  1
  F  F16  1  0.83581489  0.87180187  0.13804181  1
  F  F17  1  0.16418511  0.62819813  0.63804181  1
  F  F18  1  0.16418511  0.12819813  0.86195819  1
  F  F19  1  0.83581489  0.37180187  0.36195819  1
  F  F20  1  0.88292684  0.84658437  0.69429841  1
  F  F21  1  0.11707316  0.65341563  0.19429841  1
  F  F22  1  0.11707316  0.15341563  0.30570159  1
  F  F23  1  0.88292684  0.34658437  0.80570159  1
