# generated using pymatgen
data_Ba2CuSn2F14
_symmetry_space_group_name_H-M   'P 1'
_cell_length_a   5.45218264
_cell_length_b   7.81863878
_cell_length_c   15.68612375
_cell_angle_alpha   92.39578472
_cell_angle_beta   89.59281694
_cell_angle_gamma   110.68686288
_symmetry_Int_Tables_number   1
_chemical_formula_structural   Ba2CuSn2F14
_chemical_formula_sum   'Ba4 Cu2 Sn4 F28'
_cell_volume   624.99744067
_cell_formula_units_Z   2
loop_
 _symmetry_equiv_pos_site_id
 _symmetry_equiv_pos_as_xyz
  1  'x, y, z'
loop_
 _atom_site_type_symbol
 _atom_site_label
 _atom_site_symmetry_multiplicity
 _atom_site_fract_x
 _atom_site_fract_y
 _atom_site_fract_z
 _atom_site_occupancy
  Ba  Ba0  1  0.09958181  0.35688403  0.62822282  1
  Ba  Ba1  1  0.25364274  0.35396242  0.12848494  1
  Ba  Ba2  1  0.90300031  0.64635071  0.37284736  1
  Ba  Ba3  1  0.74573679  0.64584005  0.87271316  1
  Cu  Cu4  1  0.50067521  0.00060968  0.00072565  1
  Cu  Cu5  1  0.50100979  0.00260883  0.50013674  1
  Sn  Sn6  1  0.09670398  0.24235807  0.87253714  1
  Sn  Sn7  1  0.90452590  0.75768597  0.12850301  1
  Sn  Sn8  1  0.14982475  0.24226655  0.37246118  1
  Sn  Sn9  1  0.84952632  0.76077133  0.62772336  1
  F  F10  1  0.92756782  0.98586296  0.34690507  1
  F  F11  1  0.88470593  0.28325694  0.45457413  1
  F  F12  1  0.11778347  0.72209273  0.54635176  1
  F  F13  1  0.63412981  0.50215079  0.58821630  1
  F  F14  1  0.63097504  0.12297063  0.60245712  1
  F  F15  1  0.51820659  0.88145417  0.89855972  1
  F  F16  1  0.40387346  0.28626087  0.95321875  1
  F  F17  1  0.93648779  0.01366018  0.15362330  1
  F  F18  1  0.36586797  0.35472607  0.78199444  1
  F  F19  1  0.36647517  0.50201003  0.41017182  1
  F  F20  1  0.83460584  0.25220147  0.78853353  1
  F  F21  1  0.14113368  0.50308483  0.90865722  1
  F  F22  1  0.42416509  0.25590907  0.28749425  1
  F  F23  1  0.16669114  0.74867153  0.21262294  1
  F  F24  1  0.48357327  0.11952935  0.10271203  1
  F  F25  1  0.63548371  0.64438522  0.21886464  1
  F  F26  1  0.12316710  0.83059638  0.02001339  1
  F  F27  1  0.07126858  0.01680952  0.65457817  1
  F  F28  1  0.87796978  0.17113793  0.98108080  1
  F  F29  1  0.70855125  0.83518867  0.51949925  1
  F  F30  1  0.59681123  0.71298812  0.04785021  1
  F  F31  1  0.57179444  0.74443515  0.71189546  1
  F  F32  1  0.99423389  0.35497331  0.28286123  1
  F  F33  1  0.29370907  0.17027844  0.48078434  1
  F  F34  1  0.37036621  0.88225533  0.39802098  1
  F  F35  1  0.06288704  0.98581833  0.84779922  1
  F  F36  1  0.00157704  0.64589280  0.71751781  1
  F  F37  1  0.86307399  0.49796053  0.09161479  1
