# generated using pymatgen
data_VZnF5
_symmetry_space_group_name_H-M   'P 1'
_cell_length_a   5.21795778
_cell_length_b   7.62637415
_cell_length_c   9.89247727
_cell_angle_alpha   90.00000000
_cell_angle_beta   90.00000000
_cell_angle_gamma   110.16169091
_symmetry_Int_Tables_number   1
_chemical_formula_structural   VZnF5
_chemical_formula_sum   'V4 Zn4 F20'
_cell_volume   369.54004412
_cell_formula_units_Z   4
loop_
 _symmetry_equiv_pos_site_id
 _symmetry_equiv_pos_as_xyz
  1  'x, y, z'
loop_
 _atom_site_type_symbol
 _atom_site_label
 _atom_site_symmetry_multiplicity
 _atom_site_fract_x
 _atom_site_fract_y
 _atom_site_fract_z
 _atom_site_occupancy
  V  V0  1  0.90091483  0.60445932  0.75347400  1
  V  V1  1  0.09908517  0.89554068  0.25347400  1
  V  V2  1  0.09908517  0.39554068  0.24652600  1
  V  V3  1  0.90091483  0.10445932  0.74652600  1
  Zn  Zn4  1  0.48210060  0.75191873  0.00653219  1
  Zn  Zn5  1  0.51789940  0.74808127  0.50653219  1
  Zn  Zn6  1  0.51789940  0.24808127  0.99346781  1
  Zn  Zn7  1  0.48210060  0.25191873  0.49346781  1
  F  F8  1  0.60750340  0.57725380  0.88572612  1
  F  F9  1  0.39249660  0.92274620  0.38572612  1
  F  F10  1  0.39249660  0.42274620  0.11427388  1
  F  F11  1  0.60750340  0.07725380  0.61427388  1
  F  F12  1  0.65008613  0.49518126  0.60718938  1
  F  F13  1  0.34991387  0.00481874  0.10718938  1
  F  F14  1  0.34991387  0.50481874  0.39281062  1
  F  F15  1  0.65008613  0.99518126  0.89281062  1
  F  F16  1  0.85349442  0.79290675  0.40348433  1
  F  F17  1  0.14650558  0.70709325  0.90348433  1
  F  F18  1  0.14650558  0.20709325  0.59651567  1
  F  F19  1  0.85349442  0.29290675  0.09651567  1
  F  F20  1  0.77896394  0.84660751  0.13716363  1
  F  F21  1  0.22103606  0.65339249  0.63716363  1
  F  F22  1  0.22103606  0.15339249  0.86283637  1
  F  F23  1  0.77896394  0.34660751  0.36283637  1
  F  F24  1  0.85414897  0.84222422  0.68285776  1
  F  F25  1  0.14585103  0.65777578  0.18285776  1
  F  F26  1  0.14585103  0.15777578  0.31714224  1
  F  F27  1  0.85414897  0.34222422  0.81714224  1
