# generated using pymatgen
data_VZnNiP2O9
_symmetry_space_group_name_H-M   'P 1'
_cell_length_a   6.25504837
_cell_length_b   7.36822172
_cell_length_c   14.16939638
_cell_angle_alpha   89.94567231
_cell_angle_beta   89.99954535
_cell_angle_gamma   90.00222231
_symmetry_Int_Tables_number   1
_chemical_formula_structural   VZnNiP2O9
_chemical_formula_sum   'V4 Zn4 Ni4 P8 O36'
_cell_volume   653.04711101
_cell_formula_units_Z   4
loop_
 _symmetry_equiv_pos_site_id
 _symmetry_equiv_pos_as_xyz
  1  'x, y, z'
loop_
 _atom_site_type_symbol
 _atom_site_label
 _atom_site_symmetry_multiplicity
 _atom_site_fract_x
 _atom_site_fract_y
 _atom_site_fract_z
 _atom_site_occupancy
  V  V0  1  0.75000461  0.34598092  0.88275547  1
  V  V1  1  0.24998871  0.65411442  0.11722968  1
  V  V2  1  0.25001188  0.84569475  0.61738744  1
  V  V3  1  0.74998095  0.15421679  0.38262506  1
  Zn  Zn4  1  0.74999220  0.88572406  0.77882502  1
  Zn  Zn5  1  0.74999599  0.61497048  0.27894430  1
  Zn  Zn6  1  0.25000130  0.11439349  0.22116363  1
  Zn  Zn7  1  0.24999938  0.38496090  0.72104855  1
  Ni  Ni8  1  0.50025234  -0.00001649  0.00017112  1
  Ni  Ni9  1  0.50033827  0.49958829  0.49992714  1
  Ni  Ni10  1  0.99965737  0.49962092  0.49992874  1
  Ni  Ni11  1  -0.00008278  0.99975307  0.00022196  1
  P  P12  1  0.25000582  0.35476879  0.93301996  1
  P  P13  1  0.74999198  0.64529052  0.06696234  1
  P  P14  1  0.75001418  0.85453254  0.56691530  1
  P  P15  1  0.24998437  0.14541642  0.43305578  1
  P  P16  1  0.75000204  0.38408508  0.69645043  1
  P  P17  1  0.24999313  0.61590211  0.30355219  1
  P  P18  1  0.24999388  0.88445099  0.80356201  1
  P  P19  1  0.75000007  0.11580552  0.19641693  1
  O  O20  1  0.03815008  0.61006028  0.36158499  1
  O  O21  1  0.53815542  0.38992581  0.63841489  1
  O  O22  1  0.96185516  0.10996406  0.13826239  1
  O  O23  1  0.46184626  0.88997832  0.86172795  1
  O  O24  1  0.96184180  0.38993478  0.63841074  1
  O  O25  1  0.46184259  0.61007186  0.36158050  1
  O  O26  1  0.03813062  0.88998217  0.86172246  1
  O  O27  1  0.53814838  0.10995427  0.13826206  1
  O  O28  1  0.24999417  0.33317257  0.47920420  1
  O  O29  1  0.75000548  0.66674897  0.52086124  1
  O  O30  1  0.74999834  0.83332881  0.02070671  1
  O  O31  1  0.25001095  0.16669230  0.97924154  1
  O  O32  1  0.74998993  0.14572789  0.94442706  1
  O  O33  1  0.24995322  0.85427442  0.05552158  1
  O  O34  1  0.25001962  0.64572190  0.55564419  1
  O  O35  1  0.74996967  0.35443173  0.44433756  1
  O  O36  1  0.75000058  0.20715044  0.75767503  1
  O  O37  1  0.24999435  0.79286748  0.24232376  1
  O  O38  1  0.24999423  0.70750944  0.74253077  1
  O  O39  1  0.74999952  0.29264355  0.25735897  1
  O  O40  1  0.43835680  0.12726768  0.36248138  1
  O  O41  1  0.93851186  0.87266105  0.63747950  1
  O  O42  1  0.56164501  0.62721953  0.13747359  1
  O  O43  1  0.06165377  0.37286926  0.86249279  1
  O  O44  1  0.56153163  0.87267535  0.63748833  1
  O  O45  1  0.06159633  0.12728506  0.36249075  1
  O  O46  1  0.43836043  0.37287990  0.86249206  1
  O  O47  1  0.93833080  0.62721819  0.13747921  1
  O  O48  1  0.74999124  0.96093537  0.27153313  1
  O  O49  1  0.25000861  0.03932268  0.72852114  1
  O  O50  1  0.24998488  0.46114057  0.22845238  1
  O  O51  1  0.75001022  0.53892032  0.77151543  1
  O  O52  1  0.74999999  0.99597390  0.48993057  1
  O  O53  1  0.24999545  0.00416438  0.51020792  1
  O  O54  1  0.24999910  0.49584356  0.01009540  1
  O  O55  1  0.74999784  0.50422861  0.98990476  1
