# generated using pymatgen
data_Mg6CdGa
_symmetry_space_group_name_H-M   'P 1'
_cell_length_a   6.27487784
_cell_length_b   6.41897035
_cell_length_c   5.00910038
_cell_angle_alpha   90.00000000
_cell_angle_beta   90.00000000
_cell_angle_gamma   120.76258068
_symmetry_Int_Tables_number   1
_chemical_formula_structural   Mg6CdGa
_chemical_formula_sum   'Mg6 Cd1 Ga1'
_cell_volume   173.36931038
_cell_formula_units_Z   1
loop_
 _symmetry_equiv_pos_site_id
 _symmetry_equiv_pos_as_xyz
  1  'x, y, z'
loop_
 _atom_site_type_symbol
 _atom_site_label
 _atom_site_symmetry_multiplicity
 _atom_site_fract_x
 _atom_site_fract_y
 _atom_site_fract_z
 _atom_site_occupancy
  Mg  Mg0  1  0.66789608  0.33412164  0.25000000  1
  Mg  Mg1  1  0.66789608  0.83377344  0.25000000  1
  Mg  Mg2  1  0.32986827  0.16192625  0.75000000  1
  Mg  Mg3  1  0.32986827  0.66794302  0.75000000  1
  Mg  Mg4  1  0.83409102  0.16704601  0.75000000  1
  Mg  Mg5  1  0.83806123  0.66903111  0.75000000  1
  Cd  Cd6  1  0.16675308  0.33337604  0.25000000  1
  Ga  Ga7  1  0.16556598  0.83278249  0.25000000  1
