# generated using pymatgen
data_MnZn2Si(HO3)2
_symmetry_space_group_name_H-M   'P 1'
_cell_length_a   8.89154646
_cell_length_b   5.31766230
_cell_length_c   13.48031100
_cell_angle_alpha   90.00000000
_cell_angle_beta   121.33298656
_cell_angle_gamma   90.00000000
_symmetry_Int_Tables_number   1
_chemical_formula_structural   MnZn2Si(HO3)2
_chemical_formula_sum   'Mn4 Zn8 Si4 H8 O24'
_cell_volume   544.42365694
_cell_formula_units_Z   4
loop_
 _symmetry_equiv_pos_site_id
 _symmetry_equiv_pos_as_xyz
  1  'x, y, z'
loop_
 _atom_site_type_symbol
 _atom_site_label
 _atom_site_symmetry_multiplicity
 _atom_site_fract_x
 _atom_site_fract_y
 _atom_site_fract_z
 _atom_site_occupancy
  Mn  Mn0  1  0.62093438  0.14051444  0.61066747  1
  Mn  Mn1  1  0.87906562  0.64051444  0.38933253  1
  Mn  Mn2  1  0.37906562  0.85948556  0.38933253  1
  Mn  Mn3  1  0.12093438  0.35948556  0.61066747  1
  Zn  Zn4  1  0.69487155  0.38936094  0.10608407  1
  Zn  Zn5  1  0.80512845  0.88936094  0.89391593  1
  Zn  Zn6  1  0.30512845  0.61063906  0.89391593  1
  Zn  Zn7  1  0.19487155  0.11063906  0.10608407  1
  Zn  Zn8  1  0.13546295  0.35540362  0.33040357  1
  Zn  Zn9  1  0.36453705  0.85540362  0.66959643  1
  Zn  Zn10  1  0.86453705  0.64459638  0.66959643  1
  Zn  Zn11  1  0.63546295  0.14459638  0.33040357  1
  Si  Si12  1  0.53782662  0.33835546  0.84498625  1
  Si  Si13  1  0.96217338  0.83835546  0.15501375  1
  Si  Si14  1  0.46217338  0.66164454  0.15501375  1
  Si  Si15  1  0.03782662  0.16164454  0.84498625  1
  H  H16  1  0.93941761  0.12846094  0.38472753  1
  H  H17  1  0.56058239  0.62846094  0.61527247  1
  H  H18  1  0.06058239  0.87153906  0.61527247  1
  H  H19  1  0.43941761  0.37153906  0.38472753  1
  H  H20  1  0.16712732  0.59094639  0.07560079  1
  H  H21  1  0.33287268  0.09094639  0.92439921  1
  H  H22  1  0.83287268  0.40905361  0.92439921  1
  H  H23  1  0.66712732  0.90905361  0.07560079  1
  O  O24  1  0.62520006  0.47970784  0.24802009  1
  O  O25  1  0.87479994  0.97970784  0.75197991  1
  O  O26  1  0.37479994  0.52029216  0.75197991  1
  O  O27  1  0.12520006  0.02029216  0.24802009  1
  O  O28  1  0.66023907  0.50425766  0.66414388  1
  O  O29  1  0.83976093  0.00425766  0.33585612  1
  O  O30  1  0.33976093  0.49574234  0.33585612  1
  O  O31  1  0.16023907  0.99574234  0.66414388  1
  O  O32  1  0.27501174  0.48868650  0.09255843  1
  O  O33  1  0.22498826  0.98868650  0.90744157  1
  O  O34  1  0.72498826  0.51131350  0.90744157  1
  O  O35  1  0.77501174  0.01131350  0.09255843  1
  O  O36  1  0.07754589  0.42643976  0.80030178  1
  O  O37  1  0.42245411  0.92643976  0.19969822  1
  O  O38  1  0.92245411  0.57356024  0.19969822  1
  O  O39  1  0.57754589  0.07356024  0.80030178  1
  O  O40  1  0.06644975  0.36175016  0.44114896  1
  O  O41  1  0.43355025  0.86175016  0.55885104  1
  O  O42  1  0.93355025  0.63824984  0.55885104  1
  O  O43  1  0.56644975  0.13824984  0.44114896  1
  O  O44  1  0.48688305  0.28710978  0.94575603  1
  O  O45  1  0.01311695  0.78710978  0.05424397  1
  O  O46  1  0.51311695  0.71289022  0.05424397  1
  O  O47  1  0.98688305  0.21289022  0.94575603  1
