# generated using pymatgen
data_Y2ZnS4
_symmetry_space_group_name_H-M   'P 1'
_cell_length_a   7.80102427
_cell_length_b   7.80102427
_cell_length_c   7.80102427
_cell_angle_alpha   60.00000000
_cell_angle_beta   60.00000000
_cell_angle_gamma   60.00000000
_symmetry_Int_Tables_number   1
_chemical_formula_structural   Y2ZnS4
_chemical_formula_sum   'Y4 Zn2 S8'
_cell_volume   335.69114775
_cell_formula_units_Z   2
loop_
 _symmetry_equiv_pos_site_id
 _symmetry_equiv_pos_as_xyz
  1  'x, y, z'
loop_
 _atom_site_type_symbol
 _atom_site_label
 _atom_site_symmetry_multiplicity
 _atom_site_fract_x
 _atom_site_fract_y
 _atom_site_fract_z
 _atom_site_occupancy
  Y  Y0  1  0.50000000  0.50000000  0.00000000  1
  Y  Y1  1  0.50000000  0.00000000  0.50000000  1
  Y  Y2  1  0.50000000  0.00000000  0.00000000  1
  Y  Y3  1  0.00000000  0.00000000  0.00000000  1
  Zn  Zn4  1  0.87500000  0.37500000  0.37500000  1
  Zn  Zn5  1  0.12500000  0.62500000  0.62500000  1
  S  S6  1  0.74848773  0.75453681  0.24848773  1
  S  S7  1  0.74848773  0.24848773  0.75453681  1
  S  S8  1  0.74848773  0.24848773  0.24848773  1
  S  S9  1  0.25453681  0.24848773  0.24848773  1
  S  S10  1  0.25151227  0.24546319  0.75151227  1
  S  S11  1  0.25151227  0.75151227  0.24546319  1
  S  S12  1  0.25151227  0.75151227  0.75151227  1
  S  S13  1  0.74546319  0.75151227  0.75151227  1
