# generated using pymatgen
data_CaBiAu
_symmetry_space_group_name_H-M   'P 1'
_cell_length_a   4.86115871
_cell_length_b   4.86118082
_cell_length_c   7.92238758
_cell_angle_alpha   90.00000000
_cell_angle_beta   90.00000000
_cell_angle_gamma   119.99984963
_symmetry_Int_Tables_number   1
_chemical_formula_structural   CaBiAu
_chemical_formula_sum   'Ca2 Bi2 Au2'
_cell_volume   162.13207873
_cell_formula_units_Z   2
loop_
 _symmetry_equiv_pos_site_id
 _symmetry_equiv_pos_as_xyz
  1  'x, y, z'
loop_
 _atom_site_type_symbol
 _atom_site_label
 _atom_site_symmetry_multiplicity
 _atom_site_fract_x
 _atom_site_fract_y
 _atom_site_fract_z
 _atom_site_occupancy
  Ca  Ca0  1  0.99999776  0.99999553  0.48348097  1
  Ca  Ca1  1  0.00000224  0.00000447  0.98348097  1
  Bi  Bi2  1  0.66666597  0.33333193  0.20730399  1
  Bi  Bi3  1  0.33333403  0.66666807  0.70730399  1
  Au  Au4  1  0.66666707  0.33333414  0.80921504  1
  Au  Au5  1  0.33333293  0.66666586  0.30921504  1
