# generated using pymatgen
data_TeWSe
_symmetry_space_group_name_H-M   'P 1'
_cell_length_a   3.43712879
_cell_length_b   3.43708022
_cell_length_c   24.47412937
_cell_angle_alpha   89.99986567
_cell_angle_beta   90.00000000
_cell_angle_gamma   120.00046756
_symmetry_Int_Tables_number   1
_chemical_formula_structural   TeWSe
_chemical_formula_sum   'Te2 W2 Se2'
_cell_volume   250.39249681
_cell_formula_units_Z   2
loop_
 _symmetry_equiv_pos_site_id
 _symmetry_equiv_pos_as_xyz
  1  'x, y, z'
loop_
 _atom_site_type_symbol
 _atom_site_label
 _atom_site_symmetry_multiplicity
 _atom_site_fract_x
 _atom_site_fract_y
 _atom_site_fract_z
 _atom_site_occupancy
  Te  Te0  1  0.33335179  0.66670458  0.52770469  1
  Te  Te1  1  0.33336643  0.66673386  0.37511705  1
  W  W2  1  0.33330834  0.66661668  0.15043295  1
  W  W3  1  0.66669094  0.33338188  0.45141912  1
  Se  Se4  1  0.66663918  0.33327735  0.08328069  1
  Se  Se5  1  0.66664332  0.33328565  0.21764950  1
