# generated using pymatgen
data_CeZr7O16
_symmetry_space_group_name_H-M   'P 1'
_cell_length_a   5.33225591
_cell_length_b   7.35295967
_cell_length_c   7.35295773
_cell_angle_alpha   90.00000000
_cell_angle_beta   90.00000000
_cell_angle_gamma   90.00000000
_symmetry_Int_Tables_number   1
_chemical_formula_structural   CeZr7O16
_chemical_formula_sum   'Ce1 Zr7 O16'
_cell_volume   288.29375680
_cell_formula_units_Z   1
loop_
 _symmetry_equiv_pos_site_id
 _symmetry_equiv_pos_as_xyz
  1  'x, y, z'
loop_
 _atom_site_type_symbol
 _atom_site_label
 _atom_site_symmetry_multiplicity
 _atom_site_fract_x
 _atom_site_fract_y
 _atom_site_fract_z
 _atom_site_occupancy
  Ce  Ce0  1  -0.00000000  -0.00000000  0.00000000  1
  Zr  Zr1  1  0.50000000  0.25202237  0.25202237  1
  Zr  Zr2  1  0.00064992  0.00000000  0.50000000  1
  Zr  Zr3  1  0.50000000  0.25202237  0.74797763  1
  Zr  Zr4  1  0.99935008  0.50000000  0.00000000  1
  Zr  Zr5  1  0.50000000  0.74797763  0.25202237  1
  Zr  Zr6  1  -0.00000000  0.50000000  0.50000000  1
  Zr  Zr7  1  0.50000000  0.74797763  0.74797763  1
  O  O8  1  0.21444297  0.26534625  0.00000000  1
  O  O9  1  0.30105238  -0.00000000  0.24846117  1
  O  O10  1  0.78555703  0.00000000  0.26534625  1
  O  O11  1  0.69894762  0.24846117  -0.00000000  1
  O  O12  1  0.19112340  0.24486833  0.50000000  1
  O  O13  1  0.30105238  -0.00000000  0.75153883  1
  O  O14  1  0.78555703  0.00000000  0.73465375  1
  O  O15  1  0.69151184  0.26750201  0.50000000  1
  O  O16  1  0.21444297  0.73465375  0.00000000  1
  O  O17  1  0.30848816  0.50000000  0.26750201  1
  O  O18  1  0.80887660  0.50000000  0.24486833  1
  O  O19  1  0.69894762  0.75153883  0.00000000  1
  O  O20  1  0.19112340  0.75513167  0.50000000  1
  O  O21  1  0.30848816  0.50000000  0.73249799  1
  O  O22  1  0.80887660  0.50000000  0.75513167  1
  O  O23  1  0.69151184  0.73249799  0.50000000  1
