# generated using pymatgen
data_LiB3O5
_symmetry_space_group_name_H-M   'P 1'
_cell_length_a   8.38602585
_cell_length_b   7.66886950
_cell_length_c   17.44029666
_cell_angle_alpha   90.00000000
_cell_angle_beta   90.00000000
_cell_angle_gamma   90.00000000
_symmetry_Int_Tables_number   1
_chemical_formula_structural   LiB3O5
_chemical_formula_sum   'Li16 B48 O80'
_cell_volume   1121.60881101
_cell_formula_units_Z   16
loop_
 _symmetry_equiv_pos_site_id
 _symmetry_equiv_pos_as_xyz
  1  'x, y, z'
loop_
 _atom_site_type_symbol
 _atom_site_label
 _atom_site_symmetry_multiplicity
 _atom_site_fract_x
 _atom_site_fract_y
 _atom_site_fract_z
 _atom_site_occupancy
  Li  Li0  1  0.70007082  0.25000000  0.84161095  1
  Li  Li1  1  0.20007082  0.25000000  0.65838905  1
  Li  Li2  1  0.29992918  0.75000000  0.15838905  1
  Li  Li3  1  0.79992918  0.75000000  0.34161095  1
  Li  Li4  1  0.77308287  0.25000000  0.12467117  1
  Li  Li5  1  0.27308287  0.25000000  0.37532883  1
  Li  Li6  1  0.22691713  0.75000000  0.87532883  1
  Li  Li7  1  0.72691713  0.75000000  0.62467117  1
  Li  Li8  1  0.96464173  0.25000000  0.46568131  1
  Li  Li9  1  0.46464173  0.25000000  0.03431869  1
  Li  Li10  1  0.03535827  0.75000000  0.53431869  1
  Li  Li11  1  0.53535827  0.75000000  0.96568131  1
  Li  Li12  1  0.10437662  0.25000000  0.95662872  1
  Li  Li13  1  0.60437662  0.25000000  0.54337128  1
  Li  Li14  1  0.89562338  0.75000000  0.04337128  1
  Li  Li15  1  0.39562338  0.75000000  0.45662872  1
  B  B16  1  0.57085483  0.07543270  0.39036378  1
  B  B17  1  0.07085483  0.42456730  0.10963622  1
  B  B18  1  0.42914517  0.57543270  0.60963622  1
  B  B19  1  0.92914517  0.92456730  0.89036378  1
  B  B20  1  0.42914517  0.92456730  0.60963622  1
  B  B21  1  0.92914517  0.57543270  0.89036378  1
  B  B22  1  0.57085483  0.42456730  0.39036378  1
  B  B23  1  0.07085483  0.07543270  0.10963622  1
  B  B24  1  0.60461362  0.57793592  0.10744458  1
  B  B25  1  0.10461362  0.92206408  0.39255542  1
  B  B26  1  0.39538638  0.07793592  0.89255542  1
  B  B27  1  0.89538638  0.42206408  0.60744458  1
  B  B28  1  0.39538638  0.42206408  0.89255542  1
  B  B29  1  0.89538638  0.07793592  0.60744458  1
  B  B30  1  0.60461362  0.92206408  0.10744458  1
  B  B31  1  0.10461362  0.57793592  0.39255542  1
  B  B32  1  0.62115031  0.07931110  0.24392377  1
  B  B33  1  0.12115031  0.42068890  0.25607623  1
  B  B34  1  0.37884969  0.57931110  0.75607623  1
  B  B35  1  0.87884969  0.92068890  0.74392377  1
  B  B36  1  0.37884969  0.92068890  0.75607623  1
  B  B37  1  0.87884969  0.57931110  0.74392377  1
  B  B38  1  0.62115031  0.42068890  0.24392377  1
  B  B39  1  0.12115031  0.07931110  0.25607623  1
  B  B40  1  0.76158697  0.08179791  0.99217500  1
  B  B41  1  0.26158697  0.41820209  0.50782500  1
  B  B42  1  0.23841303  0.58179791  0.00782500  1
  B  B43  1  0.73841303  0.91820209  0.49217500  1
  B  B44  1  0.23841303  0.91820209  0.00782500  1
  B  B45  1  0.73841303  0.58179791  0.49217500  1
  B  B46  1  0.76158697  0.41820209  0.99217500  1
  B  B47  1  0.26158697  0.08179791  0.50782500  1
  B  B48  1  0.86841880  0.07864173  0.33091707  1
  B  B49  1  0.36841880  0.42135827  0.16908293  1
  B  B50  1  0.13158120  0.57864173  0.66908293  1
  B  B51  1  0.63158120  0.92135827  0.83091707  1
  B  B52  1  0.13158120  0.92135827  0.66908293  1
  B  B53  1  0.63158120  0.57864173  0.83091707  1
  B  B54  1  0.86841880  0.42135827  0.33091707  1
  B  B55  1  0.36841880  0.07864173  0.16908293  1
  B  B56  1  0.87602796  0.58334099  0.19361836  1
  B  B57  1  0.37602796  0.91665901  0.30638164  1
  B  B58  1  0.12397204  0.08334099  0.80638164  1
  B  B59  1  0.62397204  0.41665901  0.69361836  1
  B  B60  1  0.12397204  0.41665901  0.80638164  1
  B  B61  1  0.62397204  0.08334099  0.69361836  1
  B  B62  1  0.87602796  0.91665901  0.19361836  1
  B  B63  1  0.37602796  0.58334099  0.30638164  1
  O  O64  1  0.56455073  0.05502839  0.88029621  1
  O  O65  1  0.06455073  0.44497161  0.61970379  1
  O  O66  1  0.43544927  0.55502839  0.11970379  1
  O  O67  1  0.93544927  0.94497161  0.38029621  1
  O  O68  1  0.43544927  0.94497161  0.11970379  1
  O  O69  1  0.93544927  0.55502839  0.38029621  1
  O  O70  1  0.56455073  0.44497161  0.88029621  1
  O  O71  1  0.06455073  0.05502839  0.61970379  1
  O  O72  1  0.65765688  0.06647967  0.05303692  1
  O  O73  1  0.15765688  0.43352033  0.44696308  1
  O  O74  1  0.34234312  0.56647967  0.94696308  1
  O  O75  1  0.84234312  0.93352033  0.55303692  1
  O  O76  1  0.34234312  0.93352033  0.94696308  1
  O  O77  1  0.84234312  0.56647967  0.55303692  1
  O  O78  1  0.65765688  0.43352033  0.05303692  1
  O  O79  1  0.15765688  0.06647967  0.44696308  1
  O  O80  1  0.66078815  0.05809013  0.46151659  1
  O  O81  1  0.16078815  0.44190987  0.03848341  1
  O  O82  1  0.33921185  0.55809013  0.53848341  1
  O  O83  1  0.83921185  0.94190987  0.96151659  1
  O  O84  1  0.33921185  0.94190987  0.53848341  1
  O  O85  1  0.83921185  0.55809013  0.96151659  1
  O  O86  1  0.66078815  0.44190987  0.46151659  1
  O  O87  1  0.16078815  0.05809013  0.03848341  1
  O  O88  1  0.69262172  0.03453447  0.32040166  1
  O  O89  1  0.19262172  0.46546553  0.17959834  1
  O  O90  1  0.30737828  0.53453447  0.67959834  1
  O  O91  1  0.80737828  0.96546553  0.82040166  1
  O  O92  1  0.30737828  0.96546553  0.67959834  1
  O  O93  1  0.80737828  0.53453447  0.82040166  1
  O  O94  1  0.69262172  0.46546553  0.32040166  1
  O  O95  1  0.19262172  0.03453447  0.17959834  1
  O  O96  1  0.69299001  0.54250855  0.18505487  1
  O  O97  1  0.19299001  0.95749145  0.31494513  1
  O  O98  1  0.30700999  0.04250855  0.81494513  1
  O  O99  1  0.80700999  0.45749145  0.68505487  1
  O  O100  1  0.30700999  0.45749145  0.81494513  1
  O  O101  1  0.80700999  0.04250855  0.68505487  1
  O  O102  1  0.69299001  0.95749145  0.18505487  1
  O  O103  1  0.19299001  0.54250855  0.31494513  1
  O  O104  1  0.94359489  0.05273097  0.25115805  1
  O  O105  1  0.44359489  0.44726903  0.24884195  1
  O  O106  1  0.05640511  0.55273097  0.74884195  1
  O  O107  1  0.55640511  0.94726903  0.75115805  1
  O  O108  1  0.05640511  0.94726903  0.74884195  1
  O  O109  1  0.55640511  0.55273097  0.75115805  1
  O  O110  1  0.94359489  0.44726903  0.25115805  1
  O  O111  1  0.44359489  0.05273097  0.24884195  1
  O  O112  1  0.94939008  0.55581557  0.12061147  1
  O  O113  1  0.44939008  0.94418443  0.37938853  1
  O  O114  1  0.05060992  0.05581557  0.87938853  1
  O  O115  1  0.55060992  0.44418443  0.62061147  1
  O  O116  1  0.05060992  0.44418443  0.87938853  1
  O  O117  1  0.55060992  0.05581557  0.62061147  1
  O  O118  1  0.94939008  0.94418443  0.12061147  1
  O  O119  1  0.44939008  0.55581557  0.37938853  1
  O  O120  1  0.50618336  0.25000000  0.38389538  1
  O  O121  1  0.00618336  0.25000000  0.11610462  1
  O  O122  1  0.49381664  0.75000000  0.61610462  1
  O  O123  1  0.99381664  0.75000000  0.88389538  1
  O  O124  1  0.60806453  0.25000000  0.72869847  1
  O  O125  1  0.10806453  0.25000000  0.77130153  1
  O  O126  1  0.39193547  0.75000000  0.27130153  1
  O  O127  1  0.89193547  0.75000000  0.22869847  1
  O  O128  1  0.66097169  0.25000000  0.21949856  1
  O  O129  1  0.16097169  0.25000000  0.28050144  1
  O  O130  1  0.33902831  0.75000000  0.78050144  1
  O  O131  1  0.83902831  0.75000000  0.71949856  1
  O  O132  1  0.79974587  0.25000000  0.96528431  1
  O  O133  1  0.29974587  0.25000000  0.53471569  1
  O  O134  1  0.20025413  0.75000000  0.03471569  1
  O  O135  1  0.70025413  0.75000000  0.46528431  1
  O  O136  1  0.85528514  0.25000000  0.57649688  1
  O  O137  1  0.35528514  0.25000000  0.92350312  1
  O  O138  1  0.14471486  0.75000000  0.42350312  1
  O  O139  1  0.64471486  0.75000000  0.07649688  1
  O  O140  1  0.89129441  0.25000000  0.36067023  1
  O  O141  1  0.39129441  0.25000000  0.13932977  1
  O  O142  1  0.10870559  0.75000000  0.63932977  1
  O  O143  1  0.60870559  0.75000000  0.86067023  1
