# generated using pymatgen
data_LaGe5
_symmetry_space_group_name_H-M   'P 1'
_cell_length_a   4.05223937
_cell_length_b   6.28016024
_cell_length_c   6.28016024
_cell_angle_alpha   60.65600647
_cell_angle_beta   71.17841568
_cell_angle_gamma   71.17841568
_symmetry_Int_Tables_number   1
_chemical_formula_structural   LaGe5
_chemical_formula_sum   'La1 Ge5'
_cell_volume   129.21814074
_cell_formula_units_Z   1
loop_
 _symmetry_equiv_pos_site_id
 _symmetry_equiv_pos_as_xyz
  1  'x, y, z'
loop_
 _atom_site_type_symbol
 _atom_site_label
 _atom_site_symmetry_multiplicity
 _atom_site_fract_x
 _atom_site_fract_y
 _atom_site_fract_z
 _atom_site_occupancy
  La  La0  1  -0.00000000  -0.00000000  0.00000000  1
  Ge  Ge1  1  0.32792745  0.87433442  0.46981068  1
  Ge  Ge2  1  0.67207255  0.12566558  0.53018932  1
  Ge  Ge3  1  0.67207255  0.53018932  0.12566558  1
  Ge  Ge4  1  0.32792745  0.46981068  0.87433442  1
  Ge  Ge5  1  -0.00000000  0.50000000  0.50000000  1
