# generated using pymatgen
data_CoP2H24C8S4NClO4
_symmetry_space_group_name_H-M   'P 1'
_cell_length_a   7.33007125
_cell_length_b   8.78068883
_cell_length_c   16.83196820
_cell_angle_alpha   84.83082943
_cell_angle_beta   84.51902147
_cell_angle_gamma   89.90307032
_symmetry_Int_Tables_number   1
_chemical_formula_structural   CoP2H24C8S4NClO4
_chemical_formula_sum   'Co2 P4 H48 C16 S8 N2 Cl2 O8'
_cell_volume   1073.99211353
_cell_formula_units_Z   2
loop_
 _symmetry_equiv_pos_site_id
 _symmetry_equiv_pos_as_xyz
  1  'x, y, z'
loop_
 _atom_site_type_symbol
 _atom_site_label
 _atom_site_symmetry_multiplicity
 _atom_site_fract_x
 _atom_site_fract_y
 _atom_site_fract_z
 _atom_site_occupancy
  Co  Co0  1  0.75048146  0.17751966  0.75547638  1
  Co  Co1  1  0.24951854  0.82248034  0.24452362  1
  P  P2  1  0.81852560  0.32792821  0.90312093  1
  P  P3  1  0.18147440  0.67207179  0.09687907  1
  P  P4  1  0.73079790  0.22984118  0.57424728  1
  P  P5  1  0.26920210  0.77015882  0.42575272  1
  H  H6  1  0.66926864  0.05071831  0.95643059  1
  H  H7  1  0.33073136  0.94928169  0.04356941  1
  H  H8  1  0.61856160  0.08148556  0.06033132  1
  H  H9  1  0.38143840  0.91851444  0.93966868  1
  H  H10  1  0.84546850  0.02732099  0.02409689  1
  H  H11  1  0.15453150  0.97267901  0.97590311  1
  H  H12  1  0.62842327  0.60995774  0.93336157  1
  H  H13  1  0.37157673  0.39004226  0.06663843  1
  H  H14  1  0.72297070  0.54864519  0.02604301  1
  H  H15  1  0.27702930  0.45135481  0.97395699  1
  H  H16  1  0.82494082  0.70577708  0.96179852  1
  H  H17  1  0.17505918  0.29422292  0.03820148  1
  H  H18  1  0.86422451  0.54631428  0.55496546  1
  H  H19  1  0.13577549  0.45368572  0.44503454  1
  H  H20  1  0.61718097  0.54309910  0.56554723  1
  H  H21  1  0.38281903  0.45690090  0.43445277  1
  H  H22  1  0.73955060  0.59910477  0.46974292  1
  H  H23  1  0.26044940  0.40089523  0.53025708  1
  H  H24  1  0.73469221  0.87456493  0.49068659  1
  H  H25  1  0.26530779  0.12543507  0.50931341  1
  H  H26  1  0.84921317  0.91006267  0.57735689  1
  H  H27  1  0.15078683  0.08993733  0.42264311  1
  H  H28  1  0.60290837  0.91993869  0.58151509  1
  H  H29  1  0.39709163  0.08006131  0.41848491  1
  H  H30  1  0.49501104  0.29592368  0.28740249  1
  H  H31  1  0.50498896  0.70407632  0.71259751  1
  H  H32  1  0.61291671  0.47629517  0.28485880  1
  H  H33  1  0.38708329  0.52370483  0.71514120  1
  H  H34  1  0.62029322  0.33815551  0.37023866  1
  H  H35  1  0.37970678  0.66184449  0.62976134  1
  H  H36  1  0.94808165  0.34430057  0.35534243  1
  H  H37  1  0.05191835  0.65569943  0.64465757  1
  H  H38  1  0.07272533  0.30659619  0.26150032  1
  H  H39  1  0.92727467  0.69340381  0.73849968  1
  H  H40  1  0.94812602  0.48289807  0.26971293  1
  H  H41  1  0.05187398  0.51710193  0.73028707  1
  H  H42  1  0.66445661  0.06277457  0.27632251  1
  H  H43  1  0.33554339  0.93722543  0.72367749  1
  H  H44  1  0.78869273  0.10433260  0.35901923  1
  H  H45  1  0.21130727  0.89566740  0.64098077  1
  H  H46  1  0.91273656  0.06848111  0.26526798  1
  H  H47  1  0.08726344  0.93151889  0.73473202  1
  H  H48  1  0.65487122  0.25360694  0.16206616  1
  H  H49  1  0.34512878  0.74639306  0.83793384  1
  H  H50  1  0.90195574  0.24703250  0.15040348  1
  H  H51  1  0.09804426  0.75296750  0.84959652  1
  H  H52  1  0.78846627  0.42706799  0.15800305  1
  H  H53  1  0.21153373  0.57293201  0.84199695  1
  C  C54  1  0.72348642  0.09272673  0.00913366  1
  C  C55  1  0.27651358  0.90727327  0.99086634  1
  C  C56  1  0.75454123  0.59537952  0.96358709  1
  C  C57  1  0.24545877  0.40462048  0.03641291  1
  C  C58  1  0.74062402  0.52417027  0.52542581  1
  C  C59  1  0.25937598  0.47582973  0.47457419  1
  C  C60  1  0.73204904  0.94044762  0.54313678  1
  C  C61  1  0.26795096  0.05955238  0.45686322  1
  C  C62  1  0.61498408  0.35409671  0.30517676  1
  C  C63  1  0.38501592  0.64590329  0.69482324  1
  C  C64  1  0.95147057  0.36047390  0.28991731  1
  C  C65  1  0.04852943  0.63952610  0.71008269  1
  C  C66  1  0.78767206  0.11675186  0.29355508  1
  C  C67  1  0.21232794  0.88324814  0.70644492  1
  C  C68  1  0.78189283  0.30444994  0.17722572  1
  C  C69  1  0.21810717  0.69555006  0.82277428  1
  S  S70  1  0.59135017  0.33156282  0.84317146  1
  S  S71  1  0.40864983  0.66843718  0.15682854  1
  S  S72  1  0.02098809  0.22522478  0.84346403  1
  S  S73  1  0.97901191  0.77477522  0.15653597  1
  S  S74  1  0.94916981  0.22944157  0.63880435  1
  S  S75  1  0.05083019  0.77055843  0.36119565  1
  S  S76  1  0.50255145  0.22278922  0.64700720  1
  S  S77  1  0.49744855  0.77721078  0.35299280  1
  N  N78  1  0.78392261  0.28441502  0.26653776  1
  N  N79  1  0.21607739  0.71558498  0.73346224  1
  Cl  Cl80  1  0.69564436  0.92299772  0.79054221  1
  Cl  Cl81  1  0.30435564  0.07700228  0.20945779  1
  O  O82  1  0.77147883  0.25380015  0.99438506  1
  O  O83  1  0.22852117  0.74619985  0.00561494  1
  O  O84  1  0.88041334  0.49583056  0.92087390  1
  O  O85  1  0.11958666  0.50416944  0.07912610  1
  O  O86  1  0.74257015  0.36874674  0.50324542  1
  O  O87  1  0.25742985  0.63125326  0.49675458  1
  O  O88  1  0.74543463  0.09954326  0.51180891  1
  O  O89  1  0.25456537  0.90045674  0.48819109  1
