# generated using pymatgen
data_TeWSe
_symmetry_space_group_name_H-M   'P 1'
_cell_length_a   3.43751260
_cell_length_b   3.43748672
_cell_length_c   39.21108314
_cell_angle_alpha   89.99956204
_cell_angle_beta   90.00001593
_cell_angle_gamma   120.00025641
_symmetry_Int_Tables_number   1
_chemical_formula_structural   TeWSe
_chemical_formula_sum   'Te4 W4 Se4'
_cell_volume   401.25797400
_cell_formula_units_Z   4
loop_
 _symmetry_equiv_pos_site_id
 _symmetry_equiv_pos_as_xyz
  1  'x, y, z'
loop_
 _atom_site_type_symbol
 _atom_site_label
 _atom_site_symmetry_multiplicity
 _atom_site_fract_x
 _atom_site_fract_y
 _atom_site_fract_z
 _atom_site_occupancy
  Te  Te0  1  0.33335692  0.66671482  0.32936328  1
  Te  Te1  1  0.66664308  0.33328518  0.42209472  1
  Te  Te2  1  0.66663646  0.33327212  0.51728098  1
  Te  Te3  1  0.33336354  0.66672788  0.23417702  1
  W  W4  1  0.33330940  0.66661849  0.09392232  1
  W  W5  1  0.33330642  0.66661249  0.46968740  1
  W  W6  1  0.66669358  0.33338751  0.28177060  1
  W  W7  1  0.66669060  0.33338151  0.65753568  1
  Se  Se8  1  0.33335442  0.66670960  0.69943298  1
  Se  Se9  1  0.66664558  0.33329040  0.05202502  1
  Se  Se10  1  0.66664095  0.33328096  0.13582404  1
  Se  Se11  1  0.33335905  0.66671904  0.61563396  1
