# generated using pymatgen
data_TbFeSi2
_symmetry_space_group_name_H-M   'P 1'
_cell_length_a   3.96798786
_cell_length_b   4.01089407
_cell_length_c   8.51618484
_cell_angle_alpha   103.62030526
_cell_angle_beta   90.00000000
_cell_angle_gamma   90.00000000
_symmetry_Int_Tables_number   1
_chemical_formula_structural   TbFeSi2
_chemical_formula_sum   'Tb2 Fe2 Si4'
_cell_volume   131.72499219
_cell_formula_units_Z   2
loop_
 _symmetry_equiv_pos_site_id
 _symmetry_equiv_pos_as_xyz
  1  'x, y, z'
loop_
 _atom_site_type_symbol
 _atom_site_label
 _atom_site_symmetry_multiplicity
 _atom_site_fract_x
 _atom_site_fract_y
 _atom_site_fract_z
 _atom_site_occupancy
  Tb  Tb0  1  0.25000000  0.39276565  0.78553130  1
  Tb  Tb1  1  0.75000000  0.60723435  0.21446870  1
  Fe  Fe2  1  0.25000000  0.75095278  0.50190556  1
  Fe  Fe3  1  0.75000000  0.24904722  0.49809444  1
  Si  Si4  1  0.25000000  0.03815360  0.07630720  1
  Si  Si5  1  0.75000000  0.96184640  0.92369280  1
  Si  Si6  1  0.25000000  0.18616336  0.37232671  1
  Si  Si7  1  0.75000000  0.81383664  0.62767329  1
