# generated using pymatgen
data_Te4W3Se2
_symmetry_space_group_name_H-M   'P 1'
_cell_length_a   3.47692061
_cell_length_b   3.47693399
_cell_length_c   32.12532066
_cell_angle_alpha   90.00047962
_cell_angle_beta   90.00000000
_cell_angle_gamma   119.99987259
_symmetry_Int_Tables_number   1
_chemical_formula_structural   Te4W3Se2
_chemical_formula_sum   'Te4 W3 Se2'
_cell_volume   336.33330952
_cell_formula_units_Z   1
loop_
 _symmetry_equiv_pos_site_id
 _symmetry_equiv_pos_as_xyz
  1  'x, y, z'
loop_
 _atom_site_type_symbol
 _atom_site_label
 _atom_site_symmetry_multiplicity
 _atom_site_fract_x
 _atom_site_fract_y
 _atom_site_fract_z
 _atom_site_occupancy
  Te  Te0  1  0.33335562  0.66671223  0.40458141  1
  Te  Te1  1  0.66664883  0.33329666  0.52072260  1
  Te  Te2  1  0.66664844  0.33329587  0.63591429  1
  Te  Te3  1  0.33335038  0.66670176  0.28936780  1
  W  W4  1  0.33331299  0.66662598  0.11563500  1
  W  W5  1  0.33331168  0.66662337  0.57833837  1
  W  W6  1  0.66668977  0.33337953  0.34695078  1
  Se  Se7  1  0.66663669  0.33327238  0.06492822  1
  Se  Se8  1  0.66664661  0.33329222  0.16640253  1
