# generated using pymatgen
data_VH8C2NO3
_symmetry_space_group_name_H-M   'P 1'
_cell_length_a   11.01602842
_cell_length_b   14.51481015
_cell_length_c   7.55348929
_cell_angle_alpha   100.30127015
_cell_angle_beta   91.59881272
_cell_angle_gamma   90.12053289
_symmetry_Int_Tables_number   1
_chemical_formula_structural   VH8C2NO3
_chemical_formula_sum   'V8 H64 C16 N8 O24'
_cell_volume   1187.80795735
_cell_formula_units_Z   8
loop_
 _symmetry_equiv_pos_site_id
 _symmetry_equiv_pos_as_xyz
  1  'x, y, z'
loop_
 _atom_site_type_symbol
 _atom_site_label
 _atom_site_symmetry_multiplicity
 _atom_site_fract_x
 _atom_site_fract_y
 _atom_site_fract_z
 _atom_site_occupancy
  V  V0  1  0.08806237  0.82596038  0.66265982  1
  V  V1  1  0.91193763  0.17403962  0.33734018  1
  V  V2  1  0.40216357  0.83246755  0.69047851  1
  V  V3  1  0.59783643  0.16753245  0.30952149  1
  V  V4  1  0.58719863  0.67506108  0.81732993  1
  V  V5  1  0.41280137  0.32493892  0.18267007  1
  V  V6  1  0.90292132  0.69362047  0.85818229  1
  V  V7  1  0.09707868  0.30637953  0.14181771  1
  H  H8  1  0.54648293  0.84682060  0.13485723  1
  H  H9  1  0.45351707  0.15317940  0.86514277  1
  H  H10  1  0.51641988  0.90632183  0.34056930  1
  H  H11  1  0.48358012  0.09367817  0.65943070  1
  H  H12  1  0.54728206  0.96654720  0.17237581  1
  H  H13  1  0.45271794  0.03345280  0.82762419  1
  H  H14  1  0.93898968  0.62303122  0.25580562  1
  H  H15  1  0.06101032  0.37696878  0.74419438  1
  H  H16  1  0.96097277  0.51039445  0.29462005  1
  H  H17  1  0.03902723  0.48960555  0.70537995  1
  H  H18  1  0.94516217  0.59823811  0.47011747  1
  H  H19  1  0.05483783  0.40176189  0.52988253  1
  H  H20  1  0.01524220  0.86703146  0.08864278  1
  H  H21  1  0.98475780  0.13296854  0.91135722  1
  H  H22  1  0.00744518  0.95291748  0.27438488  1
  H  H23  1  0.99255482  0.04708252  0.72561512  1
  H  H24  1  0.03988202  0.84018478  0.29684682  1
  H  H25  1  0.96011798  0.15981522  0.70315318  1
  H  H26  1  0.46719017  0.66131766  0.40843611  1
  H  H27  1  0.53280983  0.33868234  0.59156389  1
  H  H28  1  0.43605712  0.56120676  0.25636962  1
  H  H29  1  0.56394288  0.43879324  0.74363038  1
  H  H30  1  0.48363134  0.66142049  0.18337000  1
  H  H31  1  0.51636866  0.33857951  0.81663000  1
  H  H32  1  0.75197877  0.89178945  0.15353077  1
  H  H33  1  0.24802123  0.10821055  0.84646923  1
  H  H34  1  0.72737186  0.97584491  0.35008353  1
  H  H35  1  0.27262814  0.02415509  0.64991647  1
  H  H36  1  0.81369655  0.82854848  0.44731552  1
  H  H37  1  0.18630345  0.17145152  0.55268448  1
  H  H38  1  0.65970540  0.84629016  0.50975766  1
  H  H39  1  0.34029460  0.15370984  0.49024234  1
  H  H40  1  0.69654566  0.76230204  0.31680615  1
  H  H41  1  0.30345434  0.23769796  0.68319385  1
  H  H42  1  0.74160963  0.62605842  0.39598475  1
  H  H43  1  0.25839037  0.37394158  0.60401525  1
  H  H44  1  0.75299441  0.55033965  0.18543507  1
  H  H45  1  0.24700559  0.44966035  0.81456493  1
  H  H46  1  0.64840375  0.46673526  0.40750877  1
  H  H47  1  0.35159625  0.53326474  0.59249123  1
  H  H48  1  0.77226818  0.49778594  0.56338268  1
  H  H49  1  0.22773182  0.50221406  0.43661732  1
  H  H50  1  0.79255803  0.41482875  0.36055176  1
  H  H51  1  0.20744197  0.58517125  0.63944824  1
  H  H52  1  0.22772797  0.92066640  0.33483950  1
  H  H53  1  0.77227203  0.07933360  0.66516050  1
  H  H54  1  0.22514159  0.85119586  0.11617326  1
  H  H55  1  0.77485841  0.14880414  0.88382674  1
  H  H56  1  0.15078675  0.05853848  0.20369343  1
  H  H57  1  0.84921325  0.94146152  0.79630657  1
  H  H58  1  0.29319079  0.01964243  0.11142701  1
  H  H59  1  0.70680921  0.98035757  0.88857299  1
  H  H60  1  0.15532182  0.99030064  0.98343070  1
  H  H61  1  0.84467818  0.00969936  0.01656930  1
  H  H62  1  0.25371328  0.65305859  0.37834405  1
  H  H63  1  0.74628672  0.34694141  0.62165595  1
  H  H64  1  0.30880133  0.74413953  0.27700528  1
  H  H65  1  0.69119867  0.25586047  0.72299472  1
  H  H66  1  0.16058618  0.65069356  0.05463994  1
  H  H67  1  0.83941382  0.34930644  0.94536006  1
  H  H68  1  0.23213888  0.54504511  0.08545954  1
  H  H69  1  0.76786112  0.45495489  0.91454046  1
  H  H70  1  0.30947755  0.62627924  0.97470106  1
  H  H71  1  0.69052245  0.37372076  0.02529894  1
  C  C72  1  0.70146285  0.90573938  0.27874651  1
  C  C73  1  0.29853715  0.09426062  0.72125349  1
  C  C74  1  0.72005361  0.83144457  0.39508415  1
  C  C75  1  0.27994639  0.16855543  0.60491585  1
  C  C76  1  0.78148980  0.56045111  0.32796807  1
  C  C77  1  0.21851020  0.43954889  0.67203193  1
  C  C78  1  0.74681067  0.47974884  0.41979956  1
  C  C79  1  0.25318933  0.52025116  0.58020044  1
  C  C80  1  0.18483584  0.91249448  0.20014105  1
  C  C81  1  0.81516416  0.08750552  0.79985895  1
  C  C82  1  0.19723554  0.00050918  0.11951204  1
  C  C83  1  0.80276446  0.99949082  0.88048796  1
  C  C84  1  0.30388491  0.66766345  0.26310902  1
  C  C85  1  0.69611509  0.33233655  0.73689098  1
  C  C86  1  0.24799677  0.61975154  0.08407329  1
  C  C87  1  0.75200323  0.38024846  0.91592671  1
  N  N88  1  0.56909285  0.90717866  0.22733789  1
  N  N89  1  0.43090715  0.09282134  0.77266211  1
  N  N90  1  0.91654706  0.57435353  0.33736256  1
  N  N91  1  0.08345294  0.42564647  0.66263744  1
  N  N92  1  0.05237474  0.89143124  0.21629531  1
  N  N93  1  0.94762526  0.10856876  0.78370469  1
  N  N94  1  0.43215273  0.63506792  0.28020181  1
  N  N95  1  0.56784727  0.36493208  0.71979819  1
  O  O96  1  0.04978678  0.76235824  0.46149009  1
  O  O97  1  0.95021322  0.23764176  0.53850991  1
  O  O98  1  0.07055310  0.93898362  0.65064074  1
  O  O99  1  0.92944690  0.06101638  0.34935926  1
  O  O100  1  0.24457559  0.80280645  0.72453952  1
  O  O101  1  0.75542441  0.19719355  0.27546048  1
  O  O102  1  0.98809554  0.80004582  0.83992051  1
  O  O103  1  0.01190446  0.19995418  0.16007949  1
  O  O104  1  0.41272024  0.88029612  0.50541288  1
  O  O105  1  0.58727976  0.11970388  0.49458712  1
  O  O106  1  0.45558068  0.90878425  0.86633592  1
  O  O107  1  0.54441932  0.09121575  0.13366408  1
  O  O108  1  0.49285967  0.72358102  0.65318518  1
  O  O109  1  0.50714033  0.27641898  0.34681482  1
  O  O110  1  0.56789943  0.55937304  0.77794750  1
  O  O111  1  0.43210057  0.44062696  0.22205250  1
  O  O112  1  0.54411715  0.71925733  0.02860522  1
  O  O113  1  0.45588285  0.28074267  0.97139478  1
  O  O114  1  0.74489771  0.70437363  0.78778416  1
  O  O115  1  0.25510229  0.29562637  0.21221584  1
  O  O116  1  0.96470575  0.59923017  0.72849671  1
  O  O117  1  0.03529425  0.40076983  0.27150329  1
  O  O118  1  0.91279754  0.68420635  0.07355049  1
  O  O119  1  0.08720246  0.31579365  0.92644951  1
