# generated using pymatgen
data_Mg14FeCoO16
_symmetry_space_group_name_H-M   'P 1'
_cell_length_a   8.55262012
_cell_length_b   8.52055213
_cell_length_c   4.27325057
_cell_angle_alpha   90.00000000
_cell_angle_beta   90.00000000
_cell_angle_gamma   90.00000000
_symmetry_Int_Tables_number   1
_chemical_formula_structural   Mg14FeCoO16
_chemical_formula_sum   'Mg14 Fe1 Co1 O16'
_cell_volume   311.40478356
_cell_formula_units_Z   1
loop_
 _symmetry_equiv_pos_site_id
 _symmetry_equiv_pos_as_xyz
  1  'x, y, z'
loop_
 _atom_site_type_symbol
 _atom_site_label
 _atom_site_symmetry_multiplicity
 _atom_site_fract_x
 _atom_site_fract_y
 _atom_site_fract_z
 _atom_site_occupancy
  Mg  Mg0  1  0.50000000  0.00000000  0.00000000  1
  Mg  Mg1  1  0.50000000  0.50000000  0.00000000  1
  Mg  Mg2  1  0.00000000  0.25582839  0.50000000  1
  Mg  Mg3  1  0.00000000  0.74417161  0.50000000  1
  Mg  Mg4  1  0.50000000  0.25147164  0.50000000  1
  Mg  Mg5  1  0.50000000  0.74852836  0.50000000  1
  Mg  Mg6  1  0.25193446  0.00000000  0.50000000  1
  Mg  Mg7  1  0.24776316  0.50000000  0.50000000  1
  Mg  Mg8  1  0.74806554  0.00000000  0.50000000  1
  Mg  Mg9  1  0.75223684  0.50000000  0.50000000  1
  Mg  Mg10  1  0.24977777  0.25353926  0.00000000  1
  Mg  Mg11  1  0.24977777  0.74646074  0.00000000  1
  Mg  Mg12  1  0.75022223  0.25353926  0.00000000  1
  Mg  Mg13  1  0.75022223  0.74646074  -0.00000000  1
  Fe  Fe14  1  0.00000000  0.00000000  0.00000000  1
  Co  Co15  1  0.00000000  0.50000000  0.00000000  1
  O  O16  1  0.24977804  0.00000000  0.00000000  1
  O  O17  1  0.25834501  0.50000000  0.00000000  1
  O  O18  1  0.75022196  0.00000000  0.00000000  1
  O  O19  1  0.74165499  0.50000000  0.00000000  1
  O  O20  1  0.24892618  0.24895916  0.50000000  1
  O  O21  1  0.24892618  0.75104084  0.50000000  1
  O  O22  1  0.75107382  0.24895916  0.50000000  1
  O  O23  1  0.75107382  0.75104084  0.50000000  1
  O  O24  1  0.00000000  0.00000000  0.50000000  1
  O  O25  1  0.00000000  0.50000000  0.50000000  1
  O  O26  1  0.50000000  0.00000000  0.50000000  1
  O  O27  1  0.50000000  0.50000000  0.50000000  1
  O  O28  1  0.00000000  0.24006545  -0.00000000  1
  O  O29  1  0.00000000  0.75993455  0.00000000  1
  O  O30  1  0.50000000  0.24774571  0.00000000  1
  O  O31  1  0.50000000  0.75225429  -0.00000000  1
