# generated using pymatgen
data_Mg14CrCoO16
_symmetry_space_group_name_H-M   'P 1'
_cell_length_a   8.52147421
_cell_length_b   8.54669819
_cell_length_c   4.26984404
_cell_angle_alpha   90.00000000
_cell_angle_beta   90.00000000
_cell_angle_gamma   90.00000000
_symmetry_Int_Tables_number   1
_chemical_formula_structural   Mg14CrCoO16
_chemical_formula_sum   'Mg14 Cr1 Co1 O16'
_cell_volume   310.97474060
_cell_formula_units_Z   1
loop_
 _symmetry_equiv_pos_site_id
 _symmetry_equiv_pos_as_xyz
  1  'x, y, z'
loop_
 _atom_site_type_symbol
 _atom_site_label
 _atom_site_symmetry_multiplicity
 _atom_site_fract_x
 _atom_site_fract_y
 _atom_site_fract_z
 _atom_site_occupancy
  Mg  Mg0  1  0.50000000  0.00000000  0.00000000  1
  Mg  Mg1  1  0.50000000  0.50000000  0.00000000  1
  Mg  Mg2  1  0.00000000  0.24472038  0.50000000  1
  Mg  Mg3  1  0.00000000  0.75527962  0.50000000  1
  Mg  Mg4  1  0.50000000  0.24879477  0.50000000  1
  Mg  Mg5  1  0.50000000  0.75120523  0.50000000  1
  Mg  Mg6  1  0.24786683  0.00000000  0.50000000  1
  Mg  Mg7  1  0.25062547  0.50000000  0.50000000  1
  Mg  Mg8  1  0.75213317  0.00000000  0.50000000  1
  Mg  Mg9  1  0.74937453  0.50000000  0.50000000  1
  Mg  Mg10  1  0.24893609  0.24591869  0.00000000  1
  Mg  Mg11  1  0.24893609  0.75408131  0.00000000  1
  Mg  Mg12  1  0.75106391  0.24591869  0.00000000  1
  Mg  Mg13  1  0.75106391  0.75408131  0.00000000  1
  Cr  Cr14  1  0.00000000  0.50000000  0.00000000  1
  Co  Co15  1  0.00000000  0.00000000  0.00000000  1
  O  O16  1  0.25803297  0.00000000  0.00000000  1
  O  O17  1  0.24695119  0.50000000  0.00000000  1
  O  O18  1  0.74196703  0.00000000  0.00000000  1
  O  O19  1  0.75304881  0.50000000  0.00000000  1
  O  O20  1  0.24905212  0.25062689  0.50000000  1
  O  O21  1  0.24905212  0.74937311  0.50000000  1
  O  O22  1  0.75094788  0.25062689  0.50000000  1
  O  O23  1  0.75094788  0.74937311  0.50000000  1
  O  O24  1  0.00000000  0.00000000  0.50000000  1
  O  O25  1  0.00000000  0.50000000  0.50000000  1
  O  O26  1  0.50000000  0.00000000  0.50000000  1
  O  O27  1  0.50000000  0.50000000  0.50000000  1
  O  O28  1  0.00000000  0.26162672  0.00000000  1
  O  O29  1  0.00000000  0.73837328  0.00000000  1
  O  O30  1  0.50000000  0.25291792  0.00000000  1
  O  O31  1  0.50000000  0.74708208  0.00000000  1
