# generated using pymatgen
data_YbSmO3
_symmetry_space_group_name_H-M   'P 1'
_cell_length_a   5.98130377
_cell_length_b   5.88304586
_cell_length_c   8.43025469
_cell_angle_alpha   89.99819244
_cell_angle_beta   89.90479419
_cell_angle_gamma   89.89393817
_symmetry_Int_Tables_number   1
_chemical_formula_structural   YbSmO3
_chemical_formula_sum   'Yb4 Sm4 O12'
_cell_volume   296.64528176
_cell_formula_units_Z   4
loop_
 _symmetry_equiv_pos_site_id
 _symmetry_equiv_pos_as_xyz
  1  'x, y, z'
loop_
 _atom_site_type_symbol
 _atom_site_label
 _atom_site_symmetry_multiplicity
 _atom_site_fract_x
 _atom_site_fract_y
 _atom_site_fract_z
 _atom_site_occupancy
  Yb  Yb0  1  0.02160725  -0.00037846  0.73338901  1
  Yb  Yb1  1  0.47820191  0.49974044  0.23303891  1
  Yb  Yb2  1  0.52185362  0.50044512  0.73337972  1
  Yb  Yb3  1  0.97842675  0.00017714  0.23303534  1
  Sm  Sm4  1  0.04169112  0.49923425  0.46415806  1
  Sm  Sm5  1  0.45861465  0.99901711  0.96351110  1
  Sm  Sm6  1  0.54152678  0.00107605  0.46429893  1
  Sm  Sm7  1  0.95855655  0.50062908  0.96337098  1
  O  O8  1  0.09446468  0.13870745  0.99152468  1
  O  O9  1  0.11521249  0.64021766  0.19622635  1
  O  O10  1  0.23534551  0.70814579  0.83950452  1
  O  O11  1  0.26450890  0.20832764  0.33947608  1
  O  O12  1  0.38482892  0.14002439  0.69563093  1
  O  O13  1  0.40593465  0.63875899  0.49112055  1
  O  O14  1  0.59430683  0.36159112  0.99152173  1
  O  O15  1  0.61488731  0.85998787  0.19614720  1
  O  O16  1  0.73525158  0.79207004  0.83985446  1
  O  O17  1  0.76449145  0.29148303  0.33919604  1
  O  O18  1  0.88457802  0.35980964  0.69571138  1
  O  O19  1  0.90571101  0.86093566  0.49110802  1
