# generated using pymatgen
data_Mg14CdCuO16
_symmetry_space_group_name_H-M   'P 1'
_cell_length_a   8.60997990
_cell_length_b   8.60997990
_cell_length_c   4.29715611
_cell_angle_alpha   90.00000000
_cell_angle_beta   90.00000000
_cell_angle_gamma   90.00000000
_symmetry_Int_Tables_number   1
_chemical_formula_structural   Mg14CdCuO16
_chemical_formula_sum   'Mg14 Cd1 Cu1 O16'
_cell_volume   318.55571912
_cell_formula_units_Z   1
loop_
 _symmetry_equiv_pos_site_id
 _symmetry_equiv_pos_as_xyz
  1  'x, y, z'
loop_
 _atom_site_type_symbol
 _atom_site_label
 _atom_site_symmetry_multiplicity
 _atom_site_fract_x
 _atom_site_fract_y
 _atom_site_fract_z
 _atom_site_occupancy
  Mg  Mg0  1  -0.00000000  0.50000000  0.00000000  1
  Mg  Mg1  1  0.50000000  0.00000000  0.00000000  1
  Mg  Mg2  1  -0.00000000  0.24930228  0.50000000  1
  Mg  Mg3  1  -0.00000000  0.75069772  0.50000000  1
  Mg  Mg4  1  0.50000000  0.24480009  0.50000000  1
  Mg  Mg5  1  0.50000000  0.75519991  0.50000000  1
  Mg  Mg6  1  0.24930228  -0.00000000  0.50000000  1
  Mg  Mg7  1  0.24480009  0.50000000  0.50000000  1
  Mg  Mg8  1  0.75069772  0.00000000  0.50000000  1
  Mg  Mg9  1  0.75519991  0.50000000  0.50000000  1
  Mg  Mg10  1  0.24696770  0.24696770  -0.00000000  1
  Mg  Mg11  1  0.24696770  0.75303230  0.00000000  1
  Mg  Mg12  1  0.75303230  0.24696770  -0.00000000  1
  Mg  Mg13  1  0.75303230  0.75303230  0.00000000  1
  Cd  Cd14  1  0.50000000  0.50000000  0.00000000  1
  Cu  Cu15  1  -0.00000000  0.00000000  0.00000000  1
  O  O16  1  0.25141630  0.00000000  0.00000000  1
  O  O17  1  0.23476503  0.50000000  -0.00000000  1
  O  O18  1  0.74858370  0.00000000  -0.00000000  1
  O  O19  1  0.76523497  0.50000000  0.00000000  1
  O  O20  1  0.25032983  0.25032983  0.50000000  1
  O  O21  1  0.25032983  0.74967017  0.50000000  1
  O  O22  1  0.74967017  0.25032983  0.50000000  1
  O  O23  1  0.74967017  0.74967017  0.50000000  1
  O  O24  1  -0.00000000  0.00000000  0.50000000  1
  O  O25  1  -0.00000000  0.50000000  0.50000000  1
  O  O26  1  0.50000000  0.00000000  0.50000000  1
  O  O27  1  0.50000000  0.50000000  0.50000000  1
  O  O28  1  0.00000000  0.25141630  -0.00000000  1
  O  O29  1  -0.00000000  0.74858370  -0.00000000  1
  O  O30  1  0.50000000  0.23476503  0.00000000  1
  O  O31  1  0.50000000  0.76523497  -0.00000000  1
