# generated using pymatgen
data_YMg30CuO32
_symmetry_space_group_name_H-M   'P 1'
_cell_length_a   8.57933983
_cell_length_b   8.58615616
_cell_length_c   8.58615616
_cell_angle_alpha   90.00000000
_cell_angle_beta   90.00000000
_cell_angle_gamma   90.00000000
_symmetry_Int_Tables_number   1
_chemical_formula_structural   YMg30CuO32
_chemical_formula_sum   'Y1 Mg30 Cu1 O32'
_cell_volume   632.48675674
_cell_formula_units_Z   1
loop_
 _symmetry_equiv_pos_site_id
 _symmetry_equiv_pos_as_xyz
  1  'x, y, z'
loop_
 _atom_site_type_symbol
 _atom_site_label
 _atom_site_symmetry_multiplicity
 _atom_site_fract_x
 _atom_site_fract_y
 _atom_site_fract_z
 _atom_site_occupancy
  Y  Y0  1  -0.00000000  0.00000000  0.00000000  1
  Mg  Mg1  1  -0.00000000  0.00000000  0.50000000  1
  Mg  Mg2  1  -0.00000000  0.50000000  0.00000000  1
  Mg  Mg3  1  0.50000000  0.00000000  0.00000000  1
  Mg  Mg4  1  0.50000000  0.00000000  0.50000000  1
  Mg  Mg5  1  0.50000000  0.50000000  0.00000000  1
  Mg  Mg6  1  0.50000000  0.50000000  0.50000000  1
  Mg  Mg7  1  -0.00000000  0.25937185  0.25937185  1
  Mg  Mg8  1  -0.00000000  0.25937185  0.74062815  1
  Mg  Mg9  1  -0.00000000  0.74062815  0.25937185  1
  Mg  Mg10  1  0.00000000  0.74062815  0.74062815  1
  Mg  Mg11  1  0.50000000  0.25167494  0.25167494  1
  Mg  Mg12  1  0.50000000  0.25167494  0.74832506  1
  Mg  Mg13  1  0.50000000  0.74832506  0.25167494  1
  Mg  Mg14  1  0.50000000  0.74832506  0.74832506  1
  Mg  Mg15  1  0.25559081  0.00000000  0.25742630  1
  Mg  Mg16  1  0.25559081  0.00000000  0.74257370  1
  Mg  Mg17  1  0.24808214  0.50000000  0.25344602  1
  Mg  Mg18  1  0.24808214  0.50000000  0.74655398  1
  Mg  Mg19  1  0.74440919  0.00000000  0.25742630  1
  Mg  Mg20  1  0.74440919  0.00000000  0.74257370  1
  Mg  Mg21  1  0.75191786  0.50000000  0.25344602  1
  Mg  Mg22  1  0.75191786  0.50000000  0.74655398  1
  Mg  Mg23  1  0.25559081  0.25742630  -0.00000000  1
  Mg  Mg24  1  0.24808214  0.25344602  0.50000000  1
  Mg  Mg25  1  0.25559081  0.74257370  0.00000000  1
  Mg  Mg26  1  0.24808214  0.74655398  0.50000000  1
  Mg  Mg27  1  0.74440919  0.25742630  -0.00000000  1
  Mg  Mg28  1  0.75191786  0.25344602  0.50000000  1
  Mg  Mg29  1  0.74440919  0.74257370  0.00000000  1
  Mg  Mg30  1  0.75191786  0.74655398  0.50000000  1
  Cu  Cu31  1  -0.00000000  0.50000000  0.50000000  1
  O  O32  1  0.25950013  0.00000000  -0.00000000  1
  O  O33  1  0.25323561  0.00000000  0.50000000  1
  O  O34  1  0.25323561  0.50000000  -0.00000000  1
  O  O35  1  0.26324763  0.50000000  0.50000000  1
  O  O36  1  0.74049987  0.00000000  0.00000000  1
  O  O37  1  0.74676439  0.00000000  0.50000000  1
  O  O38  1  0.74676439  0.50000000  0.00000000  1
  O  O39  1  0.73675237  0.50000000  0.50000000  1
  O  O40  1  0.24917025  0.24919067  0.24919067  1
  O  O41  1  0.24917025  0.24919067  0.75080933  1
  O  O42  1  0.24917025  0.75080933  0.24919067  1
  O  O43  1  0.24917025  0.75080933  0.75080933  1
  O  O44  1  0.75082975  0.24919067  0.24919067  1
  O  O45  1  0.75082975  0.24919067  0.75080933  1
  O  O46  1  0.75082975  0.75080933  0.24919067  1
  O  O47  1  0.75082975  0.75080933  0.75080933  1
  O  O48  1  -0.00000000  0.00000000  0.25782299  1
  O  O49  1  -0.00000000  0.00000000  0.74217701  1
  O  O50  1  0.00000000  0.50000000  0.23722641  1
  O  O51  1  0.00000000  0.50000000  0.76277359  1
  O  O52  1  0.50000000  0.00000000  0.25028744  1
  O  O53  1  0.50000000  0.00000000  0.74971256  1
  O  O54  1  0.50000000  0.50000000  0.24784741  1
  O  O55  1  0.50000000  0.50000000  0.75215259  1
  O  O56  1  0.00000000  0.25782299  0.00000000  1
  O  O57  1  0.00000000  0.23722641  0.50000000  1
  O  O58  1  -0.00000000  0.74217701  -0.00000000  1
  O  O59  1  -0.00000000  0.76277359  0.50000000  1
  O  O60  1  0.50000000  0.25028744  0.00000000  1
  O  O61  1  0.50000000  0.24784741  0.50000000  1
  O  O62  1  0.50000000  0.74971256  -0.00000000  1
  O  O63  1  0.50000000  0.75215259  0.50000000  1
