# generated using pymatgen
data_MgFe2P2O9
_symmetry_space_group_name_H-M   'P 1'
_cell_length_a   6.31523082
_cell_length_b   7.38181076
_cell_length_c   14.23509211
_cell_angle_alpha   90.02899548
_cell_angle_beta   89.92058431
_cell_angle_gamma   90.02779957
_symmetry_Int_Tables_number   1
_chemical_formula_structural   MgFe2P2O9
_chemical_formula_sum   'Mg4 Fe8 P8 O36'
_cell_volume   663.60842833
_cell_formula_units_Z   4
loop_
 _symmetry_equiv_pos_site_id
 _symmetry_equiv_pos_as_xyz
  1  'x, y, z'
loop_
 _atom_site_type_symbol
 _atom_site_label
 _atom_site_symmetry_multiplicity
 _atom_site_fract_x
 _atom_site_fract_y
 _atom_site_fract_z
 _atom_site_occupancy
  Mg  Mg0  1  0.75009524  0.92309365  0.77342801  1
  Mg  Mg1  1  0.75006273  0.57749184  0.27337150  1
  Mg  Mg2  1  0.24993323  0.42252047  0.72662465  1
  Mg  Mg3  1  0.24991408  0.07692135  0.22657037  1
  Fe  Fe4  1  0.75031047  0.35785065  0.88144827  1
  Fe  Fe5  1  0.24969075  0.64217230  0.11854976  1
  Fe  Fe6  1  0.24982409  0.85775937  0.61891048  1
  Fe  Fe7  1  0.75017355  0.14223881  0.38108995  1
  Fe  Fe8  1  0.49999753  0.00000280  0.00000271  1
  Fe  Fe9  1  0.49999304  0.49999075  0.50000154  1
  Fe  Fe10  1  0.00000722  0.49999706  0.49999406  1
  Fe  Fe11  1  0.99999187  0.00000788  0.00001319  1
  P  P12  1  0.24979797  0.36397497  0.92673153  1
  P  P13  1  0.75020299  0.63603364  0.07327474  1
  P  P14  1  0.74992131  0.86460802  0.57314369  1
  P  P15  1  0.25008063  0.13537192  0.42685716  1
  P  P16  1  0.74981166  0.38298528  0.69521784  1
  P  P17  1  0.75025137  0.11679964  0.19473574  1
  P  P18  1  0.24974770  0.88320052  0.80526917  1
  P  P19  1  0.25019299  0.61700130  0.30477638  1
  O  O20  1  0.04006147  0.60730624  0.36330441  1
  O  O21  1  0.53982384  0.39262591  0.63687162  1
  O  O22  1  0.95975354  0.10710361  0.13601921  1
  O  O23  1  0.46035877  0.89318864  0.86352586  1
  O  O24  1  0.95993644  0.39267681  0.63668660  1
  O  O25  1  0.46017340  0.60735739  0.36312547  1
  O  O26  1  0.04024822  0.89290437  0.86398972  1
  O  O27  1  0.53964593  0.10681370  0.13647678  1
  O  O28  1  0.24994597  0.32541259  0.47535210  1
  O  O29  1  0.75005338  0.67457568  0.52464006  1
  O  O30  1  0.75135794  0.82610912  0.02505749  1
  O  O31  1  0.24863660  0.17389830  0.97494691  1
  O  O32  1  0.75007434  0.12994187  0.94984162  1
  O  O33  1  0.24992359  0.87007915  0.05016597  1
  O  O34  1  0.25006754  0.62942260  0.55055187  1
  O  O35  1  0.74992665  0.37056949  0.44944835  1
  O  O36  1  0.74989694  0.20358173  0.75358021  1
  O  O37  1  0.25010849  0.79641451  0.24642055  1
  O  O38  1  0.24920943  0.70390774  0.74679151  1
  O  O39  1  0.75078888  0.29609493  0.25321047  1
  O  O40  1  0.43776465  0.12387672  0.35768882  1
  O  O41  1  0.93722141  0.87619679  0.64224080  1
  O  O42  1  0.56203637  0.62521116  0.14194986  1
  O  O43  1  0.06308605  0.37710226  0.85729639  1
  O  O44  1  0.56223900  0.87611482  0.64230291  1
  O  O45  1  0.06277473  0.12379294  0.35775231  1
  O  O46  1  0.43796734  0.37479753  0.85805454  1
  O  O47  1  0.93691350  0.62291085  0.14270666  1
  O  O48  1  0.75048033  0.49303647  0.99728464  1
  O  O49  1  0.24937386  0.03897904  0.73219965  1
  O  O50  1  0.25035175  0.46106839  0.23161736  1
  O  O51  1  0.74965462  0.53892520  0.76837432  1
  O  O52  1  0.75009737  0.00832167  0.49760447  1
  O  O53  1  0.24991340  0.99167133  0.50238326  1
  O  O54  1  0.24952413  0.50696677  0.00271990  1
  O  O55  1  0.75062572  0.96101447  0.26780157  1
