# generated using pymatgen
data_NaLiMg30O31
_symmetry_space_group_name_H-M   'P 1'
_cell_length_a   8.52807642
_cell_length_b   8.54799203
_cell_length_c   8.56608848
_cell_angle_alpha   90.00000000
_cell_angle_beta   90.00000000
_cell_angle_gamma   90.00000000
_symmetry_Int_Tables_number   1
_chemical_formula_structural   NaLiMg30O31
_chemical_formula_sum   'Na1 Li1 Mg30 O31'
_cell_volume   624.45011213
_cell_formula_units_Z   1
loop_
 _symmetry_equiv_pos_site_id
 _symmetry_equiv_pos_as_xyz
  1  'x, y, z'
loop_
 _atom_site_type_symbol
 _atom_site_label
 _atom_site_symmetry_multiplicity
 _atom_site_fract_x
 _atom_site_fract_y
 _atom_site_fract_z
 _atom_site_occupancy
  Na  Na0  1  0.99755111  0.50000000  0.50000000  1
  Li  Li1  1  0.99735725  -0.00000000  0.00000000  1
  Mg  Mg2  1  0.98006587  -0.00000000  0.50000000  1
  Mg  Mg3  1  0.99862807  0.50000000  0.00000000  1
  Mg  Mg4  1  0.50154688  -0.00000000  0.00000000  1
  Mg  Mg5  1  0.52057440  -0.00000000  0.50000000  1
  Mg  Mg6  1  0.50142164  0.50000000  0.00000000  1
  Mg  Mg7  1  0.50105178  0.50000000  0.50000000  1
  Mg  Mg8  1  0.00066350  0.24863466  0.24781185  1
  Mg  Mg9  1  0.00066350  0.24863466  0.75218815  1
  Mg  Mg10  1  0.00066350  0.75136534  0.24781185  1
  Mg  Mg11  1  0.00066350  0.75136534  0.75218815  1
  Mg  Mg12  1  0.49953427  0.24957150  0.24989221  1
  Mg  Mg13  1  0.49953427  0.24957150  0.75010779  1
  Mg  Mg14  1  0.49953427  0.75042850  0.24989221  1
  Mg  Mg15  1  0.49953427  0.75042850  0.75010779  1
  Mg  Mg16  1  0.24416639  -0.00000000  0.22652859  1
  Mg  Mg17  1  0.24416639  -0.00000000  0.77347141  1
  Mg  Mg18  1  0.24777081  0.50000000  0.24741515  1
  Mg  Mg19  1  0.24777081  0.50000000  0.75258485  1
  Mg  Mg20  1  0.75538881  -0.00000000  0.24413384  1
  Mg  Mg21  1  0.75538881  -0.00000000  0.75586616  1
  Mg  Mg22  1  0.75249384  0.50000000  0.24948390  1
  Mg  Mg23  1  0.75249384  0.50000000  0.75051610  1
  Mg  Mg24  1  0.24649093  0.25061567  0.00000000  1
  Mg  Mg25  1  0.24637072  0.27203492  0.50000000  1
  Mg  Mg26  1  0.24649093  0.74938433  0.00000000  1
  Mg  Mg27  1  0.24637072  0.72796508  0.50000000  1
  Mg  Mg28  1  0.75426582  0.24849300  0.00000000  1
  Mg  Mg29  1  0.75313592  0.25388156  0.50000000  1
  Mg  Mg30  1  0.75426582  0.75150700  0.00000000  1
  Mg  Mg31  1  0.75313592  0.74611844  0.50000000  1
  O  O32  1  0.25840782  -0.00000000  0.00000000  1
  O  O33  1  0.25393404  0.50000000  0.00000000  1
  O  O34  1  0.26373671  0.50000000  0.50000000  1
  O  O35  1  0.74249076  -0.00000000  0.00000000  1
  O  O36  1  0.74867457  -0.00000000  0.50000000  1
  O  O37  1  0.74655666  0.50000000  0.00000000  1
  O  O38  1  0.73617779  0.50000000  0.50000000  1
  O  O39  1  0.25046097  0.24482579  0.25509961  1
  O  O40  1  0.25046097  0.24482579  0.74490039  1
  O  O41  1  0.25046097  0.75517421  0.25509961  1
  O  O42  1  0.25046097  0.75517421  0.74490039  1
  O  O43  1  0.74975455  0.24829636  0.25200183  1
  O  O44  1  0.74975455  0.24829636  0.74799817  1
  O  O45  1  0.74975455  0.75170364  0.25200183  1
  O  O46  1  0.74975455  0.75170364  0.74799817  1
  O  O47  1  0.00586283  -0.00000000  0.25961183  1
  O  O48  1  0.00586283  -0.00000000  0.74038817  1
  O  O49  1  0.00164298  0.50000000  0.23858133  1
  O  O50  1  0.00164298  0.50000000  0.76141867  1
  O  O51  1  0.49281611  -0.00000000  0.25700721  1
  O  O52  1  0.49281611  -0.00000000  0.74299279  1
  O  O53  1  0.49851558  0.50000000  0.24958281  1
  O  O54  1  0.49851558  0.50000000  0.75041719  1
  O  O55  1  0.00152907  0.25229771  0.00000000  1
  O  O56  1  0.00820259  0.23346581  0.50000000  1
  O  O57  1  0.00152907  0.74770229  0.00000000  1
  O  O58  1  0.00820259  0.76653419  0.50000000  1
  O  O59  1  0.49864913  0.24896507  0.00000000  1
  O  O60  1  0.49278421  0.24152035  0.50000000  1
  O  O61  1  0.49864913  0.75103493  0.00000000  1
  O  O62  1  0.49278421  0.75847965  0.50000000  1
