# generated using pymatgen
data_CeMg2
_symmetry_space_group_name_H-M   'P 1'
_cell_length_a   12.79363482
_cell_length_b   3.17925860
_cell_length_c   7.86850664
_cell_angle_alpha   90.00000000
_cell_angle_beta   108.33611207
_cell_angle_gamma   90.00000000
_symmetry_Int_Tables_number   1
_chemical_formula_structural   CeMg2
_chemical_formula_sum   'Ce4 Mg8'
_cell_volume   303.79623051
_cell_formula_units_Z   4
loop_
 _symmetry_equiv_pos_site_id
 _symmetry_equiv_pos_as_xyz
  1  'x, y, z'
loop_
 _atom_site_type_symbol
 _atom_site_label
 _atom_site_symmetry_multiplicity
 _atom_site_fract_x
 _atom_site_fract_y
 _atom_site_fract_z
 _atom_site_occupancy
  Ce  Ce0  1  0.40285193  -0.00000000  0.30650333  1
  Ce  Ce1  1  0.04157133  -0.00000000  0.58119298  1
  Ce  Ce2  1  0.90285193  0.50000000  0.30650333  1
  Ce  Ce3  1  0.54157133  0.50000000  0.58119298  1
  Mg  Mg4  1  0.00408521  -0.00000000  0.99726437  1
  Mg  Mg5  1  0.17014425  0.50000000  0.32379846  1
  Mg  Mg6  1  0.32601479  -0.00000000  0.67810467  1
  Mg  Mg7  1  0.22199949  0.50000000  0.94646919  1
  Mg  Mg8  1  0.50408521  0.50000000  0.99726437  1
  Mg  Mg9  1  0.67014425  -0.00000000  0.32379846  1
  Mg  Mg10  1  0.82601479  0.50000000  0.67810467  1
  Mg  Mg11  1  0.72199949  -0.00000000  0.94646919  1
