# generated using pymatgen
data_NaLiMg30O31
_symmetry_space_group_name_H-M   'P 1'
_cell_length_a   8.51077397
_cell_length_b   8.56887433
_cell_length_c   8.54747598
_cell_angle_alpha   90.00000000
_cell_angle_beta   90.00000000
_cell_angle_gamma   90.00000000
_symmetry_Int_Tables_number   1
_chemical_formula_structural   NaLiMg30O31
_chemical_formula_sum   'Na1 Li1 Mg30 O31'
_cell_volume   623.34821362
_cell_formula_units_Z   1
loop_
 _symmetry_equiv_pos_site_id
 _symmetry_equiv_pos_as_xyz
  1  'x, y, z'
loop_
 _atom_site_type_symbol
 _atom_site_label
 _atom_site_symmetry_multiplicity
 _atom_site_fract_x
 _atom_site_fract_y
 _atom_site_fract_z
 _atom_site_occupancy
  Na  Na0  1  0.99912302  0.00000000  0.50000000  1
  Li  Li1  1  0.99645361  0.00000000  -0.00000000  1
  Mg  Mg2  1  0.99826795  0.50000000  -0.00000000  1
  Mg  Mg3  1  0.99569895  0.50000000  0.50000000  1
  Mg  Mg4  1  0.50213091  0.00000000  -0.00000000  1
  Mg  Mg5  1  0.51744746  0.00000000  0.50000000  1
  Mg  Mg6  1  0.50163294  0.50000000  -0.00000000  1
  Mg  Mg7  1  0.50304129  0.50000000  0.50000000  1
  Mg  Mg8  1  0.99992339  0.24554430  0.24769029  1
  Mg  Mg9  1  0.99992339  0.24554430  0.75230971  1
  Mg  Mg10  1  0.99992339  0.75445570  0.24769029  1
  Mg  Mg11  1  0.99992339  0.75445570  0.75230971  1
  Mg  Mg12  1  0.49988588  0.24828899  0.25004208  1
  Mg  Mg13  1  0.49988588  0.24828899  0.74995792  1
  Mg  Mg14  1  0.49988588  0.75171101  0.25004208  1
  Mg  Mg15  1  0.49988588  0.75171101  0.74995792  1
  Mg  Mg16  1  0.24308924  0.00000000  0.22505087  1
  Mg  Mg17  1  0.24308924  0.00000000  0.77494913  1
  Mg  Mg18  1  0.24852207  0.50000000  0.24652920  1
  Mg  Mg19  1  0.24852207  0.50000000  0.75347080  1
  Mg  Mg20  1  0.75879659  0.00000000  0.24756627  1
  Mg  Mg21  1  0.75879659  0.00000000  0.75243373  1
  Mg  Mg22  1  0.75124214  0.50000000  0.24867822  1
  Mg  Mg23  1  0.75124214  0.50000000  0.75132178  1
  Mg  Mg24  1  0.24634627  0.24965855  -0.00000000  1
  Mg  Mg25  1  0.24665492  0.27208607  0.50000000  1
  Mg  Mg26  1  0.24634627  0.75034145  -0.00000000  1
  Mg  Mg27  1  0.24665492  0.72791393  0.50000000  1
  Mg  Mg28  1  0.75418945  0.24663776  -0.00000000  1
  Mg  Mg29  1  0.75547886  0.24748304  0.50000000  1
  Mg  Mg30  1  0.75418945  0.75336224  -0.00000000  1
  Mg  Mg31  1  0.75547886  0.75251696  0.50000000  1
  O  O32  1  0.26126363  0.00000000  -0.00000000  1
  O  O33  1  0.25257992  0.50000000  -0.00000000  1
  O  O34  1  0.25425093  0.50000000  0.50000000  1
  O  O35  1  0.74066210  0.00000000  -0.00000000  1
  O  O36  1  0.74400924  0.00000000  0.50000000  1
  O  O37  1  0.74773978  0.50000000  -0.00000000  1
  O  O38  1  0.74644605  0.50000000  0.50000000  1
  O  O39  1  0.25005180  0.24497335  0.25578916  1
  O  O40  1  0.25005180  0.24497335  0.74421084  1
  O  O41  1  0.25005180  0.75502665  0.25578916  1
  O  O42  1  0.25005180  0.75502665  0.74421084  1
  O  O43  1  0.74912990  0.24892789  0.25134966  1
  O  O44  1  0.74912990  0.24892789  0.74865034  1
  O  O45  1  0.74912990  0.75107211  0.25134966  1
  O  O46  1  0.74912990  0.75107211  0.74865034  1
  O  O47  1  0.00572082  0.00000000  0.24280681  1
  O  O48  1  0.00572082  0.00000000  0.75719319  1
  O  O49  1  0.00138668  0.50000000  0.25008787  1
  O  O50  1  0.00138668  0.50000000  0.74991213  1
  O  O51  1  0.49035435  0.00000000  0.25771791  1
  O  O52  1  0.49035435  0.00000000  0.74228209  1
  O  O53  1  0.49828042  0.50000000  0.25149061  1
  O  O54  1  0.49828042  0.50000000  0.74850939  1
  O  O55  1  0.00169982  0.25852805  -0.00000000  1
  O  O56  1  0.00484743  0.26145159  0.50000000  1
  O  O57  1  0.00169982  0.74147195  -0.00000000  1
  O  O58  1  0.00484743  0.73854841  0.50000000  1
  O  O59  1  0.49810628  0.25045685  -0.00000000  1
  O  O60  1  0.49192883  0.24487502  0.50000000  1
  O  O61  1  0.49810628  0.74954315  -0.00000000  1
  O  O62  1  0.49192883  0.75512498  0.50000000  1
