# generated using pymatgen
data_NaBeO2
_symmetry_space_group_name_H-M   'P 1'
_cell_length_a   7.98108466
_cell_length_b   7.98108466
_cell_length_c   5.29988356
_cell_angle_alpha   66.13059203
_cell_angle_beta   113.86940797
_cell_angle_gamma   57.89414363
_symmetry_Int_Tables_number   1
_chemical_formula_structural   NaBeO2
_chemical_formula_sum   'Na4 Be4 O8'
_cell_volume   156.89038913
_cell_formula_units_Z   4
loop_
 _symmetry_equiv_pos_site_id
 _symmetry_equiv_pos_as_xyz
  1  'x, y, z'
loop_
 _atom_site_type_symbol
 _atom_site_label
 _atom_site_symmetry_multiplicity
 _atom_site_fract_x
 _atom_site_fract_y
 _atom_site_fract_z
 _atom_site_occupancy
  Na  Na0  1  0.18081214  0.18081214  0.75000000  1
  Na  Na1  1  0.44126907  0.44126907  0.75000000  1
  Na  Na2  1  0.55873093  0.55873093  0.25000000  1
  Na  Na3  1  0.81918786  0.81918786  0.25000000  1
  Be  Be4  1  0.73578054  0.73578054  0.75000000  1
  Be  Be5  1  0.89537594  0.89537594  0.75000000  1
  Be  Be6  1  0.10462406  0.10462406  0.25000000  1
  Be  Be7  1  0.26421946  0.26421946  0.25000000  1
  O  O8  1  0.07580263  0.84204364  0.65442906  1
  O  O9  1  0.46133234  0.90653985  0.68913458  1
  O  O10  1  0.15795636  0.92419737  0.15442906  1
  O  O11  1  0.09346015  0.53866766  0.18913458  1
  O  O12  1  0.90653985  0.46133234  0.81086542  1
  O  O13  1  0.84204364  0.07580263  0.84557094  1
  O  O14  1  0.53866766  0.09346015  0.31086542  1
  O  O15  1  0.92419737  0.15795636  0.34557094  1
