# generated using pymatgen
data_Ca(MoO2)2
_symmetry_space_group_name_H-M   'P 1'
_cell_length_a   6.53818578
_cell_length_b   6.63444294
_cell_length_c   19.73527099
_cell_angle_alpha   59.01375457
_cell_angle_beta   60.71829405
_cell_angle_gamma   60.08510494
_symmetry_Int_Tables_number   1
_chemical_formula_structural   Ca(MoO2)2
_chemical_formula_sum   'Ca6 Mo12 O24'
_cell_volume   604.21711858
_cell_formula_units_Z   6
loop_
 _symmetry_equiv_pos_site_id
 _symmetry_equiv_pos_as_xyz
  1  'x, y, z'
loop_
 _atom_site_type_symbol
 _atom_site_label
 _atom_site_symmetry_multiplicity
 _atom_site_fract_x
 _atom_site_fract_y
 _atom_site_fract_z
 _atom_site_occupancy
  Ca  Ca0  1  0.11881046  0.12424914  0.04467602  1
  Ca  Ca1  1  0.12625940  0.12333739  0.37565889  1
  Ca  Ca2  1  0.49373143  0.50004782  0.00221913  1
  Ca  Ca3  1  0.12605311  0.12175757  0.70967765  1
  Ca  Ca4  1  0.87739771  0.87671929  0.28911293  1
  Ca  Ca5  1  0.87785519  0.87609718  0.62435829  1
  Mo  Mo6  1  0.99718058  0.50228323  0.16683763  1
  Mo  Mo7  1  0.49547995  0.50114478  0.16685111  1
  Mo  Mo8  1  0.00200927  0.49995654  0.49997885  1
  Mo  Mo9  1  0.49345247  0.00606098  0.16750826  1
  Mo  Mo10  1  0.50121201  0.49914768  0.33303999  1
  Mo  Mo11  1  0.50255300  0.49992560  0.49981340  1
  Mo  Mo12  1  0.00662923  0.49509425  0.83243957  1
  Mo  Mo13  1  0.50220182  -0.00020201  0.50003413  1
  Mo  Mo14  1  0.50148932  0.00032409  0.83233368  1
  Mo  Mo15  1  0.50308309  0.50003430  0.66571986  1
  Mo  Mo16  1  0.50175492  0.49550500  0.83245227  1
  Mo  Mo17  1  0.87686936  0.87142691  0.95706487  1
  O  O18  1  0.24036625  0.26370790  0.09472452  1
  O  O19  1  0.26567366  0.26368390  0.23539991  1
  O  O20  1  0.24881453  0.71352647  0.09220979  1
  O  O21  1  0.70730538  0.25621903  0.09679829  1
  O  O22  1  0.29643501  0.73268787  0.24371590  1
  O  O23  1  0.25836775  0.26953411  0.42304462  1
  O  O24  1  0.73140088  0.29779439  0.24717797  1
  O  O25  1  0.72344964  0.76743807  0.09033437  1
  O  O26  1  0.26736705  0.70273117  0.42003680  1
  O  O27  1  0.27322808  0.25744239  0.56905539  1
  O  O28  1  0.73690436  0.72848607  0.24539890  1
  O  O29  1  0.70641053  0.26399298  0.42471090  1
  O  O30  1  0.29696876  0.73451804  0.57633225  1
  O  O31  1  0.26266373  0.26946205  0.75495418  1
  O  O32  1  0.73633760  0.29556079  0.58092318  1
  O  O33  1  0.73054089  0.74211135  0.43154900  1
  O  O34  1  0.27452942  0.25514402  0.90086484  1
  O  O35  1  0.26721379  0.70030317  0.75307007  1
  O  O36  1  0.74360949  0.72786637  0.57872594  1
  O  O37  1  0.70576731  0.26133152  0.75744232  1
  O  O38  1  0.27005671  0.75401274  0.90024170  1
  O  O39  1  0.72919901  0.73663280  0.76661703  1
  O  O40  1  0.75047000  0.26884111  0.91254296  1
  O  O41  1  0.77289585  0.74406197  0.90435264  1
