# generated using pymatgen
data_MgTiNiP2O9
_symmetry_space_group_name_H-M   'P 1'
_cell_length_a   6.30816553
_cell_length_b   7.33307843
_cell_length_c   14.22579313
_cell_angle_alpha   90.00000000
_cell_angle_beta   90.00000000
_cell_angle_gamma   90.00000000
_symmetry_Int_Tables_number   1
_chemical_formula_structural   MgTiNiP2O9
_chemical_formula_sum   'Mg4 Ti4 Ni4 P8 O36'
_cell_volume   658.06061629
_cell_formula_units_Z   4
loop_
 _symmetry_equiv_pos_site_id
 _symmetry_equiv_pos_as_xyz
  1  'x, y, z'
loop_
 _atom_site_type_symbol
 _atom_site_label
 _atom_site_symmetry_multiplicity
 _atom_site_fract_x
 _atom_site_fract_y
 _atom_site_fract_z
 _atom_site_occupancy
  Mg  Mg0  1  0.75000000  0.88882929  0.77794649  1
  Mg  Mg1  1  0.75000000  0.61117071  0.27794649  1
  Mg  Mg2  1  0.25000000  0.11117071  0.22205351  1
  Mg  Mg3  1  0.25000000  0.38882929  0.72205351  1
  Ti  Ti4  1  0.75000000  0.34728681  0.88374709  1
  Ti  Ti5  1  0.25000000  0.65271319  0.11625291  1
  Ti  Ti6  1  0.25000000  0.84728681  0.61625291  1
  Ti  Ti7  1  0.75000000  0.15271319  0.38374709  1
  Ni  Ni8  1  0.50000000  -0.00000000  0.00000000  1
  Ni  Ni9  1  0.50000000  0.50000000  0.50000000  1
  Ni  Ni10  1  -0.00000000  0.50000000  0.50000000  1
  Ni  Ni11  1  -0.00000000  -0.00000000  0.00000000  1
  P  P12  1  0.25000000  0.35538964  0.93024981  1
  P  P13  1  0.75000000  0.64461036  0.06975119  1
  P  P14  1  0.75000000  0.85538964  0.56975019  1
  P  P15  1  0.25000000  0.14461036  0.43024981  1
  P  P16  1  0.75000000  0.39073151  0.69572336  1
  P  P17  1  0.25000000  0.60926849  0.30427664  1
  P  P18  1  0.25000000  0.89073151  0.80427664  1
  P  P19  1  0.75000000  0.10926849  0.19572336  1
  O  O20  1  0.03851922  0.60944766  0.36068886  1
  O  O21  1  0.53851922  0.39055234  0.63931114  1
  O  O22  1  0.96148078  0.10944766  0.13931114  1
  O  O23  1  0.46148078  0.89055234  0.86068886  1
  O  O24  1  0.96148078  0.39055234  0.63931114  1
  O  O25  1  0.46148078  0.60944766  0.36068886  1
  O  O26  1  0.03851922  0.89055234  0.86068886  1
  O  O27  1  0.53851922  0.10944766  0.13931114  1
  O  O28  1  0.25000000  0.33250602  0.47648543  1
  O  O29  1  0.75000000  0.66749398  0.52351457  1
  O  O30  1  0.75000000  0.83250602  0.02351457  1
  O  O31  1  0.25000000  0.16749398  0.97648543  1
  O  O32  1  0.75000000  0.14285027  0.94616864  1
  O  O33  1  0.25000000  0.85714973  0.05383136  1
  O  O34  1  0.25000000  0.64285027  0.55383136  1
  O  O35  1  0.75000000  0.35714973  0.44616864  1
  O  O36  1  0.75000000  0.21264365  0.75932998  1
  O  O37  1  0.25000000  0.78735635  0.24067002  1
  O  O38  1  0.25000000  0.71264365  0.74067002  1
  O  O39  1  0.75000000  0.28735635  0.25932998  1
  O  O40  1  0.43846631  0.12206176  0.36095375  1
  O  O41  1  0.93846631  0.87793824  0.63904625  1
  O  O42  1  0.56153369  0.62206176  0.13904625  1
  O  O43  1  0.06153369  0.37793824  0.86095375  1
  O  O44  1  0.56153369  0.87793824  0.63904625  1
  O  O45  1  0.06153369  0.12206176  0.36095375  1
  O  O46  1  0.43846631  0.37793824  0.86095375  1
  O  O47  1  0.93846631  0.62206176  0.13904625  1
  O  O48  1  0.75000000  0.94995150  0.26869608  1
  O  O49  1  0.25000000  0.05004850  0.73130392  1
  O  O50  1  0.25000000  0.44995150  0.23130392  1
  O  O51  1  0.75000000  0.55004850  0.76869608  1
  O  O52  1  0.75000000  -0.00013970  0.49280384  1
  O  O53  1  0.25000000  0.00013970  0.50719616  1
  O  O54  1  0.25000000  0.49986030  0.00719616  1
  O  O55  1  0.75000000  0.50013970  0.99280384  1
