# generated using pymatgen
data_Zn(NiO2)2
_symmetry_space_group_name_H-M   'P 1'
_cell_length_a   5.89352257
_cell_length_b   5.89361107
_cell_length_c   17.73626773
_cell_angle_alpha   60.12479267
_cell_angle_beta   60.13005863
_cell_angle_gamma   59.98287159
_symmetry_Int_Tables_number   1
_chemical_formula_structural   Zn(NiO2)2
_chemical_formula_sum   'Zn6 Ni12 O24'
_cell_volume   436.39622218
_cell_formula_units_Z   6
loop_
 _symmetry_equiv_pos_site_id
 _symmetry_equiv_pos_as_xyz
  1  'x, y, z'
loop_
 _atom_site_type_symbol
 _atom_site_label
 _atom_site_symmetry_multiplicity
 _atom_site_fract_x
 _atom_site_fract_y
 _atom_site_fract_z
 _atom_site_occupancy
  Zn  Zn0  1  0.12027070  0.12045609  0.04639741  1
  Zn  Zn1  1  0.12011790  0.12025626  0.37998517  1
  Zn  Zn2  1  0.50002335  0.50002690  0.33342004  1
  Zn  Zn3  1  0.12171875  0.12196166  0.71141712  1
  Zn  Zn4  1  0.50132367  0.50130633  0.99866701  1
  Zn  Zn5  1  0.87635547  0.87619878  0.62364787  1
  Ni  Ni6  1  0.49995026  0.49993438  0.16610326  1
  Ni  Ni7  1  0.49987678  0.00187016  0.16610967  1
  Ni  Ni8  1  0.49865452  0.49866106  0.50145235  1
  Ni  Ni9  1  0.00185402  0.49987528  0.16610115  1
  Ni  Ni10  1  0.49862625  0.99858424  0.50140888  1
  Ni  Ni11  1  0.50024183  0.50027899  0.66632331  1
  Ni  Ni12  1  0.88028253  0.88014054  0.28642540  1
  Ni  Ni13  1  0.49967418  0.49971390  0.83265987  1
  Ni  Ni14  1  0.99859487  0.49861126  0.50139848  1
  Ni  Ni15  1  0.49999077  0.00219708  0.83272443  1
  Ni  Ni16  1  0.00227520  0.49997544  0.83272365  1
  Ni  Ni17  1  0.87782726  0.87764207  0.95563636  1
  O  O18  1  0.25445197  0.25444616  0.09355419  1
  O  O19  1  0.25458122  0.25478778  0.24560494  1
  O  O20  1  0.25414598  0.71038520  0.09383081  1
  O  O21  1  0.71026335  0.25416124  0.09385902  1
  O  O22  1  0.25161356  0.25170624  0.42850037  1
  O  O23  1  0.28795917  0.74884772  0.23801999  1
  O  O24  1  0.25721464  0.25728914  0.57557088  1
  O  O25  1  0.74885764  0.28786935  0.23804677  1
  O  O26  1  0.74908509  0.74881485  0.08395684  1
  O  O27  1  0.25163870  0.71103870  0.42882291  1
  O  O28  1  0.71097029  0.25175981  0.42881779  1
  O  O29  1  0.74871345  0.74870232  0.23827029  1
  O  O30  1  0.26347777  0.26367455  0.75305478  1
  O  O31  1  0.29045495  0.73917893  0.57687471  1
  O  O32  1  0.73930969  0.29034907  0.57686813  1
  O  O33  1  0.25832884  0.25850903  0.90817124  1
  O  O34  1  0.74341497  0.74337638  0.42383793  1
  O  O35  1  0.26313084  0.71376184  0.75345215  1
  O  O36  1  0.71354894  0.26331990  0.75345192  1
  O  O37  1  0.73884990  0.73878025  0.57743348  1
  O  O38  1  0.27185574  0.75043636  0.90884536  1
  O  O39  1  0.75061885  0.27167449  0.90884507  1
  O  O40  1  0.73939823  0.73917826  0.76062825  1
  O  O41  1  0.75045890  0.75026001  0.90907775  1
