# generated using pymatgen
data_BaCaTiF7
_symmetry_space_group_name_H-M   'P 1'
_cell_length_a   5.91487212
_cell_length_b   10.09196116
_cell_length_c   10.40383477
_cell_angle_alpha   90.00000000
_cell_angle_beta   90.00000000
_cell_angle_gamma   92.74145745
_symmetry_Int_Tables_number   1
_chemical_formula_structural   BaCaTiF7
_chemical_formula_sum   'Ba4 Ca4 Ti4 F28'
_cell_volume   620.32181484
_cell_formula_units_Z   4
loop_
 _symmetry_equiv_pos_site_id
 _symmetry_equiv_pos_as_xyz
  1  'x, y, z'
loop_
 _atom_site_type_symbol
 _atom_site_label
 _atom_site_symmetry_multiplicity
 _atom_site_fract_x
 _atom_site_fract_y
 _atom_site_fract_z
 _atom_site_occupancy
  Ba  Ba0  1  0.27116318  0.50301810  0.32528372  1
  Ba  Ba1  1  0.72883682  0.99698190  0.82528372  1
  Ba  Ba2  1  0.72883682  0.49698190  0.67471628  1
  Ba  Ba3  1  0.27116318  0.00301810  0.17471628  1
  Ca  Ca4  1  0.69978170  0.81800358  0.40577514  1
  Ca  Ca5  1  0.30021830  0.68199642  0.90577514  1
  Ca  Ca6  1  0.69978170  0.31800358  0.09422486  1
  Ca  Ca7  1  0.30021830  0.18199642  0.59422486  1
  Ti  Ti8  1  0.19004227  0.80839208  0.61729521  1
  Ti  Ti9  1  0.80995773  0.19160792  0.38270479  1
  Ti  Ti10  1  0.19004227  0.30839208  0.88270479  1
  Ti  Ti11  1  0.80995773  0.69160792  0.11729521  1
  F  F12  1  0.10457320  0.10904873  0.42438857  1
  F  F13  1  0.34519410  0.37129012  0.04651997  1
  F  F14  1  0.47625592  0.74378073  0.70542890  1
  F  F15  1  0.52374408  0.25621927  0.29457110  1
  F  F16  1  0.90447181  0.35854476  0.45975088  1
  F  F17  1  0.27395551  0.47951720  0.80006025  1
  F  F18  1  0.01177441  0.74605326  0.77636695  1
  F  F19  1  0.09552819  0.14145524  0.95975088  1
  F  F20  1  0.34519410  0.87129012  0.45348003  1
  F  F21  1  0.52374408  0.75621927  0.20542890  1
  F  F22  1  0.10457320  0.60904873  0.07561143  1
  F  F23  1  0.89542680  0.89095127  0.57561143  1
  F  F24  1  0.98822559  0.75394674  0.27636695  1
  F  F25  1  0.39572876  0.88483857  0.96098282  1
  F  F26  1  0.09552819  0.64145524  0.54024912  1
  F  F27  1  0.90447181  0.85854476  0.04024912  1
  F  F28  1  0.98822559  0.25394674  0.22363305  1
  F  F29  1  0.89542680  0.39095127  0.92438857  1
  F  F30  1  0.60427124  0.61516143  0.46098282  1
  F  F31  1  0.65480590  0.62870988  0.95348003  1
  F  F32  1  0.60427124  0.11516143  0.03901718  1
  F  F33  1  0.01177441  0.24605326  0.72363305  1
  F  F34  1  0.39572876  0.38483857  0.53901718  1
  F  F35  1  0.72604449  0.02048280  0.30006025  1
  F  F36  1  0.72604449  0.52048280  0.19993975  1
  F  F37  1  0.27395551  0.97951720  0.69993975  1
  F  F38  1  0.65480590  0.12870988  0.54651997  1
  F  F39  1  0.47625592  0.24378073  0.79457110  1
