# generated using pymatgen
data_ZnCo(SiO3)2
_symmetry_space_group_name_H-M   'P 1'
_cell_length_a   5.29132129
_cell_length_b   9.16876699
_cell_length_c   18.50899127
_cell_angle_alpha   90.00000000
_cell_angle_beta   90.00000000
_cell_angle_gamma   90.00000000
_symmetry_Int_Tables_number   1
_chemical_formula_structural   ZnCo(SiO3)2
_chemical_formula_sum   'Zn8 Co8 Si16 O48'
_cell_volume   897.96171207
_cell_formula_units_Z   8
loop_
 _symmetry_equiv_pos_site_id
 _symmetry_equiv_pos_as_xyz
  1  'x, y, z'
loop_
 _atom_site_type_symbol
 _atom_site_label
 _atom_site_symmetry_multiplicity
 _atom_site_fract_x
 _atom_site_fract_y
 _atom_site_fract_z
 _atom_site_occupancy
  Zn  Zn0  1  0.61733037  0.14951538  0.62441063  1
  Zn  Zn1  1  0.38266963  0.85048462  0.37558937  1
  Zn  Zn2  1  0.61733037  0.64951538  0.87558937  1
  Zn  Zn3  1  0.11733037  0.85048462  0.87558937  1
  Zn  Zn4  1  0.88266963  0.14951538  0.12441063  1
  Zn  Zn5  1  0.38266963  0.35048462  0.12441063  1
  Zn  Zn6  1  0.11733037  0.35048462  0.62441063  1
  Zn  Zn7  1  0.88266963  0.64951538  0.37558937  1
  Co  Co8  1  0.37603657  0.99261941  0.12363688  1
  Co  Co9  1  0.62396243  0.00738059  0.87636312  1
  Co  Co10  1  0.87603757  0.00738059  0.37636312  1
  Co  Co11  1  0.12396243  0.99261941  0.62363688  1
  Co  Co12  1  0.37603657  0.49261941  0.37636312  1
  Co  Co13  1  0.62396243  0.50738059  0.62363688  1
  Co  Co14  1  0.87603757  0.50738059  0.12363688  1
  Co  Co15  1  0.12396243  0.49261941  0.87636312  1
  Si  Si16  1  0.56620643  0.66064311  0.22777599  1
  Si  Si17  1  0.71491435  0.83558513  0.52583390  1
  Si  Si18  1  0.78508565  0.83558513  0.02583390  1
  Si  Si19  1  0.93379357  0.16064311  0.77222401  1
  Si  Si20  1  0.06620643  0.33935689  0.27222401  1
  Si  Si21  1  0.43379357  0.83935689  0.72777599  1
  Si  Si22  1  0.21491435  0.66441487  0.52583390  1
  Si  Si23  1  0.71491435  0.33558513  0.97416610  1
  Si  Si24  1  0.78508565  0.33558513  0.47416610  1
  Si  Si25  1  0.93379357  0.66064311  0.72777599  1
  Si  Si26  1  0.43379357  0.33935689  0.77222401  1
  Si  Si27  1  0.56620643  0.16064311  0.27222401  1
  Si  Si28  1  0.28508565  0.16441487  0.47416610  1
  Si  Si29  1  0.06620643  0.83935689  0.22777599  1
  Si  Si30  1  0.28508565  0.66441487  0.02583390  1
  Si  Si31  1  0.21491435  0.16441487  0.97416610  1
  O  O32  1  0.92654828  0.50251363  0.68877547  1
  O  O33  1  0.30540432  0.01792954  0.93263404  1
  O  O34  1  0.07345172  0.49748637  0.31122453  1
  O  O35  1  0.71399267  0.34099269  0.06299800  1
  O  O36  1  0.21399267  0.15900731  0.06299800  1
  O  O37  1  0.91952521  0.20550167  0.94924943  1
  O  O38  1  0.94532785  0.66011126  0.81618475  1
  O  O39  1  0.05467215  0.83988874  0.31618475  1
  O  O40  1  0.71399267  0.84099269  0.43700200  1
  O  O41  1  0.94532785  0.16011126  0.68381525  1
  O  O42  1  0.42654828  0.49748637  0.81122453  1
  O  O43  1  0.78600733  0.34099269  0.56299800  1
  O  O44  1  0.69459568  0.98207046  0.06736596  1
  O  O45  1  0.44532785  0.83988874  0.81618475  1
  O  O46  1  0.57345172  0.00251363  0.31122453  1
  O  O47  1  0.30540432  0.51792954  0.56736596  1
  O  O48  1  0.42654828  0.99748637  0.68877547  1
  O  O49  1  0.16457146  0.76635741  0.69794333  1
  O  O50  1  0.33542854  0.76635741  0.19794333  1
  O  O51  1  0.58047479  0.70550167  0.05075057  1
  O  O52  1  0.78600733  0.84099269  0.93700200  1
  O  O53  1  0.55467215  0.66011126  0.31618475  1
  O  O54  1  0.80540432  0.48207046  0.93263404  1
  O  O55  1  0.16457146  0.26635741  0.80205667  1
  O  O56  1  0.28600733  0.15900731  0.56299800  1
  O  O57  1  0.55467215  0.16011126  0.18381525  1
  O  O58  1  0.69459568  0.48207046  0.43263404  1
  O  O59  1  0.21399267  0.65900731  0.43700200  1
  O  O60  1  0.19459568  0.51792954  0.06736596  1
  O  O61  1  0.66457146  0.73364259  0.69794333  1
  O  O62  1  0.07345172  0.99748637  0.18877547  1
  O  O63  1  0.83542854  0.73364259  0.19794333  1
  O  O64  1  0.83542854  0.23364259  0.30205667  1
  O  O65  1  0.80540432  0.98207046  0.56736596  1
  O  O66  1  0.28600733  0.65900731  0.93700200  1
  O  O67  1  0.19459568  0.01792954  0.43263404  1
  O  O68  1  0.33542854  0.26635741  0.30205667  1
  O  O69  1  0.08047479  0.79449833  0.05075057  1
  O  O70  1  0.41952521  0.79449833  0.55075057  1
  O  O71  1  0.66457146  0.23364259  0.80205667  1
  O  O72  1  0.41952521  0.29449833  0.94924943  1
  O  O73  1  0.58047479  0.20550167  0.44924943  1
  O  O74  1  0.08047479  0.29449833  0.44924943  1
  O  O75  1  0.44532785  0.33988874  0.68381525  1
  O  O76  1  0.57345172  0.50251363  0.18877547  1
  O  O77  1  0.91952521  0.70550167  0.55075057  1
  O  O78  1  0.05467215  0.33988874  0.18381525  1
  O  O79  1  0.92654828  0.00251363  0.81122453  1
