# generated using pymatgen
data_Mg3Ni3(AsO4)4
_symmetry_space_group_name_H-M   'P 1'
_cell_length_a   5.14513459
_cell_length_b   8.57013107
_cell_length_c   15.16325390
_cell_angle_alpha   100.81008219
_cell_angle_beta   90.00000000
_cell_angle_gamma   90.00000000
_symmetry_Int_Tables_number   1
_chemical_formula_structural   Mg3Ni3(AsO4)4
_chemical_formula_sum   'Mg6 Ni6 As8 O32'
_cell_volume   656.75068246
_cell_formula_units_Z   2
loop_
 _symmetry_equiv_pos_site_id
 _symmetry_equiv_pos_as_xyz
  1  'x, y, z'
loop_
 _atom_site_type_symbol
 _atom_site_label
 _atom_site_symmetry_multiplicity
 _atom_site_fract_x
 _atom_site_fract_y
 _atom_site_fract_z
 _atom_site_occupancy
  Mg  Mg0  1  0.95383152  0.02148747  0.71126172  1
  Mg  Mg1  1  0.45383152  0.47851253  0.78873828  1
  Mg  Mg2  1  0.04616848  0.97851253  0.28873828  1
  Mg  Mg3  1  0.54616848  0.52148747  0.21126172  1
  Mg  Mg4  1  0.00000000  0.00000000  0.00000000  1
  Mg  Mg5  1  0.50000000  0.50000000  0.50000000  1
  Ni  Ni6  1  0.01090850  0.33018925  0.12442433  1
  Ni  Ni7  1  0.98909150  0.66981075  0.87557567  1
  Ni  Ni8  1  0.51090850  0.16981075  0.37557567  1
  Ni  Ni9  1  0.48909150  0.83018925  0.62442433  1
  Ni  Ni10  1  0.50000000  0.50000000  0.00000000  1
  Ni  Ni11  1  0.00000000  0.00000000  0.50000000  1
  As  As12  1  0.50969670  0.89273893  0.85009488  1
  As  As13  1  0.01194788  0.31528317  0.89802462  1
  As  As14  1  0.51194788  0.18471683  0.60197538  1
  As  As15  1  0.48805212  0.81528317  0.39802462  1
  As  As16  1  0.49030330  0.10726107  0.14990512  1
  As  As17  1  0.98805212  0.68471683  0.10197538  1
  As  As18  1  0.99030330  0.39273893  0.35009488  1
  As  As19  1  0.00969670  0.60726107  0.64990512  1
  O  O20  1  0.08818736  0.55458287  0.75259073  1
  O  O21  1  0.57582331  0.26154192  0.50781965  1
  O  O22  1  0.09065731  0.19684562  0.80120095  1
  O  O23  1  0.11621421  0.80368332  0.65914411  1
  O  O24  1  0.90934269  0.80315438  0.19879905  1
  O  O25  1  0.41181264  0.05458287  0.25259073  1
  O  O26  1  0.59065731  0.30315438  0.69879905  1
  O  O27  1  0.78636194  0.91015017  0.39545910  1
  O  O28  1  0.82403447  0.52162763  0.42683390  1
  O  O29  1  0.91181264  0.44541713  0.24740927  1
  O  O30  1  0.38378579  0.30368332  0.15914411  1
  O  O31  1  0.21363806  0.08984983  0.60454090  1
  O  O32  1  0.22412870  0.48208978  0.90718821  1
  O  O33  1  0.17596553  0.47837237  0.57316610  1
  O  O34  1  0.82176856  0.11593960  0.12858982  1
  O  O35  1  0.32176856  0.38406040  0.37141018  1
  O  O36  1  0.72412870  0.01791022  0.59281179  1
  O  O37  1  0.40934269  0.69684562  0.30120095  1
  O  O38  1  0.32403447  0.97837237  0.07316610  1
  O  O39  1  0.28636194  0.58984983  0.10454090  1
  O  O40  1  0.67823144  0.61593960  0.62858982  1
  O  O41  1  0.17823144  0.88406040  0.87141018  1
  O  O42  1  0.42417669  0.73845808  0.49218035  1
  O  O43  1  0.07582331  0.23845808  0.99218035  1
  O  O44  1  0.77587130  0.51791022  0.09281179  1
  O  O45  1  0.58818736  0.94541713  0.74740927  1
  O  O46  1  0.88378579  0.19631668  0.34085589  1
  O  O47  1  0.67596553  0.02162763  0.92683390  1
  O  O48  1  0.92417669  0.76154192  0.00781965  1
  O  O49  1  0.71363806  0.41015017  0.89545910  1
  O  O50  1  0.27587130  0.98208978  0.40718821  1
  O  O51  1  0.61621421  0.69631668  0.84085589  1
