# generated using pymatgen
data_Fe2(MoO4)3
_symmetry_space_group_name_H-M   'P 1'
_cell_length_a   6.93380689
_cell_length_b   8.66317726
_cell_length_c   10.37720707
_cell_angle_alpha   108.49529134
_cell_angle_beta   103.48001795
_cell_angle_gamma   103.76135924
_symmetry_Int_Tables_number   1
_chemical_formula_structural   Fe2(MoO4)3
_chemical_formula_sum   'Fe4 Mo6 O24'
_cell_volume   541.00627949
_cell_formula_units_Z   2
loop_
 _symmetry_equiv_pos_site_id
 _symmetry_equiv_pos_as_xyz
  1  'x, y, z'
loop_
 _atom_site_type_symbol
 _atom_site_label
 _atom_site_symmetry_multiplicity
 _atom_site_fract_x
 _atom_site_fract_y
 _atom_site_fract_z
 _atom_site_occupancy
  Fe  Fe0  1  0.37597439  0.95769102  0.60900449  1
  Fe  Fe1  1  0.62402561  0.04230898  0.39099551  1
  Fe  Fe2  1  0.04567960  0.20276913  0.01291612  1
  Fe  Fe3  1  0.95432040  0.79723087  0.98708388  1
  Mo  Mo4  1  0.87941106  0.89700934  0.66254717  1
  Mo  Mo5  1  0.12058894  0.10299066  0.33745283  1
  Mo  Mo6  1  0.21182247  0.66699743  0.25962477  1
  Mo  Mo7  1  0.78817753  0.33300257  0.74037423  1
  Mo  Mo8  1  0.59514120  0.25644482  0.13221321  1
  Mo  Mo9  1  0.40485880  0.74355518  0.86778679  1
  O  O10  1  0.07187065  0.05849646  0.14291624  1
  O  O11  1  0.92812935  0.94150354  0.85708376  1
  O  O12  1  0.56932134  0.13490501  0.24694494  1
  O  O13  1  0.43067866  0.86509499  0.75305506  1
  O  O14  1  0.16094221  0.43990326  0.16888500  1
  O  O15  1  0.83905779  0.56009674  0.83111500  1
  O  O16  1  0.97647552  0.26285590  0.84031277  1
  O  O17  1  0.02352448  0.73714410  0.15968723  1
  O  O18  1  0.23828489  0.80889294  0.97091713  1
  O  O19  1  0.76171511  0.19110706  0.02908287  1
  O  O20  1  0.88235300  0.00372853  0.36348024  1
  O  O21  1  0.11764700  0.99627147  0.63651976  1
  O  O22  1  0.53434331  0.21442852  0.73417018  1
  O  O23  1  0.46565669  0.78557148  0.26582982  1
  O  O24  1  0.33414560  0.21830163  0.01428507  1
  O  O25  1  0.66585440  0.78169837  0.98571493  1
  O  O26  1  0.34195301  0.04302456  0.42903991  1
  O  O27  1  0.65804699  0.95697544  0.57096009  1
  O  O28  1  0.22131053  0.72496577  0.44412273  1
  O  O29  1  0.77868947  0.27503423  0.55587727  1
  O  O30  1  0.71432451  0.47385511  0.24072080  1
  O  O31  1  0.28567549  0.52614489  0.75927920  1
  O  O32  1  0.17925898  0.32112163  0.41896523  1
  O  O33  1  0.82074102  0.67887837  0.58103477  1
