# generated using pymatgen
data_CaCu3(NiO3)4
_symmetry_space_group_name_H-M   'P 1'
_cell_length_a   6.29812709
_cell_length_b   6.29805763
_cell_length_c   6.29764850
_cell_angle_alpha   109.49119512
_cell_angle_beta   109.45851524
_cell_angle_gamma   109.46747939
_symmetry_Int_Tables_number   1
_chemical_formula_structural   CaCu3(NiO3)4
_chemical_formula_sum   'Ca1 Cu3 Ni4 O12'
_cell_volume   192.28953025
_cell_formula_units_Z   1
loop_
 _symmetry_equiv_pos_site_id
 _symmetry_equiv_pos_as_xyz
  1  'x, y, z'
loop_
 _atom_site_type_symbol
 _atom_site_label
 _atom_site_symmetry_multiplicity
 _atom_site_fract_x
 _atom_site_fract_y
 _atom_site_fract_z
 _atom_site_occupancy
  Ca  Ca0  1  0.00005107  0.00005967  0.00010278  1
  Cu  Cu1  1  0.49998038  0.49999744  0.99998987  1
  Cu  Cu2  1  0.00001855  0.49998030  0.49997022  1
  Cu  Cu3  1  0.49995883  0.99998935  0.49995346  1
  Ni  Ni4  1  0.99994852  0.99991619  0.49997832  1
  Ni  Ni5  1  0.99995418  0.50002338  0.99999648  1
  Ni  Ni6  1  0.50009219  0.50002650  0.50001324  1
  Ni  Ni7  1  0.49999944  0.00002217  0.00002550  1
  O  O8  1  0.82890918  0.31063109  0.13945763  1
  O  O9  1  0.17107327  0.68936523  0.86052147  1
  O  O10  1  0.82889308  0.68940244  0.51833740  1
  O  O11  1  0.31069998  0.48183604  0.17128699  1
  O  O12  1  0.48180558  0.17121641  0.31061957  1
  O  O13  1  0.13937763  0.82883534  0.31059262  1
  O  O14  1  0.68944534  0.86060091  0.17120885  1
  O  O15  1  0.51823466  0.82883851  0.68935702  1
  O  O16  1  0.17116899  0.31057509  0.48169730  1
  O  O17  1  0.68930300  0.51819334  0.82873098  1
  O  O18  1  0.86052924  0.17109627  0.68937732  1
  O  O19  1  0.31055489  0.13939433  0.82878396  1
