# generated using pymatgen
data_AlCr(WO4)2
_symmetry_space_group_name_H-M   'P 1'
_cell_length_a   5.11817116
_cell_length_b   5.53498431
_cell_length_c   9.16769510
_cell_angle_alpha   90.14727203
_cell_angle_beta   90.36739273
_cell_angle_gamma   90.77588778
_symmetry_Int_Tables_number   1
_chemical_formula_structural   AlCr(WO4)2
_chemical_formula_sum   'Al2 Cr2 W4 O16'
_cell_volume   259.68153920
_cell_formula_units_Z   2
loop_
 _symmetry_equiv_pos_site_id
 _symmetry_equiv_pos_as_xyz
  1  'x, y, z'
loop_
 _atom_site_type_symbol
 _atom_site_label
 _atom_site_symmetry_multiplicity
 _atom_site_fract_x
 _atom_site_fract_y
 _atom_site_fract_z
 _atom_site_occupancy
  Al  Al0  1  0.24753475  0.64894887  0.24929139  1
  Al  Al1  1  0.75246425  0.35105013  0.75070861  1
  Cr  Cr2  1  0.75066436  0.35900544  0.25068800  1
  Cr  Cr3  1  0.24933564  0.64099356  0.74931200  1
  W  W4  1  0.25200135  0.16512190  0.50002425  1
  W  W5  1  0.25309721  0.16500644  0.99857093  1
  W  W6  1  0.74799865  0.83487810  0.49997575  1
  W  W7  1  0.74690279  0.83499356  0.00142907  1
  O  O8  1  0.40723242  0.38289474  0.13671408  1
  O  O9  1  0.09087836  0.38638353  0.36116782  1
  O  O10  1  0.59276758  0.61710426  0.86328592  1
  O  O11  1  0.90912064  0.61361547  0.63883218  1
  O  O12  1  0.41881356  0.88071595  0.61455672  1
  O  O13  1  0.08940221  0.88422743  0.88681522  1
  O  O14  1  0.58118644  0.11928405  0.38544328  1
  O  O15  1  0.91059779  0.11577257  0.11318478  1
  O  O16  1  0.93212800  0.62054031  0.13899484  1
  O  O17  1  0.57140382  0.62708998  0.36045800  1
  O  O18  1  0.06787200  0.37946069  0.86100516  1
  O  O19  1  0.42859618  0.37291102  0.63954200  1
  O  O20  1  0.41503717  0.87453806  0.11782521  1
  O  O21  1  0.58496283  0.12546294  0.88217479  1
  O  O22  1  0.09177618  0.87636686  0.38466239  1
  O  O23  1  0.90822382  0.12363414  0.61533761  1
