# generated using pymatgen
data_Zn3Ni3(AsO4)4
_symmetry_space_group_name_H-M   'P 1'
_cell_length_a   5.18426082
_cell_length_b   8.56137503
_cell_length_c   15.15495594
_cell_angle_alpha   101.70700234
_cell_angle_beta   90.00000000
_cell_angle_gamma   90.00000000
_symmetry_Int_Tables_number   1
_chemical_formula_structural   Zn3Ni3(AsO4)4
_chemical_formula_sum   'Zn6 Ni6 As8 O32'
_cell_volume   658.65132360
_cell_formula_units_Z   2
loop_
 _symmetry_equiv_pos_site_id
 _symmetry_equiv_pos_as_xyz
  1  'x, y, z'
loop_
 _atom_site_type_symbol
 _atom_site_label
 _atom_site_symmetry_multiplicity
 _atom_site_fract_x
 _atom_site_fract_y
 _atom_site_fract_z
 _atom_site_occupancy
  Zn  Zn0  1  0.94563815  0.01449939  0.71904980  1
  Zn  Zn1  1  0.44563815  0.48550061  0.78095020  1
  Zn  Zn2  1  0.05436185  0.98550061  0.28095020  1
  Zn  Zn3  1  0.55436185  0.51449939  0.21904980  1
  Zn  Zn4  1  -0.00000000  -0.00000000  0.00000000  1
  Zn  Zn5  1  0.50000000  0.50000000  0.50000000  1
  Ni  Ni6  1  0.01277338  0.33511943  0.12300608  1
  Ni  Ni7  1  0.98722662  0.66488057  0.87699392  1
  Ni  Ni8  1  0.51277338  0.16488057  0.37699392  1
  Ni  Ni9  1  0.48722662  0.83511943  0.62300608  1
  Ni  Ni10  1  0.50000000  0.50000000  0.00000000  1
  Ni  Ni11  1  -0.00000000  -0.00000000  0.50000000  1
  As  As12  1  0.50774843  0.89020934  0.85138457  1
  As  As13  1  0.01536291  0.31456907  0.89680598  1
  As  As14  1  0.51536291  0.18543093  0.60319402  1
  As  As15  1  0.48463709  0.81456907  0.39680598  1
  As  As16  1  0.49225157  0.10979066  0.14861543  1
  As  As17  1  0.98463709  0.68543093  0.10319402  1
  As  As18  1  0.99225157  0.39020934  0.35138457  1
  As  As19  1  0.00774843  0.60979066  0.64861543  1
  O  O20  1  0.08308384  0.55691801  0.75110261  1
  O  O21  1  0.58339042  0.25917029  0.50864385  1
  O  O22  1  0.10036838  0.19265871  0.79934283  1
  O  O23  1  0.11798696  0.80563154  0.65800903  1
  O  O24  1  0.89963162  0.80734129  0.20065717  1
  O  O25  1  0.41691616  0.05691801  0.25110261  1
  O  O26  1  0.60036838  0.30734129  0.70065717  1
  O  O27  1  0.77726503  0.90965692  0.39684009  1
  O  O28  1  0.82370902  0.52251678  0.42753677  1
  O  O29  1  0.91691616  0.44308199  0.24889739  1
  O  O30  1  0.38201304  0.30563154  0.15800903  1
  O  O31  1  0.22273497  0.09034308  0.60315991  1
  O  O32  1  0.22885316  0.48127622  0.90456548  1
  O  O33  1  0.17629098  0.47748322  0.57246323  1
  O  O34  1  0.81989154  0.12069472  0.12931080  1
  O  O35  1  0.31989154  0.37930528  0.37068920  1
  O  O36  1  0.72885316  0.01872378  0.59543452  1
  O  O37  1  0.39963162  0.69265871  0.29934283  1
  O  O38  1  0.32370902  0.97748322  0.07246323  1
  O  O39  1  0.27726503  0.59034308  0.10315991  1
  O  O40  1  0.68010846  0.62069472  0.62931080  1
  O  O41  1  0.18010846  0.87930528  0.87068920  1
  O  O42  1  0.41660958  0.74082971  0.49135615  1
  O  O43  1  0.08339042  0.24082971  0.99135615  1
  O  O44  1  0.77114684  0.51872378  0.09543452  1
  O  O45  1  0.58308384  0.94308199  0.74889739  1
  O  O46  1  0.88201304  0.19436846  0.34199097  1
  O  O47  1  0.67629098  0.02251678  0.92753677  1
  O  O48  1  0.91660958  0.75917029  0.00864385  1
  O  O49  1  0.72273497  0.40965692  0.89684009  1
  O  O50  1  0.27114684  0.98127622  0.40456548  1
  O  O51  1  0.61798696  0.69436846  0.84199097  1
