# generated using pymatgen
data_Sr2YGaCo2O7
_symmetry_space_group_name_H-M   'P 1'
_cell_length_a   5.52656995
_cell_length_b   5.68122723
_cell_length_c   11.99329953
_cell_angle_alpha   103.58429453
_cell_angle_beta   103.37237887
_cell_angle_gamma   90.10024875
_symmetry_Int_Tables_number   1
_chemical_formula_structural   Sr2YGaCo2O7
_chemical_formula_sum   'Sr4 Y2 Ga2 Co4 O14'
_cell_volume   355.47740082
_cell_formula_units_Z   2
loop_
 _symmetry_equiv_pos_site_id
 _symmetry_equiv_pos_as_xyz
  1  'x, y, z'
loop_
 _atom_site_type_symbol
 _atom_site_label
 _atom_site_symmetry_multiplicity
 _atom_site_fract_x
 _atom_site_fract_y
 _atom_site_fract_z
 _atom_site_occupancy
  Sr  Sr0  1  0.14394944  0.17881791  0.30253856  1
  Sr  Sr1  1  0.84358070  0.82953032  0.69955448  1
  Sr  Sr2  1  0.64188901  0.63133206  0.30176008  1
  Sr  Sr3  1  0.34083040  0.37756803  0.69952491  1
  Y  Y4  1  0.50075772  0.50332810  -0.00026460  1
  Y  Y5  1  -0.00147021  0.00264562  0.99906400  1
  Ga  Ga6  1  0.21104364  0.82980139  0.50337861  1
  Ga  Ga7  1  0.70811269  0.17901178  0.50049414  1
  Co  Co8  1  0.41944788  0.92901184  0.84144572  1
  Co  Co9  1  0.07177587  0.57792513  0.14414122  1
  Co  Co10  1  0.92152442  0.42258377  0.84571560  1
  Co  Co11  1  0.57722032  0.07839216  0.15879434  1
  O  O12  1  0.80709536  0.32677270  0.12706928  1
  O  O13  1  0.86467158  0.87926448  0.50071122  1
  O  O14  1  0.30331234  0.30605762  0.12399156  1
  O  O15  1  0.85037629  0.37824437  0.64734892  1
  O  O16  1  0.69440730  0.18213664  0.87272534  1
  O  O17  1  0.19307934  0.19592418  0.86889134  1
  O  O18  1  0.36441472  0.13105013  0.50201935  1
  O  O19  1  0.18041416  0.70047563  0.87577451  1
  O  O20  1  0.68019402  0.68135233  0.87438797  1
  O  O21  1  0.34940455  0.78300368  0.65213209  1
  O  O22  1  0.21364491  0.62573110  0.35965167  1
  O  O23  1  0.69766997  0.22444520  0.35068350  1
  O  O24  1  0.82199916  0.82728327  0.12898548  1
  O  O25  1  0.32197239  0.81072557  0.13093874  1
