# generated using pymatgen
data_ZnFePO5
_symmetry_space_group_name_H-M   'P 1'
_cell_length_a   5.48731479
_cell_length_b   7.20873365
_cell_length_c   8.09837434
_cell_angle_alpha   89.94593906
_cell_angle_beta   42.25621943
_cell_angle_gamma   72.10068450
_symmetry_Int_Tables_number   1
_chemical_formula_structural   ZnFePO5
_chemical_formula_sum   'Zn2 Fe2 P2 O10'
_cell_volume   191.71260513
_cell_formula_units_Z   2
loop_
 _symmetry_equiv_pos_site_id
 _symmetry_equiv_pos_as_xyz
  1  'x, y, z'
loop_
 _atom_site_type_symbol
 _atom_site_label
 _atom_site_symmetry_multiplicity
 _atom_site_fract_x
 _atom_site_fract_y
 _atom_site_fract_z
 _atom_site_occupancy
  Zn  Zn0  1  0.50127606  0.21879164  0.67815176  1
  Zn  Zn1  1  0.53438012  0.70808619  0.29460772  1
  Fe  Fe2  1  0.50026386  0.48741356  0.99340173  1
  Fe  Fe3  1  0.50069269  0.98696661  0.99673658  1
  P  P4  1  0.50300852  0.23822878  0.34627895  1
  P  P5  1  0.48535305  0.74012523  0.65015205  1
  O  O6  1  0.43294576  0.08424804  0.27109806  1
  O  O7  1  0.58303689  0.39591425  0.20146365  1
  O  O8  1  0.54805203  0.90348339  0.72210528  1
  O  O9  1  0.39836322  0.59152354  0.80502781  1
  O  O10  1  0.85866247  0.61612448  0.34541204  1
  O  O11  1  0.14158193  0.84656512  0.68953941  1
  O  O12  1  0.14164998  0.35276894  0.65185457  1
  O  O13  1  0.85914644  0.12198013  0.29439111  1
  O  O14  1  0.49683121  0.73771119  0.08392860  1
  O  O15  1  0.50148578  0.23719892  0.90786569  1
