# generated using pymatgen
data_SbPO5
_symmetry_space_group_name_H-M   'P 1'
_cell_length_a   6.94722824
_cell_length_b   6.94722713
_cell_length_c   9.08209559
_cell_angle_alpha   101.71287178
_cell_angle_beta   101.71287415
_cell_angle_gamma   117.98355518
_symmetry_Int_Tables_number   1
_chemical_formula_structural   SbPO5
_chemical_formula_sum   'Sb4 P4 O20'
_cell_volume   355.76622022
_cell_formula_units_Z   4
loop_
 _symmetry_equiv_pos_site_id
 _symmetry_equiv_pos_as_xyz
  1  'x, y, z'
loop_
 _atom_site_type_symbol
 _atom_site_label
 _atom_site_symmetry_multiplicity
 _atom_site_fract_x
 _atom_site_fract_y
 _atom_site_fract_z
 _atom_site_occupancy
  Sb  Sb0  1  0.87322071  0.61872314  0.25218407  1
  Sb  Sb1  1  0.36653906  0.62103564  0.74781593  1
  Sb  Sb2  1  0.87103564  0.11653906  0.24781593  1
  Sb  Sb3  1  0.86872314  0.62322071  0.75218407  1
  P  P4  1  0.02942463  0.03042425  0.57074488  1
  P  P5  1  0.70867976  0.20967938  0.92925512  1
  P  P6  1  0.45967938  0.45867976  0.42925512  1
  P  P7  1  0.28042425  0.77942463  0.07074488  1
  O  O8  1  0.59380643  0.56607518  0.32218237  1
  O  O9  1  0.66619138  0.67230724  0.84859622  1
  O  O10  1  0.31142543  0.60117485  0.95822089  1
  O  O11  1  0.81607518  0.34380643  0.82218237  1
  O  O12  1  0.22148344  0.24138413  0.31905659  1
  O  O13  1  0.42112738  0.63573857  0.53648175  1
  O  O14  1  0.06759516  0.57371103  0.65140378  1
  O  O15  1  0.82371103  0.81759516  0.15140378  1
  O  O16  1  0.92230724  0.41619138  0.34859622  1
  O  O17  1  0.15242685  0.67232755  0.18094341  1
  O  O18  1  0.24389181  0.27162506  0.67781763  1
  O  O19  1  0.49138413  0.97148344  0.81905659  1
  O  O20  1  0.92232755  0.90242685  0.68094341  1
  O  O21  1  0.13464764  0.84925782  0.96351825  1
  O  O22  1  0.09925782  0.88464764  0.46351825  1
  O  O23  1  0.88573857  0.17112738  0.03648175  1
  O  O24  1  0.85117485  0.06142543  0.45822089  1
  O  O25  1  0.64295396  0.35320453  0.04177911  1
  O  O26  1  0.52162506  0.99389181  0.17781763  1
  O  O27  1  0.60320453  0.39295396  0.54177911  1
