# generated using pymatgen
data_MgCrBiO5
_symmetry_space_group_name_H-M   'P 1'
_cell_length_a   5.39550964
_cell_length_b   7.74111066
_cell_length_c   11.71206413
_cell_angle_alpha   90.00000000
_cell_angle_beta   90.00000000
_cell_angle_gamma   108.09475998
_symmetry_Int_Tables_number   1
_chemical_formula_structural   MgCrBiO5
_chemical_formula_sum   'Mg4 Cr4 Bi4 O20'
_cell_volume   464.98771570
_cell_formula_units_Z   4
loop_
 _symmetry_equiv_pos_site_id
 _symmetry_equiv_pos_as_xyz
  1  'x, y, z'
loop_
 _atom_site_type_symbol
 _atom_site_label
 _atom_site_symmetry_multiplicity
 _atom_site_fract_x
 _atom_site_fract_y
 _atom_site_fract_z
 _atom_site_occupancy
  Mg  Mg0  1  0.62890678  0.17671977  0.92071378  1
  Mg  Mg1  1  0.37109322  0.82328023  0.07928622  1
  Mg  Mg2  1  0.87109322  0.32328023  0.42071378  1
  Mg  Mg3  1  0.12890678  0.67671977  0.57928622  1
  Cr  Cr4  1  0.78472864  0.96988185  0.64768755  1
  Cr  Cr5  1  0.21527136  0.03011815  0.35231245  1
  Cr  Cr6  1  0.71527136  0.53011815  0.14768755  1
  Cr  Cr7  1  0.28472864  0.46988185  0.85231245  1
  Bi  Bi8  1  0.12020959  0.17420377  0.09714996  1
  Bi  Bi9  1  0.87979041  0.82579623  0.90285004  1
  Bi  Bi10  1  0.62020959  0.67420377  0.40285004  1
  Bi  Bi11  1  0.37979041  0.32579623  0.59714996  1
  O  O12  1  0.58015157  0.33032304  0.07301009  1
  O  O13  1  0.03367785  0.32626178  0.93237194  1
  O  O14  1  0.49723520  0.64505261  0.17468415  1
  O  O15  1  0.75721718  0.51353134  0.52562614  1
  O  O16  1  0.79904914  0.48289681  0.28518356  1
  O  O17  1  0.29904914  0.98289681  0.21481644  1
  O  O18  1  0.53367785  0.82626178  0.56762806  1
  O  O19  1  0.46632215  0.17373822  0.43237194  1
  O  O20  1  0.24278282  0.48646866  0.47437386  1
  O  O21  1  0.91984843  0.16967696  0.57301009  1
  O  O22  1  0.20095086  0.51710319  0.71481644  1
  O  O23  1  0.41984843  0.66967696  0.92698991  1
  O  O24  1  0.08015157  0.83032304  0.42698991  1
  O  O25  1  0.70095086  0.01710319  0.78518356  1
  O  O26  1  0.74278282  0.98646866  0.02562614  1
  O  O27  1  0.25721718  0.01353134  0.97437386  1
  O  O28  1  0.50276480  0.35494739  0.82531585  1
  O  O29  1  0.96632215  0.67373822  0.06762806  1
  O  O30  1  0.00276480  0.85494739  0.67468415  1
  O  O31  1  0.99723520  0.14505261  0.32531585  1
