# generated using pymatgen
data_ZnSb2P2O9
_symmetry_space_group_name_H-M   'P 1'
_cell_length_a   7.50302681
_cell_length_b   6.29186908
_cell_length_c   18.08410310
_cell_angle_alpha   90.03134725
_cell_angle_beta   90.00491659
_cell_angle_gamma   90.01633577
_symmetry_Int_Tables_number   1
_chemical_formula_structural   ZnSb2P2O9
_chemical_formula_sum   'Zn4 Sb8 P8 O36'
_cell_volume   853.71530162
_cell_formula_units_Z   4
loop_
 _symmetry_equiv_pos_site_id
 _symmetry_equiv_pos_as_xyz
  1  'x, y, z'
loop_
 _atom_site_type_symbol
 _atom_site_label
 _atom_site_symmetry_multiplicity
 _atom_site_fract_x
 _atom_site_fract_y
 _atom_site_fract_z
 _atom_site_occupancy
  Zn  Zn0  1  0.82036463  0.94170556  0.75534464  1
  Zn  Zn1  1  0.68128659  0.55756626  0.25524585  1
  Zn  Zn2  1  0.18119233  0.44242936  0.74493556  1
  Zn  Zn3  1  0.32055886  0.05800507  0.24457986  1
  Sb  Sb4  1  0.73261684  0.38956338  0.89546241  1
  Sb  Sb5  1  0.23311695  0.61069814  0.10443596  1
  Sb  Sb6  1  0.26595211  0.88932914  0.60445137  1
  Sb  Sb7  1  0.76571966  0.11068631  0.39559376  1
  Sb  Sb8  1  0.44677574  0.94769978  0.94460389  1
  Sb  Sb9  1  0.55335707  0.44790716  0.55546943  1
  Sb  Sb10  1  0.05340215  0.55220057  0.44443002  1
  Sb  Sb11  1  0.94705406  0.05253844  0.05556821  1
  P  P12  1  0.27938180  0.42954845  0.91936413  1
  P  P13  1  0.77981726  0.57045088  0.08059459  1
  P  P14  1  0.71829688  0.93174492  0.58058217  1
  P  P15  1  0.21808078  0.06842752  0.41941423  1
  P  P16  1  0.77223138  0.44775951  0.72329067  1
  P  P17  1  0.72969601  0.05197660  0.22330215  1
  P  P18  1  0.22955681  0.94792561  0.77675696  1
  P  P19  1  0.27216392  0.55196743  0.27662542  1
  O  O20  1  0.12390430  0.56445809  0.33700119  1
  O  O21  1  0.62408830  0.43528662  0.66284293  1
  O  O22  1  0.87857431  0.06389678  0.16319161  1
  O  O23  1  0.37813401  0.93576987  0.83701246  1
  O  O24  1  0.95698859  0.43986405  0.68833039  1
  O  O25  1  0.45696065  0.56026738  0.31172411  1
  O  O26  1  0.04504770  0.93872309  0.81175860  1
  O  O27  1  0.54529449  0.06081289  0.18817304  1
  O  O28  1  0.20667866  0.28791939  0.46127477  1
  O  O29  1  0.70675422  0.71226304  0.53871549  1
  O  O30  1  0.79179316  0.78966699  0.03856343  1
  O  O31  1  0.29147785  0.21049501  0.96151243  1
  O  O32  1  0.67186136  0.08991823  0.91698005  1
  O  O33  1  0.17229693  0.91034575  0.08302013  1
  O  O34  1  0.32838642  0.59032710  0.58314923  1
  O  O35  1  0.82827946  0.40975996  0.41685777  1
  O  O36  1  0.74042510  0.25005669  0.77691045  1
  O  O37  1  0.24053724  0.74963316  0.22299820  1
  O  O38  1  0.26163037  0.75026328  0.72309420  1
  O  O39  1  0.76157432  0.24980890  0.27692506  1
  O  O40  1  0.34374485  0.07969469  0.35356379  1
  O  O41  1  0.84417834  0.92069130  0.64636454  1
  O  O42  1  0.65376709  0.58319118  0.14648454  1
  O  O43  1  0.15277500  0.41666896  0.85368449  1
  O  O44  1  0.52550106  0.99565744  0.60797088  1
  O  O45  1  0.02520951  0.00435692  0.39210582  1
  O  O46  1  0.47185282  0.49197644  0.89117672  1
  O  O47  1  0.97245790  0.50768688  0.10846765  1
  O  O48  1  0.71432109  0.40641446  0.02369593  1
  O  O49  1  0.26328095  0.14312295  0.72625508  1
  O  O50  1  0.23831771  0.35706883  0.22599500  1
  O  O51  1  0.73806213  0.64264187  0.77394782  1
  O  O52  1  0.78370370  0.09522268  0.52334880  1
  O  O53  1  0.28369131  0.90503649  0.47660664  1
  O  O54  1  0.21464316  0.59390441  0.97629428  1
  O  O55  1  0.76320209  0.85699213  0.27394719  1
