# generated using pymatgen
data_Ba2AlV2F11
_symmetry_space_group_name_H-M   'P 1'
_cell_length_a   7.48095659
_cell_length_b   7.48095638
_cell_length_c   14.56996594
_cell_angle_alpha   90.00000000
_cell_angle_beta   90.00000000
_cell_angle_gamma   120.00000648
_symmetry_Int_Tables_number   1
_chemical_formula_structural   Ba2AlV2F11
_chemical_formula_sum   'Ba6 Al3 V6 F33'
_cell_volume   706.16046118
_cell_formula_units_Z   3
loop_
 _symmetry_equiv_pos_site_id
 _symmetry_equiv_pos_as_xyz
  1  'x, y, z'
loop_
 _atom_site_type_symbol
 _atom_site_label
 _atom_site_symmetry_multiplicity
 _atom_site_fract_x
 _atom_site_fract_y
 _atom_site_fract_z
 _atom_site_occupancy
  Ba  Ba0  1  0.53736039  0.19272252  0.66555052  1
  Ba  Ba1  1  0.18545376  0.49766055  0.79793993  1
  Ba  Ba2  1  0.65536313  0.46263961  0.99888352  1
  Ba  Ba3  1  0.50233945  0.68779221  0.46460593  1
  Ba  Ba4  1  0.31220779  0.81454624  0.13127293  1
  Ba  Ba5  1  0.80727748  0.34463687  0.33221652  1
  Al  Al6  1  0.16628935  0.01115846  0.87413257  1
  Al  Al7  1  0.84487011  0.83371065  0.20746557  1
  Al  Al8  1  0.98884154  0.15512989  0.54079857  1
  V  V9  1  0.64521307  0.99832057  0.88379473  1
  V  V10  1  0.81000971  0.77077152  0.72475472  1
  V  V11  1  0.22922848  0.03923819  0.39142072  1
  V  V12  1  0.35310750  0.35478693  0.21712773  1
  V  V13  1  0.96076181  0.18999029  0.05808772  1
  V  V14  1  0.00167943  0.64689250  0.55046073  1
  F  F15  1  0.65154875  0.07413121  0.02271005  1
  F  F16  1  0.50495885  0.69095388  0.92343197  1
  F  F17  1  0.42258245  0.34845125  0.35604305  1
  F  F18  1  0.08705161  0.42344716  0.49978962  1
  F  F19  1  0.53736604  0.23426323  0.17772640  1
  F  F20  1  0.90886052  0.63250624  0.19410183  1
  F  F21  1  0.57655284  0.66360346  0.16645662  1
  F  F22  1  0.36749376  0.27635428  0.86076883  1
  F  F23  1  0.69689619  0.46263396  0.51105940  1
  F  F24  1  0.27452539  0.34054246  0.08059520  1
  F  F25  1  0.33639654  0.91294839  0.83312362  1
  F  F26  1  0.92586879  0.57741754  0.68937705  1
  F  F27  1  0.24945743  0.00044270  0.98632314  1
  F  F28  1  0.02299540  0.48819012  0.02354051  1
  F  F29  1  0.75098527  0.75054257  0.31965614  1
  F  F30  1  0.30904612  0.81400497  0.59009797  1
  F  F31  1  0.98887060  0.11701696  0.91262754  1
  F  F32  1  0.06601707  0.72547461  0.41392820  1
  F  F33  1  0.97629825  0.08436070  0.42019438  1
  F  F34  1  0.99955730  0.24901473  0.65298914  1
  F  F35  1  0.10806145  0.02370175  0.75352838  1
  F  F36  1  0.51180988  0.53480627  0.69020751  1
  F  F37  1  0.46519373  0.97700460  0.35687351  1
  F  F38  1  0.12814636  0.01112940  0.24596054  1
  F  F39  1  0.65945754  0.93398293  0.74726220  1
  F  F40  1  0.76573677  0.30310381  0.84439340  1
  F  F41  1  0.18599503  0.49504115  0.25676497  1
  F  F42  1  0.93187258  0.75831283  0.87075589  1
  F  F43  1  0.82644125  0.06812742  0.20408889  1
  F  F44  1  0.91563930  0.89193855  0.08686138  1
  F  F45  1  0.72364572  0.09113948  0.52743483  1
  F  F46  1  0.88298304  0.87185364  0.57929354  1
  F  F47  1  0.24168717  0.17355875  0.53742189  1
