# generated using pymatgen
data_Sr2YCu2BiO7
_symmetry_space_group_name_H-M   'P 1'
_cell_length_a   5.41561243
_cell_length_b   5.43367157
_cell_length_c   13.19092378
_cell_angle_alpha   101.90018786
_cell_angle_beta   101.86450041
_cell_angle_gamma   90.18137850
_symmetry_Int_Tables_number   1
_chemical_formula_structural   Sr2YCu2BiO7
_chemical_formula_sum   'Sr4 Y2 Cu4 Bi2 O14'
_cell_volume   371.28722494
_cell_formula_units_Z   2
loop_
 _symmetry_equiv_pos_site_id
 _symmetry_equiv_pos_as_xyz
  1  'x, y, z'
loop_
 _atom_site_type_symbol
 _atom_site_label
 _atom_site_symmetry_multiplicity
 _atom_site_fract_x
 _atom_site_fract_y
 _atom_site_fract_z
 _atom_site_occupancy
  Sr  Sr0  1  0.34087662  0.36287400  0.72183487  1
  Sr  Sr1  1  0.61807649  0.63560974  0.27705105  1
  Sr  Sr2  1  0.84006656  0.85726468  0.72180711  1
  Sr  Sr3  1  0.11884708  0.14059387  0.27712125  1
  Y  Y4  1  0.98239229  0.99893756  0.99942211  1
  Y  Y5  1  0.48250083  0.49902328  0.99947381  1
  Cu  Cu6  1  0.91437141  0.43218882  0.86701063  1
  Cu  Cu7  1  0.04688452  0.56555460  0.13169694  1
  Cu  Cu8  1  0.41470077  0.93354127  0.86790828  1
  Cu  Cu9  1  0.54687235  0.06457843  0.13139771  1
  Bi  Bi10  1  0.26030224  0.73904227  0.49940959  1
  Bi  Bi11  1  0.75907742  0.25911096  0.49926679  1
  O  O12  1  0.16673841  0.34144706  0.49910131  1
  O  O13  1  0.66734615  0.65653770  0.49927905  1
  O  O14  1  0.17941190  0.19712771  0.88509724  1
  O  O15  1  0.29425776  0.79967575  0.11381872  1
  O  O16  1  0.67886250  0.18546533  0.88479318  1
  O  O17  1  0.79481175  0.81296950  0.11428364  1
  O  O18  1  0.66609768  0.68514715  0.88190873  1
  O  O19  1  0.78397421  0.31392320  0.11741395  1
  O  O20  1  0.16639287  0.69540733  0.88125433  1
  O  O21  1  0.28416983  0.30249044  0.11766618  1
  O  O22  1  0.30976976  0.84232831  0.67960153  1
  O  O23  1  0.62863241  0.15450877  0.31919807  1
  O  O24  1  0.80814954  0.33523635  0.67970016  1
  O  O25  1  0.12993366  0.66320991  0.31900077  1
