# generated using pymatgen
data_CaPr(CuO3)2
_symmetry_space_group_name_H-M   'P 1'
_cell_length_a   5.43936675
_cell_length_b   5.46040626
_cell_length_c   7.64087259
_cell_angle_alpha   90.00922665
_cell_angle_beta   89.98823518
_cell_angle_gamma   90.15948922
_symmetry_Int_Tables_number   1
_chemical_formula_structural   CaPr(CuO3)2
_chemical_formula_sum   'Ca2 Pr2 Cu4 O12'
_cell_volume   226.94183348
_cell_formula_units_Z   2
loop_
 _symmetry_equiv_pos_site_id
 _symmetry_equiv_pos_as_xyz
  1  'x, y, z'
loop_
 _atom_site_type_symbol
 _atom_site_label
 _atom_site_symmetry_multiplicity
 _atom_site_fract_x
 _atom_site_fract_y
 _atom_site_fract_z
 _atom_site_occupancy
  Ca  Ca0  1  0.49071481  0.45557481  0.74994002  1
  Ca  Ca1  1  0.99084673  0.04475081  0.25000791  1
  Pr  Pr2  1  0.00796248  0.96270105  0.74999239  1
  Pr  Pr3  1  0.50821988  0.53688940  0.25006739  1
  Cu  Cu4  1  0.00031425  0.49930874  -0.00030044  1
  Cu  Cu5  1  0.00030377  0.49927260  0.50031396  1
  Cu  Cu6  1  0.50032393  0.00070954  0.49965190  1
  Cu  Cu7  1  0.50028760  0.00072802  0.00035758  1
  O  O8  1  0.07083634  0.48298125  0.25001008  1
  O  O9  1  0.22021646  0.22005431  0.96277124  1
  O  O10  1  0.22019161  0.22013158  0.53722797  1
  O  O11  1  0.28379832  0.71677256  0.54123290  1
  O  O12  1  0.28387537  0.71684524  0.95877910  1
  O  O13  1  0.42186795  0.98637753  0.24978259  1
  O  O14  1  0.57086709  0.01672518  0.75019991  1
  O  O15  1  0.71999026  0.28007393  0.03717721  1
  O  O16  1  0.72005262  0.28015228  0.46279682  1
  O  O17  1  0.78367247  0.78310198  0.04135446  1
  O  O18  1  0.78373984  0.78305332  0.45864341  1
  O  O19  1  0.92191523  0.51379688  0.74999259  1
