# generated using pymatgen
data_Al(NiO2)3
_symmetry_space_group_name_H-M   'P 1'
_cell_length_a   17.44794673
_cell_length_b   5.75787884
_cell_length_c   5.75787924
_cell_angle_alpha   59.96878804
_cell_angle_beta   60.32304232
_cell_angle_gamma   60.32304222
_symmetry_Int_Tables_number   1
_chemical_formula_structural   Al(NiO2)3
_chemical_formula_sum   'Al4 Ni12 O24'
_cell_volume   410.91714803
_cell_formula_units_Z   4
loop_
 _symmetry_equiv_pos_site_id
 _symmetry_equiv_pos_as_xyz
  1  'x, y, z'
loop_
 _atom_site_type_symbol
 _atom_site_label
 _atom_site_symmetry_multiplicity
 _atom_site_fract_x
 _atom_site_fract_y
 _atom_site_fract_z
 _atom_site_occupancy
  Al  Al0  1  0.20319169  0.63002479  0.63002479  1
  Al  Al1  1  0.88571285  0.61429756  0.61429756  1
  Al  Al2  1  0.46347531  0.36997521  0.36997521  1
  Al  Al3  1  0.78095415  0.38570244  0.38570244  1
  Ni  Ni4  1  0.99759620  0.49678840  0.00548129  1
  Ni  Ni5  1  0.33333300  0.50000000  0.00000000  1
  Ni  Ni6  1  0.66907080  0.50321160  0.99451871  1
  Ni  Ni7  1  0.99768012  0.00505970  0.00505970  1
  Ni  Ni8  1  0.33333300  -0.00000000  0.00000000  1
  Ni  Ni9  1  0.66898688  0.99494030  0.99494030  1
  Ni  Ni10  1  0.16269152  0.00412424  0.00412424  1
  Ni  Ni11  1  0.50397548  0.99587576  0.99587576  1
  Ni  Ni12  1  0.83333300  -0.00000000  0.00000000  1
  Ni  Ni13  1  0.99759620  0.00548129  0.49678840  1
  Ni  Ni14  1  0.33333300  -0.00000000  0.50000000  1
  Ni  Ni15  1  0.66907080  0.99451871  0.50321160  1
  O  O16  1  0.08001817  0.75325706  0.75325706  1
  O  O17  1  0.39243892  0.77434956  0.77435056  1
  O  O18  1  0.76160751  0.73836188  0.73836188  1
  O  O19  1  0.07143093  0.24007198  0.80558559  1
  O  O20  1  0.41968523  0.24169725  0.75766750  1
  O  O21  1  0.74219535  0.25128451  0.77059227  1
  O  O22  1  0.07143093  0.80558559  0.24007198  1
  O  O23  1  0.41968523  0.75766750  0.24169825  1
  O  O24  1  0.74219535  0.77059227  0.25128451  1
  O  O25  1  0.07077531  0.24148187  0.24148187  1
  O  O26  1  0.41920819  0.24272119  0.24272119  1
  O  O27  1  0.74203870  0.25171396  0.25171396  1
  O  O28  1  0.24698177  0.75830175  0.24233250  1
  O  O29  1  0.59523507  0.75992702  0.19441441  1
  O  O30  1  0.92447065  0.74871449  0.22940773  1
  O  O31  1  0.27422808  0.22565044  0.22565044  1
  O  O32  1  0.58664883  0.24674194  0.24674294  1
  O  O33  1  0.90505849  0.26163812  0.26163812  1
  O  O34  1  0.24698177  0.24233250  0.75830175  1
  O  O35  1  0.59523507  0.19441441  0.75992802  1
  O  O36  1  0.92447065  0.22940773  0.74871449  1
  O  O37  1  0.24745881  0.75727881  0.75727881  1
  O  O38  1  0.59589169  0.75851813  0.75851813  1
  O  O39  1  0.92462730  0.74828604  0.74828604  1
