# generated using pymatgen
data_Ba2Ti2CuF14
_symmetry_space_group_name_H-M   'P 1'
_cell_length_a   5.38081369
_cell_length_b   7.69909918
_cell_length_c   15.31314494
_cell_angle_alpha   91.22772546
_cell_angle_beta   89.66822376
_cell_angle_gamma   110.67536069
_symmetry_Int_Tables_number   1
_chemical_formula_structural   Ba2Ti2CuF14
_chemical_formula_sum   'Ba4 Ti4 Cu2 F28'
_cell_volume   593.38983583
_cell_formula_units_Z   2
loop_
 _symmetry_equiv_pos_site_id
 _symmetry_equiv_pos_as_xyz
  1  'x, y, z'
loop_
 _atom_site_type_symbol
 _atom_site_label
 _atom_site_symmetry_multiplicity
 _atom_site_fract_x
 _atom_site_fract_y
 _atom_site_fract_z
 _atom_site_occupancy
  Ba  Ba0  1  0.10587203  0.35756170  0.62391249  1
  Ba  Ba1  1  0.24862549  0.35522460  0.12423105  1
  Ba  Ba2  1  0.89651243  0.64560314  0.37711903  1
  Ba  Ba3  1  0.75142292  0.64475682  0.87692927  1
  Ti  Ti4  1  0.10077335  0.24573765  0.87168504  1
  Ti  Ti5  1  0.90038691  0.75445143  0.12919502  1
  Ti  Ti6  1  0.14703428  0.24615475  0.37178899  1
  Ti  Ti7  1  0.85233743  0.75675620  0.62855536  1
  Cu  Cu8  1  0.50068445  0.00053787  0.00046026  1
  Cu  Cu9  1  0.50072189  0.00251012  0.50035860  1
  F  F10  1  0.94098525  0.00289454  0.34901882  1
  F  F11  1  0.88723920  0.28724000  0.44972257  1
  F  F12  1  0.11493969  0.71760048  0.55123417  1
  F  F13  1  0.64302699  0.51028310  0.58877976  1
  F  F14  1  0.62562619  0.12664496  0.60372058  1
  F  F15  1  0.50656996  0.87705751  0.89710689  1
  F  F16  1  0.40214509  0.28982899  0.94914861  1
  F  F17  1  0.93541409  0.99737590  0.15162433  1
  F  F18  1  0.35714286  0.35023800  0.78383398  1
  F  F19  1  0.35760963  0.49383944  0.40967152  1
  F  F20  1  0.84632270  0.25408234  0.79418646  1
  F  F21  1  0.13773696  0.49352709  0.90875026  1
  F  F22  1  0.41300767  0.25716627  0.29351107  1
  F  F23  1  0.15507505  0.74673547  0.20683403  1
  F  F24  1  0.49531245  0.12401557  0.10408439  1
  F  F25  1  0.64423863  0.64914250  0.21698394  1
  F  F26  1  0.11924100  0.83101078  0.02463868  1
  F  F27  1  0.05766604  -0.00023698  0.65241078  1
  F  F28  1  0.88195041  0.17055775  0.97634796  1
  F  F29  1  0.71444474  0.83428810  0.52442269  1
  F  F30  1  0.59868985  0.70998780  0.05188568  1
  F  F31  1  0.58359932  0.74329921  0.70602130  1
  F  F32  1  0.99715448  0.35102400  0.28459123  1
  F  F33  1  0.28746466  0.17092056  0.47601365  1
  F  F34  1  0.37524724  0.87833693  0.39690773  1
  F  F35  1  0.06461382  0.00252887  0.84968864  1
  F  F36  1  0.99917864  0.64973648  0.71582520  1
  F  F37  1  0.86535023  0.50747804  0.09162796  1
