# generated using pymatgen
data_Li3Cu4TeO8
_symmetry_space_group_name_H-M   'P 1'
_cell_length_a   10.89550832
_cell_length_b   10.89550883
_cell_length_c   14.91699469
_cell_angle_alpha   19.68963389
_cell_angle_beta   19.68963882
_cell_angle_gamma   34.59510475
_symmetry_Int_Tables_number   1
_chemical_formula_structural   Li3Cu4TeO8
_chemical_formula_sum   'Li3 Cu4 Te1 O8'
_cell_volume   166.87140343
_cell_formula_units_Z   1
loop_
 _symmetry_equiv_pos_site_id
 _symmetry_equiv_pos_as_xyz
  1  'x, y, z'
loop_
 _atom_site_type_symbol
 _atom_site_label
 _atom_site_symmetry_multiplicity
 _atom_site_fract_x
 _atom_site_fract_y
 _atom_site_fract_z
 _atom_site_occupancy
  Li  Li0  1  0.00000000  0.50000000  0.50000000  1
  Li  Li1  1  0.50000000  0.00000000  0.50000000  1
  Li  Li2  1  0.50000000  0.50000000  0.50000000  1
  Cu  Cu3  1  0.00000000  0.00000000  0.00000000  1
  Cu  Cu4  1  0.00000000  0.50000000  0.00000000  1
  Cu  Cu5  1  0.50000000  0.00000000  0.00000000  1
  Cu  Cu6  1  0.00000000  0.00000000  0.50000000  1
  Te  Te7  1  0.50000000  0.50000000  0.00000000  1
  O  O8  1  0.94912664  0.94912664  0.30341475  1
  O  O9  1  0.06264821  0.49786604  0.22322274  1
  O  O10  1  0.49786604  0.06264821  0.22322274  1
  O  O11  1  0.05087336  0.05087336  0.69658525  1
  O  O12  1  0.55951354  0.55951354  0.18934972  1
  O  O13  1  0.93735179  0.50213396  0.77677726  1
  O  O14  1  0.50213396  0.93735179  0.77677726  1
  O  O15  1  0.44048646  0.44048646  0.81065028  1
