# generated using pymatgen
data_Nb5OF14
_symmetry_space_group_name_H-M   'P 1'
_cell_length_a   9.35213468
_cell_length_b   7.20800709
_cell_length_c   5.87483003
_cell_angle_alpha   90.58827991
_cell_angle_beta   71.50677527
_cell_angle_gamma   74.93310276
_symmetry_Int_Tables_number   1
_chemical_formula_structural   Nb5OF14
_chemical_formula_sum   'Nb5 O1 F14'
_cell_volume   360.79876630
_cell_formula_units_Z   1
loop_
 _symmetry_equiv_pos_site_id
 _symmetry_equiv_pos_as_xyz
  1  'x, y, z'
loop_
 _atom_site_type_symbol
 _atom_site_label
 _atom_site_symmetry_multiplicity
 _atom_site_fract_x
 _atom_site_fract_y
 _atom_site_fract_z
 _atom_site_occupancy
  Nb  Nb0  1  0.39863090  0.20379513  0.80483763  1
  Nb  Nb1  1  0.80136910  0.39620487  0.59516237  1
  Nb  Nb2  1  0.19086360  0.61634050  0.42246082  1
  Nb  Nb3  1  0.60000000  0.80000000  0.20000000  1
  Nb  Nb4  1  0.00913640  0.98365950  0.97753918  1
  O  O5  1  0.10000000  0.80000000  0.70000000  1
  F  F6  1  0.90099323  0.19912821  0.80272062  1
  F  F7  1  0.19990298  0.10095753  0.90039584  1
  F  F8  1  0.49957774  0.00010653  0.50092463  1
  F  F9  1  0.90263815  0.19464017  0.29256799  1
  F  F10  1  0.70042226  0.59989347  0.89907537  1
  F  F11  1  0.60000000  0.30000000  0.70000000  1
  F  F12  1  0.29900677  0.40087179  0.59727938  1
  F  F13  1  0.50061087  0.99942375  0.00185889  1
  F  F14  1  0.69938913  0.60057625  0.39814111  1
  F  F15  1  0.29736185  0.40535983  0.10743201  1
  F  F16  1  0.00009702  0.49904247  0.49960416  1
  F  F17  1  0.80120181  0.90141591  0.10033606  1
  F  F18  1  0.39879819  0.69858409  0.29966394  1
  F  F19  1  0.10000000  0.80000000  0.20000000  1
