# generated using pymatgen
data_BaSr7Co5(CuO8)3
_symmetry_space_group_name_H-M   'P 1'
_cell_length_a   7.70585746
_cell_length_b   7.84763549
_cell_length_c   7.84763549
_cell_angle_alpha   89.99158293
_cell_angle_beta   90.03857857
_cell_angle_gamma   89.96142143
_symmetry_Int_Tables_number   1
_chemical_formula_structural   BaSr7Co5(CuO8)3
_chemical_formula_sum   'Ba1 Sr7 Co5 Cu3 O24'
_cell_volume   474.56796075
_cell_formula_units_Z   1
loop_
 _symmetry_equiv_pos_site_id
 _symmetry_equiv_pos_as_xyz
  1  'x, y, z'
loop_
 _atom_site_type_symbol
 _atom_site_label
 _atom_site_symmetry_multiplicity
 _atom_site_fract_x
 _atom_site_fract_y
 _atom_site_fract_z
 _atom_site_occupancy
  Ba  Ba0  1  0.24890188  0.75100381  0.24899619  1
  Sr  Sr1  1  0.24938549  0.24862922  0.24833185  1
  Sr  Sr2  1  0.24936584  0.24838511  0.75161489  1
  Sr  Sr3  1  0.24938549  0.75166815  0.75137078  1
  Sr  Sr4  1  0.75050809  0.24853657  0.24854616  1
  Sr  Sr5  1  0.75104110  0.24804103  0.75195897  1
  Sr  Sr6  1  0.75035935  0.75177581  0.24822419  1
  Sr  Sr7  1  0.75050809  0.75145384  0.75146343  1
  Co  Co8  1  0.99907491  0.49770928  0.50229072  1
  Co  Co9  1  0.50138488  0.00120213  0.99879787  1
  Co  Co10  1  0.50129210  0.00128433  0.50097850  1
  Co  Co11  1  0.50129210  0.49902150  0.99871567  1
  Co  Co12  1  0.50130757  0.49898858  0.50101142  1
  Cu  Cu13  1  0.99991059  0.00044875  0.99955125  1
  Cu  Cu14  1  0.99949433  0.99992760  0.50060470  1
  Cu  Cu15  1  0.99949433  0.49939530  0.00007240  1
  O  O16  1  0.26014957  0.00439141  0.99560859  1
  O  O17  1  0.26141840  0.00415053  0.50432877  1
  O  O18  1  0.26141840  0.49567123  0.99584947  1
  O  O19  1  0.23846985  0.49649170  0.50350830  1
  O  O20  1  0.74102674  0.00082620  0.99917380  1
  O  O21  1  0.73965411  0.00057810  0.50097133  1
  O  O22  1  0.73965411  0.49902867  0.99942190  1
  O  O23  1  0.76074747  0.49853796  0.50146204  1
  O  O24  1  0.99895550  0.25029830  0.99837262  1
  O  O25  1  0.99897764  0.24940104  0.50180700  1
  O  O26  1  0.99322351  0.74960942  0.99250633  1
  O  O27  1  0.99504103  0.74968924  0.50482422  1
  O  O28  1  0.50168403  0.24962745  0.99819847  1
  O  O29  1  0.50114707  0.25921928  0.50052475  1
  O  O30  1  0.50390175  0.75055496  0.99434918  1
  O  O31  1  0.50444708  0.74008765  0.50505159  1
  O  O32  1  0.99322351  0.00749367  0.25039058  1
  O  O33  1  0.99895550  0.00162738  0.74970170  1
  O  O34  1  0.99504103  0.49517578  0.25031076  1
  O  O35  1  0.99897764  0.49819300  0.75059896  1
  O  O36  1  0.50390175  0.00565082  0.24944504  1
  O  O37  1  0.50168403  0.00180153  0.75037255  1
  O  O38  1  0.50444708  0.49494841  0.25991235  1
  O  O39  1  0.50114707  0.49947525  0.74078072  1
