# generated using pymatgen
data_MgMn3P3O13
_symmetry_space_group_name_H-M   'P 1'
_cell_length_a   6.18089751
_cell_length_b   7.70676609
_cell_length_c   10.30119463
_cell_angle_alpha   100.27652010
_cell_angle_beta   90.00000000
_cell_angle_gamma   90.00000000
_symmetry_Int_Tables_number   1
_chemical_formula_structural   MgMn3P3O13
_chemical_formula_sum   'Mg2 Mn6 P6 O26'
_cell_volume   482.82302748
_cell_formula_units_Z   2
loop_
 _symmetry_equiv_pos_site_id
 _symmetry_equiv_pos_as_xyz
  1  'x, y, z'
loop_
 _atom_site_type_symbol
 _atom_site_label
 _atom_site_symmetry_multiplicity
 _atom_site_fract_x
 _atom_site_fract_y
 _atom_site_fract_z
 _atom_site_occupancy
  Mg  Mg0  1  0.75000000  0.63273403  0.16747719  1
  Mg  Mg1  1  0.25000000  0.36726597  0.83252281  1
  Mn  Mn2  1  0.25000000  0.35093818  0.20821009  1
  Mn  Mn3  1  0.75000000  0.64906182  0.79178991  1
  Mn  Mn4  1  0.25000000  0.77127741  0.42980461  1
  Mn  Mn5  1  0.50000000  -0.00000000  0.00000000  1
  Mn  Mn6  1  0.75000000  0.22872259  0.57019539  1
  Mn  Mn7  1  0.00000000  -0.00000000  0.00000000  1
  P  P8  1  0.25000000  0.21276269  0.49307633  1
  P  P9  1  0.75000000  0.78723731  0.50692367  1
  P  P10  1  0.25000000  0.73432671  0.75976494  1
  P  P11  1  0.75000000  0.26567329  0.24023506  1
  P  P12  1  0.75000000  0.32238292  0.88859102  1
  P  P13  1  0.25000000  0.67761708  0.11140898  1
  O  O14  1  0.75000000  0.37679831  0.74863247  1
  O  O15  1  0.55785258  0.74936376  0.40595953  1
  O  O16  1  0.25000000  0.77968768  0.62340441  1
  O  O17  1  0.53650381  0.21790887  0.89731465  1
  O  O18  1  0.75000000  0.65065337  0.59874015  1
  O  O19  1  0.75000000  0.88298188  0.90729705  1
  O  O20  1  0.25000000  0.34934663  0.40125985  1
  O  O21  1  0.03650381  0.78209113  0.10268535  1
  O  O22  1  0.25000000  0.02621859  0.41373210  1
  O  O23  1  0.75000000  0.97378141  0.58626790  1
  O  O24  1  0.05947896  0.61409811  0.78966614  1
  O  O25  1  0.25000000  0.11701812  0.09270295  1
  O  O26  1  0.55947896  0.38590189  0.21033386  1
  O  O27  1  0.75000000  0.50284815  0.97969899  1
  O  O28  1  0.75000000  0.22031232  0.37659559  1
  O  O29  1  0.46349619  0.78209113  0.10268535  1
  O  O30  1  0.94214742  0.74936376  0.40595953  1
  O  O31  1  0.44214742  0.25063624  0.59404047  1
  O  O32  1  0.44052104  0.61409811  0.78966614  1
  O  O33  1  0.25000000  0.62320169  0.25136753  1
  O  O34  1  0.75000000  0.09471907  0.13378094  1
  O  O35  1  0.25000000  0.90528093  0.86621906  1
  O  O36  1  0.94052104  0.38590189  0.21033386  1
  O  O37  1  0.96349619  0.21790887  0.89731465  1
  O  O38  1  0.05785258  0.25063624  0.59404047  1
  O  O39  1  0.25000000  0.49715185  0.02030101  1
