# generated using pymatgen
data_Sr5Ca3Mn6(FeO10)2
_symmetry_space_group_name_H-M   'P 1'
_cell_length_a   11.04363563
_cell_length_b   11.13427463
_cell_length_c   17.79772418
_cell_angle_alpha   108.16049667
_cell_angle_beta   108.24166873
_cell_angle_gamma   89.98782944
_symmetry_Int_Tables_number   1
_chemical_formula_structural   Sr5Ca3Mn6(FeO10)2
_chemical_formula_sum   'Sr20 Ca12 Mn24 Fe8 O80'
_cell_volume   1963.41751924
_cell_formula_units_Z   4
loop_
 _symmetry_equiv_pos_site_id
 _symmetry_equiv_pos_as_xyz
  1  'x, y, z'
loop_
 _atom_site_type_symbol
 _atom_site_label
 _atom_site_symmetry_multiplicity
 _atom_site_fract_x
 _atom_site_fract_y
 _atom_site_fract_z
 _atom_site_occupancy
  Sr  Sr0  1  0.30867092  0.05701073  0.60929094  1
  Sr  Sr1  1  0.30878560  0.55811968  0.60956694  1
  Sr  Sr2  1  0.80886482  0.05818470  0.60984641  1
  Sr  Sr3  1  0.81056631  0.55829160  0.61140927  1
  Sr  Sr4  1  0.19627388  0.43973994  0.38614336  1
  Sr  Sr5  1  0.20034029  0.44356291  0.89390980  1
  Sr  Sr6  1  0.69775087  0.44110102  0.38677889  1
  Sr  Sr7  1  0.69811798  0.94094547  0.38655014  1
  Sr  Sr8  1  0.70051965  0.94246091  0.89336834  1
  Sr  Sr9  1  0.06043042  0.30229221  0.61055717  1
  Sr  Sr10  1  0.05989839  0.80243411  0.61086809  1
  Sr  Sr11  1  0.55994522  0.30351972  0.61093485  1
  Sr  Sr12  1  0.56001770  0.80215217  0.61083282  1
  Sr  Sr13  1  0.44742667  0.19699093  0.38684235  1
  Sr  Sr14  1  0.45299012  0.20204993  0.89372680  1
  Sr  Sr15  1  0.44716162  0.69643075  0.38669238  1
  Sr  Sr16  1  0.45085365  0.70166762  0.89409316  1
  Sr  Sr17  1  0.94684944  0.19505965  0.38595379  1
  Sr  Sr18  1  0.94896609  0.20115187  0.89312888  1
  Sr  Sr19  1  0.94723508  0.69728069  0.38621703  1
  Ca  Ca20  1  0.30382888  0.06090566  0.10467662  1
  Ca  Ca21  1  0.30311099  0.56461384  0.10463098  1
  Ca  Ca22  1  0.80384662  0.06200594  0.10383250  1
  Ca  Ca23  1  0.80431073  0.56263103  0.10378268  1
  Ca  Ca24  1  0.19914551  0.93917888  0.39216969  1
  Ca  Ca25  1  0.20297051  0.93884305  0.89824548  1
  Ca  Ca26  1  0.70458134  0.44117770  0.89868653  1
  Ca  Ca27  1  0.05378112  0.29146549  0.10529891  1
  Ca  Ca28  1  0.05634310  0.79273270  0.10634409  1
  Ca  Ca29  1  0.55507965  0.29122362  0.10434877  1
  Ca  Ca30  1  0.55549852  0.79194072  0.10456118  1
  Ca  Ca31  1  0.95454827  0.70930748  0.89943689  1
  Mn  Mn32  1  0.00273562  0.99895847  0.49752436  1
  Mn  Mn33  1  0.00223411  0.49949613  0.49851579  1
  Mn  Mn34  1  0.50303094  0.49943406  0.49881288  1
  Mn  Mn35  1  0.25700553  0.25112427  0.00378839  1
  Mn  Mn36  1  0.25153844  0.24762628  0.49676381  1
  Mn  Mn37  1  0.25183684  0.74871810  0.49778979  1
  Mn  Mn38  1  0.75296419  0.24994588  0.49874525  1
  Mn  Mn39  1  0.75312840  0.74907422  0.49903622  1
  Mn  Mn40  1  0.10543982  0.08936706  0.24379614  1
  Mn  Mn41  1  0.11533974  0.09486155  0.75678480  1
  Mn  Mn42  1  0.10460916  0.59672948  0.24205759  1
  Mn  Mn43  1  0.11103014  0.60428140  0.75646096  1
  Mn  Mn44  1  0.60359577  0.08998605  0.24248794  1
  Mn  Mn45  1  0.61489623  0.10268700  0.75209957  1
  Mn  Mn46  1  0.60477832  0.59154096  0.24223019  1
  Mn  Mn47  1  0.61702226  0.59707864  0.75606140  1
  Mn  Mn48  1  0.35250821  0.40235955  0.24087905  1
  Mn  Mn49  1  0.36572942  0.40576940  0.75408084  1
  Mn  Mn50  1  0.35238377  0.90185676  0.24654604  1
  Mn  Mn51  1  0.36148019  0.90597868  0.75586667  1
  Mn  Mn52  1  0.85548150  0.40159487  0.24260934  1
  Mn  Mn53  1  0.86142793  0.41108212  0.75840977  1
  Mn  Mn54  1  0.85758936  0.89936075  0.24199817  1
  Mn  Mn55  1  0.86850916  0.90110426  0.75481019  1
  Fe  Fe56  1  0.00848038  0.00101500  0.00372931  1
  Fe  Fe57  1  0.00683017  0.50176386  0.00286469  1
  Fe  Fe58  1  0.50691732  0.00177914  0.00441912  1
  Fe  Fe59  1  0.50206579  0.99956877  0.49784026  1
  Fe  Fe60  1  0.50799903  0.50173946  0.00461516  1
  Fe  Fe61  1  0.25683232  0.75350188  0.00471747  1
  Fe  Fe62  1  0.75837425  0.25351589  0.00509018  1
  Fe  Fe63  1  0.75852789  0.75093697  0.00307328  1
  O  O64  1  0.12517043  0.11847712  0.49180325  1
  O  O65  1  0.13095812  0.12300985  0.99473805  1
  O  O66  1  0.12569428  0.62386478  0.49469959  1
  O  O67  1  0.12439595  0.62572433  0.99354420  1
  O  O68  1  0.62604604  0.12491679  0.49658109  1
  O  O69  1  0.62783623  0.12514668  0.99764066  1
  O  O70  1  0.62429439  0.62297599  0.49531131  1
  O  O71  1  0.62947201  0.61985390  0.99384883  1
  O  O72  1  0.13890278  0.37885880  0.01555757  1
  O  O73  1  0.12913344  0.37361159  0.50180697  1
  O  O74  1  0.13677192  0.88104524  0.01309764  1
  O  O75  1  0.12827253  0.87578191  0.49888510  1
  O  O76  1  0.63627620  0.38103640  0.01456417  1
  O  O77  1  0.62756727  0.37528458  0.50045968  1
  O  O78  1  0.63647240  0.87977491  0.01554011  1
  O  O79  1  0.62822763  0.87461826  0.50093666  1
  O  O80  1  0.37088527  0.11887454  0.49141555  1
  O  O81  1  0.37282483  0.12104858  0.99467821  1
  O  O82  1  0.37530602  0.62202359  0.49530292  1
  O  O83  1  0.37817891  0.62317576  0.99891373  1
  O  O84  1  0.87669772  0.12307756  0.49691485  1
  O  O85  1  0.87946160  0.12202927  0.99628224  1
  O  O86  1  0.87418597  0.62367235  0.49518082  1
  O  O87  1  0.87549023  0.61888377  0.98990598  1
  O  O88  1  0.38522692  0.38123125  0.01461302  1
  O  O89  1  0.37904879  0.37588945  0.50122901  1
  O  O90  1  0.38571664  0.88523382  0.01528540  1
  O  O91  1  0.37561747  0.87542064  0.49905779  1
  O  O92  1  0.88571513  0.38533253  0.01403097  1
  O  O93  1  0.87716718  0.37477426  0.50087628  1
  O  O94  1  0.88876376  0.88235196  0.01425866  1
  O  O95  1  0.87835120  0.87689201  0.50099733  1
  O  O96  1  0.08878089  0.09263302  0.13501912  1
  O  O97  1  0.08216035  0.07932105  0.64314791  1
  O  O98  1  0.08308184  0.59533335  0.13222921  1
  O  O99  1  0.07105129  0.58136127  0.64132285  1
  O  O100  1  0.58018658  0.09600044  0.13374853  1
  O  O101  1  0.57157284  0.07777169  0.63359806  1
  O  O102  1  0.58326495  0.59542145  0.13344822  1
  O  O103  1  0.58098525  0.57802576  0.64176061  1
  O  O104  1  0.42993222  0.42064677  0.35432241  1
  O  O105  1  0.44474511  0.41881818  0.86913241  1
  O  O106  1  0.43670483  0.92503131  0.36246511  1
  O  O107  1  0.44460357  0.91970536  0.87097330  1
  O  O108  1  0.93131487  0.42261749  0.35696630  1
  O  O109  1  0.94666823  0.41400181  0.86998573  1
  O  O110  1  0.93422893  0.92252632  0.35674150  1
  O  O111  1  0.95025989  0.91146493  0.87021292  1
  O  O112  1  0.32996326  0.28810406  0.13130696  1
  O  O113  1  0.32644436  0.30718551  0.64021646  1
  O  O114  1  0.32553902  0.79161584  0.13665691  1
  O  O115  1  0.32221319  0.80970421  0.64115677  1
  O  O116  1  0.83586704  0.28836930  0.13418952  1
  O  O117  1  0.82609556  0.31639732  0.64385046  1
  O  O118  1  0.83669738  0.78614280  0.13339380  1
  O  O119  1  0.82611918  0.80749315  0.63959365  1
  O  O120  1  0.18077658  0.18905935  0.35693669  1
  O  O121  1  0.19410606  0.20533428  0.87154270  1
  O  O122  1  0.18130124  0.69303118  0.35619636  1
  O  O123  1  0.19609138  0.70960036  0.87012149  1
  O  O124  1  0.68071543  0.18324210  0.35663915  1
  O  O125  1  0.69166973  0.20877961  0.86803173  1
  O  O126  1  0.68113700  0.68514055  0.35640484  1
  O  O127  1  0.69719367  0.70513942  0.86847859  1
  O  O128  1  0.42655048  0.06203682  0.23866024  1
  O  O129  1  0.43919658  0.06520557  0.75316992  1
  O  O130  1  0.42731612  0.56500487  0.23722637  1
  O  O131  1  0.44253391  0.56971770  0.75328274  1
  O  O132  1  0.92784835  0.06458304  0.23700889  1
  O  O133  1  0.94025791  0.06762188  0.75303635  1
  O  O134  1  0.92882195  0.56471238  0.23758541  1
  O  O135  1  0.93873381  0.57927890  0.76296961  1
  O  O136  1  0.17764436  0.42645831  0.23817897  1
  O  O137  1  0.19268268  0.44173513  0.75433973  1
  O  O138  1  0.17667638  0.92006485  0.24695791  1
  O  O139  1  0.18691198  0.92917083  0.76182247  1
  O  O140  1  0.67797733  0.42333877  0.23742859  1
  O  O141  1  0.68753821  0.42870530  0.76169805  1
  O  O142  1  0.68004715  0.92325276  0.23742428  1
  O  O143  1  0.69462972  0.93989153  0.75423229  1
