# generated using pymatgen
data_SnPS3
_symmetry_space_group_name_H-M   'P 1'
_cell_length_a   6.74872744
_cell_length_b   6.74872745
_cell_length_c   7.85639487
_cell_angle_alpha   64.56382680
_cell_angle_beta   64.56382683
_cell_angle_gamma   59.99998829
_symmetry_Int_Tables_number   1
_chemical_formula_structural   SnPS3
_chemical_formula_sum   'Sn2 P2 S6'
_cell_volume   269.08717450
_cell_formula_units_Z   2
loop_
 _symmetry_equiv_pos_site_id
 _symmetry_equiv_pos_as_xyz
  1  'x, y, z'
loop_
 _atom_site_type_symbol
 _atom_site_label
 _atom_site_symmetry_multiplicity
 _atom_site_fract_x
 _atom_site_fract_y
 _atom_site_fract_z
 _atom_site_occupancy
  Sn  Sn0  1  0.16777066  0.16777066  0.49668802  1
  Sn  Sn1  1  0.83222934  0.83222934  0.50331198  1
  P  P2  1  0.44487141  0.44487141  0.66538577  1
  P  P3  1  0.55512859  0.55512859  0.33461423  1
  S  S4  1  0.70961383  0.13051231  0.75402643  1
  S  S5  1  0.13051231  0.40584743  0.75402643  1
  S  S6  1  0.40584743  0.70961383  0.75402643  1
  S  S7  1  0.29038617  0.86948769  0.24597357  1
  S  S8  1  0.86948769  0.59415257  0.24597357  1
  S  S9  1  0.59415257  0.29038617  0.24597357  1
