# generated using pymatgen
data_PrGe2
_symmetry_space_group_name_H-M   'P 1'
_cell_length_a   4.26723314
_cell_length_b   4.14424667
_cell_length_c   8.58077995
_cell_angle_alpha   103.97415582
_cell_angle_beta   104.39767573
_cell_angle_gamma   90.00000000
_symmetry_Int_Tables_number   1
_chemical_formula_structural   PrGe2
_chemical_formula_sum   'Pr2 Ge4'
_cell_volume   142.33938696
_cell_formula_units_Z   2
loop_
 _symmetry_equiv_pos_site_id
 _symmetry_equiv_pos_as_xyz
  1  'x, y, z'
loop_
 _atom_site_type_symbol
 _atom_site_label
 _atom_site_symmetry_multiplicity
 _atom_site_fract_x
 _atom_site_fract_y
 _atom_site_fract_z
 _atom_site_occupancy
  Pr  Pr0  1  0.62283452  0.37283452  0.24566903  1
  Pr  Pr1  1  0.37716548  0.62716548  0.75433097  1
  Ge  Ge2  1  0.04726476  0.79726476  0.09452952  1
  Ge  Ge3  1  0.95273524  0.20273524  0.90547048  1
  Ge  Ge4  1  0.20815122  0.95815122  0.41630243  1
  Ge  Ge5  1  0.79184878  0.04184878  0.58369757  1
