# generated using pymatgen
data_MgMn4O8
_symmetry_space_group_name_H-M   'P 1'
_cell_length_a   6.08580684
_cell_length_b   6.09148362
_cell_length_c   8.16351468
_cell_angle_alpha   88.89376877
_cell_angle_beta   89.95007274
_cell_angle_gamma   89.82112946
_symmetry_Int_Tables_number   1
_chemical_formula_structural   MgMn4O8
_chemical_formula_sum   'Mg2 Mn8 O16'
_cell_volume   302.57651160
_cell_formula_units_Z   2
loop_
 _symmetry_equiv_pos_site_id
 _symmetry_equiv_pos_as_xyz
  1  'x, y, z'
loop_
 _atom_site_type_symbol
 _atom_site_label
 _atom_site_symmetry_multiplicity
 _atom_site_fract_x
 _atom_site_fract_y
 _atom_site_fract_z
 _atom_site_occupancy
  Mg  Mg0  1  0.99893816  0.74594235  0.12526835  1
  Mg  Mg1  1  0.50040270  0.24623807  0.62518747  1
  Mn  Mn2  1  0.24481648  0.74836424  0.74974657  1
  Mn  Mn3  1  0.74870451  0.24976248  0.24506106  1
  Mn  Mn4  1  0.75124736  0.74953760  0.74502743  1
  Mn  Mn5  1  0.25519217  0.24804948  0.24981473  1
  Mn  Mn6  1  0.98810894  0.50183280  0.50200492  1
  Mn  Mn7  1  0.51182224  0.00220041  0.00189576  1
  Mn  Mn8  1  0.99320669  0.99520043  0.50331589  1
  Mn  Mn9  1  0.50689578  0.49563435  0.00355437  1
  O  O10  1  0.97165595  0.52975798  0.73278212  1
  O  O11  1  0.52850493  0.03069727  0.23294687  1
  O  O12  1  0.98061532  0.96453969  0.73738316  1
  O  O13  1  0.51911296  0.46554443  0.23729965  1
  O  O14  1  0.20779715  0.76675298  0.51579898  1
  O  O15  1  0.72884705  0.27593854  0.01410638  1
  O  O16  1  0.77259844  0.77476520  0.51383305  1
  O  O17  1  0.29377953  0.26618801  0.01571684  1
  O  O18  1  0.99138321  0.02521045  0.25867506  1
  O  O19  1  0.50867592  0.52588629  0.75857397  1
  O  O20  1  0.98674030  0.47510841  0.26429924  1
  O  O21  1  0.51321529  0.97574772  0.76426464  1
  O  O22  1  0.22208315  0.23358238  0.49013453  1
  O  O23  1  0.72712708  0.73756081  0.98670270  1
  O  O24  1  0.77174863  0.23670780  0.48653906  1
  O  O25  1  0.27678007  0.73328385  0.99008620  1
