# generated using pymatgen
data_CuCO3
_symmetry_space_group_name_H-M   'P 1'
_cell_length_a   13.84116753
_cell_length_b   13.83440867
_cell_length_c   3.38051228
_cell_angle_alpha   88.79106770
_cell_angle_beta   91.18274888
_cell_angle_gamma   119.80575408
_symmetry_Int_Tables_number   1
_chemical_formula_structural   CuCO3
_chemical_formula_sum   'Cu9 C9 O27'
_cell_volume   561.52201059
_cell_formula_units_Z   9
loop_
 _symmetry_equiv_pos_site_id
 _symmetry_equiv_pos_as_xyz
  1  'x, y, z'
loop_
 _atom_site_type_symbol
 _atom_site_label
 _atom_site_symmetry_multiplicity
 _atom_site_fract_x
 _atom_site_fract_y
 _atom_site_fract_z
 _atom_site_occupancy
  Cu  Cu0  1  0.24125874  0.78215492  0.07449254  1
  Cu  Cu1  1  0.21286193  0.45639722  0.00171422  1
  Cu  Cu2  1  0.21347746  0.09395556  0.02119008  1
  Cu  Cu3  1  0.54220956  0.75936417  0.94114065  1
  Cu  Cu4  1  0.57345402  0.46161855  0.93712744  1
  Cu  Cu5  1  0.53897357  0.11309777  0.08045756  1
  Cu  Cu6  1  0.88083961  0.78786981  0.95204575  1
  Cu  Cu7  1  0.88779368  0.42544000  0.95003849  1
  Cu  Cu8  1  0.90594519  0.11797759  0.03304178  1
  C  C9  1  0.00393057  0.66870171  0.00303336  1
  C  C10  1  0.33345394  0.66706168  0.00060352  1
  C  C11  1  0.66443247  0.99568112  0.00630170  1
  C  C12  1  0.33016907  0.33549113  0.99103579  1
  C  C13  1  0.32734597  0.99761275  0.52225724  1
  C  C14  1  0.67016527  0.67263215  0.47526984  1
  C  C15  1  0.66585808  0.33297874  0.99858902  1
  C  C16  1  0.99972675  -0.00013056  0.00384486  1
  C  C17  1  0.00075915  0.32876588  0.50723123  1
  O  O18  1  0.02676697  0.92298938  0.01413269  1
  O  O19  1  0.09566162  0.76052974  0.06551898  1
  O  O20  1  0.00487989  0.57572881  0.98937937  1
  O  O21  1  0.29916992  0.89357649  0.54735691  1
  O  O22  1  0.10455181  0.40561155  0.51760236  1
  O  O23  1  0.22642589  0.60527367  0.02130657  1
  O  O24  1  0.37873934  0.77319129  0.05701151  1
  O  O25  1  0.07548249  0.10351063  0.01794570  1
  O  O26  1  0.57080209  0.99470715  0.02805612  1
  O  O27  1  0.23770545  0.33487664  0.03697693  1
  O  O28  1  0.39463309  0.62385381  0.92430603  1
  O  O29  1  0.42306423  0.42934127  0.97068429  1
  O  O30  1  0.66502972  0.90482458  0.93370203  1
  O  O31  1  0.33132045  0.24331817  0.96706609  1
  O  O32  1  0.25293775  0.02959114  0.52146987  1
  O  O33  1  0.59448839  0.70116652  0.44859433  1
  O  O34  1  0.43277255  0.07384615  0.50605060  1
  O  O35  1  0.64032873  0.56650231  0.48878139  1
  O  O36  1  0.77571573  0.74684626  0.48194613  1
  O  O37  1  0.89580432  0.97268452  0.97889639  1
  O  O38  1  0.56660512  0.31977221  0.01975378  1
  O  O39  1  0.75137771  0.43211424  0.99326232  1
  O  O40  1  0.67870627  0.24693223  0.98178327  1
  O  O41  1  0.91105680  0.66800736  0.95459079  1
  O  O42  1  0.75646810  0.08788997  0.05588324  1
  O  O43  1  0.92395047  0.35845592  0.50087729  1
  O  O44  1  0.97052705  0.22370679  0.49961194  1
