# generated using pymatgen
data_Sr5Mg
_symmetry_space_group_name_H-M   'P 1'
_cell_length_a   15.00224015
_cell_length_b   4.40679159
_cell_length_c   9.21879531
_cell_angle_alpha   90.00000000
_cell_angle_beta   105.91232587
_cell_angle_gamma   90.00000000
_symmetry_Int_Tables_number   1
_chemical_formula_structural   Sr5Mg
_chemical_formula_sum   'Sr10 Mg2'
_cell_volume   586.11716919
_cell_formula_units_Z   2
loop_
 _symmetry_equiv_pos_site_id
 _symmetry_equiv_pos_as_xyz
  1  'x, y, z'
loop_
 _atom_site_type_symbol
 _atom_site_label
 _atom_site_symmetry_multiplicity
 _atom_site_fract_x
 _atom_site_fract_y
 _atom_site_fract_z
 _atom_site_occupancy
  Sr  Sr0  1  0.99597989  0.00000000  0.06330099  1
  Sr  Sr1  1  0.20784107  0.50000000  0.35371387  1
  Sr  Sr2  1  0.03337413  0.00000000  0.54020099  1
  Sr  Sr3  1  0.35355320  -0.00000000  0.69849588  1
  Sr  Sr4  1  0.20508047  0.50000000  0.92690726  1
  Sr  Sr5  1  0.49597989  0.50000000  0.06330099  1
  Sr  Sr6  1  0.70784107  0.00000000  0.35371387  1
  Sr  Sr7  1  0.53337413  0.50000000  0.54020099  1
  Sr  Sr8  1  0.85355320  0.50000000  0.69849588  1
  Sr  Sr9  1  0.70508047  0.00000000  0.92690726  1
  Mg  Mg10  1  0.37083825  -0.00000000  0.25071401  1
  Mg  Mg11  1  0.87083825  0.50000000  0.25071401  1
