# generated using pymatgen
data_LiNi(CO3)2
_symmetry_space_group_name_H-M   'P 1'
_cell_length_a   7.28158466
_cell_length_b   9.24000538
_cell_length_c   8.13438030
_cell_angle_alpha   90.00000000
_cell_angle_beta   70.78645097
_cell_angle_gamma   90.00000000
_symmetry_Int_Tables_number   1
_chemical_formula_structural   LiNi(CO3)2
_chemical_formula_sum   'Li4 Ni4 C8 O24'
_cell_volume   516.81122119
_cell_formula_units_Z   4
loop_
 _symmetry_equiv_pos_site_id
 _symmetry_equiv_pos_as_xyz
  1  'x, y, z'
loop_
 _atom_site_type_symbol
 _atom_site_label
 _atom_site_symmetry_multiplicity
 _atom_site_fract_x
 _atom_site_fract_y
 _atom_site_fract_z
 _atom_site_occupancy
  Li  Li0  1  0.99897349  0.88451852  0.34544344  1
  Li  Li1  1  0.50102651  0.38451852  0.15455656  1
  Li  Li2  1  0.49897349  0.61548148  0.84544344  1
  Li  Li3  1  0.00102651  0.11548148  0.65455656  1
  Ni  Ni4  1  0.04974549  0.38766997  0.44709740  1
  Ni  Ni5  1  0.45025451  0.88766997  0.05290360  1
  Ni  Ni6  1  0.54974549  0.11233003  0.94709640  1
  Ni  Ni7  1  0.95025451  0.61233003  0.55290360  1
  C  C8  1  0.24015341  0.61224397  0.23336211  1
  C  C9  1  0.25984659  0.11224397  0.26663789  1
  C  C10  1  0.25608744  0.50039812  0.64539659  1
  C  C11  1  0.24391256  0.00039812  0.85460341  1
  C  C12  1  0.75608744  0.99960188  0.14539659  1
  C  C13  1  0.74391256  0.49960188  0.35460341  1
  C  C14  1  0.74015341  0.88775603  0.73336211  1
  C  C15  1  0.75984659  0.38775603  0.76663789  1
  O  O16  1  0.12941278  0.16751406  0.39637813  1
  O  O17  1  0.22739162  0.47195193  0.24535201  1
  O  O18  1  0.12277051  0.69407947  0.35061885  1
  O  O19  1  0.37722949  0.19407947  0.14938115  1
  O  O20  1  0.27260838  0.97195193  0.25464799  1
  O  O21  1  0.37058722  0.66751406  0.10362187  1
  O  O22  1  0.12102730  0.00001499  0.77784653  1
  O  O23  1  0.14596164  0.61436774  0.65511215  1
  O  O24  1  0.23977316  0.38587862  0.55606727  1
  O  O25  1  0.26022684  0.88587862  0.94393273  1
  O  O26  1  0.35403836  0.11436774  0.84488785  1
  O  O27  1  0.62102730  0.49998501  0.27784653  1
  O  O28  1  0.37897270  0.50001499  0.72215347  1
  O  O29  1  0.64596164  0.88563226  0.15511215  1
  O  O30  1  0.73977316  0.11412138  0.05606727  1
  O  O31  1  0.76022684  0.61412138  0.44393273  1
  O  O32  1  0.85403836  0.38563226  0.34488785  1
  O  O33  1  0.87897270  -0.00001499  0.22215347  1
  O  O34  1  0.62941278  0.33248594  0.89637813  1
  O  O35  1  0.72739162  0.02804807  0.74535201  1
  O  O36  1  0.62277051  0.80592053  0.85061885  1
  O  O37  1  0.87722949  0.30592053  0.64938115  1
  O  O38  1  0.77260838  0.52804807  0.75464799  1
  O  O39  1  0.87058722  0.83248594  0.60362187  1
