# generated using pymatgen
data_Mg2Zn
_symmetry_space_group_name_H-M   'P 1'
_cell_length_a   3.11747744
_cell_length_b   15.46816690
_cell_length_c   4.89546648
_cell_angle_alpha   90.00000000
_cell_angle_beta   90.00000000
_cell_angle_gamma   90.00000000
_symmetry_Int_Tables_number   1
_chemical_formula_structural   Mg2Zn
_chemical_formula_sum   'Mg8 Zn4'
_cell_volume   236.06752674
_cell_formula_units_Z   4
loop_
 _symmetry_equiv_pos_site_id
 _symmetry_equiv_pos_as_xyz
  1  'x, y, z'
loop_
 _atom_site_type_symbol
 _atom_site_label
 _atom_site_symmetry_multiplicity
 _atom_site_fract_x
 _atom_site_fract_y
 _atom_site_fract_z
 _atom_site_occupancy
  Mg  Mg0  1  -0.00000000  0.55490554  0.25000000  1
  Mg  Mg1  1  0.50000000  0.72484605  0.25000000  1
  Mg  Mg2  1  -0.00000000  0.77515395  0.75000000  1
  Mg  Mg3  1  0.50000000  0.94509446  0.75000000  1
  Mg  Mg4  1  0.50000000  0.05490554  0.25000000  1
  Mg  Mg5  1  -0.00000000  0.22484605  0.25000000  1
  Mg  Mg6  1  0.50000000  0.27515395  0.75000000  1
  Mg  Mg7  1  -0.00000000  0.44509446  0.75000000  1
  Zn  Zn8  1  -0.00000000  0.88819010  0.25000000  1
  Zn  Zn9  1  0.50000000  0.61180990  0.75000000  1
  Zn  Zn10  1  0.50000000  0.38819010  0.25000000  1
  Zn  Zn11  1  0.00000000  0.11180990  0.75000000  1
