# generated using pymatgen
data_MgSn5
_symmetry_space_group_name_H-M   'P 1'
_cell_length_a   5.93533520
_cell_length_b   5.93533601
_cell_length_c   15.81360717
_cell_angle_alpha   90.00000000
_cell_angle_beta   90.00000000
_cell_angle_gamma   120.00000393
_symmetry_Int_Tables_number   1
_chemical_formula_structural   MgSn5
_chemical_formula_sum   'Mg3 Sn15'
_cell_volume   482.44978995
_cell_formula_units_Z   3
loop_
 _symmetry_equiv_pos_site_id
 _symmetry_equiv_pos_as_xyz
  1  'x, y, z'
loop_
 _atom_site_type_symbol
 _atom_site_label
 _atom_site_symmetry_multiplicity
 _atom_site_fract_x
 _atom_site_fract_y
 _atom_site_fract_z
 _atom_site_occupancy
  Mg  Mg0  1  0.33333300  0.66666700  0.16666700  1
  Mg  Mg1  1  0.00000000  0.00000000  0.50000000  1
  Mg  Mg2  1  0.66666700  0.33333300  0.83333300  1
  Sn  Sn3  1  0.66354405  0.66354405  0.00000000  1
  Sn  Sn4  1  0.00000000  0.00000000  0.16547054  1
  Sn  Sn5  1  0.00000000  0.33645595  0.00000000  1
  Sn  Sn6  1  0.33645595  1.00000000  -0.00000000  1
  Sn  Sn7  1  0.66666700  0.33333300  0.16786346  1
  Sn  Sn8  1  0.33021005  0.99687705  0.33333300  1
  Sn  Sn9  1  0.66666700  0.33333300  0.49880354  1
  Sn  Sn10  1  0.66666700  0.66978995  0.33333300  1
  Sn  Sn11  1  0.00312295  0.33333300  0.33333300  1
  Sn  Sn12  1  0.33333300  0.66666700  0.50119646  1
  Sn  Sn13  1  0.99687705  0.33021005  0.66666700  1
  Sn  Sn14  1  0.33333300  0.66666700  0.83213654  1
  Sn  Sn15  1  0.33333300  0.00312295  0.66666700  1
  Sn  Sn16  1  0.66978995  0.66666700  0.66666700  1
  Sn  Sn17  1  0.00000000  0.00000000  0.83452946  1
