# generated using pymatgen
data_SrCa3Mn4O12
_symmetry_space_group_name_H-M   'P 1'
_cell_length_a   5.41459147
_cell_length_b   5.38807252
_cell_length_c   7.62199414
_cell_angle_alpha   90.00000000
_cell_angle_beta   90.00000000
_cell_angle_gamma   90.16888333
_symmetry_Int_Tables_number   1
_chemical_formula_structural   SrCa3Mn4O12
_chemical_formula_sum   'Sr1 Ca3 Mn4 O12'
_cell_volume   222.36470329
_cell_formula_units_Z   1
loop_
 _symmetry_equiv_pos_site_id
 _symmetry_equiv_pos_as_xyz
  1  'x, y, z'
loop_
 _atom_site_type_symbol
 _atom_site_label
 _atom_site_symmetry_multiplicity
 _atom_site_fract_x
 _atom_site_fract_y
 _atom_site_fract_z
 _atom_site_occupancy
  Sr  Sr0  1  0.52800019  0.50605124  0.25000000  1
  Ca  Ca1  1  0.96334755  0.00670587  0.75000000  1
  Ca  Ca2  1  0.46063603  0.49242532  0.75000000  1
  Ca  Ca3  1  0.03840587  0.99198556  0.25000000  1
  Mn  Mn4  1  0.99860445  0.50065189  0.99786325  1
  Mn  Mn5  1  0.49964544  0.99931533  0.99761054  1
  Mn  Mn6  1  0.49964544  0.99931533  0.50238946  1
  Mn  Mn7  1  0.99860445  0.50065189  0.50213675  1
  O  O8  1  0.71222805  0.28970730  0.95943350  1
  O  O9  1  0.79172053  0.79326214  0.03406119  1
  O  O10  1  0.21300382  0.21216803  0.53857886  1
  O  O11  1  0.28198493  0.71682411  0.47158531  1
  O  O12  1  0.28198493  0.71682411  0.02841469  1
  O  O13  1  0.21300382  0.21216803  0.96142114  1
  O  O14  1  0.79172053  0.79326214  0.46593881  1
  O  O15  1  0.71222805  0.28970730  0.54056650  1
  O  O16  1  0.52356361  0.92446294  0.75000000  1
  O  O17  1  0.99318172  0.42629621  0.25000000  1
  O  O18  1  0.02088263  0.57416829  0.75000000  1
  O  O19  1  0.47760794  0.05404698  0.25000000  1
