# generated using pymatgen
data_MgZn
_symmetry_space_group_name_H-M   'P 1'
_cell_length_a   10.37212265
_cell_length_b   3.07503698
_cell_length_c   4.96999043
_cell_angle_alpha   90.00000000
_cell_angle_beta   111.29502714
_cell_angle_gamma   90.00000000
_symmetry_Int_Tables_number   1
_chemical_formula_structural   MgZn
_chemical_formula_sum   'Mg4 Zn4'
_cell_volume   147.69311118
_cell_formula_units_Z   4
loop_
 _symmetry_equiv_pos_site_id
 _symmetry_equiv_pos_as_xyz
  1  'x, y, z'
loop_
 _atom_site_type_symbol
 _atom_site_label
 _atom_site_symmetry_multiplicity
 _atom_site_fract_x
 _atom_site_fract_y
 _atom_site_fract_z
 _atom_site_occupancy
  Mg  Mg0  1  0.61091641  0.50000000  0.81215057  1
  Mg  Mg1  1  0.88908359  -0.00000000  0.18784943  1
  Mg  Mg2  1  0.11091641  -0.00000000  0.81215057  1
  Mg  Mg3  1  0.38908359  0.50000000  0.18784943  1
  Zn  Zn4  1  0.85706672  0.50000000  0.67215611  1
  Zn  Zn5  1  0.64293328  0.00000000  0.32784389  1
  Zn  Zn6  1  0.35706672  -0.00000000  0.67215611  1
  Zn  Zn7  1  0.14293328  0.50000000  0.32784389  1
