# generated using pymatgen
data_SnH6CI3N
_symmetry_space_group_name_H-M   'P 1'
_cell_length_a   8.50530629
_cell_length_b   13.15567996
_cell_length_c   9.14933139
_cell_angle_alpha   90.00000000
_cell_angle_beta   90.00000000
_cell_angle_gamma   90.00000000
_symmetry_Int_Tables_number   1
_chemical_formula_structural   SnH6CI3N
_chemical_formula_sum   'Sn4 H24 C4 I12 N4'
_cell_volume   1023.74693791
_cell_formula_units_Z   4
loop_
 _symmetry_equiv_pos_site_id
 _symmetry_equiv_pos_as_xyz
  1  'x, y, z'
loop_
 _atom_site_type_symbol
 _atom_site_label
 _atom_site_symmetry_multiplicity
 _atom_site_fract_x
 _atom_site_fract_y
 _atom_site_fract_z
 _atom_site_occupancy
  Sn  Sn0  1  0.50000000  -0.00000000  0.50000000  1
  Sn  Sn1  1  -0.00000000  0.00000000  0.00000000  1
  Sn  Sn2  1  0.50000000  0.50000000  0.50000000  1
  Sn  Sn3  1  -0.00000000  0.50000000  0.00000000  1
  H  H4  1  0.49548659  0.31416108  0.14236160  1
  H  H5  1  0.50451341  0.68583892  0.85763840  1
  H  H6  1  0.00451341  0.68583892  0.64236160  1
  H  H7  1  0.99548659  0.31416108  0.35763840  1
  H  H8  1  0.50451341  0.81416108  0.85763840  1
  H  H9  1  0.49548659  0.18583892  0.14236160  1
  H  H10  1  0.99548659  0.18583892  0.35763840  1
  H  H11  1  0.00451341  0.81416108  0.64236160  1
  H  H12  1  0.33742477  0.25000000  0.07648192  1
  H  H13  1  0.66257523  0.75000000  0.92351808  1
  H  H14  1  0.16257523  0.75000000  0.57648192  1
  H  H15  1  0.83742477  0.25000000  0.42351808  1
  H  H16  1  0.49344885  0.31869213  0.88068920  1
  H  H17  1  0.50655115  0.68130787  0.11931080  1
  H  H18  1  0.00655115  0.68130787  0.38068920  1
  H  H19  1  0.99344885  0.31869213  0.61931180  1
  H  H20  1  0.50655115  0.81869213  0.11931080  1
  H  H21  1  0.49344885  0.18130787  0.88068920  1
  H  H22  1  0.99344885  0.18130787  0.61931180  1
  H  H23  1  0.00655115  0.81869213  0.38068920  1
  H  H24  1  0.65997861  0.25000000  0.95138177  1
  H  H25  1  0.34002139  0.75000000  0.04861823  1
  H  H26  1  0.84002139  0.75000000  0.45138177  1
  H  H27  1  0.15997861  0.25000000  0.54861823  1
  C  C28  1  0.53206150  0.25000000  0.93750450  1
  C  C29  1  0.46793850  0.75000000  0.06249550  1
  C  C30  1  0.96793850  0.75000000  0.43750450  1
  C  C31  1  0.03206150  0.25000000  0.56249550  1
  I  I32  1  0.54166354  0.25000000  0.51125738  1
  I  I33  1  0.45833646  0.75000000  0.48874262  1
  I  I34  1  0.95833646  0.75000000  0.01125738  1
  I  I35  1  0.04166354  0.25000000  0.98874262  1
  I  I36  1  0.81403765  0.97805418  0.69466619  1
  I  I37  1  0.18596235  0.02194582  0.30533381  1
  I  I38  1  0.68596235  0.02194582  0.19466619  1
  I  I39  1  0.31403765  0.97805418  0.80533381  1
  I  I40  1  0.18596235  0.47805418  0.30533381  1
  I  I41  1  0.81403765  0.52194582  0.69466619  1
  I  I42  1  0.31403765  0.52194582  0.80533381  1
  I  I43  1  0.68596235  0.47805418  0.19466619  1
  N  N44  1  0.45985097  0.25000000  0.08553136  1
  N  N45  1  0.54014903  0.75000000  0.91446864  1
  N  N46  1  0.04014903  0.75000000  0.58553136  1
  N  N47  1  0.95985097  0.25000000  0.41446864  1
