# generated using pymatgen
data_CuPbO2
_symmetry_space_group_name_H-M   'P 1'
_cell_length_a   4.88543839
_cell_length_b   5.41174581
_cell_length_c   5.68865634
_cell_angle_alpha   61.60081227
_cell_angle_beta   64.57033631
_cell_angle_gamma   89.99996563
_symmetry_Int_Tables_number   1
_chemical_formula_structural   CuPbO2
_chemical_formula_sum   'Cu2 Pb2 O4'
_cell_volume   115.46710303
_cell_formula_units_Z   2
loop_
 _symmetry_equiv_pos_site_id
 _symmetry_equiv_pos_as_xyz
  1  'x, y, z'
loop_
 _atom_site_type_symbol
 _atom_site_label
 _atom_site_symmetry_multiplicity
 _atom_site_fract_x
 _atom_site_fract_y
 _atom_site_fract_z
 _atom_site_occupancy
  Cu  Cu0  1  0.00000000  -0.00000000  -0.00000000  1
  Cu  Cu1  1  0.50000000  0.50000000  -0.00000000  1
  Pb  Pb2  1  0.76179712  0.25000000  0.50000000  1
  Pb  Pb3  1  0.23820288  0.75000000  0.50000000  1
  O  O4  1  0.66620407  0.16621081  0.16762126  1
  O  O5  1  0.33379593  0.83378919  0.83237874  1
  O  O6  1  0.66617466  0.66621081  0.16762126  1
  O  O7  1  0.33382534  0.33378919  0.83237874  1
