# generated using pymatgen
data_Li3Ni2(CO3)4
_symmetry_space_group_name_H-M   'P 1'
_cell_length_a   6.88485478
_cell_length_b   9.47496392
_cell_length_c   8.37218844
_cell_angle_alpha   90.00000000
_cell_angle_beta   70.06498334
_cell_angle_gamma   90.00000000
_symmetry_Int_Tables_number   1
_chemical_formula_structural   Li3Ni2(CO3)4
_chemical_formula_sum   'Li6 Ni4 C8 O24'
_cell_volume   513.42394962
_cell_formula_units_Z   2
loop_
 _symmetry_equiv_pos_site_id
 _symmetry_equiv_pos_as_xyz
  1  'x, y, z'
loop_
 _atom_site_type_symbol
 _atom_site_label
 _atom_site_symmetry_multiplicity
 _atom_site_fract_x
 _atom_site_fract_y
 _atom_site_fract_z
 _atom_site_occupancy
  Li  Li0  1  0.05113018  0.19517338  0.08152550  1
  Li  Li1  1  0.00218365  0.88609964  0.34898970  1
  Li  Li2  1  0.49781635  0.38609964  0.15101030  1
  Li  Li3  1  0.44886982  0.69517338  0.41847450  1
  Li  Li4  1  0.50343615  0.61386518  0.84758715  1
  Li  Li5  1  0.99656385  0.11386518  0.65241285  1
  Ni  Ni6  1  0.04026793  0.38546171  0.45083259  1
  Ni  Ni7  1  0.45973207  0.88546171  0.04916741  1
  Ni  Ni8  1  0.53783634  0.11617029  0.94958661  1
  Ni  Ni9  1  0.96216366  0.61617029  0.55041339  1
  C  C10  1  0.24380069  0.60604373  0.22401725  1
  C  C11  1  0.25619931  0.10604373  0.27598275  1
  C  C12  1  0.26734250  0.49026617  0.64408125  1
  C  C13  1  0.23265750  0.99026617  0.85591875  1
  C  C14  1  0.77092345  0.00449898  0.13791200  1
  C  C15  1  0.72907655  0.50449898  0.36208800  1
  C  C16  1  0.74226202  0.89242157  0.72937454  1
  C  C17  1  0.75773798  0.39242157  0.77062546  1
  O  O18  1  0.12842050  0.15425965  0.41114341  1
  O  O19  1  0.21559614  0.47115514  0.24488151  1
  O  O20  1  0.14903363  0.69411929  0.34710791  1
  O  O21  1  0.35096637  0.19411929  0.15289209  1
  O  O22  1  0.28440386  0.97115514  0.25511849  1
  O  O23  1  0.37157950  0.65425965  0.08885659  1
  O  O24  1  0.11960653  0.98233271  0.76721106  1
  O  O25  1  0.19038681  0.61571013  0.62525006  1
  O  O26  1  0.23140319  0.38091845  0.56501160  1
  O  O27  1  0.26859681  0.88091845  0.93498840  1
  O  O28  1  0.30961319  0.11571013  0.87474994  1
  O  O29  1  0.59474047  0.51764150  0.29050133  1
  O  O30  1  0.38039347  0.48233271  0.73278894  1
  O  O31  1  0.66490247  0.88955816  0.15169653  1
  O  O32  1  0.74802923  0.11339082  0.04848314  1
  O  O33  1  0.75197077  0.61339082  0.45151686  1
  O  O34  1  0.83509753  0.38955816  0.34830347  1
  O  O35  1  0.90525953  0.01764150  0.20949867  1
  O  O36  1  0.63172368  0.34492813  0.90896802  1
  O  O37  1  0.71237739  0.02842343  0.74633521  1
  O  O38  1  0.64530208  0.80636896  0.85012625  1
  O  O39  1  0.85469792  0.30636896  0.64987375  1
  O  O40  1  0.78762261  0.52842343  0.75366479  1
  O  O41  1  0.86827632  0.84492813  0.59103198  1
