# generated using pymatgen
data_MgGa
_symmetry_space_group_name_H-M   'P 1'
_cell_length_a   10.62569467
_cell_length_b   3.20581869
_cell_length_c   7.40698771
_cell_angle_alpha   90.00000000
_cell_angle_beta   108.37683423
_cell_angle_gamma   90.00000000
_symmetry_Int_Tables_number   1
_chemical_formula_structural   MgGa
_chemical_formula_sum   'Mg6 Ga6'
_cell_volume   239.44498915
_cell_formula_units_Z   6
loop_
 _symmetry_equiv_pos_site_id
 _symmetry_equiv_pos_as_xyz
  1  'x, y, z'
loop_
 _atom_site_type_symbol
 _atom_site_label
 _atom_site_symmetry_multiplicity
 _atom_site_fract_x
 _atom_site_fract_y
 _atom_site_fract_z
 _atom_site_occupancy
  Mg  Mg0  1  0.97510479  0.00000000  0.98783005  1
  Mg  Mg1  1  0.12632108  0.50000000  0.73332877  1
  Mg  Mg2  1  0.17059690  0.50000000  0.33652851  1
  Mg  Mg3  1  0.47510479  0.50000000  0.98783005  1
  Mg  Mg4  1  0.62632108  0.00000000  0.73332877  1
  Mg  Mg5  1  0.67059690  0.00000000  0.33652851  1
  Ga  Ga6  1  0.34242302  -0.00000000  0.64685937  1
  Ga  Ga7  1  0.45078791  0.50000000  0.38250837  1
  Ga  Ga8  1  0.26809930  -0.00000000  0.07961195  1
  Ga  Ga9  1  0.84242302  0.50000000  0.64685937  1
  Ga  Ga10  1  0.95078791  -0.00000000  0.38250837  1
  Ga  Ga11  1  0.76809930  0.50000000  0.07961195  1
