# generated using pymatgen
data_MgGa
_symmetry_space_group_name_H-M   'P 1'
_cell_length_a   4.97769452
_cell_length_b   3.10014321
_cell_length_c   15.25479369
_cell_angle_alpha   90.00000000
_cell_angle_beta   90.00000000
_cell_angle_gamma   90.00000000
_symmetry_Int_Tables_number   1
_chemical_formula_structural   MgGa
_chemical_formula_sum   'Mg6 Ga6'
_cell_volume   235.40535362
_cell_formula_units_Z   6
loop_
 _symmetry_equiv_pos_site_id
 _symmetry_equiv_pos_as_xyz
  1  'x, y, z'
loop_
 _atom_site_type_symbol
 _atom_site_label
 _atom_site_symmetry_multiplicity
 _atom_site_fract_x
 _atom_site_fract_y
 _atom_site_fract_z
 _atom_site_occupancy
  Mg  Mg0  1  0.00000000  0.50000000  0.17215982  1
  Mg  Mg1  1  0.50000000  0.50000000  0.38233367  1
  Mg  Mg2  1  0.50000000  0.50000000  0.05601489  1
  Mg  Mg3  1  -0.00000000  -0.00000000  0.67215982  1
  Mg  Mg4  1  0.50000000  0.00000000  0.88233367  1
  Mg  Mg5  1  0.50000000  -0.00000000  0.55601489  1
  Ga  Ga6  1  -0.00000000  0.50000000  0.49938693  1
  Ga  Ga7  1  0.00000000  -0.00000000  0.33388271  1
  Ga  Ga8  1  0.50000000  0.00000000  0.22288898  1
  Ga  Ga9  1  -0.00000000  0.00000000  0.99938693  1
  Ga  Ga10  1  -0.00000000  0.50000000  0.83388271  1
  Ga  Ga11  1  0.50000000  0.50000000  0.72288898  1
