# generated using pymatgen
data_Ca2Mg
_symmetry_space_group_name_H-M   'P 1'
_cell_length_a   12.72113344
_cell_length_b   3.77758429
_cell_length_c   9.44650793
_cell_angle_alpha   90.00000000
_cell_angle_beta   112.00763967
_cell_angle_gamma   90.00000000
_symmetry_Int_Tables_number   1
_chemical_formula_structural   Ca2Mg
_chemical_formula_sum   'Ca8 Mg4'
_cell_volume   420.87557750
_cell_formula_units_Z   4
loop_
 _symmetry_equiv_pos_site_id
 _symmetry_equiv_pos_as_xyz
  1  'x, y, z'
loop_
 _atom_site_type_symbol
 _atom_site_label
 _atom_site_symmetry_multiplicity
 _atom_site_fract_x
 _atom_site_fract_y
 _atom_site_fract_z
 _atom_site_occupancy
  Ca  Ca0  1  0.33528419  0.50000000  0.89104463  1
  Ca  Ca1  1  0.51931561  -0.00000000  0.71067902  1
  Ca  Ca2  1  0.98068439  0.50000000  0.28932098  1
  Ca  Ca3  1  0.16471581  0.00000000  0.10895537  1
  Ca  Ca4  1  0.83528419  -0.00000000  0.89104463  1
  Ca  Ca5  1  0.01931561  0.50000000  0.71067902  1
  Ca  Ca6  1  0.48068439  -0.00000000  0.28932098  1
  Ca  Ca7  1  0.66471581  0.50000000  0.10895537  1
  Mg  Mg8  1  0.18534375  0.00000000  0.56699732  1
  Mg  Mg9  1  0.31465625  0.50000000  0.43300268  1
  Mg  Mg10  1  0.68534375  0.50000000  0.56699732  1
  Mg  Mg11  1  0.81465625  -0.00000000  0.43300268  1
