# generated using pymatgen
data_V2FeS4
_symmetry_space_group_name_H-M   'P 1'
_cell_length_a   12.82386580
_cell_length_b   11.22536217
_cell_length_c   6.26707242
_cell_angle_alpha   89.65822877
_cell_angle_beta   74.88321319
_cell_angle_gamma   31.18328376
_symmetry_Int_Tables_number   1
_chemical_formula_structural   V2FeS4
_chemical_formula_sum   'V8 Fe4 S16'
_cell_volume   406.18240012
_cell_formula_units_Z   4
loop_
 _symmetry_equiv_pos_site_id
 _symmetry_equiv_pos_as_xyz
  1  'x, y, z'
loop_
 _atom_site_type_symbol
 _atom_site_label
 _atom_site_symmetry_multiplicity
 _atom_site_fract_x
 _atom_site_fract_y
 _atom_site_fract_z
 _atom_site_occupancy
  V  V0  1  0.00016781  0.99787462  0.99684050  1
  V  V1  1  0.20241681  0.31390447  0.52133963  1
  V  V2  1  0.04756267  0.68382819  0.48057172  1
  V  V3  1  0.44496276  0.31029295  0.51707373  1
  V  V4  1  0.70494313  0.31604781  0.51758549  1
  V  V5  1  0.55092494  0.69023624  0.48303208  1
  V  V6  1  0.94627208  0.31607190  0.52150942  1
  V  V7  1  0.79930008  0.68762279  0.47847037  1
  Fe  Fe8  1  0.24153930  0.00015808  0.00221630  1
  Fe  Fe9  1  0.49959018  0.99888026  0.99706293  1
  Fe  Fe10  1  0.75983181  0.00155500  -0.00003496  1
  Fe  Fe11  1  0.30474488  0.68043300  0.47803287  1
  S  S12  1  0.14426847  0.02239696  0.71960991  1
  S  S13  1  0.14832334  0.43369062  0.20588407  1
  S  S14  1  0.38969038  0.02527159  0.73268790  1
  S  S15  1  0.10095196  0.56586511  0.79594890  1
  S  S16  1  0.39513842  0.44024971  0.21318912  1
  S  S17  1  0.64034856  0.02304831  0.73654245  1
  S  S18  1  0.10894176  0.97451104  0.28392607  1
  S  S19  1  0.36441981  0.54993770  0.77780752  1
  S  S20  1  0.63517839  0.45016695  0.21866581  1
  S  S21  1  0.89911886  0.01545760  0.71361890  1
  S  S22  1  0.35713544  0.98026658  0.26930338  1
  S  S23  1  0.59921211  0.56842465  0.79538282  1
  S  S24  1  0.89611934  0.43716964  0.20791467  1
  S  S25  1  0.61226376  0.97356993  0.26461912  1
  S  S26  1  0.85379325  0.56331684  0.78918983  1
  S  S27  1  0.85283970  0.97975146  0.28200947  1
