# generated using pymatgen
data_CrPSe3
_symmetry_space_group_name_H-M   'P 1'
_cell_length_a   6.34682267
_cell_length_b   6.34682267
_cell_length_c   7.01182267
_cell_angle_alpha   98.65976721
_cell_angle_beta   98.65976721
_cell_angle_gamma   119.91643261
_symmetry_Int_Tables_number   1
_chemical_formula_structural   CrPSe3
_chemical_formula_sum   'Cr2 P2 Se6'
_cell_volume   233.48125976
_cell_formula_units_Z   2
loop_
 _symmetry_equiv_pos_site_id
 _symmetry_equiv_pos_as_xyz
  1  'x, y, z'
loop_
 _atom_site_type_symbol
 _atom_site_label
 _atom_site_symmetry_multiplicity
 _atom_site_fract_x
 _atom_site_fract_y
 _atom_site_fract_z
 _atom_site_occupancy
  Cr  Cr0  1  0.66729552  0.33270448  -0.00000000  1
  Cr  Cr1  1  0.33270448  0.66729552  -0.00000000  1
  P  P2  1  0.05667092  0.05667092  0.16830007  1
  P  P3  1  0.94332908  0.94332908  0.83169993  1
  Se  Se4  1  0.71163154  0.71163154  0.22941526  1
  Se  Se5  1  0.28836846  0.28836846  0.77058474  1
  Se  Se6  1  0.07620505  0.44033259  0.22877156  1
  Se  Se7  1  0.44033259  0.07620505  0.22877156  1
  Se  Se8  1  0.92379495  0.55966741  0.77122844  1
  Se  Se9  1  0.55966741  0.92379495  0.77122844  1
