# generated using pymatgen
data_Cs2Sn11
_symmetry_space_group_name_H-M   'P 1'
_cell_length_a   12.44045463
_cell_length_b   12.47847857
_cell_length_c   12.47847857
_cell_angle_alpha   90.44666342
_cell_angle_beta   90.00000000
_cell_angle_gamma   90.00000000
_symmetry_Int_Tables_number   1
_chemical_formula_structural   Cs2Sn11
_chemical_formula_sum   'Cs8 Sn44'
_cell_volume   1937.07452414
_cell_formula_units_Z   4
loop_
 _symmetry_equiv_pos_site_id
 _symmetry_equiv_pos_as_xyz
  1  'x, y, z'
loop_
 _atom_site_type_symbol
 _atom_site_label
 _atom_site_symmetry_multiplicity
 _atom_site_fract_x
 _atom_site_fract_y
 _atom_site_fract_z
 _atom_site_occupancy
  Cs  Cs0  1  0.00000000  0.25428576  0.49936986  1
  Cs  Cs1  1  0.00000000  0.74542416  0.49578366  1
  Cs  Cs2  1  0.50000000  0.99936986  0.75428576  1
  Cs  Cs3  1  0.50000000  0.99578366  0.24542416  1
  Cs  Cs4  1  0.75000000  0.50310574  0.00310574  1
  Cs  Cs5  1  0.25000000  0.50310574  0.00310574  1
  Cs  Cs6  1  0.50000000  0.50248202  0.49705546  1
  Cs  Cs7  1  0.00000000  0.99705546  0.00248202  1
  Sn  Sn8  1  0.50000000  0.38548008  0.19742781  1
  Sn  Sn9  1  0.50000000  0.63494623  0.83404837  1
  Sn  Sn10  1  0.38075373  0.19386473  0.49848636  1
  Sn  Sn11  1  0.61924627  0.19386473  0.49848636  1
  Sn  Sn12  1  0.16855666  0.50024063  0.37093650  1
  Sn  Sn13  1  0.83144334  0.50024063  0.37093650  1
  Sn  Sn14  1  0.00000000  0.66907992  0.12559957  1
  Sn  Sn15  1  0.00000000  0.30658595  0.88984557  1
  Sn  Sn16  1  0.17765179  0.18864137  0.18247276  1
  Sn  Sn17  1  0.68285459  0.31700350  0.68512000  1
  Sn  Sn18  1  0.68323901  0.67339236  0.31163341  1
  Sn  Sn19  1  0.32234821  0.68247276  0.68864137  1
  Sn  Sn20  1  0.81676099  0.81163341  0.17339236  1
  Sn  Sn21  1  0.18835244  0.81907356  0.82129468  1
  Sn  Sn22  1  0.81714541  0.18512000  0.81700350  1
  Sn  Sn23  1  0.31164756  0.32129468  0.31907356  1
  Sn  Sn24  1  0.81164756  0.81907356  0.82129468  1
  Sn  Sn25  1  0.31676099  0.67339236  0.31163341  1
  Sn  Sn26  1  0.31714541  0.31700350  0.68512000  1
  Sn  Sn27  1  0.68835244  0.32129468  0.31907356  1
  Sn  Sn28  1  0.18285459  0.18512000  0.81700350  1
  Sn  Sn29  1  0.82234821  0.18864137  0.18247276  1
  Sn  Sn30  1  0.18323901  0.81163341  0.17339236  1
  Sn  Sn31  1  0.67765179  0.68247276  0.68864137  1
  Sn  Sn32  1  0.00000000  0.33404837  0.13494623  1
  Sn  Sn33  1  0.50000000  0.38984557  0.80658595  1
  Sn  Sn34  1  0.50000000  0.62559957  0.16907992  1
  Sn  Sn35  1  0.61994964  0.80446934  0.49724792  1
  Sn  Sn36  1  0.38005036  0.80446934  0.49724792  1
  Sn  Sn37  1  0.19724275  0.50185100  0.61338144  1
  Sn  Sn38  1  0.80275725  0.50185100  0.61338144  1
  Sn  Sn39  1  0.11994964  0.99724792  0.30446934  1
  Sn  Sn40  1  0.30275725  0.11338144  0.00185100  1
  Sn  Sn41  1  0.66855666  0.87093650  0.00024063  1
  Sn  Sn42  1  0.11924627  0.99848636  0.69386473  1
  Sn  Sn43  1  0.69724275  0.11338144  0.00185100  1
  Sn  Sn44  1  0.88005036  0.99724792  0.30446934  1
  Sn  Sn45  1  0.88075373  0.99848636  0.69386473  1
  Sn  Sn46  1  0.33144334  0.87093650  0.00024063  1
  Sn  Sn47  1  0.00000000  0.69742781  0.88548008  1
  Sn  Sn48  1  0.25000000  0.00021897  0.50021897  1
  Sn  Sn49  1  0.75000000  0.00021897  0.50021897  1
  Sn  Sn50  1  0.00000000  0.49910957  0.74860747  1
  Sn  Sn51  1  0.50000000  0.24860747  0.99910957  1
