# generated using pymatgen
data_MgFeO3
_symmetry_space_group_name_H-M   'P 1'
_cell_length_a   6.49750195
_cell_length_b   6.49750195
_cell_length_c   5.36117399
_cell_angle_alpha   89.97931810
_cell_angle_beta   90.02068190
_cell_angle_gamma   96.86002514
_symmetry_Int_Tables_number   1
_chemical_formula_structural   MgFeO3
_chemical_formula_sum   'Mg4 Fe4 O12'
_cell_volume   224.71515172
_cell_formula_units_Z   4
loop_
 _symmetry_equiv_pos_site_id
 _symmetry_equiv_pos_as_xyz
  1  'x, y, z'
loop_
 _atom_site_type_symbol
 _atom_site_label
 _atom_site_symmetry_multiplicity
 _atom_site_fract_x
 _atom_site_fract_y
 _atom_site_fract_z
 _atom_site_occupancy
  Mg  Mg0  1  0.20390858  0.59169114  0.71967913  1
  Mg  Mg1  1  0.40830886  0.79609142  0.21967913  1
  Mg  Mg2  1  0.59169114  0.20390858  0.78032087  1
  Mg  Mg3  1  0.79609142  0.40830886  0.28032087  1
  Fe  Fe4  1  0.08758775  0.08758775  0.75000000  1
  Fe  Fe5  1  0.73233789  0.73233789  0.75000000  1
  Fe  Fe6  1  0.26766211  0.26766211  0.25000000  1
  Fe  Fe7  1  0.91241225  0.91241225  0.25000000  1
  O  O8  1  0.02079544  0.80885482  0.60972016  1
  O  O9  1  0.19114518  0.97920456  0.10972016  1
  O  O10  1  0.12288089  0.33811665  0.91443851  1
  O  O11  1  0.27451225  0.53265878  0.36880717  1
  O  O12  1  0.66188335  0.87711911  0.41443851  1
  O  O13  1  0.46734122  0.72548775  0.86880717  1
  O  O14  1  0.53265878  0.27451225  0.13119283  1
  O  O15  1  0.33811665  0.12288089  0.58556149  1
  O  O16  1  0.72548775  0.46734122  0.63119283  1
  O  O17  1  0.87711911  0.66188335  0.08556149  1
  O  O18  1  0.80885482  0.02079544  0.89027984  1
  O  O19  1  0.97920456  0.19114518  0.39027984  1
