# generated using pymatgen
data_Ni(PO3)3
_symmetry_space_group_name_H-M   'P 1'
_cell_length_a   9.56713404
_cell_length_b   11.82308722
_cell_length_c   11.82308722
_cell_angle_alpha   111.10512194
_cell_angle_beta   70.18288639
_cell_angle_gamma   70.18288639
_symmetry_Int_Tables_number   1
_chemical_formula_structural   Ni(PO3)3
_chemical_formula_sum   'Ni6 P18 O54'
_cell_volume   998.72387987
_cell_formula_units_Z   6
loop_
 _symmetry_equiv_pos_site_id
 _symmetry_equiv_pos_as_xyz
  1  'x, y, z'
loop_
 _atom_site_type_symbol
 _atom_site_label
 _atom_site_symmetry_multiplicity
 _atom_site_fract_x
 _atom_site_fract_y
 _atom_site_fract_z
 _atom_site_occupancy
  Ni  Ni0  1  0.49933260  0.33190234  0.17132790  1
  Ni  Ni1  1  0.99933260  0.17132790  0.33190234  1
  Ni  Ni2  1  0.99637186  0.84152961  0.66470141  1
  Ni  Ni3  1  0.53299774  0.98651911  0.47768341  1
  Ni  Ni4  1  0.49637186  0.66470141  0.84152961  1
  Ni  Ni5  1  0.03299774  0.47768341  0.98651911  1
  P  P6  1  0.82177686  0.08329061  0.14649318  1
  P  P7  1  0.32177686  0.14649318  0.08329061  1
  P  P8  1  0.69475403  0.18332984  0.57723797  1
  P  P9  1  0.68658456  0.51894511  0.24715430  1
  P  P10  1  0.19475403  0.57723797  0.18332984  1
  P  P11  1  0.18658456  0.24715430  0.51894511  1
  P  P12  1  0.78849993  0.83251262  0.12227648  1
  P  P13  1  0.74702584  0.18672209  0.81548751  1
  P  P14  1  0.72570812  0.53485912  0.49680424  1
  P  P15  1  0.28849993  0.12227648  0.83251262  1
  P  P16  1  0.24702584  0.81548751  0.18672209  1
  P  P17  1  0.84715449  0.73287839  0.46063906  1
  P  P18  1  0.22570812  0.49680424  0.53485912  1
  P  P19  1  0.84760884  0.40293461  0.80086978  1
  P  P20  1  0.34715449  0.46063906  0.73287839  1
  P  P21  1  0.34760884  0.80086978  0.40293461  1
  P  P22  1  0.65929301  0.87060878  0.92629523  1
  P  P23  1  0.15929301  0.92629523  0.87060878  1
  O  O24  1  0.97668735  0.05791767  0.01236380  1
  O  O25  1  0.47668735  0.01236380  0.05791767  1
  O  O26  1  0.65313230  0.14894680  0.15115327  1
  O  O27  1  0.81841530  0.16859679  0.27846681  1
  O  O28  1  0.15313230  0.15115327  0.14894680  1
  O  O29  1  0.69863195  0.05480077  0.48397666  1
  O  O30  1  0.31841530  0.27846681  0.16859679  1
  O  O31  1  0.67745374  0.39115086  0.17057632  1
  O  O32  1  0.85652272  0.50887721  0.17085983  1
  O  O33  1  0.86041495  0.18353902  0.51302166  1
  O  O34  1  0.19863195  0.48397666  0.05480077  1
  O  O35  1  0.93337415  0.69057107  0.07112890  1
  O  O36  1  0.17745374  0.17057632  0.39115086  1
  O  O37  1  0.91765494  0.04589991  0.72143167  1
  O  O38  1  0.87380601  0.38675916  0.42333989  1
  O  O39  1  0.35652272  0.17085983  0.50887721  1
  O  O40  1  0.36041495  0.51302166  0.18353902  1
  O  O41  1  0.73316456  0.80920588  0.00550422  1
  O  O42  1  0.43337415  0.07112890  0.69057107  1
  O  O43  1  0.41765494  0.72143167  0.04589991  1
  O  O44  1  0.37380601  0.42333989  0.38675916  1
  O  O45  1  0.23316456  0.00550422  0.80920588  1
  O  O46  1  0.64788988  0.20889352  0.73112261  1
  O  O47  1  0.64155373  0.55597440  0.40347595  1
  O  O48  1  0.87936454  0.92340248  0.10483796  1
  O  O49  1  0.53713499  0.32208615  0.61359469  1
  O  O50  1  0.53289322  0.65810493  0.27948484  1
  O  O51  1  0.14788988  0.73112261  0.20889352  1
  O  O52  1  0.14155373  0.40347595  0.55597440  1
  O  O53  1  0.37936454  0.10483796  0.92340248  1
  O  O54  1  0.03713499  0.61359469  0.32208615  1
  O  O55  1  0.03289322  0.27948484  0.65810493  1
  O  O56  1  0.80253176  0.63749089  0.51403414  1
  O  O57  1  0.78854382  0.31065904  0.85069383  1
  O  O58  1  0.61479632  0.22168455  0.95445120  1
  O  O59  1  0.62655897  0.91594124  0.26636228  1
  O  O60  1  0.72273206  0.79421873  0.41903434  1
  O  O61  1  0.72484151  0.48206683  0.76734113  1
  O  O62  1  0.30253176  0.51403414  0.63749089  1
  O  O63  1  0.56808994  0.60017946  0.63886662  1
  O  O64  1  0.28854382  0.85069383  0.31065904  1
  O  O65  1  0.11479632  0.95445120  0.22168455  1
  O  O66  1  0.12655897  0.26636228  0.91594124  1
  O  O67  1  0.22273206  0.41903434  0.79421873  1
  O  O68  1  0.87038218  0.49254201  0.91291153  1
  O  O69  1  0.85832072  0.83988925  0.56881400  1
  O  O70  1  0.22484151  0.76734113  0.48206683  1
  O  O71  1  0.06808994  0.63886662  0.60017946  1
  O  O72  1  0.37038218  0.91291153  0.49254201  1
  O  O73  1  0.35832072  0.56881400  0.83988925  1
  O  O74  1  0.62767961  0.76622387  0.83627210  1
  O  O75  1  0.77469488  0.90927143  0.84750413  1
  O  O76  1  0.12767961  0.83627210  0.76622387  1
  O  O77  1  0.27469488  0.84750413  0.90927143  1
