# generated using pymatgen
data_SbOF3
_symmetry_space_group_name_H-M   'P 1'
_cell_length_a   3.80644246
_cell_length_b   5.31881002
_cell_length_c   4.13764092
_cell_angle_alpha   67.11000326
_cell_angle_beta   90.00000000
_cell_angle_gamma   110.96688984
_symmetry_Int_Tables_number   1
_chemical_formula_structural   SbOF3
_chemical_formula_sum   'Sb1 O1 F3'
_cell_volume   71.11377347
_cell_formula_units_Z   1
loop_
 _symmetry_equiv_pos_site_id
 _symmetry_equiv_pos_as_xyz
  1  'x, y, z'
loop_
 _atom_site_type_symbol
 _atom_site_label
 _atom_site_symmetry_multiplicity
 _atom_site_fract_x
 _atom_site_fract_y
 _atom_site_fract_z
 _atom_site_occupancy
  Sb  Sb0  1  0.00000000  -0.00000000  -0.00000000  1
  O  O1  1  0.50000000  -0.00000000  -0.00000000  1
  F  F2  1  0.79066099  0.58132199  0.20933901  1
  F  F3  1  0.00000000  -0.00000000  0.50000000  1
  F  F4  1  0.20933901  0.41867801  0.79066099  1
