# generated using pymatgen
data_LiNi2(PO3)5
_symmetry_space_group_name_H-M   'P 1'
_cell_length_a   12.67057105
_cell_length_b   8.77034835
_cell_length_c   5.35042268
_cell_angle_alpha   90.00000000
_cell_angle_beta   93.31717285
_cell_angle_gamma   90.00000000
_symmetry_Int_Tables_number   1
_chemical_formula_structural   LiNi2(PO3)5
_chemical_formula_sum   'Li2 Ni4 P10 O30'
_cell_volume   593.57125546
_cell_formula_units_Z   2
loop_
 _symmetry_equiv_pos_site_id
 _symmetry_equiv_pos_as_xyz
  1  'x, y, z'
loop_
 _atom_site_type_symbol
 _atom_site_label
 _atom_site_symmetry_multiplicity
 _atom_site_fract_x
 _atom_site_fract_y
 _atom_site_fract_z
 _atom_site_occupancy
  Li  Li0  1  0.45005516  0.00144934  0.57819929  1
  Li  Li1  1  0.95005516  0.99855066  0.07819929  1
  Ni  Ni2  1  0.05153979  0.70798977  0.15631140  1
  Ni  Ni3  1  0.45465858  0.70791978  0.34247866  1
  Ni  Ni4  1  0.55153979  0.29201023  0.65631140  1
  Ni  Ni5  1  0.95465858  0.29208022  0.84247866  1
  P  P6  1  0.90976700  0.82382785  0.59497646  1
  P  P7  1  0.64103948  0.51062488  0.10494932  1
  P  P8  1  0.09075098  0.18307526  0.39771969  1
  P  P9  1  0.36175659  0.48678367  0.89870334  1
  P  P10  1  0.75034286  0.05015136  0.74928717  1
  P  P11  1  0.40976700  0.17617215  0.09497646  1
  P  P12  1  0.59075098  0.81692474  0.89771969  1
  P  P13  1  0.14103948  0.48937512  0.60494932  1
  P  P14  1  0.25034286  0.94984864  0.24928717  1
  P  P15  1  0.86175659  0.51321633  0.39870334  1
  O  O16  1  0.80932161  0.93587437  0.56226374  1
  O  O17  1  0.75169266  0.52458205  0.25016908  1
  O  O18  1  0.94629600  0.53152598  0.21304361  1
  O  O19  1  0.64106903  0.36993666  0.94766417  1
  O  O20  1  0.55739627  0.53017517  0.29254689  1
  O  O21  1  0.03673720  0.17638139  0.13946215  1
  O  O22  1  0.83558834  0.12470798  0.91750707  1
  O  O23  1  0.96357234  0.82999198  0.85285783  1
  O  O24  1  0.25169266  0.47541795  0.75016908  1
  O  O25  1  0.85432732  0.66089620  0.57463269  1
  O  O26  1  0.14789161  0.34526705  0.42057698  1
  O  O27  1  0.19103871  0.06992798  0.42352396  1
  O  O28  1  0.33558834  0.87529202  0.41750707  1
  O  O29  1  0.36036369  0.62386901  0.06428627  1
  O  O30  1  0.86036369  0.37613099  0.56428627  1
  O  O31  1  0.30932161  0.06412563  0.06226374  1
  O  O32  1  0.44629600  0.46847402  0.71304361  1
  O  O33  1  0.17146959  0.85904656  0.09329260  1
  O  O34  1  0.14106903  0.63006334  0.44766417  1
  O  O35  1  0.67146959  0.14095344  0.59329260  1
  O  O36  1  0.46357234  0.17000802  0.35285783  1
  O  O37  1  0.35432732  0.33910380  0.07463269  1
  O  O38  1  0.53673720  0.82361861  0.63946215  1
  O  O39  1  0.97100317  0.85447653  0.36609013  1
  O  O40  1  0.69103871  0.93007202  0.92352396  1
  O  O41  1  0.02672201  0.15118812  0.61845749  1
  O  O42  1  0.52672201  0.84881188  0.11845749  1
  O  O43  1  0.47100317  0.14552347  0.86609013  1
  O  O44  1  0.64789161  0.65473295  0.92057698  1
  O  O45  1  0.05739627  0.46982483  0.79254689  1
