# generated using pymatgen
data_Li2Mn(PO4)2
_symmetry_space_group_name_H-M   'P 1'
_cell_length_a   4.84930875
_cell_length_b   16.90978869
_cell_length_c   6.96351892
_cell_angle_alpha   90.00000000
_cell_angle_beta   95.88183904
_cell_angle_gamma   90.00000000
_symmetry_Int_Tables_number   1
_chemical_formula_structural   Li2Mn(PO4)2
_chemical_formula_sum   'Li8 Mn4 P8 O32'
_cell_volume   568.00783759
_cell_formula_units_Z   4
loop_
 _symmetry_equiv_pos_site_id
 _symmetry_equiv_pos_as_xyz
  1  'x, y, z'
loop_
 _atom_site_type_symbol
 _atom_site_label
 _atom_site_symmetry_multiplicity
 _atom_site_fract_x
 _atom_site_fract_y
 _atom_site_fract_z
 _atom_site_occupancy
  Li  Li0  1  0.31051521  0.38733173  0.95464111  1
  Li  Li1  1  0.73517418  0.61514260  0.95746862  1
  Li  Li2  1  0.18948479  0.88733173  0.54535889  1
  Li  Li3  1  0.21955583  0.05418958  0.31644003  1
  Li  Li4  1  0.70198761  0.80746612  0.36303790  1
  Li  Li5  1  0.79801239  0.30746612  0.13696210  1
  Li  Li6  1  0.76482582  0.11514260  0.54253138  1
  Li  Li7  1  0.28044417  0.55418958  0.18355997  1
  Mn  Mn8  1  0.19056777  0.87076973  0.00066400  1
  Mn  Mn9  1  0.80221116  0.13156974  0.98635431  1
  Mn  Mn10  1  0.30943223  0.37076973  0.49933600  1
  Mn  Mn11  1  0.69778884  0.63156974  0.51364569  1
  P  P12  1  0.23163594  0.53711670  0.71605699  1
  P  P13  1  0.34295854  0.21175765  0.22388394  1
  P  P14  1  0.84471138  0.28737044  0.72256228  1
  P  P15  1  0.73504214  0.96162004  0.20375938  1
  P  P16  1  0.76495786  0.46162004  0.29624062  1
  P  P17  1  0.26836406  0.03711670  0.78394301  1
  P  P18  1  0.15704146  0.71175765  0.27611606  1
  P  P19  1  0.65528862  0.78737044  0.77743772  1
  O  O20  1  0.51035167  0.80474982  0.96336833  1
  O  O21  1  0.13574132  0.07430008  0.95644807  1
  O  O22  1  0.98964833  0.30474982  0.53663167  1
  O  O23  1  0.36425868  0.57430008  0.54355193  1
  O  O24  1  0.26108037  0.94421445  0.79712903  1
  O  O25  1  0.86236682  0.92941650  0.02480220  1
  O  O26  1  0.97431256  0.80594009  0.81804320  1
  O  O27  1  0.47724577  0.70168704  0.33556443  1
  O  O28  1  0.63763318  0.42941650  0.47519780  1
  O  O29  1  0.37066319  0.55775144  0.91369370  1
  O  O30  1  0.63530050  0.42559756  0.10999116  1
  O  O31  1  0.44077084  0.15379267  0.37963591  1
  O  O32  1  0.05922916  0.65379267  0.12036409  1
  O  O33  1  0.41406628  0.94431475  0.18348557  1
  O  O34  1  0.23891963  0.44421445  0.70287097  1
  O  O35  1  0.52864624  0.82910077  0.59825964  1
  O  O36  1  0.38451379  0.30126755  0.27851790  1
  O  O37  1  0.57996068  0.06428387  0.80549622  1
  O  O38  1  0.64165040  0.69503785  0.74640126  1
  O  O39  1  0.11548621  0.80126755  0.22148210  1
  O  O40  1  0.85834960  0.19503785  0.75359874  1
  O  O41  1  0.72121272  0.55426586  0.29027817  1
  O  O42  1  0.86469950  0.92559756  0.39000884  1
  O  O43  1  0.77878728  0.05426586  0.20972183  1
  O  O44  1  0.50555020  0.20365438  0.04050280  1
  O  O45  1  -0.00555020  0.70365438  0.45949720  1
  O  O46  1  0.92003932  0.56428387  0.69450378  1
  O  O47  1  0.08593372  0.44431475  0.31651443  1
  O  O48  1  0.52568744  0.30594009  0.68195680  1
  O  O49  1  0.97135376  0.32910077  0.90174036  1
  O  O50  1  0.12933681  0.05775144  0.58630630  1
  O  O51  1  0.02275423  0.20168704  0.16443557  1
