# generated using pymatgen
data_VNi(PO4)2
_symmetry_space_group_name_H-M   'P 1'
_cell_length_a   9.89769940
_cell_length_b   5.84268626
_cell_length_c   4.81407064
_cell_angle_alpha   90.00000000
_cell_angle_beta   90.77985905
_cell_angle_gamma   90.00000000
_symmetry_Int_Tables_number   1
_chemical_formula_structural   VNi(PO4)2
_chemical_formula_sum   'V2 Ni2 P4 O16'
_cell_volume   278.36783655
_cell_formula_units_Z   2
loop_
 _symmetry_equiv_pos_site_id
 _symmetry_equiv_pos_as_xyz
  1  'x, y, z'
loop_
 _atom_site_type_symbol
 _atom_site_label
 _atom_site_symmetry_multiplicity
 _atom_site_fract_x
 _atom_site_fract_y
 _atom_site_fract_z
 _atom_site_occupancy
  V  V0  1  0.22397997  0.75000000  0.46192882  1
  V  V1  1  0.77602003  0.25000000  0.53807118  1
  Ni  Ni2  1  0.27219283  0.25000000  0.95815705  1
  Ni  Ni3  1  0.72780717  0.75000000  0.04184295  1
  P  P4  1  0.09137360  0.25000000  0.43106506  1
  P  P5  1  0.40359288  0.75000000  0.90324856  1
  P  P6  1  0.59640712  0.25000000  0.09675144  1
  P  P7  1  0.90862640  0.75000000  0.56893494  1
  O  O8  1  0.05626112  0.75000000  0.67484440  1
  O  O9  1  0.10168828  0.25000000  0.74309880  1
  O  O10  1  0.16971290  0.04013685  0.29399734  1
  O  O11  1  0.16971290  0.45986315  0.29399734  1
  O  O12  1  0.32413978  0.95007288  0.74996509  1
  O  O13  1  0.32413978  0.54992712  0.74996509  1
  O  O14  1  0.37698350  0.75000000  0.21894479  1
  O  O15  1  0.44753433  0.25000000  0.15647110  1
  O  O16  1  0.55246567  0.75000000  0.84352890  1
  O  O17  1  0.62301650  0.25000000  0.78105521  1
  O  O18  1  0.67586022  0.04992712  0.25003491  1
  O  O19  1  0.67586022  0.45007288  0.25003491  1
  O  O20  1  0.83028710  0.54013685  0.70600266  1
  O  O21  1  0.83028710  0.95986315  0.70600266  1
  O  O22  1  0.89831172  0.75000000  0.25690120  1
  O  O23  1  0.94373888  0.25000000  0.32515560  1
