# generated using pymatgen
data_Ho2CuGe6
_symmetry_space_group_name_H-M   'P 1'
_cell_length_a   4.08523489
_cell_length_b   4.05961568
_cell_length_c   10.90985134
_cell_angle_alpha   100.72251438
_cell_angle_beta   90.00000000
_cell_angle_gamma   90.00000000
_symmetry_Int_Tables_number   1
_chemical_formula_structural   Ho2CuGe6
_chemical_formula_sum   'Ho2 Cu1 Ge6'
_cell_volume   177.77509590
_cell_formula_units_Z   1
loop_
 _symmetry_equiv_pos_site_id
 _symmetry_equiv_pos_as_xyz
  1  'x, y, z'
loop_
 _atom_site_type_symbol
 _atom_site_label
 _atom_site_symmetry_multiplicity
 _atom_site_fract_x
 _atom_site_fract_y
 _atom_site_fract_z
 _atom_site_occupancy
  Ho  Ho0  1  0.00000000  0.00443170  0.00886339  1
  Ho  Ho1  1  0.00000000  0.66926625  0.33853250  1
  Cu  Cu2  1  0.50000000  0.22411407  0.44822815  1
  Ge  Ge3  1  0.00000000  0.28509711  0.57019422  1
  Ge  Ge4  1  0.00000000  0.40163071  0.80326141  1
  Ge  Ge5  1  0.50000000  0.54344749  0.08689498  1
  Ge  Ge6  1  0.50000000  0.11576535  0.23153069  1
  Ge  Ge7  1  0.50000000  0.90229679  0.80459357  1
  Ge  Ge8  1  0.50000000  0.78495054  0.56990108  1
