# generated using pymatgen
data_TlCd(NO2)3
_symmetry_space_group_name_H-M   'P 1'
_cell_length_a   5.49494355
_cell_length_b   5.49494356
_cell_length_c   5.49494356
_cell_angle_alpha   90.61279086
_cell_angle_beta   90.61279090
_cell_angle_gamma   90.61279089
_symmetry_Int_Tables_number   1
_chemical_formula_structural   TlCd(NO2)3
_chemical_formula_sum   'Tl1 Cd1 N3 O6'
_cell_volume   165.88787685
_cell_formula_units_Z   1
loop_
 _symmetry_equiv_pos_site_id
 _symmetry_equiv_pos_as_xyz
  1  'x, y, z'
loop_
 _atom_site_type_symbol
 _atom_site_label
 _atom_site_symmetry_multiplicity
 _atom_site_fract_x
 _atom_site_fract_y
 _atom_site_fract_z
 _atom_site_occupancy
  N  N0  1  0.16141187  0.55755432  0.11337212  1
  N  N1  1  0.55755432  0.11337212  0.16141187  1
  N  N2  1  0.11337212  0.16141187  0.55755432  1
  O  O3  1  0.67403432  0.31183759  0.16286599  1
  O  O4  1  0.16286599  0.67403432  0.31183759  1
  O  O5  1  0.92228545  0.15057552  0.68425624  1
  O  O6  1  0.68425624  0.92228545  0.15057552  1
  O  O7  1  0.15057552  0.68425624  0.92228545  1
  O  O8  1  0.31183759  0.16286599  0.67403432  1
  Cd  Cd9  1  0.10169378  0.10169378  0.10169378  1
  Tl  Tl10  1  0.61544612  0.61544612  0.61544612  1
