# generated using pymatgen
data_LiFe4(PO4)3
_symmetry_space_group_name_H-M   'P 1'
_cell_length_a   8.70705235
_cell_length_b   8.70705235
_cell_length_c   6.61124588
_cell_angle_alpha   72.03654846
_cell_angle_beta   107.96345154
_cell_angle_gamma   85.60535255
_symmetry_Int_Tables_number   1
_chemical_formula_structural   LiFe4(PO4)3
_chemical_formula_sum   'Li2 Fe8 P6 O24'
_cell_volume   445.29886339
_cell_formula_units_Z   2
loop_
 _symmetry_equiv_pos_site_id
 _symmetry_equiv_pos_as_xyz
  1  'x, y, z'
loop_
 _atom_site_type_symbol
 _atom_site_label
 _atom_site_symmetry_multiplicity
 _atom_site_fract_x
 _atom_site_fract_y
 _atom_site_fract_z
 _atom_site_occupancy
  Li  Li0  1  0.00308031  0.01350872  0.74965970  1
  Li  Li1  1  0.98649128  0.99691969  0.24965970  1
  Fe  Fe2  1  0.05592974  0.62499038  0.62722535  1
  Fe  Fe3  1  0.37500962  0.94407026  0.12722535  1
  Fe  Fe4  1  0.73691314  0.72721613  0.75821185  1
  Fe  Fe5  1  0.48619098  0.52729246  0.53658013  1
  Fe  Fe6  1  0.27278387  0.26308686  0.25821185  1
  Fe  Fe7  1  0.47270754  0.51380902  0.03658013  1
  Fe  Fe8  1  0.62891312  0.05921860  0.86656117  1
  Fe  Fe9  1  0.94078140  0.37108688  0.36656117  1
  P  P10  1  0.32992487  0.88086805  0.62207572  1
  P  P11  1  0.11913195  0.67007513  0.12207572  1
  P  P12  1  0.30078383  0.30024764  0.75157823  1
  P  P13  1  0.69975236  0.69921617  0.25157823  1
  P  P14  1  0.88542517  0.33610133  0.87302668  1
  P  P15  1  0.66389867  0.11457483  0.37302668  1
  O  O16  1  0.39064419  0.95488442  0.80957515  1
  O  O17  1  0.15109765  0.85032085  0.58574533  1
  O  O18  1  0.04511558  0.60935581  0.30957515  1
  O  O19  1  0.14967915  0.84890235  0.08574533  1
  O  O20  1  0.67772987  0.98643957  0.60782099  1
  O  O21  1  0.45817968  0.71502051  0.69402870  1
  O  O22  1  0.28566999  0.48000783  0.76268921  1
  O  O23  1  0.01356043  0.32227013  0.10782099  1
  O  O24  1  0.27560424  0.19002184  0.96501294  1
  O  O25  1  0.18812406  0.27873053  0.53512665  1
  O  O26  1  0.28497949  0.54182032  0.19402870  1
  O  O27  1  0.51999217  0.71433001  0.26268921  1
  O  O28  1  0.47706006  0.28344159  0.73312239  1
  O  O29  1  0.72639867  0.46759044  0.81191737  1
  O  O30  1  0.80997816  0.72439576  0.46501294  1
  O  O31  1  0.72126947  0.81187594  0.03512665  1
  O  O32  1  0.99705870  0.67140949  0.89242371  1
  O  O33  1  0.71655841  0.52293994  0.23312239  1
  O  O34  1  0.53240956  0.27360133  0.31191737  1
  O  O35  1  0.32859051  0.00294130  0.39242371  1
  O  O36  1  0.84889786  0.15984443  0.90095992  1
  O  O37  1  0.96034747  0.39675777  0.68587882  1
  O  O38  1  0.84015557  0.15110214  0.40095992  1
  O  O39  1  0.60324223  0.03965253  0.18587882  1
