# generated using pymatgen
data_CeFe4(CuO4)3
_symmetry_space_group_name_H-M   'P 1'
_cell_length_a   6.48998021
_cell_length_b   6.48998021
_cell_length_c   6.48998021
_cell_angle_alpha   109.47122063
_cell_angle_beta   109.47122063
_cell_angle_gamma   109.47122063
_symmetry_Int_Tables_number   1
_chemical_formula_structural   CeFe4(CuO4)3
_chemical_formula_sum   'Ce1 Fe4 Cu3 O12'
_cell_volume   210.43027673
_cell_formula_units_Z   1
loop_
 _symmetry_equiv_pos_site_id
 _symmetry_equiv_pos_as_xyz
  1  'x, y, z'
loop_
 _atom_site_type_symbol
 _atom_site_label
 _atom_site_symmetry_multiplicity
 _atom_site_fract_x
 _atom_site_fract_y
 _atom_site_fract_z
 _atom_site_occupancy
  Ce  Ce0  1  0.00000000  0.00000000  0.00000000  1
  Fe  Fe1  1  -0.00000000  0.00000000  0.50000000  1
  Fe  Fe2  1  0.50000000  0.00000000  0.00000000  1
  Fe  Fe3  1  0.00000000  0.50000000  0.00000000  1
  Fe  Fe4  1  0.50000000  0.50000000  0.50000000  1
  Cu  Cu5  1  0.50000000  0.00000000  0.50000000  1
  Cu  Cu6  1  -0.00000000  0.50000000  0.50000000  1
  Cu  Cu7  1  0.50000000  0.50000000  0.00000000  1
  O  O8  1  0.69522267  0.83507310  0.53029577  1
  O  O9  1  0.69522267  0.16492690  0.86014958  1
  O  O10  1  0.30477733  0.83507310  0.13985042  1
  O  O11  1  0.30477733  0.16492690  0.46970423  1
  O  O12  1  0.83507310  0.53029577  0.69522267  1
  O  O13  1  0.16492690  0.86014958  0.69522267  1
  O  O14  1  0.83507310  0.13985042  0.30477733  1
  O  O15  1  0.16492690  0.46970423  0.30477733  1
  O  O16  1  0.53029577  0.69522267  0.83507310  1
  O  O17  1  0.86014958  0.69522267  0.16492690  1
  O  O18  1  0.13985042  0.30477733  0.83507310  1
  O  O19  1  0.46970423  0.30477733  0.16492690  1
