# generated using pymatgen
data_Ca2Ni10H
_symmetry_space_group_name_H-M   'P 1'
_cell_length_a   4.96071050
_cell_length_b   4.95301638
_cell_length_c   7.83333742
_cell_angle_alpha   89.63834648
_cell_angle_beta   89.64271945
_cell_angle_gamma   60.54905571
_symmetry_Int_Tables_number   1
_chemical_formula_structural   Ca2Ni10H
_chemical_formula_sum   'Ca2 Ni10 H1'
_cell_volume   167.59303295
_cell_formula_units_Z   1
loop_
 _symmetry_equiv_pos_site_id
 _symmetry_equiv_pos_as_xyz
  1  'x, y, z'
loop_
 _atom_site_type_symbol
 _atom_site_label
 _atom_site_symmetry_multiplicity
 _atom_site_fract_x
 _atom_site_fract_y
 _atom_site_fract_z
 _atom_site_occupancy
  Ca  Ca0  1  0.99307769  0.99311613  0.98804620  1
  Ca  Ca1  1  0.00211610  0.00216161  0.50196031  1
  Ni  Ni2  1  0.33820741  0.33830186  0.00075676  1
  Ni  Ni3  1  0.66016540  0.66014936  0.00146831  1
  Ni  Ni4  1  0.50130780  0.50132749  0.25636894  1
  Ni  Ni5  1  0.99340265  0.51301723  0.25744243  1
  Ni  Ni6  1  0.51301265  0.99338562  0.25745267  1
  Ni  Ni7  1  0.33522848  0.33527169  0.50487662  1
  Ni  Ni8  1  0.66863854  0.66858125  0.50438544  1
  Ni  Ni9  1  0.49920142  0.49924303  0.75082462  1
  Ni  Ni10  1  0.99894831  0.49811765  0.75251859  1
  Ni  Ni11  1  0.49811405  0.99897063  0.75252415  1
  H  H12  1  0.20247950  0.20255642  0.14857497  1
