# generated using pymatgen
data_Mn2ZnS4
_symmetry_space_group_name_H-M   'P 1'
_cell_length_a   7.16220413
_cell_length_b   7.16220413
_cell_length_c   7.16220413
_cell_angle_alpha   60.00000000
_cell_angle_beta   60.00000000
_cell_angle_gamma   60.00000000
_symmetry_Int_Tables_number   1
_chemical_formula_structural   Mn2ZnS4
_chemical_formula_sum   'Mn4 Zn2 S8'
_cell_volume   259.79158919
_cell_formula_units_Z   2
loop_
 _symmetry_equiv_pos_site_id
 _symmetry_equiv_pos_as_xyz
  1  'x, y, z'
loop_
 _atom_site_type_symbol
 _atom_site_label
 _atom_site_symmetry_multiplicity
 _atom_site_fract_x
 _atom_site_fract_y
 _atom_site_fract_z
 _atom_site_occupancy
  Mn  Mn0  1  0.00000000  0.00000000  0.50000000  1
  Mn  Mn1  1  0.00000000  0.50000000  0.00000000  1
  Mn  Mn2  1  0.50000000  0.00000000  0.00000000  1
  Mn  Mn3  1  0.00000000  0.00000000  0.00000000  1
  Zn  Zn4  1  0.37500000  0.37500000  0.37500000  1
  Zn  Zn5  1  0.62500000  0.62500000  0.62500000  1
  S  S6  1  0.24090466  0.24090466  0.77728601  1
  S  S7  1  0.24090466  0.77728601  0.24090466  1
  S  S8  1  0.77728601  0.24090466  0.24090466  1
  S  S9  1  0.24090466  0.24090466  0.24090466  1
  S  S10  1  0.75909534  0.75909534  0.22271399  1
  S  S11  1  0.75909534  0.22271399  0.75909534  1
  S  S12  1  0.22271399  0.75909534  0.75909534  1
  S  S13  1  0.75909534  0.75909534  0.75909534  1
