# generated using pymatgen
data_Li(Mo3Se4)2
_symmetry_space_group_name_H-M   'P 1'
_cell_length_a   6.79197664
_cell_length_b   6.79197664
_cell_length_c   6.79197708
_cell_angle_alpha   91.35687216
_cell_angle_beta   91.35687216
_cell_angle_gamma   91.35687488
_symmetry_Int_Tables_number   1
_chemical_formula_structural   Li(Mo3Se4)2
_chemical_formula_sum   'Li1 Mo6 Se8'
_cell_volume   313.05252642
_cell_formula_units_Z   1
loop_
 _symmetry_equiv_pos_site_id
 _symmetry_equiv_pos_as_xyz
  1  'x, y, z'
loop_
 _atom_site_type_symbol
 _atom_site_label
 _atom_site_symmetry_multiplicity
 _atom_site_fract_x
 _atom_site_fract_y
 _atom_site_fract_z
 _atom_site_occupancy
  Li  Li0  1  -0.00000000  0.00000000  -0.00000000  1
  Mo  Mo1  1  0.58332661  0.76838345  0.44919994  1
  Mo  Mo2  1  0.76838345  0.44919994  0.58332661  1
  Mo  Mo3  1  0.44919994  0.58332661  0.76838345  1
  Mo  Mo4  1  0.41667339  0.23161655  0.55080006  1
  Mo  Mo5  1  0.23161655  0.55080006  0.41667339  1
  Mo  Mo6  1  0.55080006  0.41667339  0.23161655  1
  Se  Se7  1  0.77642881  0.77642881  0.77642881  1
  Se  Se8  1  0.22357119  0.22357119  0.22357119  1
  Se  Se9  1  0.61905177  0.25616135  0.87394892  1
  Se  Se10  1  0.25616135  0.87394892  0.61905177  1
  Se  Se11  1  0.87394892  0.61905177  0.25616135  1
  Se  Se12  1  0.38094823  0.74383865  0.12605108  1
  Se  Se13  1  0.74383865  0.12605108  0.38094823  1
  Se  Se14  1  0.12605108  0.38094823  0.74383865  1
