# generated using pymatgen
data_CaPt2
_symmetry_space_group_name_H-M   'P 1'
_cell_length_a   5.45472501
_cell_length_b   5.45472501
_cell_length_c   8.95608583
_cell_angle_alpha   90.00000000
_cell_angle_beta   90.00000000
_cell_angle_gamma   120.00467215
_symmetry_Int_Tables_number   1
_chemical_formula_structural   CaPt2
_chemical_formula_sum   'Ca4 Pt8'
_cell_volume   230.76723881
_cell_formula_units_Z   4
loop_
 _symmetry_equiv_pos_site_id
 _symmetry_equiv_pos_as_xyz
  1  'x, y, z'
loop_
 _atom_site_type_symbol
 _atom_site_label
 _atom_site_symmetry_multiplicity
 _atom_site_fract_x
 _atom_site_fract_y
 _atom_site_fract_z
 _atom_site_occupancy
  Ca  Ca0  1  0.66668628  0.33331372  0.56487060  1
  Ca  Ca1  1  0.33331372  0.66668628  0.43512940  1
  Ca  Ca2  1  0.33331372  0.66668628  0.06487060  1
  Ca  Ca3  1  0.66668628  0.33331372  0.93512940  1
  Pt  Pt4  1  -0.00000000  0.00000000  0.50000000  1
  Pt  Pt5  1  -0.00000000  0.00000000  -0.00000000  1
  Pt  Pt6  1  0.16916596  0.33827031  0.75000000  1
  Pt  Pt7  1  0.16913954  0.83086046  0.75000000  1
  Pt  Pt8  1  0.66172969  0.83083404  0.75000000  1
  Pt  Pt9  1  0.83083404  0.66172969  0.25000000  1
  Pt  Pt10  1  0.83086046  0.16913954  0.25000000  1
  Pt  Pt11  1  0.33827031  0.16916596  0.25000000  1
