# generated using pymatgen
data_Yb(Mo3Se4)2
_symmetry_space_group_name_H-M   'P 1'
_cell_length_a   6.82637273
_cell_length_b   6.82637272
_cell_length_c   6.82637315
_cell_angle_alpha   89.16868266
_cell_angle_beta   89.16868266
_cell_angle_gamma   89.16867539
_symmetry_Int_Tables_number   1
_chemical_formula_structural   Yb(Mo3Se4)2
_chemical_formula_sum   'Yb1 Mo6 Se8'
_cell_volume   318.00516383
_cell_formula_units_Z   1
loop_
 _symmetry_equiv_pos_site_id
 _symmetry_equiv_pos_as_xyz
  1  'x, y, z'
loop_
 _atom_site_type_symbol
 _atom_site_label
 _atom_site_symmetry_multiplicity
 _atom_site_fract_x
 _atom_site_fract_y
 _atom_site_fract_z
 _atom_site_occupancy
  Yb  Yb0  1  -0.00000000  -0.00000000  -0.00000000  1
  Mo  Mo1  1  0.57683442  0.76400295  0.44120485  1
  Mo  Mo2  1  0.76400295  0.44120485  0.57683442  1
  Mo  Mo3  1  0.44120485  0.57683442  0.76400295  1
  Mo  Mo4  1  0.42316558  0.23599705  0.55879515  1
  Mo  Mo5  1  0.23599705  0.55879515  0.42316558  1
  Mo  Mo6  1  0.55879515  0.42316558  0.23599705  1
  Se  Se7  1  0.76082854  0.76082854  0.76082854  1
  Se  Se8  1  0.23917146  0.23917146  0.23917146  1
  Se  Se9  1  0.62471709  0.24778280  0.87690076  1
  Se  Se10  1  0.24778280  0.87690076  0.62471709  1
  Se  Se11  1  0.87690076  0.62471709  0.24778280  1
  Se  Se12  1  0.37528291  0.75221720  0.12309924  1
  Se  Se13  1  0.75221720  0.12309924  0.37528291  1
  Se  Se14  1  0.12309924  0.37528291  0.75221720  1
