# generated using pymatgen
data_K2CrOF5
_symmetry_space_group_name_H-M   'P 1'
_cell_length_a   6.21078745
_cell_length_b   6.21078745
_cell_length_c   8.30277936
_cell_angle_alpha   85.44656486
_cell_angle_beta   85.44656486
_cell_angle_gamma   77.47280276
_symmetry_Int_Tables_number   1
_chemical_formula_structural   K2CrOF5
_chemical_formula_sum   'K4 Cr2 O2 F10'
_cell_volume   311.02232365
_cell_formula_units_Z   2
loop_
 _symmetry_equiv_pos_site_id
 _symmetry_equiv_pos_as_xyz
  1  'x, y, z'
loop_
 _atom_site_type_symbol
 _atom_site_label
 _atom_site_symmetry_multiplicity
 _atom_site_fract_x
 _atom_site_fract_y
 _atom_site_fract_z
 _atom_site_occupancy
  K  K0  1  0.30430333  0.29939509  0.02236264  1
  K  K1  1  0.70060491  0.69569667  0.47763736  1
  K  K2  1  0.69569667  0.70060491  0.97763736  1
  K  K3  1  0.29939509  0.30430333  0.52236264  1
  Cr  Cr4  1  0.82061440  0.17938560  0.25000000  1
  Cr  Cr5  1  0.17938560  0.82061440  0.75000000  1
  O  O6  1  0.02672712  0.97327288  0.25000000  1
  O  O7  1  0.97327288  0.02672712  0.75000000  1
  F  F8  1  0.85227757  0.26893365  0.03099038  1
  F  F9  1  0.73106635  0.14772243  0.46900962  1
  F  F10  1  0.14772243  0.73106635  0.96900962  1
  F  F11  1  0.26893365  0.85227757  0.53099038  1
  F  F12  1  0.56419572  0.43580428  0.25000000  1
  F  F13  1  0.43580428  0.56419572  0.75000000  1
  F  F14  1  0.61091649  0.01616337  0.20439157  1
  F  F15  1  0.98383663  0.38908351  0.29560843  1
  F  F16  1  0.38908351  0.98383663  0.79560843  1
  F  F17  1  0.01616337  0.61091649  0.70439157  1
