# generated using pymatgen
data_KNO3
_symmetry_space_group_name_H-M   'P 1'
_cell_length_a   4.01074627
_cell_length_b   5.63477086
_cell_length_c   15.24904330
_cell_angle_alpha   90.00000000
_cell_angle_beta   95.63855726
_cell_angle_gamma   90.00000000
_symmetry_Int_Tables_number   1
_chemical_formula_structural   KNO3
_chemical_formula_sum   'K4 N4 O12'
_cell_volume   342.95537563
_cell_formula_units_Z   4
loop_
 _symmetry_equiv_pos_site_id
 _symmetry_equiv_pos_as_xyz
  1  'x, y, z'
loop_
 _atom_site_type_symbol
 _atom_site_label
 _atom_site_symmetry_multiplicity
 _atom_site_fract_x
 _atom_site_fract_y
 _atom_site_fract_z
 _atom_site_occupancy
  K  K0  1  0.64352859  0.96709435  0.34565319  1
  K  K1  1  0.85647141  0.46709435  0.15434681  1
  K  K2  1  0.35647141  0.03290565  0.65434681  1
  K  K3  1  0.14352859  0.53290565  0.84565319  1
  N  N4  1  0.24616482  0.46494324  0.37110611  1
  N  N5  1  0.25383518  0.96494324  0.12889389  1
  N  N6  1  0.75383518  0.53505676  0.62889389  1
  N  N7  1  0.74616482  0.03505676  0.87110611  1
  O  O8  1  0.16355314  0.27097469  0.40468875  1
  O  O9  1  0.33644686  0.77097469  0.09531125  1
  O  O10  1  0.83644686  0.72902531  0.59531125  1
  O  O11  1  0.66355314  0.22902531  0.90468875  1
  O  O12  1  0.15606132  0.66105500  0.40101386  1
  O  O13  1  0.34393868  0.16105500  0.09898614  1
  O  O14  1  0.84393868  0.33894500  0.59898614  1
  O  O15  1  0.65606132  0.83894500  0.90101386  1
  O  O16  1  0.07615990  0.96159839  0.19442629  1
  O  O17  1  0.42384010  0.46159839  0.30557371  1
  O  O18  1  0.92384010  0.03840161  0.80557371  1
  O  O19  1  0.57615990  0.53840161  0.69442629  1
