# generated using pymatgen
data_FeOF
_symmetry_space_group_name_H-M   'P 1'
_cell_length_a   9.49101106
_cell_length_b   14.17751847
_cell_length_c   3.07830580
_cell_angle_alpha   90.00000000
_cell_angle_beta   90.00000000
_cell_angle_gamma   90.08701104
_symmetry_Int_Tables_number   1
_chemical_formula_structural   FeOF
_chemical_formula_sum   'Fe12 O12 F12'
_cell_volume   414.21322530
_cell_formula_units_Z   12
loop_
 _symmetry_equiv_pos_site_id
 _symmetry_equiv_pos_as_xyz
  1  'x, y, z'
loop_
 _atom_site_type_symbol
 _atom_site_label
 _atom_site_symmetry_multiplicity
 _atom_site_fract_x
 _atom_site_fract_y
 _atom_site_fract_z
 _atom_site_occupancy
  Fe  Fe0  1  0.01021804  0.00648301  0.00000000  1
  Fe  Fe1  1  0.99011115  0.34013838  0.00000000  1
  Fe  Fe2  1  0.02285585  0.66114222  0.00000000  1
  Fe  Fe3  1  0.21561827  0.17584019  0.50000000  1
  Fe  Fe4  1  0.22917704  0.49135793  0.50000000  1
  Fe  Fe5  1  0.26345969  0.80653842  0.50000000  1
  Fe  Fe6  1  0.52043900  0.33520845  0.00000000  1
  Fe  Fe7  1  0.49567369  0.00692166  0.00000000  1
  Fe  Fe8  1  0.51682131  0.66051253  0.00000000  1
  Fe  Fe9  1  0.75116797  0.18839514  0.50000000  1
  Fe  Fe10  1  0.74427640  0.49264727  0.50000000  1
  Fe  Fe11  1  0.74030650  0.82511133  0.50000000  1
  O  O12  1  0.08676680  0.27418818  0.50000000  1
  O  O13  1  0.10164579  0.60126145  0.50000000  1
  O  O14  1  0.13921289  0.10268540  0.00000000  1
  O  O15  1  0.15462987  0.76938011  0.00000000  1
  O  O16  1  0.14759604  0.43285613  0.00000000  1
  O  O17  1  0.41698521  0.72113945  0.50000000  1
  O  O18  1  0.58915863  0.26634360  0.50000000  1
  O  O19  1  0.60499417  0.59811016  0.50000000  1
  O  O20  1  0.65097049  0.43634592  0.00000000  1
  O  O21  1  0.66045401  0.76854226  0.00000000  1
  O  O22  1  0.84833563  0.23366976  0.00000000  1
  O  O23  1  0.89561735  0.40504416  0.50000000  1
  F  F24  1  0.09959114  0.93721809  0.50000000  1
  F  F25  1  0.33498570  0.23370298  0.00000000  1
  F  F26  1  0.35085627  0.55654611  0.00000000  1
  F  F27  1  0.35077570  0.89583501  0.00000000  1
  F  F28  1  0.39193244  0.07319681  0.50000000  1
  F  F29  1  0.40033675  0.39723694  0.50000000  1
  F  F30  1  0.60567726  0.93802848  0.50000000  1
  F  F31  1  0.65833904  0.10123850  0.00000000  1
  F  F32  1  0.85564474  0.90043433  0.00000000  1
  F  F33  1  0.85030260  0.57199387  0.00000000  1
  F  F34  1  0.89723756  0.05990253  0.50000000  1
  F  F35  1  0.90783200  0.73480525  0.50000000  1
