# generated using pymatgen
data_CaFe5As3
_symmetry_space_group_name_H-M   'P 1'
_cell_length_a   3.81436994
_cell_length_b   7.27195445
_cell_length_c   9.46797671
_cell_angle_alpha   101.13146437
_cell_angle_beta   90.00000000
_cell_angle_gamma   90.00000000
_symmetry_Int_Tables_number   1
_chemical_formula_structural   CaFe5As3
_chemical_formula_sum   'Ca2 Fe10 As6'
_cell_volume   257.68125981
_cell_formula_units_Z   2
loop_
 _symmetry_equiv_pos_site_id
 _symmetry_equiv_pos_as_xyz
  1  'x, y, z'
loop_
 _atom_site_type_symbol
 _atom_site_label
 _atom_site_symmetry_multiplicity
 _atom_site_fract_x
 _atom_site_fract_y
 _atom_site_fract_z
 _atom_site_occupancy
  Ca  Ca0  1  0.75000000  0.30412120  0.71863652  1
  Ca  Ca1  1  0.25000000  0.69587880  0.28136348  1
  Fe  Fe2  1  0.75000000  0.61776836  0.00127858  1
  Fe  Fe3  1  0.25000000  0.38223164  0.99872142  1
  Fe  Fe4  1  0.25000000  0.87732958  0.00490094  1
  Fe  Fe5  1  0.75000000  0.12267042  0.99509906  1
  Fe  Fe6  1  0.75000000  0.81564584  0.79437690  1
  Fe  Fe7  1  0.25000000  0.18435416  0.20562310  1
  Fe  Fe8  1  0.25000000  0.57672559  0.58124690  1
  Fe  Fe9  1  0.75000000  0.42327441  0.41875310  1
  Fe  Fe10  1  0.25000000  0.96585846  0.57982098  1
  Fe  Fe11  1  0.75000000  0.03414154  0.42017902  1
  As  As12  1  0.25000000  0.60094919  0.83830168  1
  As  As13  1  0.75000000  0.39905081  0.16169832  1
  As  As14  1  0.25000000  0.07242751  0.84188949  1
  As  As15  1  0.75000000  0.92757249  0.15811051  1
  As  As16  1  0.75000000  0.75559832  0.52729534  1
  As  As17  1  0.25000000  0.24440168  0.47270466  1
