# generated using pymatgen
data_RbLiVPO5
_symmetry_space_group_name_H-M   'P 1'
_cell_length_a   7.57328907
_cell_length_b   8.40474804
_cell_length_c   8.59819636
_cell_angle_alpha   90.00023439
_cell_angle_beta   90.00015763
_cell_angle_gamma   90.00263137
_symmetry_Int_Tables_number   1
_chemical_formula_structural   RbLiVPO5
_chemical_formula_sum   'Rb4 Li4 V4 P4 O20'
_cell_volume   547.28883878
_cell_formula_units_Z   4
loop_
 _symmetry_equiv_pos_site_id
 _symmetry_equiv_pos_as_xyz
  1  'x, y, z'
loop_
 _atom_site_type_symbol
 _atom_site_label
 _atom_site_symmetry_multiplicity
 _atom_site_fract_x
 _atom_site_fract_y
 _atom_site_fract_z
 _atom_site_occupancy
  Rb  Rb0  1  0.63474161  0.20516812  0.01657896  1
  Rb  Rb1  1  0.36526370  0.29485417  0.51658011  1
  Rb  Rb2  1  0.86526412  0.70515882  0.98341762  1
  Rb  Rb3  1  0.13473797  0.79484812  0.48342159  1
  Li  Li4  1  0.42690653  0.99542466  0.29813096  1
  Li  Li5  1  0.57309112  0.50458062  0.79812916  1
  Li  Li6  1  0.07307105  0.49540270  0.70186561  1
  Li  Li7  1  0.92691432  0.00460379  0.20186314  1
  V  V8  1  0.15486735  0.22537809  0.12164253  1
  V  V9  1  0.84513971  0.27460264  0.62163595  1
  V  V10  1  0.34514756  0.72534481  0.87833663  1
  V  V11  1  0.65485572  0.77465590  0.37833361  1
  P  P12  1  0.11326618  0.06466419  0.84954774  1
  P  P13  1  0.88673986  0.43533052  0.34954861  1
  P  P14  1  0.38669779  0.56447530  0.15051124  1
  P  P15  1  0.61330074  0.93552753  0.65051094  1
  O  O16  1  0.18557949  0.06275483  0.26016993  1
  O  O17  1  0.97486164  0.06910891  0.98485977  1
  O  O18  1  0.66554508  0.10732360  0.68934291  1
  O  O19  1  0.04895580  0.14440571  0.69728846  1
  O  O20  1  0.26901964  0.16807956  0.91749750  1
  O  O21  1  0.73098801  0.33190935  0.41749479  1
  O  O22  1  0.95106125  0.35558351  0.19730041  1
  O  O23  1  0.33445084  0.39267923  0.18933626  1
  O  O24  1  0.02513931  0.43089748  0.48486811  1
  O  O25  1  0.81440556  0.43722001  0.76016515  1
  O  O26  1  0.31441195  0.56275832  0.73984090  1
  O  O27  1  0.52517733  0.56910674  0.01511820  1
  O  O28  1  0.83439574  0.60745475  0.31065276  1
  O  O29  1  0.45108237  0.64444557  0.30272514  1
  O  O30  1  0.23096895  0.66812588  0.08248696  1
  O  O31  1  0.76903297  0.83188027  0.58248609  1
  O  O32  1  0.54891688  0.85555184  0.80271731  1
  O  O33  1  0.16559847  0.89253620  0.81065826  1
  O  O34  1  0.47482588  0.93090485  0.51511235  1
  O  O35  1  0.68558251  0.93724340  0.23984134  1
