# generated using pymatgen
data_SrCu2GeS4
_symmetry_space_group_name_H-M   'P 1'
_cell_length_a   6.09072709
_cell_length_b   6.09032605
_cell_length_c   6.09063402
_cell_angle_alpha   94.40401124
_cell_angle_beta   117.49069124
_cell_angle_gamma   117.49014245
_symmetry_Int_Tables_number   1
_chemical_formula_structural   SrCu2GeS4
_chemical_formula_sum   'Sr1 Cu2 Ge1 S4'
_cell_volume   165.28847106
_cell_formula_units_Z   1
loop_
 _symmetry_equiv_pos_site_id
 _symmetry_equiv_pos_as_xyz
  1  'x, y, z'
loop_
 _atom_site_type_symbol
 _atom_site_label
 _atom_site_symmetry_multiplicity
 _atom_site_fract_x
 _atom_site_fract_y
 _atom_site_fract_z
 _atom_site_occupancy
  Sr  Sr0  1  0.99994886  0.99997967  0.99998829  1
  Cu  Cu1  1  0.50001906  0.25000324  0.74997325  1
  Cu  Cu2  1  0.50001628  0.75003054  0.25004019  1
  Ge  Ge3  1  0.00001081  0.50002635  0.50000150  1
  S  S4  1  0.00003925  0.53758649  0.13767805  1
  S  S5  1  0.99998029  0.13768402  0.53759909  1
  S  S6  1  0.39991348  0.86231046  0.86234416  1
  S  S7  1  0.60007197  0.46237923  0.46237547  1
