# generated using pymatgen
data_Li3Fe5O12
_symmetry_space_group_name_H-M   'P 1'
_cell_length_a   5.02715310
_cell_length_b   5.07228968
_cell_length_c   18.52707509
_cell_angle_alpha   86.34551983
_cell_angle_beta   92.61053180
_cell_angle_gamma   66.00953803
_symmetry_Int_Tables_number   1
_chemical_formula_structural   Li3Fe5O12
_chemical_formula_sum   'Li6 Fe10 O24'
_cell_volume   429.41110005
_cell_formula_units_Z   2
loop_
 _symmetry_equiv_pos_site_id
 _symmetry_equiv_pos_as_xyz
  1  'x, y, z'
loop_
 _atom_site_type_symbol
 _atom_site_label
 _atom_site_symmetry_multiplicity
 _atom_site_fract_x
 _atom_site_fract_y
 _atom_site_fract_z
 _atom_site_occupancy
  Li  Li0  1  0.32060544  0.19453532  0.89343783  1
  Li  Li1  1  0.30840133  0.18206575  0.39379769  1
  Li  Li2  1  0.17002085  0.61944973  0.25761453  1
  Li  Li3  1  0.85430231  0.35038789  0.75139449  1
  Li  Li4  1  0.93315990  0.92684246  0.87535053  1
  Li  Li5  1  0.92026304  0.93768613  0.37597540  1
  Fe  Fe6  1  0.07145202  0.05866214  0.62207437  1
  Fe  Fe7  1  0.98170423  0.53438514  0.99593577  1
  Fe  Fe8  1  0.06289229  0.07269840  0.12273848  1
  Fe  Fe9  1  0.98231364  0.52334214  0.49515332  1
  Fe  Fe10  1  0.51366346  -0.00022892  0.75336803  1
  Fe  Fe11  1  0.51569556  0.99551183  0.25259751  1
  Fe  Fe12  1  0.42308113  0.42911612  0.62185245  1
  Fe  Fe13  1  0.42840145  0.42899272  0.12226598  1
  Fe  Fe14  1  0.56814584  0.58316160  0.87581735  1
  Fe  Fe15  1  0.57514287  0.56962540  0.37530008  1
  O  O16  1  0.18847279  0.29037590  0.69229386  1
  O  O17  1  0.29642155  0.20192689  0.55567387  1
  O  O18  1  0.08883638  0.73898076  0.56742905  1
  O  O19  1  0.19735612  0.30525132  0.19163085  1
  O  O20  1  0.26976730  0.56514606  0.92851197  1
  O  O21  1  0.29237960  0.20623143  0.05534624  1
  O  O22  1  0.09512057  0.74441956  0.06702576  1
  O  O23  1  0.26240339  0.55832299  0.43113443  1
  O  O24  1  0.27594378  0.92848589  0.82071412  1
  O  O25  1  0.57931199  0.27546318  0.81885260  1
  O  O26  1  0.40396631  0.74826168  0.67582675  1
  O  O27  1  0.27658021  0.90072959  0.31962243  1
  O  O28  1  0.52605566  0.29183649  0.31851562  1
  O  O29  1  0.74065933  0.10797840  0.68339731  1
  O  O30  1  0.37733794  0.75678107  0.18001229  1
  O  O31  1  0.73954888  0.09308396  0.17992468  1
  O  O32  1  0.66691097  0.82121556  0.94165142  1
  O  O33  1  0.76448394  0.38406045  0.56909064  1
  O  O34  1  0.90822167  0.29464097  0.92929359  1
  O  O35  1  0.80435576  0.68265162  0.80465506  1
  O  O36  1  0.66229276  0.81260588  0.44144721  1
  O  O37  1  0.75496836  0.40221610  0.07070584  1
  O  O38  1  0.90823033  0.28179763  0.42757762  1
  O  O39  1  0.81000605  0.69239078  0.30389602  1
