# generated using pymatgen
data_Na2Ti2F7
_symmetry_space_group_name_H-M   'P 1'
_cell_length_a   7.49832578
_cell_length_b   7.49832578
_cell_length_c   24.96259838
_cell_angle_alpha   90.16040298
_cell_angle_beta   98.52919100
_cell_angle_gamma   119.79721923
_symmetry_Int_Tables_number   1
_chemical_formula_structural   Na2Ti2F7
_chemical_formula_sum   'Na16 Ti16 F56'
_cell_volume   1199.69415257
_cell_formula_units_Z   8
loop_
 _symmetry_equiv_pos_site_id
 _symmetry_equiv_pos_as_xyz
  1  'x, y, z'
loop_
 _atom_site_type_symbol
 _atom_site_label
 _atom_site_symmetry_multiplicity
 _atom_site_fract_x
 _atom_site_fract_y
 _atom_site_fract_z
 _atom_site_occupancy
  Na  Na0  1  -0.00000000  0.00000000  0.00000000  1
  Na  Na1  1  0.50000000  0.00000000  0.50000000  1
  Na  Na2  1  0.50000000  0.50000000  0.00000000  1
  Na  Na3  1  -0.00000000  0.50000000  0.50000000  1
  Na  Na4  1  -0.00000000  0.00000000  0.50000000  1
  Na  Na5  1  -0.00000000  0.50000000  0.00000000  1
  Na  Na6  1  0.45955564  0.20955564  0.25000000  1
  Na  Na7  1  0.54044436  0.79044436  0.75000000  1
  Na  Na8  1  0.97266740  0.21397120  0.25458999  1
  Na  Na9  1  0.02733260  0.78602880  0.74541001  1
  Na  Na10  1  0.45938121  0.71807741  0.24541001  1
  Na  Na11  1  0.54061879  0.28192259  0.75458999  1
  Na  Na12  1  0.23692207  0.86656588  0.12068375  1
  Na  Na13  1  0.76307793  0.13343412  0.87931625  1
  Na  Na14  1  0.24588213  0.11623832  0.37931625  1
  Na  Na15  1  0.75411787  0.88376168  0.62068375  1
  Ti  Ti16  1  0.50000000  0.00000000  0.00000000  1
  Ti  Ti17  1  0.50000000  0.50000000  0.50000000  1
  Ti  Ti18  1  -0.00039208  0.74960792  0.25000000  1
  Ti  Ti19  1  0.00039208  0.25039208  0.75000000  1
  Ti  Ti20  1  0.23713936  0.36507555  0.12564210  1
  Ti  Ti21  1  0.76286064  0.63492445  0.87435790  1
  Ti  Ti22  1  0.73943345  0.11149726  0.37435790  1
  Ti  Ti23  1  0.26056655  0.88850274  0.62564210  1
  Ti  Ti24  1  0.74305707  0.38086138  0.12910811  1
  Ti  Ti25  1  0.25694293  0.61913862  0.87089189  1
  Ti  Ti26  1  0.75175327  0.61394896  0.37089189  1
  Ti  Ti27  1  0.24824673  0.38605104  0.62910811  1
  Ti  Ti28  1  0.73923026  0.85913988  0.12565302  1
  Ti  Ti29  1  0.26076974  0.14086012  0.87434698  1
  Ti  Ti30  1  0.23348686  0.61357724  0.37434698  1
  Ti  Ti31  1  0.76651314  0.38642276  0.62565302  1
  F  F32  1  0.62708373  0.26615033  0.04936214  1
  F  F33  1  0.37291627  0.73384967  0.95063786  1
  F  F34  1  0.71678819  0.57772159  0.45063786  1
  F  F35  1  0.28321181  0.42227841  0.54936214  1
  F  F36  1  0.84407053  0.45165414  0.21220252  1
  F  F37  1  0.15592947  0.54834586  0.78779748  1
  F  F38  1  0.73945162  0.63186801  0.28779748  1
  F  F39  1  0.26054838  0.36813199  0.71220252  1
  F  F40  1  0.44345986  0.25849135  0.14287548  1
  F  F41  1  0.55654014  0.74150865  0.85712452  1
  F  F42  1  0.61561587  0.30058438  0.35712452  1
  F  F43  1  0.38438413  0.69941562  0.64287548  1
  F  F44  1  0.03526060  0.47549302  0.11292259  1
  F  F45  1  0.96473940  0.52450698  0.88707741  1
  F  F46  1  0.86257043  0.92233801  0.38707741  1
  F  F47  1  0.13742957  0.07766199  0.61292259  1
  F  F48  1  0.62249249  0.84799255  0.04590292  1
  F  F49  1  0.37750751  0.15200745  0.95409708  1
  F  F50  1  0.30208963  0.57658957  0.45409708  1
  F  F51  1  0.69791037  0.42341043  0.54590292  1
  F  F52  1  0.84405000  0.87914452  0.20640459  1
  F  F53  1  0.15595000  0.12085548  0.79359541  1
  F  F54  1  0.17273993  0.63764541  0.29359541  1
  F  F55  1  0.82726007  0.36235459  0.70640459  1
  F  F56  1  0.03267650  0.05360487  0.10949528  1
  F  F57  1  0.96732350  0.94639513  0.89050472  1
  F  F58  1  0.44410958  0.92318121  0.39050472  1
  F  F59  1  0.55589042  0.07681879  0.60949528  1
  F  F60  1  0.44351881  0.67830699  0.14147046  1
  F  F61  1  0.55648119  0.32169301  0.85852954  1
  F  F62  1  0.03683653  0.30204836  0.35852954  1
  F  F63  1  0.96316347  0.69795164  0.64147046  1
  F  F64  1  0.70581338  0.10189427  0.14577279  1
  F  F65  1  0.29418662  0.89810573  0.85422721  1
  F  F66  1  0.45612148  0.56004059  0.35422721  1
  F  F67  1  0.54387852  0.43995941  0.64577279  1
  F  F68  1  0.79648535  0.64409131  0.09416438  1
  F  F69  1  0.20351465  0.35590869  0.90583562  1
  F  F70  1  0.04992694  0.70232098  0.40583562  1
  F  F71  1  0.95007306  0.29767902  0.59416438  1
  F  F72  1  0.22819846  0.86280745  0.02974505  1
  F  F73  1  0.77180154  0.13719255  0.97025495  1
  F  F74  1  0.33306240  0.19845340  0.47025495  1
  F  F75  1  0.66693760  0.80154660  0.52974505  1
  F  F76  1  0.15445293  0.03349317  0.29078239  1
  F  F77  1  0.84554707  0.96650683  0.70921761  1
  F  F78  1  0.24271078  0.86367054  0.20921761  1
  F  F79  1  0.75728922  0.13632946  0.79078239  1
  F  F80  1  0.25075453  0.36994600  0.20766575  1
  F  F81  1  0.74924547  0.63005400  0.79233425  1
  F  F82  1  0.66228025  0.04308879  0.29233425  1
  F  F83  1  0.33771975  0.95691121  0.70766575  1
  F  F84  1  0.21975268  0.36055984  0.04338812  1
  F  F85  1  0.78024732  0.63944016  0.95661188  1
  F  F86  1  0.81717172  0.17636457  0.45661188  1
  F  F87  1  0.18282828  0.82363543  0.54338812  1
