# generated using pymatgen
data_Mg14FeBi
_symmetry_space_group_name_H-M   'P 1'
_cell_length_a   6.29162877
_cell_length_b   6.29162827
_cell_length_c   10.41094202
_cell_angle_alpha   90.00000000
_cell_angle_beta   90.00000000
_cell_angle_gamma   120.00000258
_symmetry_Int_Tables_number   1
_chemical_formula_structural   Mg14FeBi
_chemical_formula_sum   'Mg14 Fe1 Bi1'
_cell_volume   356.90020137
_cell_formula_units_Z   1
loop_
 _symmetry_equiv_pos_site_id
 _symmetry_equiv_pos_as_xyz
  1  'x, y, z'
loop_
 _atom_site_type_symbol
 _atom_site_label
 _atom_site_symmetry_multiplicity
 _atom_site_fract_x
 _atom_site_fract_y
 _atom_site_fract_z
 _atom_site_occupancy
  Mg  Mg0  1  0.16055874  0.83027887  0.12500000  1
  Mg  Mg1  1  0.16848993  0.83424447  0.62500000  1
  Mg  Mg2  1  0.66972113  0.33944126  0.12500000  1
  Mg  Mg3  1  0.66575553  0.33151007  0.62500000  1
  Mg  Mg4  1  0.66972113  0.83027887  0.12500000  1
  Mg  Mg5  1  0.66575553  0.83424447  0.62500000  1
  Mg  Mg6  1  0.32765458  0.17234542  0.35262214  1
  Mg  Mg7  1  0.32765458  0.17234542  0.89737786  1
  Mg  Mg8  1  0.32765458  0.65531016  0.35262214  1
  Mg  Mg9  1  0.32765458  0.65531016  0.89737786  1
  Mg  Mg10  1  0.84468984  0.17234542  0.35262214  1
  Mg  Mg11  1  0.84468984  0.17234542  0.89737786  1
  Mg  Mg12  1  0.83333300  0.66666700  0.37715511  1
  Mg  Mg13  1  0.83333300  0.66666700  0.87284489  1
  Fe  Fe14  1  0.16666700  0.33333300  0.12500000  1
  Bi  Bi15  1  0.16666700  0.33333300  0.62500000  1
