# generated using pymatgen
data_Li4Fe9CoO20
_symmetry_space_group_name_H-M   'P 1'
_cell_length_a   21.25019883
_cell_length_b   2.93307689
_cell_length_c   5.95307645
_cell_angle_alpha   90.00000000
_cell_angle_beta   82.03065097
_cell_angle_gamma   90.00000000
_symmetry_Int_Tables_number   1
_chemical_formula_structural   Li4Fe9CoO20
_chemical_formula_sum   'Li4 Fe9 Co1 O20'
_cell_volume   367.46270696
_cell_formula_units_Z   1
loop_
 _symmetry_equiv_pos_site_id
 _symmetry_equiv_pos_as_xyz
  1  'x, y, z'
loop_
 _atom_site_type_symbol
 _atom_site_label
 _atom_site_symmetry_multiplicity
 _atom_site_fract_x
 _atom_site_fract_y
 _atom_site_fract_z
 _atom_site_occupancy
  Li  Li0  1  0.29305021  0.50000000  0.59659439  1
  Li  Li1  1  0.50694979  0.50000000  0.00340561  1
  Li  Li2  1  0.80054312  0.00000000  0.60531476  1
  Li  Li3  1  0.99945688  0.00000000  0.99468524  1
  Fe  Fe4  1  0.10550784  0.50000000  0.67573617  1
  Fe  Fe5  1  0.19763312  0.00000000  0.93550291  1
  Fe  Fe6  1  0.30335238  0.50000000  0.09983094  1
  Fe  Fe7  1  0.40000000  0.00000000  0.30000000  1
  Fe  Fe8  1  0.49664762  0.50000000  0.50016906  1
  Fe  Fe9  1  0.60236688  0.00000000  0.66449709  1
  Fe  Fe10  1  0.69449216  0.50000000  0.92426383  1
  Fe  Fe11  1  0.80398380  0.00000000  0.09098563  1
  Fe  Fe12  1  0.99601620  0.00000000  0.50901437  1
  Co  Co13  1  0.90000000  0.50000000  0.30000000  1
  O  O14  1  0.00444015  0.50000000  0.72625075  1
  O  O15  1  0.09694944  0.00000000  0.47066436  1
  O  O16  1  0.10207045  0.00000000  0.90083470  1
  O  O17  1  0.21368497  0.50000000  0.14441262  1
  O  O18  1  0.20051606  0.50000000  0.70964439  1
  O  O19  1  0.30528682  0.00000000  0.32490147  1
  O  O20  1  0.29841488  0.00000000  0.88944172  1
  O  O21  1  0.39332963  0.50000000  0.07586392  1
  O  O22  1  0.40667037  0.50000000  0.52413608  1
  O  O23  1  0.49471318  0.00000000  0.27509853  1
  O  O24  1  0.50158512  0.00000000  0.71055828  1
  O  O25  1  0.58631503  0.50000000  0.45558738  1
  O  O26  1  0.59948394  0.50000000  0.89035561  1
  O  O27  1  0.70305056  0.00000000  0.12933564  1
  O  O28  1  0.69792955  0.00000000  0.69916530  1
  O  O29  1  0.81080697  0.50000000  0.32537480  1
  O  O30  1  0.79555985  0.50000000  0.87374925  1
  O  O31  1  0.90043878  0.00000000  0.09309546  1
  O  O32  1  0.89956122  0.00000000  0.50690454  1
  O  O33  1  0.98919303  0.50000000  0.27462520  1
