# generated using pymatgen
data_Sr3Ta7Si(BiO4)9
_symmetry_space_group_name_H-M   'P 1'
_cell_length_a   5.57552380
_cell_length_b   11.33623164
_cell_length_c   14.15231703
_cell_angle_alpha   66.15754902
_cell_angle_beta   102.35829975
_cell_angle_gamma   89.76162852
_symmetry_Int_Tables_number   1
_chemical_formula_structural   Sr3Ta7Si(BiO4)9
_chemical_formula_sum   'Sr3 Ta7 Si1 Bi9 O36'
_cell_volume   795.08212751
_cell_formula_units_Z   1
loop_
 _symmetry_equiv_pos_site_id
 _symmetry_equiv_pos_as_xyz
  1  'x, y, z'
loop_
 _atom_site_type_symbol
 _atom_site_label
 _atom_site_symmetry_multiplicity
 _atom_site_fract_x
 _atom_site_fract_y
 _atom_site_fract_z
 _atom_site_occupancy
  Sr  Sr0  1  0.24167199  0.24650005  0.99689155  1
  Sr  Sr1  1  0.76844493  0.49770489  0.01168925  1
  Sr  Sr2  1  0.74301474  0.00156962  0.99692849  1
  Ta  Ta3  1  0.15750512  0.07361008  0.83448189  1
  Ta  Ta4  1  0.16886914  0.57210907  0.83906825  1
  Ta  Ta5  1  0.35417033  0.39943022  0.17043533  1
  Ta  Ta6  1  0.33768286  0.91026917  0.16965533  1
  Ta  Ta7  1  0.65812972  0.33063194  0.82806047  1
  Ta  Ta8  1  0.66483191  0.82280210  0.83178042  1
  Ta  Ta9  1  0.83176562  0.15722537  0.16506167  1
  Si  Si10  1  0.82130317  0.69351650  0.16174833  1
  Bi  Bi11  1  0.03410774  0.47256478  0.58624398  1
  Bi  Bi12  1  0.03320995  0.98570461  0.59298798  1
  Bi  Bi13  1  0.25085706  0.74633104  0.01554662  1
  Bi  Bi14  1  0.41881760  0.07104320  0.40027613  1
  Bi  Bi15  1  0.42577565  0.58489949  0.39444241  1
  Bi  Bi16  1  0.57390331  0.23224410  0.57889751  1
  Bi  Bi17  1  0.59746259  0.72037236  0.59840709  1
  Bi  Bi18  1  0.96216495  0.36601395  0.36098344  1
  Bi  Bi19  1  0.98289927  0.83431274  0.39791642  1
  O  O20  1  0.01237801  0.12704598  0.68876803  1
  O  O21  1  0.01632148  0.65112923  0.69356778  1
  O  O22  1  0.03736165  0.29654416  0.14232214  1
  O  O23  1  0.03267901  0.80201711  0.13263191  1
  O  O24  1  0.09462251  0.05210793  0.13295209  1
  O  O25  1  0.15300687  0.55900638  0.12723875  1
  O  O26  1  0.25568027  0.13210529  0.50362512  1
  O  O27  1  0.24510993  0.63492336  0.50104668  1
  O  O28  1  0.24831687  0.40234769  0.48719840  1
  O  O29  1  0.26697743  0.88456365  0.50458223  1
  O  O30  1  0.37674138  0.43745562  0.82438750  1
  O  O31  1  0.39704462  0.92817648  0.84033549  1
  O  O32  1  0.41676043  0.18561396  0.83211675  1
  O  O33  1  0.44781131  0.67766092  0.84389182  1
  O  O34  1  0.33888238  0.82968677  0.31542368  1
  O  O35  1  0.32330664  0.32966881  0.31521313  1
  O  O36  1  0.30883997  0.46364864  0.00353518  1
  O  O37  1  0.29063134  0.97570152  0.00256743  1
  O  O38  1  0.64475607  0.39451088  0.68424657  1
  O  O39  1  0.64880254  0.88900091  0.69036746  1
  O  O40  1  0.53969271  0.23432996  0.17783892  1
  O  O41  1  0.55803754  0.75676025  0.17394384  1
  O  O42  1  0.62386113  0.00025002  0.17043652  1
  O  O43  1  0.66522278  0.45845250  0.19006313  1
  O  O44  1  0.73857924  0.14146734  0.48936042  1
  O  O45  1  0.74338530  0.63902647  0.49585903  1
  O  O46  1  0.74987653  0.40260853  0.48276433  1
  O  O47  1  0.75912797  0.88886896  0.49723037  1
  O  O48  1  0.69734866  0.22723682  0.00200330  1
  O  O49  1  0.69867968  0.70426844  0.03742105  1
  O  O50  1  0.90535471  0.43637826  0.86580965  1
  O  O51  1  0.91573837  0.92260236  0.87811447  1
  O  O52  1  0.93096178  0.18229161  0.86263319  1
  O  O53  1  0.95878756  0.68208032  0.88066344  1
  O  O54  1  0.98121446  0.06089260  0.31389234  1
  O  O55  1  0.95151321  0.58691498  0.28444531  1
