# generated using pymatgen
data_Li3Mn2CoO6
_symmetry_space_group_name_H-M   'P 1'
_cell_length_a   2.98868053
_cell_length_b   7.79535488
_cell_length_c   5.15788034
_cell_angle_alpha   103.26554751
_cell_angle_beta   73.15880183
_cell_angle_gamma   101.05179171
_symmetry_Int_Tables_number   1
_chemical_formula_structural   Li3Mn2CoO6
_chemical_formula_sum   'Li3 Mn2 Co1 O6'
_cell_volume   110.92882470
_cell_formula_units_Z   1
loop_
 _symmetry_equiv_pos_site_id
 _symmetry_equiv_pos_as_xyz
  1  'x, y, z'
loop_
 _atom_site_type_symbol
 _atom_site_label
 _atom_site_symmetry_multiplicity
 _atom_site_fract_x
 _atom_site_fract_y
 _atom_site_fract_z
 _atom_site_occupancy
  Li  Li0  1  0.33006336  0.16043475  0.50030703  1
  Li  Li1  1  -0.00000000  0.50000000  0.50000000  1
  Li  Li2  1  0.66993664  0.83956525  0.49969297  1
  Mn  Mn3  1  0.66340962  0.33037548  0.00355725  1
  Mn  Mn4  1  0.33659038  0.66962452  0.99644275  1
  Co  Co5  1  -0.00000000  -0.00000000  0.00000000  1
  O  O6  1  0.01369387  0.26119070  0.23380396  1
  O  O7  1  0.67770532  0.57527864  0.21986700  1
  O  O8  1  0.33321749  0.89922825  0.23279327  1
  O  O9  1  0.66678251  0.10077175  0.76720673  1
  O  O10  1  0.32229468  0.42472136  0.78013300  1
  O  O11  1  0.98630613  0.73880930  0.76619604  1
