# generated using pymatgen
data_Na12Mg5Al2Si29O72
_symmetry_space_group_name_H-M   'P 1'
_cell_length_a   5.34409698
_cell_length_b   8.71760646
_cell_length_c   27.93063048
_cell_angle_alpha   90.00000000
_cell_angle_beta   104.12927570
_cell_angle_gamma   90.00000000
_symmetry_Int_Tables_number   1
_chemical_formula_structural   Na12Mg5Al2Si29O72
_chemical_formula_sum   'Na12 Mg5 Al2 Si29 O72'
_cell_volume   1261.85937521
_cell_formula_units_Z   1
loop_
 _symmetry_equiv_pos_site_id
 _symmetry_equiv_pos_as_xyz
  1  'x, y, z'
loop_
 _atom_site_type_symbol
 _atom_site_label
 _atom_site_symmetry_multiplicity
 _atom_site_fract_x
 _atom_site_fract_y
 _atom_site_fract_z
 _atom_site_occupancy
  Na  Na0  1  -0.00000000  0.54011088  0.75000000  1
  Na  Na1  1  0.00015336  0.53804187  0.41668808  1
  Na  Na2  1  0.49734968  0.04463456  0.91617225  1
  Na  Na3  1  0.50000000  0.95701397  0.75000000  1
  Na  Na4  1  0.99984664  0.53804187  0.08331192  1
  Na  Na5  1  0.50265032  0.04463456  0.58382775  1
  Na  Na6  1  0.49981181  0.95411055  0.41670908  1
  Na  Na7  1  0.00303016  0.46055776  0.91755288  1
  Na  Na8  1  0.50000000  0.04579059  0.25000000  1
  Na  Na9  1  0.50018819  0.95411055  0.08329092  1
  Na  Na10  1  0.99696984  0.46055776  0.58244712  1
  Na  Na11  1  -0.00000000  0.46184105  0.25000000  1
  Mg  Mg12  1  0.50086227  0.65400636  0.91723074  1
  Mg  Mg13  1  0.49913773  0.65400636  0.58276926  1
  Mg  Mg14  1  0.49983378  0.34617936  0.41664371  1
  Mg  Mg15  1  0.50000000  0.65368810  0.25000000  1
  Mg  Mg16  1  0.50016622  0.34617936  0.08335629  1
  Al  Al17  1  -0.00000000  0.15483178  0.75000000  1
  Al  Al18  1  0.50000000  0.34692938  0.75000000  1
  Si  Si19  1  0.18507109  0.15074588  0.98500777  1
  Si  Si20  1  0.18463245  0.84561452  0.81895762  1
  Si  Si21  1  0.30592998  0.33674731  0.84649669  1
  Si  Si22  1  0.00005385  0.15288726  0.41673886  1
  Si  Si23  1  0.19046149  0.15410349  0.65161104  1
  Si  Si24  1  0.30211565  0.66249486  0.68005392  1
  Si  Si25  1  0.18482944  0.84855381  0.48523627  1
  Si  Si26  1  0.29798842  0.33290369  0.51262674  1
  Si  Si27  1  0.99994615  0.15288726  0.08326114  1
  Si  Si28  1  0.18473074  0.15126938  0.31831414  1
  Si  Si29  1  0.70201158  0.33290369  0.98737326  1
  Si  Si30  1  0.29808296  0.66658404  0.34589993  1
  Si  Si31  1  0.18459464  0.84865662  0.15159504  1
  Si  Si32  1  0.69788435  0.66249486  0.81994608  1
  Si  Si33  1  0.29801284  0.33338932  0.17921661  1
  Si  Si34  1  0.80953851  0.15410349  0.84838896  1
  Si  Si35  1  0.69407002  0.33674731  0.65350331  1
  Si  Si36  1  0.29754738  0.66636398  0.01266213  1
  Si  Si37  1  0.81536755  0.84561452  0.68104238  1
  Si  Si38  1  0.00043348  0.84591599  0.91633562  1
  Si  Si39  1  0.70245262  0.66636398  0.48733787  1
  Si  Si40  1  0.81492891  0.15074588  0.51499223  1
  Si  Si41  1  0.70198716  0.33338932  0.32078339  1
  Si  Si42  1  0.81540536  0.84865662  0.34840496  1
  Si  Si43  1  0.99956652  0.84591599  0.58366438  1
  Si  Si44  1  0.70191704  0.66658404  0.15410007  1
  Si  Si45  1  0.81526926  0.15126938  0.18168586  1
  Si  Si46  1  0.81517056  0.84855381  0.01476373  1
  Si  Si47  1  -0.00000000  0.84703271  0.25000000  1
  O  O48  1  0.08786057  0.24069439  0.86840602  1
  O  O49  1  0.17889188  0.98427279  0.95821700  1
  O  O50  1  0.19687087  0.69226231  0.95228447  1
  O  O51  1  0.08865662  0.75427490  0.70394214  1
  O  O52  1  0.24017120  0.83858701  0.87993613  1
  O  O53  1  0.17907482  0.01339268  0.79524959  1
  O  O54  1  0.23356497  0.32010115  0.78541659  1
  O  O55  1  0.31011382  0.50607918  0.86763859  1
  O  O56  1  0.42374936  0.23991586  0.96932236  1
  O  O57  1  0.08970034  0.23773865  0.53750617  1
  O  O58  1  0.26683759  0.17142335  0.71225610  1
  O  O59  1  0.17929266  0.98432837  0.62606801  1
  O  O60  1  0.20184053  0.68815490  0.61955560  1
  O  O61  1  0.32227024  0.49196938  0.70352817  1
  O  O62  1  0.42065615  0.75400550  0.80215800  1
  O  O63  1  0.09107358  0.76219956  0.37101809  1
  O  O64  1  0.24044141  0.84238624  0.54634369  1
  O  O65  1  0.17990312  0.01532938  0.45875493  1
  O  O66  1  0.19921470  0.30631410  0.45210559  1
  O  O67  1  0.30977352  0.50360783  0.53274321  1
  O  O68  1  0.41955671  0.24327740  0.63228262  1
  O  O69  1  0.58044329  0.24327740  0.86771738  1
  O  O70  1  0.09084449  0.23781055  0.20431115  1
  O  O71  1  0.24040994  0.15655678  0.37923836  1
  O  O72  1  0.69022648  0.50360783  0.96725679  1
  O  O73  1  0.17972022  0.98452042  0.29180832  1
  O  O74  1  0.19911029  0.69318601  0.28541174  1
  O  O75  1  0.31056138  0.49622956  0.36643175  1
  O  O76  1  0.75955859  0.84238624  0.95365631  1
  O  O77  1  0.42469392  0.76004173  0.46977864  1
  O  O78  1  0.57934385  0.75400550  0.69784200  1
  O  O79  1  0.09057841  0.76234321  0.03768618  1
  O  O80  1  0.24033995  0.84327171  0.21251234  1
  O  O81  1  0.67772976  0.49196938  0.79647183  1
  O  O82  1  0.17947319  0.01539929  0.12506501  1
  O  O83  1  0.19904121  0.30676543  0.11872105  1
  O  O84  1  0.79815947  0.68815490  0.88044440  1
  O  O85  1  0.82070734  0.98432837  0.87393199  1
  O  O86  1  0.31066920  0.50369965  0.19976049  1
  O  O87  1  0.73316241  0.17142335  0.78774390  1
  O  O88  1  0.91029966  0.23773865  0.96249383  1
  O  O89  1  0.42422219  0.24008394  0.30280327  1
  O  O90  1  0.57625064  0.23991586  0.53067764  1
  O  O91  1  0.24075311  0.15635189  0.04590032  1
  O  O92  1  0.68988618  0.50607918  0.63236141  1
  O  O93  1  0.76643503  0.32010115  0.71458341  1
  O  O94  1  0.82092518  0.01339268  0.70475041  1
  O  O95  1  0.31084908  0.49620781  0.03328596  1
  O  O96  1  0.75982880  0.83858701  0.62006387  1
  O  O97  1  0.91134338  0.75427490  0.79605786  1
  O  O98  1  0.42413802  0.75983724  0.13609531  1
  O  O99  1  0.57586198  0.75983724  0.36390469  1
  O  O100  1  0.68915092  0.49620781  0.46671404  1
  O  O101  1  0.80312913  0.69226231  0.54771553  1
  O  O102  1  0.82110812  0.98427279  0.54178300  1
  O  O103  1  0.75924689  0.15635189  0.45409968  1
  O  O104  1  0.91213943  0.24069439  0.63159398  1
  O  O105  1  0.57577781  0.24008394  0.19719673  1
  O  O106  1  0.68933080  0.50369965  0.30023951  1
  O  O107  1  0.80095879  0.30676543  0.38127895  1
  O  O108  1  0.82052681  0.01539929  0.37493499  1
  O  O109  1  0.75966005  0.84327171  0.28748766  1
  O  O110  1  0.90942159  0.76234321  0.46231382  1
  O  O111  1  0.57530608  0.76004173  0.03022136  1
  O  O112  1  0.68943862  0.49622956  0.13356825  1
  O  O113  1  0.80088971  0.69318601  0.21458826  1
  O  O114  1  0.82027978  0.98452042  0.20819168  1
  O  O115  1  0.75959006  0.15655678  0.12076164  1
  O  O116  1  0.90915551  0.23781055  0.29568885  1
  O  O117  1  0.80078530  0.30631410  0.04789441  1
  O  O118  1  0.82009688  0.01532938  0.04124507  1
  O  O119  1  0.90892642  0.76219956  0.12898191  1
