# generated using pymatgen
data_Li5Mn2CoO8
_symmetry_space_group_name_H-M   'P 1'
_cell_length_a   5.04079077
_cell_length_b   5.74930221
_cell_length_c   5.84060651
_cell_angle_alpha   60.60845446
_cell_angle_beta   106.08015310
_cell_angle_gamma   106.55527009
_symmetry_Int_Tables_number   1
_chemical_formula_structural   Li5Mn2CoO8
_chemical_formula_sum   'Li5 Mn2 Co1 O8'
_cell_volume   139.44717875
_cell_formula_units_Z   1
loop_
 _symmetry_equiv_pos_site_id
 _symmetry_equiv_pos_as_xyz
  1  'x, y, z'
loop_
 _atom_site_type_symbol
 _atom_site_label
 _atom_site_symmetry_multiplicity
 _atom_site_fract_x
 _atom_site_fract_y
 _atom_site_fract_z
 _atom_site_occupancy
  Li  Li0  1  0.49782599  0.26423531  0.73352923  1
  Li  Li1  1  0.50239762  0.74974891  0.74762881  1
  Li  Li2  1  0.50217401  0.73576469  0.26647077  1
  Li  Li3  1  0.49760238  0.25025109  0.25237119  1
  Li  Li4  1  0.00000000  0.50000000  0.50000000  1
  Mn  Mn5  1  0.00000000  0.00000000  -0.00000000  1
  Mn  Mn6  1  0.00000000  0.50000000  -0.00000000  1
  Co  Co7  1  0.00000000  0.00000000  0.50000000  1
  O  O8  1  0.23676464  0.85491882  0.90672268  1
  O  O9  1  0.22545280  0.36222584  0.88793008  1
  O  O10  1  0.21925708  0.36029885  0.35952152  1
  O  O11  1  0.21742797  0.89106379  0.35794657  1
  O  O12  1  0.78074292  0.63970115  0.64047848  1
  O  O13  1  0.78257203  0.10893621  0.64205343  1
  O  O14  1  0.76323536  0.14508118  0.09327732  1
  O  O15  1  0.77454720  0.63777416  0.11206992  1
