# generated using pymatgen
data_Li2MnCoO4
_symmetry_space_group_name_H-M   'P 1'
_cell_length_a   2.92248246
_cell_length_b   9.79536261
_cell_length_c   5.17927442
_cell_angle_alpha   85.11177901
_cell_angle_beta   90.12009749
_cell_angle_gamma   81.54108684
_symmetry_Int_Tables_number   1
_chemical_formula_structural   Li2MnCoO4
_chemical_formula_sum   'Li4 Mn2 Co2 O8'
_cell_volume   146.10352619
_cell_formula_units_Z   2
loop_
 _symmetry_equiv_pos_site_id
 _symmetry_equiv_pos_as_xyz
  1  'x, y, z'
loop_
 _atom_site_type_symbol
 _atom_site_label
 _atom_site_symmetry_multiplicity
 _atom_site_fract_x
 _atom_site_fract_y
 _atom_site_fract_z
 _atom_site_occupancy
  Li  Li0  1  0.87626956  0.24848351  0.63336809  1
  Li  Li1  1  0.12500000  0.75000000  0.37500000  1
  Li  Li2  1  0.37373044  0.25151649  0.11663191  1
  Li  Li3  1  0.62500000  0.75000000  0.87500000  1
  Mn  Mn4  1  0.49996367  0.99970374  0.49980943  1
  Mn  Mn5  1  0.75003633  0.50029626  0.25019057  1
  Co  Co6  1  0.99960314  0.00060053  -0.00000787  1
  Co  Co7  1  0.25039686  0.49939947  0.75000787  1
  O  O8  1  0.44408698  0.11554336  0.79104827  1
  O  O9  1  0.69525315  0.61332435  0.54379031  1
  O  O10  1  0.94362225  0.11247913  0.33925060  1
  O  O11  1  0.19323016  0.61372749  0.08613444  1
  O  O12  1  0.30637775  0.38752087  0.41074940  1
  O  O13  1  0.55474685  0.88667565  0.20620969  1
  O  O14  1  0.80591302  0.38445664  0.95895173  1
  O  O15  1  0.05676984  0.88627251  0.66386556  1
