# generated using pymatgen
data_Li3Co2O5
_symmetry_space_group_name_H-M   'P 1'
_cell_length_a   5.06438549
_cell_length_b   5.01382982
_cell_length_c   7.59910040
_cell_angle_alpha   70.73752351
_cell_angle_beta   96.29562800
_cell_angle_gamma   109.41469912
_symmetry_Int_Tables_number   1
_chemical_formula_structural   Li3Co2O5
_chemical_formula_sum   'Li6 Co4 O10'
_cell_volume   171.79614343
_cell_formula_units_Z   2
loop_
 _symmetry_equiv_pos_site_id
 _symmetry_equiv_pos_as_xyz
  1  'x, y, z'
loop_
 _atom_site_type_symbol
 _atom_site_label
 _atom_site_symmetry_multiplicity
 _atom_site_fract_x
 _atom_site_fract_y
 _atom_site_fract_z
 _atom_site_occupancy
  Li  Li0  1  0.50000000  0.49815805  0.00368390  1
  Li  Li1  1  0.50000000  0.90000000  0.20000000  1
  Li  Li2  1  0.50000000  0.30184195  0.39631610  1
  Li  Li3  1  0.50000000  0.70184491  0.59631017  1
  Li  Li4  1  0.50000000  0.09815509  0.80368983  1
  Li  Li5  1  -0.00000000  0.40000000  0.20000000  1
  Co  Co6  1  0.00000000  0.99723485  0.00553029  1
  Co  Co7  1  1.00000000  0.80276515  0.39446971  1
  Co  Co8  1  1.00000000  0.20400935  0.59198131  1
  Co  Co9  1  0.00000000  0.59599065  0.80801869  1
  O  O10  1  0.22197992  0.76716847  0.99140016  1
  O  O11  1  0.22270714  0.11697467  0.20000000  1
  O  O12  1  0.22197992  0.55856862  0.40859984  1
  O  O13  1  0.22676048  0.93738515  0.58805762  1
  O  O14  1  0.22676048  0.32544277  0.81194238  1
  O  O15  1  0.77802008  0.24143138  0.99140016  1
  O  O16  1  0.77729286  0.68302533  0.20000000  1
  O  O17  1  0.77802008  0.03283153  0.40859984  1
  O  O18  1  0.77323952  0.47455723  0.58805762  1
  O  O19  1  0.77323952  0.86261485  0.81194238  1
