# generated using pymatgen
data_Nb2Zn(PbO3)3
_symmetry_space_group_name_H-M   'P 1'
_cell_length_a   4.19144484
_cell_length_b   12.52428465
_cell_length_c   5.81841419
_cell_angle_alpha   44.66089424
_cell_angle_beta   89.15565854
_cell_angle_gamma   89.22813874
_symmetry_Int_Tables_number   1
_chemical_formula_structural   Nb2Zn(PbO3)3
_chemical_formula_sum   'Nb2 Zn1 Pb3 O9'
_cell_volume   214.66912329
_cell_formula_units_Z   1
loop_
 _symmetry_equiv_pos_site_id
 _symmetry_equiv_pos_as_xyz
  1  'x, y, z'
loop_
 _atom_site_type_symbol
 _atom_site_label
 _atom_site_symmetry_multiplicity
 _atom_site_fract_x
 _atom_site_fract_y
 _atom_site_fract_z
 _atom_site_occupancy
  Nb  Nb0  1  0.45669456  0.64996006  0.51469892  1
  Nb  Nb1  1  0.45539358  0.33628523  0.49317922  1
  Zn  Zn2  1  0.46634089  0.98860100  0.48004176  1
  Pb  Pb3  1  0.88453144  0.98542013  0.96378921  1
  Pb  Pb4  1  0.94270931  0.26953188  0.08287490  1
  Pb  Pb5  1  0.93101627  0.70875563  0.91177735  1
  O  O6  1  0.98872566  0.99683411  0.52610829  1
  O  O7  1  0.00996166  0.33853354  0.49641360  1
  O  O8  1  0.01036754  0.66023655  0.50659814  1
  O  O9  1  0.51670651  0.18407969  0.97900057  1
  O  O10  1  0.53133707  0.81994049  0.02623158  1
  O  O11  1  0.52187586  0.49971636  0.00306153  1
  O  O12  1  0.52927803  0.17655089  0.50642806  1
  O  O13  1  0.51911489  0.50113312  0.49558362  1
  O  O14  1  0.52454674  0.81395432  0.51421325  1
