# generated using pymatgen
data_BAsO4
_symmetry_space_group_name_H-M   'P 1'
_cell_length_a   4.63712973
_cell_length_b   4.63712974
_cell_length_c   10.52237039
_cell_angle_alpha   90.00000000
_cell_angle_beta   90.00000000
_cell_angle_gamma   120.00000003
_symmetry_Int_Tables_number   1
_chemical_formula_structural   BAsO4
_chemical_formula_sum   'B3 As3 O12'
_cell_volume   195.94884555
_cell_formula_units_Z   3
loop_
 _symmetry_equiv_pos_site_id
 _symmetry_equiv_pos_as_xyz
  1  'x, y, z'
loop_
 _atom_site_type_symbol
 _atom_site_label
 _atom_site_symmetry_multiplicity
 _atom_site_fract_x
 _atom_site_fract_y
 _atom_site_fract_z
 _atom_site_occupancy
  B  B0  1  0.53674520  0.00000000  0.33333333  1
  B  B1  1  0.00000000  0.53674520  0.66666667  1
  B  B2  1  0.46325480  0.46325480  0.00000000  1
  O  O3  1  0.27391959  0.86968793  0.70539980  1
  O  O4  1  0.69098628  0.60550415  0.11014793  1
  O  O5  1  0.39449585  0.08548213  0.44348127  1
  O  O6  1  0.59576834  0.72608041  0.37206646  1
  O  O7  1  0.86968793  0.27391959  0.29460020  1
  O  O8  1  0.13031207  0.40423166  0.03873313  1
  O  O9  1  0.72608041  0.59576834  0.62793354  1
  O  O10  1  0.40423166  0.13031207  0.96126687  1
  O  O11  1  0.08548213  0.39449585  0.55651873  1
  O  O12  1  0.60550415  0.69098628  0.88985207  1
  O  O13  1  0.30901372  0.91451787  0.22318540  1
  O  O14  1  0.91451787  0.30901372  0.77681460  1
  As  As15  1  0.54099577  0.00000000  0.83333333  1
  As  As16  1  0.45900423  0.45900423  0.50000000  1
  As  As17  1  0.00000000  0.54099577  0.16666667  1
