# generated using pymatgen
data_LiMnPO4
_symmetry_space_group_name_H-M   'P 1'
_cell_length_a   8.57862309
_cell_length_b   7.64063580
_cell_length_c   14.85827143
_cell_angle_alpha   89.08846837
_cell_angle_beta   90.39065243
_cell_angle_gamma   89.77000853
_symmetry_Int_Tables_number   1
_chemical_formula_structural   LiMnPO4
_chemical_formula_sum   'Li12 Mn12 P12 O48'
_cell_volume   973.74810225
_cell_formula_units_Z   12
loop_
 _symmetry_equiv_pos_site_id
 _symmetry_equiv_pos_as_xyz
  1  'x, y, z'
loop_
 _atom_site_type_symbol
 _atom_site_label
 _atom_site_symmetry_multiplicity
 _atom_site_fract_x
 _atom_site_fract_y
 _atom_site_fract_z
 _atom_site_occupancy
  Li  Li0  1  0.07298913  0.66453317  0.40856236  1
  Li  Li1  1  0.07481035  0.82191695  0.75892736  1
  Li  Li2  1  0.08840834  0.66182086  0.08136525  1
  Li  Li3  1  0.40367924  0.17390479  0.41861131  1
  Li  Li4  1  0.41874787  0.31728621  0.74565891  1
  Li  Li5  1  0.43372350  0.16161754  0.09146490  1
  Li  Li6  1  0.56896321  0.83556176  0.90787324  1
  Li  Li7  1  0.57569023  0.68705857  0.25656460  1
  Li  Li8  1  0.59641497  0.82940610  0.58082955  1
  Li  Li9  1  0.90929841  0.33644819  0.92032984  1
  Li  Li10  1  0.92301779  0.17065386  0.24051614  1
  Li  Li11  1  0.92865117  0.33772630  0.59046270  1
  Mn  Mn12  1  0.23945763  0.96061110  0.92203500  1
  Mn  Mn13  1  0.24000859  0.03670280  0.58738718  1
  Mn  Mn14  1  0.23451707  0.94275575  0.23971003  1
  Mn  Mn15  1  0.25960082  0.53668585  0.91425162  1
  Mn  Mn16  1  0.25651208  0.43711606  0.24648785  1
  Mn  Mn17  1  0.26449507  0.46657053  0.57551154  1
  Mn  Mn18  1  0.73711513  0.54025136  0.42247366  1
  Mn  Mn19  1  0.74250681  0.55601853  0.74898742  1
  Mn  Mn20  1  0.73632461  0.46337423  0.08959501  1
  Mn  Mn21  1  0.75942118  0.06667630  0.75841676  1
  Mn  Mn22  1  0.76041559  0.96804217  0.41393540  1
  Mn  Mn23  1  0.76192238  0.03536622  0.07419890  1
  P  P24  1  0.94412126  0.73705787  0.58842785  1
  P  P25  1  0.91371022  0.76475911  0.23213586  1
  P  P26  1  0.89252339  0.73254593  0.92661264  1
  P  P27  1  0.60443116  0.23291896  0.57626632  1
  P  P28  1  0.58830958  0.27160807  0.26690710  1
  P  P29  1  0.55980255  0.24144948  0.91305881  1
  P  P30  1  0.43910309  0.75946897  0.08725099  1
  P  P31  1  0.41268113  0.72918250  0.73345861  1
  P  P32  1  0.39469643  0.77507727  0.42329482  1
  P  P33  1  0.11113625  0.25702871  0.07341134  1
  P  P34  1  0.08397435  0.23218572  0.76928447  1
  P  P35  1  0.05668489  0.26586504  0.41049478  1
  O  O36  1  0.10071606  0.37340575  0.84179379  1
  O  O37  1  0.96090435  0.11407196  0.37014757  1
  O  O38  1  0.94127097  0.22838011  0.03975449  1
  O  O39  1  0.91647750  0.94371584  0.18025216  1
  O  O40  1  0.92434003  0.26039966  0.71841230  1
  O  O41  1  0.90117274  0.61779620  0.16224905  1
  O  O42  1  0.90684566  0.76684095  0.48619829  1
  O  O43  1  0.89328100  0.72167524  0.82172540  1
  O  O44  1  0.71002391  0.38517267  0.54387742  1
  O  O45  1  0.78013494  0.76260447  0.30229907  1
  O  O46  1  0.78574254  0.72474231  0.63957403  1
  O  O47  1  0.78137662  0.88255681  0.95472000  1
  O  O48  1  0.03475008  0.56257380  0.60180178  1
  O  O49  1  0.04070127  0.88758538  0.62917954  1
  O  O50  1  0.06287496  0.76403624  0.95981586  1
  O  O51  1  0.07530129  0.05026534  0.81814687  1
  O  O52  1  0.07432243  0.74522000  0.28221754  1
  O  O53  1  0.96578640  0.43982079  0.39642498  1
  O  O54  1  0.09358869  0.23692845  0.51280867  1
  O  O55  1  0.11329978  0.25065810  0.17926378  1
  O  O56  1  0.17115102  0.43898245  0.04259673  1
  O  O57  1  0.21815904  0.23482287  0.69951473  1
  O  O58  1  0.21533867  0.27883205  0.35957043  1
  O  O59  1  0.22393312  0.11386436  0.04006246  1
  O  O60  1  0.29001635  0.62163997  0.45547531  1
  O  O61  1  0.27888375  0.74416800  0.80390765  1
  O  O62  1  0.27957535  0.76288312  0.13751135  1
  O  O63  1  0.33077922  0.94793650  0.46083743  1
  O  O64  1  0.39229566  0.78785111  0.31815962  1
  O  O65  1  0.40322887  0.73893867  0.98475408  1
  O  O66  1  0.40420267  0.87217893  0.65910791  1
  O  O67  1  0.43016452  0.25316840  0.21424224  1
  O  O68  1  0.40892297  0.54772041  0.68768954  1
  O  O69  1  0.43191525  0.26138048  0.54405815  1
  O  O70  1  0.45929886  0.39368972  0.87546103  1
  O  O71  1  0.47418558  0.06685266  0.89531224  1
  O  O72  1  0.52891904  0.93201021  0.10338467  1
  O  O73  1  0.53619804  0.60611565  0.12726997  1
  O  O74  1  0.56761176  0.74530845  0.45468536  1
  O  O75  1  0.58954745  0.45352821  0.31213661  1
  O  O76  1  0.57220999  0.74523580  0.78487055  1
  O  O77  1  0.59663348  0.12962627  0.34157563  1
  O  O78  1  0.59867565  0.25882593  0.01544531  1
  O  O79  1  0.60453570  0.22390326  0.68183231  1
  O  O80  1  0.66942111  0.05834318  0.54120684  1
  O  O81  1  0.71863428  0.24348295  0.86165287  1
  O  O82  1  0.72271871  0.25633415  0.19697520  1
  O  O83  1  0.83205624  0.55666930  0.96527812  1
