# generated using pymatgen
data_Li6V3Fe(PO4)6
_symmetry_space_group_name_H-M   'P 1'
_cell_length_a   8.63366425
_cell_length_b   8.63495457
_cell_length_c   8.65037472
_cell_angle_alpha   61.62833442
_cell_angle_beta   61.32145046
_cell_angle_gamma   61.40279738
_symmetry_Int_Tables_number   1
_chemical_formula_structural   Li6V3Fe(PO4)6
_chemical_formula_sum   'Li6 V3 Fe1 P6 O24'
_cell_volume   470.86036722
_cell_formula_units_Z   1
loop_
 _symmetry_equiv_pos_site_id
 _symmetry_equiv_pos_as_xyz
  1  'x, y, z'
loop_
 _atom_site_type_symbol
 _atom_site_label
 _atom_site_symmetry_multiplicity
 _atom_site_fract_x
 _atom_site_fract_y
 _atom_site_fract_z
 _atom_site_occupancy
  Li  Li0  1  0.02534092  0.00614425  0.99695046  1
  Li  Li1  1  0.75023587  0.15296390  0.34777247  1
  Li  Li2  1  0.47413182  0.50234506  0.49057873  1
  Li  Li3  1  0.24315715  0.84698064  0.65727952  1
  Li  Li4  1  0.66025301  0.24011746  0.84629891  1
  Li  Li5  1  0.84462838  0.66215513  0.24141545  1
  V  V6  1  0.14412583  0.14512716  0.13798530  1
  V  V7  1  0.35618316  0.36234469  0.35518108  1
  V  V8  1  0.64451096  0.64606451  0.64594935  1
  Fe  Fe9  1  0.85179851  0.85024550  0.85242979  1
  P  P10  1  0.04713933  0.75097451  0.45067683  1
  P  P11  1  0.45280513  0.05100852  0.74798156  1
  P  P12  1  0.75002861  0.45306277  0.04703476  1
  P  P13  1  0.24886761  0.54478610  0.95781129  1
  P  P14  1  0.54546178  0.96135346  0.24902235  1
  P  P15  1  0.95610209  0.24782406  0.54072973  1
  O  O16  1  0.12599355  0.28880079  0.50238306  1
  O  O17  1  0.29917192  0.51309753  0.11918088  1
  O  O18  1  0.04581975  0.92126555  0.26996951  1
  O  O19  1  0.52814073  0.12071154  0.29781928  1
  O  O20  1  0.23793983  0.59399423  0.42946823  1
  O  O21  1  0.01395530  0.80560118  0.61387131  1
  O  O22  1  0.26258688  0.07041486  0.90573748  1
  O  O23  1  0.45470643  0.23248757  0.57906028  1
  O  O24  1  0.59421995  0.43276580  0.24082829  1
  O  O25  1  0.19982159  0.38290041  0.98759787  1
  O  O26  1  0.08681166  0.73695994  0.93442350  1
  O  O27  1  0.37504895  0.00017093  0.20874335  1
  O  O28  1  0.61253075  0.01317874  0.80977977  1
  O  O29  1  0.90528838  0.25940592  0.07098470  1
  O  O30  1  0.80929598  0.61214886  0.01409512  1
  O  O31  1  0.40850408  0.57217868  0.76438721  1
  O  O32  1  0.57144435  0.76838728  0.40640369  1
  O  O33  1  0.73395761  0.93699301  0.08373301  1
  O  O34  1  0.97255906  0.20223297  0.38005572  1
  O  O35  1  0.76550640  0.41006064  0.57066525  1
  O  O36  1  0.48803717  0.88944477  0.68964601  1
  O  O37  1  0.93355944  0.08631856  0.73107608  1
  O  O38  1  0.69253626  0.48524991  0.88919289  1
  O  O39  1  0.88779181  0.69073263  0.48679692  1
