# generated using pymatgen
data_LiV4OF11
_symmetry_space_group_name_H-M   'P 1'
_cell_length_a   5.20704087
_cell_length_b   5.54525336
_cell_length_c   17.27499382
_cell_angle_alpha   88.53648408
_cell_angle_beta   98.69979939
_cell_angle_gamma   118.03519060
_symmetry_Int_Tables_number   1
_chemical_formula_structural   LiV4OF11
_chemical_formula_sum   'Li2 V8 O2 F22'
_cell_volume   434.61507777
_cell_formula_units_Z   2
loop_
 _symmetry_equiv_pos_site_id
 _symmetry_equiv_pos_as_xyz
  1  'x, y, z'
loop_
 _atom_site_type_symbol
 _atom_site_label
 _atom_site_symmetry_multiplicity
 _atom_site_fract_x
 _atom_site_fract_y
 _atom_site_fract_z
 _atom_site_occupancy
  Li  Li0  1  0.69559713  0.44176883  0.95767731  1
  Li  Li1  1  0.04622545  0.43524321  0.66718794  1
  V  V2  1  0.98754458  0.02510679  0.00678368  1
  V  V3  1  0.76010580  0.36282346  0.12473328  1
  V  V4  1  0.51103564  0.74783546  0.25024811  1
  V  V5  1  0.26345764  0.12675715  0.37459938  1
  V  V6  1  0.49055716  0.24385962  0.74984427  1
  V  V7  1  0.70706624  0.84930814  0.61853354  1
  V  V8  1  0.02286931  0.51193220  0.50019912  1
  V  V9  1  0.24569428  0.63022995  0.87545990  1
  O  O10  1  0.81123703  0.22686043  0.02955909  1
  O  O11  1  0.30552826  0.64883311  0.59503579  1
  F  F12  1  0.74640250  0.05217309  0.18924328  1
  F  F13  1  0.77794974  0.20336189  0.57122696  1
  F  F14  1  0.74961925  0.67007922  0.05390659  1
  F  F15  1  0.69026828  0.34108266  0.41177359  1
  F  F16  1  0.68598493  0.53365353  0.21310499  1
  F  F17  1  0.69364958  0.05076142  0.71790754  1
  F  F18  1  0.82249994  0.71555003  0.53237381  1
  F  F19  1  0.32337187  0.15690042  0.09273744  1
  F  F20  1  0.83462331  0.91243147  0.34091052  1
  F  F21  1  0.79549761  0.40508869  0.84632087  1
  F  F22  1  0.75077878  0.55387127  0.69128917  1
  F  F23  1  0.27885855  0.43701642  0.31180606  1
  F  F24  1  0.18279637  0.58896343  0.15912436  1
  F  F25  1  0.18770742  0.28783158  0.46508554  1
  F  F26  1  0.67653978  0.82475436  0.90795331  1
  F  F27  1  0.17124033  0.09799402  0.66300840  1
  F  F28  1  0.33084036  0.96247948  0.28417691  1
  F  F29  1  0.29737401  0.47003636  0.77888301  1
  F  F30  1  0.25655067  0.82359286  0.43642062  1
  F  F31  1  0.25442060  0.32349036  0.93399349  1
  F  F32  1  0.25395467  0.93530036  0.81248967  1
  F  F33  1  0.15703092  0.77802077  0.96139945  1
