# generated using pymatgen
data_KNbPCO7
_symmetry_space_group_name_H-M   'P 1'
_cell_length_a   10.09314711
_cell_length_b   6.52485982
_cell_length_c   5.60847861
_cell_angle_alpha   90.00000000
_cell_angle_beta   88.58628180
_cell_angle_gamma   90.00000000
_symmetry_Int_Tables_number   1
_chemical_formula_structural   KNbPCO7
_chemical_formula_sum   'K2 Nb2 P2 C2 O14'
_cell_volume   369.24161519
_cell_formula_units_Z   2
loop_
 _symmetry_equiv_pos_site_id
 _symmetry_equiv_pos_as_xyz
  1  'x, y, z'
loop_
 _atom_site_type_symbol
 _atom_site_label
 _atom_site_symmetry_multiplicity
 _atom_site_fract_x
 _atom_site_fract_y
 _atom_site_fract_z
 _atom_site_occupancy
  K  K0  1  0.23301042  0.43924618  0.25340516  1
  K  K1  1  0.76698958  0.93924618  0.74659484  1
  Nb  Nb2  1  0.33703015  0.77796105  0.77884647  1
  Nb  Nb3  1  0.66296985  0.27796105  0.22115353  1
  P  P4  1  0.44402222  0.27028480  0.71985738  1
  P  P5  1  0.55597778  0.77028480  0.28014262  1
  C  C6  1  0.08937918  0.73504638  0.72233530  1
  C  C7  1  0.91062082  0.23504638  0.27766470  1
  O  O8  1  0.02918516  0.21382549  0.30474216  1
  O  O9  1  0.15085808  0.74165455  0.93472630  1
  O  O10  1  0.18202191  0.75247720  0.54465751  1
  O  O11  1  0.35160045  0.07921066  0.77029441  1
  O  O12  1  0.35337887  0.45925419  0.76766289  1
  O  O13  1  0.43965372  0.76248894  0.10987754  1
  O  O14  1  0.48824682  0.26640056  0.45582851  1
  O  O15  1  0.51175318  0.76640056  0.54417149  1
  O  O16  1  0.56034628  0.26248894  0.89012346  1
  O  O17  1  0.64662113  0.95925419  0.23233711  1
  O  O18  1  0.64839955  0.57921066  0.22970559  1
  O  O19  1  0.81797809  0.25247720  0.45534249  1
  O  O20  1  0.84914192  0.24165455  0.06527370  1
  O  O21  1  0.97081484  0.71382549  0.69525784  1
