# generated using pymatgen
data_Li7Mn4CoO12
_symmetry_space_group_name_H-M   'P 1'
_cell_length_a   5.95863179
_cell_length_b   5.99040279
_cell_length_c   6.47717481
_cell_angle_alpha   103.27169649
_cell_angle_beta   77.06019791
_cell_angle_gamma   87.10518488
_symmetry_Int_Tables_number   1
_chemical_formula_structural   Li7Mn4CoO12
_chemical_formula_sum   'Li7 Mn4 Co1 O12'
_cell_volume   218.04174393
_cell_formula_units_Z   1
loop_
 _symmetry_equiv_pos_site_id
 _symmetry_equiv_pos_as_xyz
  1  'x, y, z'
loop_
 _atom_site_type_symbol
 _atom_site_label
 _atom_site_symmetry_multiplicity
 _atom_site_fract_x
 _atom_site_fract_y
 _atom_site_fract_z
 _atom_site_occupancy
  Li  Li0  1  0.50079927  -0.00010754  0.99614800  1
  Li  Li1  1  0.16459330  0.33789597  0.32999895  1
  Li  Li2  1  0.83761049  0.17622059  0.67380028  1
  Li  Li3  1  0.49823047  0.49629841  0.99727126  1
  Li  Li4  1  0.83481480  0.66187088  0.67347150  1
  Li  Li5  1  0.16329596  0.82615636  0.32892987  1
  Li  Li6  1  0.00097316  0.49924697  0.00033729  1
  Mn  Mn7  1  0.00144347  0.00052017  0.99827074  1
  Mn  Mn8  1  0.67190505  0.83372413  0.33098639  1
  Mn  Mn9  1  0.67409060  0.34017902  0.33297972  1
  Mn  Mn10  1  0.32491239  0.65876538  0.66782424  1
  Co  Co11  1  0.32739655  0.16559824  0.66890274  1
  O  O12  1  0.24498307  0.75856383  0.98113725  1
  O  O13  1  0.92732253  0.09466865  0.31631104  1
  O  O14  1  0.55387349  0.91416707  0.65423015  1
  O  O15  1  0.23229698  0.22164302  0.97951051  1
  O  O16  1  0.58514713  0.42683177  0.65430239  1
  O  O17  1  0.89136811  0.58926740  0.33566347  1
  O  O18  1  0.75567768  0.24228526  0.01804102  1
  O  O19  1  0.41149812  0.57494034  0.34657974  1
  O  O20  1  0.11316472  0.40931079  0.66724480  1
  O  O21  1  0.76958480  0.77963166  0.01461630  1
  O  O22  1  0.07631916  0.90285598  0.68221770  1
  O  O23  1  0.43869870  0.08946566  0.35122463  1
