# generated using pymatgen
data_Li7Mn5O12
_symmetry_space_group_name_H-M   'P 1'
_cell_length_a   2.98619720
_cell_length_b   8.21058010
_cell_length_c   9.94029629
_cell_angle_alpha   65.50781948
_cell_angle_beta   93.89668045
_cell_angle_gamma   90.95876188
_symmetry_Int_Tables_number   1
_chemical_formula_structural   Li7Mn5O12
_chemical_formula_sum   'Li7 Mn5 O12'
_cell_volume   221.25950318
_cell_formula_units_Z   1
loop_
 _symmetry_equiv_pos_site_id
 _symmetry_equiv_pos_as_xyz
  1  'x, y, z'
loop_
 _atom_site_type_symbol
 _atom_site_label
 _atom_site_symmetry_multiplicity
 _atom_site_fract_x
 _atom_site_fract_y
 _atom_site_fract_z
 _atom_site_occupancy
  Li  Li0  1  0.99294742  0.85270817  0.33252329  1
  Li  Li1  1  0.48683845  0.32877455  0.84543012  1
  Li  Li2  1  0.51316155  0.00455845  0.48790288  1
  Li  Li3  1  0.00705258  0.48062483  0.00080971  1
  Li  Li4  1  0.00000000  0.16666700  0.66666700  1
  Li  Li5  1  0.50000000  0.66666700  0.16666700  1
  Li  Li6  1  0.50000000  0.16666700  0.16666700  1
  Mn  Mn7  1  0.99191877  0.00750771  0.00554673  1
  Mn  Mn8  1  0.00808123  0.32582529  0.32778627  1
  Mn  Mn9  1  0.51005540  0.50442650  0.49411527  1
  Mn  Mn10  1  0.00000000  0.66666700  0.66666700  1
  Mn  Mn11  1  0.48994460  0.82890650  0.83921773  1
  O  O12  1  0.51833558  0.92865150  0.14447920  1
  O  O13  1  0.97035697  0.42914620  0.65690308  1
  O  O14  1  0.99477241  0.09949242  0.33666080  1
  O  O15  1  0.46236850  0.59117790  0.83103930  1
  O  O16  1  0.52957763  0.26693482  0.48039809  1
  O  O17  1  0.95931693  0.76438742  0.99624060  1
  O  O18  1  0.53763150  0.74215510  0.50229370  1
  O  O19  1  0.00522759  0.23384058  0.99667220  1
  O  O20  1  0.02964303  0.90418680  0.67642992  1
  O  O21  1  0.48166442  0.40468150  0.18885380  1
  O  O22  1  0.47042237  0.06639918  0.85293591  1
  O  O23  1  0.04068307  0.56894658  0.33709340  1
