# generated using pymatgen
data_Li4Mn3CoO8
_symmetry_space_group_name_H-M   'P 1'
_cell_length_a   5.31588639
_cell_length_b   5.81025242
_cell_length_c   6.07108866
_cell_angle_alpha   61.41133892
_cell_angle_beta   69.88189629
_cell_angle_gamma   90.00000196
_symmetry_Int_Tables_number   1
_chemical_formula_structural   Li4Mn3CoO8
_chemical_formula_sum   'Li4 Mn3 Co1 O8'
_cell_volume   151.49519835
_cell_formula_units_Z   1
loop_
 _symmetry_equiv_pos_site_id
 _symmetry_equiv_pos_as_xyz
  1  'x, y, z'
loop_
 _atom_site_type_symbol
 _atom_site_label
 _atom_site_symmetry_multiplicity
 _atom_site_fract_x
 _atom_site_fract_y
 _atom_site_fract_z
 _atom_site_occupancy
  Li  Li0  1  0.50000000  0.24854300  0.00000000  1
  Li  Li1  1  0.48440611  0.25285642  0.49428716  1
  Li  Li2  1  0.51559389  0.74714358  0.50571284  1
  Li  Li3  1  0.50000000  0.75145700  1.00000000  1
  Mn  Mn4  1  -0.00000000  -0.00000000  0.50000000  1
  Mn  Mn5  1  -0.00000000  0.50000000  0.50000000  1
  Mn  Mn6  1  -0.00000000  0.50000000  0.00000000  1
  Co  Co7  1  -0.00000000  -0.00000000  0.00000000  1
  O  O8  1  0.23773620  0.37439745  0.76787199  1
  O  O9  1  0.22742452  0.35839247  0.28321505  1
  O  O10  1  0.20616663  0.88097417  0.23805166  1
  O  O11  1  0.23773620  0.85773056  0.76787199  1
  O  O12  1  0.76226380  0.14226944  0.23212801  1
  O  O13  1  0.79383337  0.11902583  0.76194834  1
  O  O14  1  0.77257548  0.64160753  0.71678495  1
  O  O15  1  0.76226380  0.62560255  0.23212801  1
