# generated using pymatgen
data_LiMn(PO3)4
_symmetry_space_group_name_H-M   'P 1'
_cell_length_a   7.39908440
_cell_length_b   8.69861837
_cell_length_c   9.08467468
_cell_angle_alpha   114.48052292
_cell_angle_beta   114.03087794
_cell_angle_gamma   64.83020193
_symmetry_Int_Tables_number   1
_chemical_formula_structural   LiMn(PO3)4
_chemical_formula_sum   'Li2 Mn2 P8 O24'
_cell_volume   462.29046435
_cell_formula_units_Z   2
loop_
 _symmetry_equiv_pos_site_id
 _symmetry_equiv_pos_as_xyz
  1  'x, y, z'
loop_
 _atom_site_type_symbol
 _atom_site_label
 _atom_site_symmetry_multiplicity
 _atom_site_fract_x
 _atom_site_fract_y
 _atom_site_fract_z
 _atom_site_occupancy
  Li  Li0  1  0.29447955  0.75000000  0.75000000  1
  Li  Li1  1  0.70552045  0.25000000  0.25000000  1
  Mn  Mn2  1  0.84465233  0.75000000  0.75000000  1
  Mn  Mn3  1  0.15534767  0.25000000  0.25000000  1
  P  P4  1  0.96366401  0.89516557  0.16390205  1
  P  P5  1  0.55806248  0.87179028  0.13855368  1
  P  P6  1  0.29130008  0.62820972  0.36144632  1
  P  P7  1  0.69492853  0.60483443  0.33609795  1
  P  P8  1  0.30507147  0.39516557  0.66390205  1
  P  P9  1  0.70869992  0.37179028  0.63855368  1
  P  P10  1  0.44193752  0.12820972  0.86144632  1
  P  P11  1  0.03633599  0.10483443  0.83609795  1
  O  O12  1  0.39886205  0.01355550  0.22642987  1
  O  O13  1  0.76535474  0.93239873  0.21847879  1
  O  O14  1  0.95916628  0.76720256  0.98800967  1
  O  O15  1  0.14674613  0.80087111  0.29487554  1
  O  O16  1  0.02152750  0.92472631  0.79738425  1
  O  O17  1  0.65274069  0.69912889  0.20512446  1
  O  O18  1  0.73835916  0.73279744  0.51199033  1
  O  O19  1  0.35873032  0.69464710  0.54748741  1
  O  O20  1  0.50589100  0.80535290  0.95251259  1
  O  O21  1  0.47927569  0.56760127  0.28152121  1
  O  O22  1  0.18598868  0.48644450  0.27357013  1
  O  O23  1  0.14886956  0.57527369  0.70261575  1
  O  O24  1  0.85113044  0.42472631  0.29738425  1
  O  O25  1  0.81401132  0.51355550  0.72642987  1
  O  O26  1  0.52072431  0.43239873  0.71847879  1
  O  O27  1  0.49410900  0.19464710  0.04748741  1
  O  O28  1  0.64126968  0.30535290  0.45251259  1
  O  O29  1  0.26164084  0.26720256  0.48800967  1
  O  O30  1  0.34725931  0.30087111  0.79487554  1
  O  O31  1  0.97847250  0.07527369  0.20261575  1
  O  O32  1  0.85325387  0.19912889  0.70512446  1
  O  O33  1  0.04083372  0.23279744  0.01199033  1
  O  O34  1  0.23464526  0.06760127  0.78152121  1
  O  O35  1  0.60113795  0.98644450  0.77357013  1
