# generated using pymatgen
data_Li7Mn4CoO12
_symmetry_space_group_name_H-M   'P 1'
_cell_length_a   5.94625892
_cell_length_b   5.99404368
_cell_length_c   6.49024693
_cell_angle_alpha   103.38246300
_cell_angle_beta   104.69643247
_cell_angle_gamma   87.42057015
_symmetry_Int_Tables_number   1
_chemical_formula_structural   Li7Mn4CoO12
_chemical_formula_sum   'Li7 Mn4 Co1 O12'
_cell_volume   217.65921433
_cell_formula_units_Z   1
loop_
 _symmetry_equiv_pos_site_id
 _symmetry_equiv_pos_as_xyz
  1  'x, y, z'
loop_
 _atom_site_type_symbol
 _atom_site_label
 _atom_site_symmetry_multiplicity
 _atom_site_fract_x
 _atom_site_fract_y
 _atom_site_fract_z
 _atom_site_occupancy
  Li  Li0  1  0.16746846  0.15611087  0.64675534  1
  Li  Li1  1  0.83333300  0.33333300  0.33333300  1
  Li  Li2  1  0.49919854  0.51055613  0.01991166  1
  Li  Li3  1  0.16749589  0.66646493  0.65723537  1
  Li  Li4  1  0.83333300  0.83333300  0.33333300  1
  Li  Li5  1  0.49917111  0.00020207  0.00943163  1
  Li  Li6  1  0.33333300  0.83333300  0.33333300  1
  Mn  Mn7  1  0.00701154  0.00028075  0.00585009  1
  Mn  Mn8  1  0.65965546  0.66638625  0.66081691  1
  Mn  Mn9  1  0.66089357  0.16518219  0.66271225  1
  Mn  Mn10  1  0.00577343  0.50148481  0.00395475  1
  Co  Co11  1  0.33333300  0.33333300  0.33333300  1
  O  O12  1  0.91077607  0.94197443  0.68000068  1
  O  O13  1  0.57110012  0.10429440  0.34905662  1
  O  O14  1  0.24723321  0.27269128  0.01546375  1
  O  O15  1  0.89473282  0.40708585  0.68071960  1
  O  O16  1  0.58955254  0.58976862  0.35464554  1
  O  O17  1  0.21492814  0.73068893  0.98922762  1
  O  O18  1  0.41943379  0.39397572  0.65120325  1
  O  O19  1  0.09556588  0.56237160  0.31760938  1
  O  O20  1  0.75589093  0.72469257  0.98666632  1
  O  O21  1  0.45173886  0.93597807  0.67743938  1
  O  O22  1  0.07711346  0.07689738  0.31202046  1
  O  O23  1  0.77193418  0.25958115  0.98594740  1
