# generated using pymatgen
data_LiFe2OF5
_symmetry_space_group_name_H-M   'P 1'
_cell_length_a   4.72774710
_cell_length_b   4.72774710
_cell_length_c   18.44349722
_cell_angle_alpha   90.00000000
_cell_angle_beta   90.00000000
_cell_angle_gamma   89.99587153
_symmetry_Int_Tables_number   1
_chemical_formula_structural   LiFe2OF5
_chemical_formula_sum   'Li4 Fe8 O4 F20'
_cell_volume   412.24153621
_cell_formula_units_Z   4
loop_
 _symmetry_equiv_pos_site_id
 _symmetry_equiv_pos_as_xyz
  1  'x, y, z'
loop_
 _atom_site_type_symbol
 _atom_site_label
 _atom_site_symmetry_multiplicity
 _atom_site_fract_x
 _atom_site_fract_y
 _atom_site_fract_z
 _atom_site_occupancy
  Li  Li0  1  0.98535163  0.99036429  0.00000000  1
  Li  Li1  1  0.00963571  0.01464837  0.50000000  1
  Li  Li2  1  0.48797381  0.51202619  0.25000000  1
  Li  Li3  1  0.48797381  0.51202619  0.75000000  1
  Fe  Fe4  1  0.00830292  0.98459178  0.32963509  1
  Fe  Fe5  1  0.01540822  0.99169708  0.17036491  1
  Fe  Fe6  1  0.01540822  0.99169708  0.82963509  1
  Fe  Fe7  1  0.00830292  0.98459178  0.67036491  1
  Fe  Fe8  1  0.49129897  0.48506258  0.57964414  1
  Fe  Fe9  1  0.51493742  0.50870103  0.07964414  1
  Fe  Fe10  1  0.49129897  0.48506258  0.42035586  1
  Fe  Fe11  1  0.51493742  0.50870103  0.92035586  1
  O  O12  1  0.18630524  0.81369476  0.25000000  1
  O  O13  1  0.18630524  0.81369476  0.75000000  1
  O  O14  1  0.31599435  0.31146236  0.50000000  1
  O  O15  1  0.68853764  0.68400565  0.00000000  1
  F  F16  1  0.20279045  0.80229185  0.41388798  1
  F  F17  1  0.19770815  0.79720955  0.08611202  1
  F  F18  1  0.19770815  0.79720955  0.91388798  1
  F  F19  1  0.20279045  0.80229185  0.58611202  1
  F  F20  1  0.29999500  0.30508354  0.16093545  1
  F  F21  1  0.29703930  0.30240228  0.66389485  1
  F  F22  1  0.29999500  0.30508354  0.83906455  1
  F  F23  1  0.29703930  0.30240228  0.33610515  1
  F  F24  1  0.30090291  0.29753434  0.00000000  1
  F  F25  1  0.70246566  0.69909709  0.50000000  1
  F  F26  1  0.69759772  0.70296070  0.16389485  1
  F  F27  1  0.69491646  0.70000500  0.33906455  1
  F  F28  1  0.69759772  0.70296070  0.83610515  1
  F  F29  1  0.69491646  0.70000500  0.66093545  1
  F  F30  1  0.79985775  0.19483552  0.08903672  1
  F  F31  1  0.80516448  0.20014225  0.41096328  1
  F  F32  1  0.79985775  0.19483552  0.91096328  1
  F  F33  1  0.80516448  0.20014225  0.58903672  1
  F  F34  1  0.79925917  0.20074083  0.25000000  1
  F  F35  1  0.79925917  0.20074083  0.75000000  1
