# generated using pymatgen
data_Li9V4(PO4)6
_symmetry_space_group_name_H-M   'P 1'
_cell_length_a   8.48713124
_cell_length_b   8.50134532
_cell_length_c   9.31583074
_cell_angle_alpha   62.94913056
_cell_angle_beta   117.22500870
_cell_angle_gamma   119.98672683
_symmetry_Int_Tables_number   1
_chemical_formula_structural   Li9V4(PO4)6
_chemical_formula_sum   'Li9 V4 P6 O24'
_cell_volume   494.87018870
_cell_formula_units_Z   1
loop_
 _symmetry_equiv_pos_site_id
 _symmetry_equiv_pos_as_xyz
  1  'x, y, z'
loop_
 _atom_site_type_symbol
 _atom_site_label
 _atom_site_symmetry_multiplicity
 _atom_site_fract_x
 _atom_site_fract_y
 _atom_site_fract_z
 _atom_site_occupancy
  Li  Li0  1  0.93012375  0.33946544  0.86150947  1
  Li  Li1  1  0.73126567  0.93002822  0.10721403  1
  Li  Li2  1  0.78423005  0.90308261  0.41313001  1
  Li  Li3  1  0.33645292  0.27262440  0.14081760  1
  Li  Li4  1  0.55035877  0.45809329  0.64780772  1
  Li  Li5  1  0.66669700  0.72818419  0.86807197  1
  Li  Li6  1  0.20655403  0.09188400  0.57735121  1
  Li  Li7  1  0.26241483  0.06525647  0.89593464  1
  Li  Li8  1  0.07660793  0.65570187  0.14696625  1
  V  V9  1  0.65587967  0.34256277  0.97247390  1
  V  V10  1  0.35040067  0.65324636  0.04393860  1
  V  V11  1  0.85442702  0.16243281  0.56227664  1
  V  V12  1  0.14397971  0.83796083  0.43379208  1
  P  P13  1  0.75133830  0.54896336  0.24727838  1
  P  P14  1  0.95339336  0.75315916  0.75447060  1
  P  P15  1  0.54122061  0.04788386  0.74568335  1
  P  P16  1  0.45973042  0.95535827  0.25241448  1
  P  P17  1  0.04367218  0.24573626  0.24383675  1
  P  P18  1  0.24996428  0.45186587  0.75082599  1
  O  O19  1  0.99319652  0.17581710  0.40879871  1
  O  O20  1  0.85622235  0.20088768  0.09396650  1
  O  O21  1  0.79885355  0.55925932  0.09699831  1
  O  O22  1  0.81652316  0.40576809  0.40979444  1
  O  O23  1  0.61214206  0.00256731  0.41394706  1
  O  O24  1  0.86228056  0.75367853  0.26878861  1
  O  O25  1  0.44551138  0.14013012  0.10185314  1
  O  O26  1  0.74281696  0.16371551  0.72429530  1
  O  O27  1  0.53603088  0.50015023  0.19657616  1
  O  O28  1  0.82331575  0.53770868  0.78979298  1
  O  O29  1  0.84326389  0.87051689  0.72697588  1
  O  O30  1  0.48310816  0.17431254  0.78197617  1
  O  O31  1  0.52303788  0.84310762  0.20823870  1
  O  O32  1  0.15441041  0.12718412  0.27443073  1
  O  O33  1  0.16344001  0.45904953  0.20024138  1
  O  O34  1  0.46753963  0.49888858  0.79245364  1
  O  O35  1  0.25822542  0.83770866  0.27353052  1
  O  O36  1  0.55188184  0.86590911  0.89858711  1
  O  O37  1  0.13784154  0.24706086  0.72915447  1
  O  O38  1  0.38618573  0.99851370  0.58656074  1
  O  O39  1  0.18695820  0.59599341  0.59007026  1
  O  O40  1  0.21173146  0.44331592  0.90426634  1
  O  O41  1  0.13860744  0.79059410  0.90553013  1
  O  O42  1  0.00147303  0.82179432  0.58913903  1
