# generated using pymatgen
data_Li4V3P8O29
_symmetry_space_group_name_H-M   'P 1'
_cell_length_a   9.77752778
_cell_length_b   9.79166671
_cell_length_c   14.29042349
_cell_angle_alpha   89.74480049
_cell_angle_beta   90.20709450
_cell_angle_gamma   60.01563332
_symmetry_Int_Tables_number   1
_chemical_formula_structural   Li4V3P8O29
_chemical_formula_sum   'Li8 V6 P16 O58'
_cell_volume   1184.99256109
_cell_formula_units_Z   2
loop_
 _symmetry_equiv_pos_site_id
 _symmetry_equiv_pos_as_xyz
  1  'x, y, z'
loop_
 _atom_site_type_symbol
 _atom_site_label
 _atom_site_symmetry_multiplicity
 _atom_site_fract_x
 _atom_site_fract_y
 _atom_site_fract_z
 _atom_site_occupancy
  Li  Li0  1  0.77668064  0.91933532  0.55892652  1
  Li  Li1  1  0.90578853  0.32572487  0.56309244  1
  Li  Li2  1  0.76410203  0.33908212  0.05383004  1
  Li  Li3  1  0.32155727  0.90783008  0.05545788  1
  Li  Li4  1  0.31877217  0.76951058  0.56396187  1
  Li  Li5  1  0.33439545  0.33539022  0.10146675  1
  Li  Li6  1  0.22591566  0.08337091  0.44405062  1
  Li  Li7  1  0.97625458  0.96411662  0.00652524  1
  V  V8  1  0.57264685  0.43171249  0.25532906  1
  V  V9  1  0.43428273  0.56263817  0.75148129  1
  V  V10  1  0.56909839  -0.00051902  0.75490467  1
  V  V11  1  0.43438504  0.99797581  0.24637869  1
  V  V12  1  0.99429016  0.57542326  0.24585210  1
  V  V13  1  0.00158265  0.43501536  0.75134302  1
  P  P14  1  0.92124771  0.77304347  0.84372157  1
  P  P15  1  0.76813687  0.91394997  0.34021263  1
  P  P16  1  0.91756779  0.31772755  0.34285734  1
  P  P17  1  0.66591626  0.66061466  0.12757787  1
  P  P18  1  0.66193001  0.67110148  0.63054004  1
  P  P19  1  0.77414511  0.31350822  0.84316635  1
  P  P20  1  0.68879027  0.22505437  0.66297009  1
  P  P21  1  0.31385055  0.91085980  0.84036505  1
  P  P22  1  0.68925891  0.09210453  0.16000028  1
  P  P23  1  0.31803767  0.76875295  0.34559528  1
  P  P24  1  0.22228624  0.69188046  0.16417185  1
  P  P25  1  0.32849329  0.33504229  0.36526988  1
  P  P26  1  0.33663677  0.32945960  0.86727387  1
  P  P27  1  0.08571959  0.68676472  0.66028331  1
  P  P28  1  0.23000803  0.08991945  0.66070784  1
  P  P29  1  0.08462513  0.22522632  0.16083341  1
  O  O30  1  0.99474596  0.77545309  0.57646231  1
  O  O31  1  0.91521435  0.74704274  0.32588432  1
  O  O32  1  0.79333081  0.00444470  0.08149070  1
  O  O33  1  0.74619384  0.91265299  0.82838775  1
  O  O34  1  0.91984698  0.61860384  0.83278556  1
  O  O35  1  0.81284513  0.66466738  0.17185590  1
  O  O36  1  0.90485991  0.47747869  0.31933588  1
  O  O37  1  0.98605538  0.21770830  0.08414806  1
  O  O38  1  0.91307114  0.34290164  0.82839489  1
  O  O39  1  0.66267622  0.81884752  0.67530257  1
  O  O40  1  0.61986614  0.90028848  0.31391172  1
  O  O41  1  0.81315712  0.51903169  0.66592197  1
  O  O42  1  0.67708305  0.63066238  0.02529072  1
  O  O43  1  0.64859965  0.68481568  0.52645410  1
  O  O44  1  0.67073209  0.51280076  0.17852449  1
  O  O45  1  0.47245910  0.91000624  0.82631812  1
  O  O46  1  0.51334756  0.81229492  0.15890517  1
  O  O47  1  0.75059773  0.33493173  0.33459921  1
  O  O48  1  0.78631010  0.19791201  0.76006681  1
  O  O49  1  0.78076762  0.22859698  0.58171378  1
  O  O50  1  0.77614589  0.24120066  0.93516994  1
  O  O51  1  0.61773418  0.47237753  0.82385400  1
  O  O52  1  0.51255099  0.66868437  0.67269695  1
  O  O53  1  0.65685119  0.26675841  0.16283595  1
  O  O54  1  0.47862682  0.61923981  0.32024574  1
  O  O55  1  0.33283832  0.91866035  0.33383222  1
  O  O56  1  0.78071301  0.02026710  0.25904222  1
  O  O57  1  0.75842995  0.98324045  0.43281048  1
  O  O58  1  0.24186806  0.99900333  0.57338597  1
  O  O59  1  0.66025748  0.08255605  0.66126818  1
  O  O60  1  0.52861073  0.37996231  0.67720048  1
  O  O61  1  0.34342694  0.74088605  0.82905852  1
  O  O62  1  0.47538818  0.34082665  0.32045689  1
  O  O63  1  0.37753479  0.53024276  0.16977997  1
  O  O64  1  0.20681771  0.80087226  0.08649533  1
  O  O65  1  0.25792387  0.75882482  0.43857637  1
  O  O66  1  0.20003509  0.77973268  0.26341928  1
  O  O67  1  0.25805282  0.65817960  0.66135228  1
  O  O68  1  0.48946850  0.18291119  0.82523673  1
  O  O69  1  0.52513469  0.10451285  0.16684756  1
  O  O70  1  0.33571207  0.47945324  0.82324812  1
  O  O71  1  0.34711954  0.32994521  0.97154160  1
  O  O72  1  0.32578058  0.34158349  0.46850136  1
  O  O73  1  0.18124068  0.47884553  0.31610762  1
  O  O74  1  0.38128523  0.09687274  0.67996123  1
  O  O75  1  0.33199746  0.18301321  0.32692084  1
  O  O76  1  0.08335166  0.65645207  0.16204856  1
  O  O77  1  0.01011649  0.79083100  0.75304592  1
  O  O78  1  0.99155312  0.79818474  0.92886039  1
  O  O79  1  0.09342922  0.52651013  0.67715563  1
  O  O80  1  0.19424953  0.32328494  0.82693627  1
  O  O81  1  0.09602987  0.37723059  0.16797805  1
  O  O82  1  0.25789275  0.08341224  0.15805380  1
  O  O83  1  0.23633816  0.98196873  0.93063967  1
  O  O84  1  0.20453199  0.00390516  0.75112030  1
  O  O85  1  0.08273439  0.25580565  0.65874894  1
  O  O86  1  0.99695169  0.24833001  0.43459249  1
  O  O87  1  0.02001814  0.19979566  0.26081721  1
