# generated using pymatgen
data_Li4V3P8O29
_symmetry_space_group_name_H-M   'P 1'
_cell_length_a   9.80796615
_cell_length_b   9.79398029
_cell_length_c   14.23851198
_cell_angle_alpha   89.95442518
_cell_angle_beta   90.67280496
_cell_angle_gamma   59.85336111
_symmetry_Int_Tables_number   1
_chemical_formula_structural   Li4V3P8O29
_chemical_formula_sum   'Li8 V6 P16 O58'
_cell_volume   1182.62442207
_cell_formula_units_Z   2
loop_
 _symmetry_equiv_pos_site_id
 _symmetry_equiv_pos_as_xyz
  1  'x, y, z'
loop_
 _atom_site_type_symbol
 _atom_site_label
 _atom_site_symmetry_multiplicity
 _atom_site_fract_x
 _atom_site_fract_y
 _atom_site_fract_z
 _atom_site_occupancy
  Li  Li0  1  0.77321664  0.31675770  0.06082463  1
  Li  Li1  1  0.32041195  0.90682684  0.06561222  1
  Li  Li2  1  0.67133067  0.23343856  0.44084866  1
  Li  Li3  1  0.32638775  0.76811821  0.55660081  1
  Li  Li4  1  0.69112915  0.08232139  0.93749600  1
  Li  Li5  1  0.22291141  0.68487397  0.94668251  1
  Li  Li6  1  0.09402768  0.22952263  0.94186960  1
  Li  Li7  1  0.00190021  0.00424106  0.49270869  1
  V  V8  1  0.56757994  0.43298294  0.25056455  1
  V  V9  1  0.43124599  0.56680057  0.75141053  1
  V  V10  1  0.56784779  0.99472863  0.74526183  1
  V  V11  1  0.43404001  0.00705693  0.25580575  1
  V  V12  1  0.99967994  0.56545593  0.25522562  1
  V  V13  1  0.99854887  0.44007017  0.74120104  1
  P  P14  1  0.91617894  0.77026103  0.83956348  1
  P  P15  1  0.78072815  0.91596512  0.33570217  1
  P  P16  1  0.91971530  0.30209274  0.34206158  1
  P  P17  1  0.66548020  0.66790628  0.13345940  1
  P  P18  1  0.66153120  0.66904662  0.62950217  1
  P  P19  1  0.77340588  0.31965009  0.83762545  1
  P  P20  1  0.68406904  0.22684795  0.65830684  1
  P  P21  1  0.32143504  0.91251076  0.84622209  1
  P  P22  1  0.67887181  0.08822708  0.15328467  1
  P  P23  1  0.31553467  0.77523339  0.34170827  1
  P  P24  1  0.22539063  0.68122609  0.16407152  1
  P  P25  1  0.33529835  0.33349984  0.37144234  1
  P  P26  1  0.33317716  0.32925872  0.86618993  1
  P  P27  1  0.08040272  0.69863103  0.65506877  1
  P  P28  1  0.22129728  0.08434702  0.66340241  1
  P  P29  1  0.08628468  0.23186199  0.15896085  1
  O  O30  1  0.00414435  0.79099292  0.56939360  1
  O  O31  1  0.91501220  0.74147992  0.33536741  1
  O  O32  1  0.74228633  0.01203046  0.06168031  1
  O  O33  1  0.74530023  0.91387962  0.83799680  1
  O  O34  1  0.91114102  0.61649441  0.81939717  1
  O  O35  1  0.81516856  0.65896779  0.18369916  1
  O  O36  1  0.92512367  0.45763652  0.33189985  1
  O  O37  1  0.00175326  0.24134019  0.06786338  1
  O  O38  1  0.91976987  0.34011877  0.83720208  1
  O  O39  1  0.66873600  0.81277508  0.67786740  1
  O  O40  1  0.61938624  0.91951035  0.32841743  1
  O  O41  1  0.81092594  0.51867913  0.67517357  1
  O  O42  1  0.66805247  0.66964874  0.02891556  1
  O  O43  1  0.66793671  0.67480484  0.52591546  1
  O  O44  1  0.66804558  0.51387419  0.16903318  1
  O  O45  1  0.47983012  0.90175036  0.82317410  1
  O  O46  1  0.51751364  0.81868642  0.17342059  1
  O  O47  1  0.74382440  0.34235655  0.33571644  1
  O  O48  1  0.79566427  0.20982929  0.74815076  1
  O  O49  1  0.76771925  0.20781540  0.56868829  1
  O  O50  1  0.76200703  0.24267045  0.92636756  1
  O  O51  1  0.62074335  0.48030238  0.81953001  1
  O  O52  1  0.50957444  0.67635306  0.66643077  1
  O  O53  1  0.66297914  0.25378544  0.16051128  1
  O  O54  1  0.46971127  0.61965637  0.33101113  1
  O  O55  1  0.34638844  0.91584480  0.32690569  1
  O  O56  1  0.79866563  0.98635468  0.23744708  1
  O  O57  1  0.79346270  0.00828697  0.41485479  1
  O  O58  1  0.20830658  0.99335151  0.58382645  1
  O  O59  1  0.65602563  0.08404225  0.67312039  1
  O  O60  1  0.52858376  0.38131693  0.67114586  1
  O  O61  1  0.33618212  0.74774252  0.84372808  1
  O  O62  1  0.48896028  0.32414156  0.33523033  1
  O  O63  1  0.37907480  0.52133590  0.18123983  1
  O  O64  1  0.23639998  0.75803836  0.07505407  1
  O  O65  1  0.22905414  0.79754791  0.43098885  1
  O  O66  1  0.20416327  0.79360706  0.25196286  1
  O  O67  1  0.25517678  0.65985577  0.66586022  1
  O  O68  1  0.48166264  0.18086831  0.82381788  1
  O  O69  1  0.52032253  0.09856165  0.17896721  1
  O  O70  1  0.33105646  0.48302659  0.83152680  1
  O  O71  1  0.33263249  0.31978713  0.97068803  1
  O  O72  1  0.33137073  0.32444288  0.47522214  1
  O  O73  1  0.18840984  0.48096078  0.32519445  1
  O  O74  1  0.38210103  0.08035034  0.67195594  1
  O  O75  1  0.33067092  0.18688597  0.32330880  1
  O  O76  1  0.08219150  0.65727703  0.16833700  1
  O  O77  1  0.99650464  0.79650131  0.74825253  1
  O  O78  1  0.00661146  0.76321548  0.92521955  1
  O  O79  1  0.08038460  0.53822396  0.66906324  1
  O  O80  1  0.18274575  0.33313206  0.82127515  1
  O  O81  1  0.09315498  0.38291648  0.17858628  1
  O  O82  1  0.25438662  0.08503561  0.16111475  1
  O  O83  1  0.25088731  0.99850741  0.93617079  1
  O  O84  1  0.20234764  0.01204952  0.76130011  1
  O  O85  1  0.08597882  0.25886861  0.66564679  1
  O  O86  1  0.00024697  0.19787669  0.42370769  1
  O  O87  1  0.99340460  0.20951803  0.24387675  1
