# generated using pymatgen
data_Li4V3P8O29
_symmetry_space_group_name_H-M   'P 1'
_cell_length_a   9.77506087
_cell_length_b   9.82519185
_cell_length_c   14.42713110
_cell_angle_alpha   90.17447165
_cell_angle_beta   90.15736109
_cell_angle_gamma   60.11767609
_symmetry_Int_Tables_number   1
_chemical_formula_structural   Li4V3P8O29
_chemical_formula_sum   'Li8 V6 P16 O58'
_cell_volume   1201.38561662
_cell_formula_units_Z   2
loop_
 _symmetry_equiv_pos_site_id
 _symmetry_equiv_pos_as_xyz
  1  'x, y, z'
loop_
 _atom_site_type_symbol
 _atom_site_label
 _atom_site_symmetry_multiplicity
 _atom_site_fract_x
 _atom_site_fract_y
 _atom_site_fract_z
 _atom_site_occupancy
  Li  Li0  1  0.91620239  0.78186821  0.05489047  1
  Li  Li1  1  0.76647895  0.90568289  0.56150573  1
  Li  Li2  1  0.90354377  0.33398877  0.55949646  1
  Li  Li3  1  0.77406775  0.31042212  0.05515226  1
  Li  Li4  1  0.30283758  0.91610247  0.05715256  1
  Li  Li5  1  0.32904447  0.76570763  0.56088662  1
  Li  Li6  1  0.33101779  0.33062843  0.09881299  1
  Li  Li7  1  0.99650842  0.99930818  0.50369221  1
  V  V8  1  0.56634870  0.43231376  0.25419646  1
  V  V9  1  0.43537774  0.56634626  0.75037455  1
  V  V10  1  0.56706398  0.99695133  0.74591794  1
  V  V11  1  0.43139976  0.00059725  0.25050774  1
  V  V12  1  0.00236838  0.56754338  0.25367760  1
  V  V13  1  0.99805445  0.43693412  0.74948879  1
  P  P14  1  0.90993582  0.76977423  0.84098673  1
  P  P15  1  0.77307259  0.91586618  0.34293963  1
  P  P16  1  0.91766635  0.31175617  0.34200478  1
  P  P17  1  0.66785184  0.66315891  0.13315133  1
  P  P18  1  0.66816881  0.66247745  0.62954518  1
  P  P19  1  0.76966868  0.31984341  0.84090013  1
  P  P20  1  0.69232229  0.22435868  0.66214507  1
  P  P21  1  0.32152917  0.91027878  0.84172487  1
  P  P22  1  0.68333383  0.09014263  0.16527373  1
  P  P23  1  0.31196722  0.77244214  0.34218209  1
  P  P24  1  0.22753682  0.68177456  0.16361579  1
  P  P25  1  0.33212500  0.33444698  0.36766491  1
  P  P26  1  0.33477317  0.33358647  0.86413898  1
  P  P27  1  0.08484568  0.69336850  0.66356754  1
  P  P28  1  0.22079841  0.08355061  0.66426226  1
  P  P29  1  0.08812864  0.23050860  0.16246274  1
  O  O30  1  0.99249357  0.80266782  0.58642614  1
  O  O31  1  0.91669433  0.74753924  0.32291872  1
  O  O32  1  0.77468675  0.99095351  0.08596882  1
  O  O33  1  0.74503605  0.91306812  0.82569508  1
  O  O34  1  0.89904244  0.61957814  0.81636978  1
  O  O35  1  0.82081562  0.65173483  0.17887232  1
  O  O36  1  0.91880035  0.46753192  0.32650632  1
  O  O37  1  0.98303789  0.24738837  0.08425818  1
  O  O38  1  0.91453838  0.34274582  0.82673101  1
  O  O39  1  0.67840154  0.80877904  0.66284423  1
  O  O40  1  0.61980662  0.91356802  0.32791285  1
  O  O41  1  0.81502802  0.50949052  0.67097405  1
  O  O42  1  0.68373082  0.64665562  0.03080058  1
  O  O43  1  0.66934939  0.64824980  0.52622406  1
  O  O44  1  0.65340895  0.52283968  0.17711405  1
  O  O45  1  0.48097066  0.89572912  0.81948003  1
  O  O46  1  0.52220539  0.81782167  0.16705965  1
  O  O47  1  0.74656985  0.34191649  0.32571817  1
  O  O48  1  0.78280486  0.20167570  0.76059606  1
  O  O49  1  0.80028462  0.21319353  0.58519662  1
  O  O50  1  0.75999461  0.25882115  0.93270133  1
  O  O51  1  0.61885130  0.48092762  0.81881842  1
  O  O52  1  0.51365916  0.67254896  0.67093369  1
  O  O53  1  0.65725485  0.26043758  0.16094024  1
  O  O54  1  0.46846138  0.61551699  0.32530413  1
  O  O55  1  0.34238701  0.91029267  0.32419337  1
  O  O56  1  0.78079554  0.02327056  0.26128971  1
  O  O57  1  0.79772336  0.97115967  0.43464554  1
  O  O58  1  0.20013797  0.99241088  0.58716066  1
  O  O59  1  0.65855625  0.08677676  0.65834660  1
  O  O60  1  0.53746079  0.38409354  0.67176609  1
  O  O61  1  0.33928319  0.74414967  0.82313166  1
  O  O62  1  0.48149887  0.33546282  0.32240916  1
  O  O63  1  0.37479375  0.51600180  0.17734787  1
  O  O64  1  0.23720207  0.77082263  0.08402042  1
  O  O65  1  0.23751928  0.78558561  0.43415171  1
  O  O66  1  0.19878359  0.77932160  0.25957457  1
  O  O67  1  0.25954180  0.65435947  0.66072045  1
  O  O68  1  0.47305207  0.18539246  0.82310075  1
  O  O69  1  0.51664323  0.10784331  0.17683890  1
  O  O70  1  0.34235973  0.47790993  0.82077260  1
  O  O71  1  0.32547449  0.34339630  0.96749387  1
  O  O72  1  0.33090773  0.34979803  0.46962331  1
  O  O73  1  0.18546517  0.48545110  0.32143738  1
  O  O74  1  0.38349660  0.07419474  0.66854405  1
  O  O75  1  0.32891299  0.19172396  0.32596905  1
  O  O76  1  0.08116771  0.65780911  0.15903540  1
  O  O77  1  0.01976489  0.78048623  0.76200904  1
  O  O78  1  0.98255076  0.75563281  0.93305035  1
  O  O79  1  0.07666146  0.53995295  0.67019693  1
  O  O80  1  0.17842651  0.34911521  0.82018276  1
  O  O81  1  0.11150250  0.37505112  0.17760765  1
  O  O82  1  0.25521184  0.08353125  0.15708040  1
  O  O83  1  0.25433916  0.97422237  0.93390855  1
  O  O84  1  0.19824792  0.01944178  0.76262979  1
  O  O85  1  0.08681503  0.25879545  0.66229477  1
  O  O86  1  0.97773743  0.23592109  0.43372070  1
  O  O87  1  0.01870443  0.20083679  0.25859426  1
