# generated using pymatgen
data_Li4V3P8O29
_symmetry_space_group_name_H-M   'P 1'
_cell_length_a   9.78084427
_cell_length_b   9.73650481
_cell_length_c   14.18696466
_cell_angle_alpha   89.55178867
_cell_angle_beta   90.36129395
_cell_angle_gamma   59.94343023
_symmetry_Int_Tables_number   1
_chemical_formula_structural   Li4V3P8O29
_chemical_formula_sum   'Li8 V6 P16 O58'
_cell_volume   1169.25196915
_cell_formula_units_Z   2
loop_
 _symmetry_equiv_pos_site_id
 _symmetry_equiv_pos_as_xyz
  1  'x, y, z'
loop_
 _atom_site_type_symbol
 _atom_site_label
 _atom_site_symmetry_multiplicity
 _atom_site_fract_x
 _atom_site_fract_y
 _atom_site_fract_z
 _atom_site_occupancy
  Li  Li0  1  0.91488235  0.77268142  0.05904029  1
  Li  Li1  1  0.77357575  0.31773686  0.05642009  1
  Li  Li2  1  0.31745705  0.90882045  0.05905997  1
  Li  Li3  1  0.67454721  0.23481685  0.44293748  1
  Li  Li4  1  0.32750454  0.76494233  0.56364458  1
  Li  Li5  1  0.68269431  0.08774005  0.93479471  1
  Li  Li6  1  0.09819123  0.22768319  0.93760826  1
  Li  Li7  1  0.00150290  0.99911517  0.50562173  1
  V  V8  1  0.56538487  0.43464656  0.24758228  1
  V  V9  1  0.43232021  0.56499605  0.75379378  1
  V  V10  1  0.56653215  0.99526624  0.74350823  1
  V  V11  1  0.43216621  0.00359203  0.25536209  1
  V  V12  1  0.00261176  0.56237878  0.25895917  1
  V  V13  1  0.99698658  0.43995095  0.74101641  1
  P  P14  1  0.91245163  0.76951246  0.84293985  1
  P  P15  1  0.77885280  0.91644177  0.33727517  1
  P  P16  1  0.91877872  0.29854053  0.34065605  1
  P  P17  1  0.66925599  0.67017173  0.13326560  1
  P  P18  1  0.66175144  0.66829320  0.62895929  1
  P  P19  1  0.77501775  0.31694246  0.83805687  1
  P  P20  1  0.68541785  0.22812751  0.65731700  1
  P  P21  1  0.32044471  0.91030450  0.84497801  1
  P  P22  1  0.67808321  0.08822776  0.15345256  1
  P  P23  1  0.31587664  0.77064552  0.34621291  1
  P  P24  1  0.22185349  0.68952386  0.16545197  1
  P  P25  1  0.33805908  0.32973035  0.37133755  1
  P  P26  1  0.33252071  0.32810139  0.86554987  1
  P  P27  1  0.08040629  0.70315860  0.65900497  1
  P  P28  1  0.21861129  0.08532875  0.66241209  1
  P  P29  1  0.08785759  0.23136748  0.15735472  1
  O  O30  1  0.99282449  0.80457274  0.57713116  1
  O  O31  1  0.91504747  0.74120863  0.33639667  1
  O  O32  1  0.74920185  0.00308338  0.06350805  1
  O  O33  1  0.74274450  0.91749447  0.83525623  1
  O  O34  1  0.90528884  0.61714910  0.82002188  1
  O  O35  1  0.81877062  0.66625013  0.17969136  1
  O  O36  1  0.92143398  0.45826152  0.32966768  1
  O  O37  1  0.00375989  0.24339623  0.06599993  1
  O  O38  1  0.92425615  0.33395158  0.83669306  1
  O  O39  1  0.67078522  0.81205628  0.67585575  1
  O  O40  1  0.61844903  0.91845423  0.32853652  1
  O  O41  1  0.80983732  0.51623758  0.67465222  1
  O  O42  1  0.67175909  0.68096936  0.02862402  1
  O  O43  1  0.66706537  0.67259333  0.52486067  1
  O  O44  1  0.67161722  0.51469974  0.16703148  1
  O  O45  1  0.47847580  0.90414758  0.82222338  1
  O  O46  1  0.52020847  0.81777429  0.17624206  1
  O  O47  1  0.74330648  0.33920849  0.33362455  1
  O  O48  1  0.79578053  0.20615151  0.74867937  1
  O  O49  1  0.77244436  0.21019694  0.56813770  1
  O  O50  1  0.76653656  0.23640624  0.92729524  1
  O  O51  1  0.62662304  0.48022668  0.82219012  1
  O  O52  1  0.50918025  0.67686113  0.66782196  1
  O  O53  1  0.66333685  0.25393524  0.15610403  1
  O  O54  1  0.47259344  0.61821305  0.33009137  1
  O  O55  1  0.34186308  0.91562991  0.32784832  1
  O  O56  1  0.79881286  0.98757202  0.23822336  1
  O  O57  1  0.79112624  0.00857713  0.41637407  1
  O  O58  1  0.20415967  0.99426825  0.58315417  1
  O  O59  1  0.65292223  0.08706385  0.66874608  1
  O  O60  1  0.53095644  0.38570105  0.66809113  1
  O  O61  1  0.34308678  0.74389766  0.84028055  1
  O  O62  1  0.49017867  0.32197910  0.33308490  1
  O  O63  1  0.37639349  0.52589326  0.17940359  1
  O  O64  1  0.22530373  0.78158146  0.08298480  1
  O  O65  1  0.23745280  0.78792418  0.43816678  1
  O  O66  1  0.19742584  0.78689513  0.26193556  1
  O  O67  1  0.25425168  0.66232562  0.66257707  1
  O  O68  1  0.48264215  0.18007908  0.82304745  1
  O  O69  1  0.51903048  0.09981562  0.17672155  1
  O  O70  1  0.33132951  0.47849321  0.82440852  1
  O  O71  1  0.33459786  0.31643199  0.97022450  1
  O  O72  1  0.33272675  0.32328418  0.47523750  1
  O  O73  1  0.18938994  0.48203455  0.32594634  1
  O  O74  1  0.37995169  0.08129083  0.66975408  1
  O  O75  1  0.32890040  0.18691398  0.32247139  1
  O  O76  1  0.07804919  0.66267250  0.16494406  1
  O  O77  1  0.00788271  0.79149317  0.75809438  1
  O  O78  1  0.98621724  0.76316992  0.93546211  1
  O  O79  1  0.07691158  0.54243700  0.67017118  1
  O  O80  1  0.18169056  0.33118848  0.82216008  1
  O  O81  1  0.09539221  0.38260853  0.17932463  1
  O  O82  1  0.25590058  0.08349324  0.16006303  1
  O  O83  1  0.25000797  0.99748259  0.93465307  1
  O  O84  1  0.19895265  0.01400238  0.76101403  1
  O  O85  1  0.08377933  0.26067990  0.66349353  1
  O  O86  1  0.00088834  0.19763180  0.42345881  1
  O  O87  1  0.99401125  0.20702416  0.24246040  1
