# generated using pymatgen
data_Li4V3P8O29
_symmetry_space_group_name_H-M   'P 1'
_cell_length_a   9.78256329
_cell_length_b   9.78335417
_cell_length_c   14.25410893
_cell_angle_alpha   89.66200250
_cell_angle_beta   89.67106259
_cell_angle_gamma   60.17943980
_symmetry_Int_Tables_number   1
_chemical_formula_structural   Li4V3P8O29
_chemical_formula_sum   'Li8 V6 P16 O58'
_cell_volume   1183.54221109
_cell_formula_units_Z   2
loop_
 _symmetry_equiv_pos_site_id
 _symmetry_equiv_pos_as_xyz
  1  'x, y, z'
loop_
 _atom_site_type_symbol
 _atom_site_label
 _atom_site_symmetry_multiplicity
 _atom_site_fract_x
 _atom_site_fract_y
 _atom_site_fract_z
 _atom_site_occupancy
  Li  Li0  1  0.08830728  0.22803350  0.93861767  1
  Li  Li1  1  0.22815952  0.08815177  0.43875298  1
  Li  Li2  1  0.31566241  0.76935053  0.55983709  1
  Li  Li3  1  0.32022338  0.90740965  0.05603382  1
  Li  Li4  1  0.76949221  0.31583974  0.06007113  1
  Li  Li5  1  0.90750197  0.31983007  0.55592220  1
  Li  Li6  1  0.77786409  0.91503384  0.55884975  1
  Li  Li7  1  0.91505857  0.77821687  0.05862944  1
  V  V8  1  0.00183870  0.56966248  0.25275285  1
  V  V9  1  0.43455661  0.99740099  0.24576035  1
  V  V10  1  0.43280184  0.56497716  0.75273411  1
  V  V11  1  0.56490272  0.43270250  0.25274251  1
  V  V12  1  0.56947598  0.00192869  0.75285346  1
  V  V13  1  0.99741766  0.43460139  0.74564519  1
  P  P14  1  0.08761706  0.23342903  0.15738145  1
  P  P15  1  0.23334690  0.08750084  0.65745131  1
  P  P16  1  0.08743832  0.68487528  0.66315191  1
  P  P17  1  0.33041961  0.33242470  0.36950419  1
  P  P18  1  0.33246919  0.33062870  0.86966397  1
  P  P19  1  0.22992633  0.68563761  0.16172771  1
  P  P20  1  0.31856813  0.76827316  0.34306980  1
  P  P21  1  0.68485873  0.08742581  0.16321597  1
  P  P22  1  0.31768614  0.91123316  0.83809818  1
  P  P23  1  0.68564949  0.22985640  0.66180108  1
  P  P24  1  0.76842904  0.31847131  0.84312287  1
  P  P25  1  0.67037623  0.66204827  0.12998383  1
  P  P26  1  0.66188171  0.67054108  0.62997808  1
  P  P27  1  0.91139254  0.31768815  0.33801022  1
  P  P28  1  0.76573768  0.91227466  0.34331350  1
  P  P29  1  0.91228607  0.76566656  0.84320623  1
  O  O30  1  0.99803794  0.24006594  0.42671300  1
  O  O31  1  0.08376861  0.25197303  0.65668895  1
  O  O32  1  0.20953068  0.00017282  0.74843436  1
  O  O33  1  0.24029560  0.99799428  0.92678556  1
  O  O34  1  0.09709665  0.38287133  0.17708530  1
  O  O35  1  0.25210943  0.08376861  0.15672002  1
  O  O36  1  0.18488498  0.32733403  0.83250428  1
  O  O37  1  0.09826300  0.52131290  0.67725340  1
  O  O38  1  0.98117356  0.76780250  0.93450957  1
  O  O39  1  0.08475296  0.66078478  0.16069903  1
  O  O40  1  0.32696539  0.18512331  0.33195342  1
  O  O41  1  0.18340592  0.48222311  0.32241825  1
  O  O42  1  0.38271088  0.09710464  0.67719464  1
  O  O43  1  0.32589617  0.34366237  0.47305877  1
  O  O44  1  0.34450814  0.32632979  0.97317425  1
  O  O45  1  0.52143222  0.09801995  0.17712305  1
  O  O46  1  0.33595341  0.47815756  0.82352973  1
  O  O47  1  0.48202733  0.18333638  0.82255419  1
  O  O48  1  0.25761487  0.66052259  0.66293506  1
  O  O49  1  0.20518584  0.78311158  0.25800691  1
  O  O50  1  0.23535153  0.77459310  0.07869236  1
  O  O51  1  0.25402614  0.75781991  0.43526335  1
  O  O52  1  0.38285352  0.52485117  0.17784674  1
  O  O53  1  0.47828712  0.33582765  0.32377168  1
  O  O54  1  0.66050193  0.08487495  0.66080749  1
  O  O55  1  0.34034949  0.74371551  0.83398172  1
  O  O56  1  0.52502719  0.38301772  0.67768286  1
  O  O57  1  0.24572833  0.99742314  0.56961215  1
  O  O58  1  0.76800985  0.98094780  0.43465945  1
  O  O59  1  0.48055766  0.61871402  0.32007937  1
  O  O60  1  0.66035570  0.25765736  0.16306411  1
  O  O61  1  0.78164985  0.01466725  0.25915119  1
  O  O62  1  0.33504402  0.91801203  0.33384854  1
  O  O63  1  0.51049958  0.67211640  0.67283744  1
  O  O64  1  0.61873854  0.48037482  0.82024651  1
  O  O65  1  0.75857157  0.25392286  0.93543909  1
  O  O66  1  0.77502315  0.23472310  0.57883295  1
  O  O67  1  0.78289058  0.20504470  0.75820193  1
  O  O68  1  0.74380099  0.34051369  0.33381528  1
  O  O69  1  0.51495231  0.81100899  0.16614318  1
  O  O70  1  0.47858142  0.90351313  0.82208277  1
  O  O71  1  0.67210240  0.51033569  0.17235853  1
  O  O72  1  0.65418492  0.67625644  0.52554630  1
  O  O73  1  0.67608754  0.65540629  0.02553310  1
  O  O74  1  0.62024725  0.89726233  0.32185142  1
  O  O75  1  0.81121243  0.51510800  0.66582518  1
  O  O76  1  0.66559959  0.81818746  0.67153809  1
  O  O77  1  0.91813184  0.33497693  0.83355119  1
  O  O78  1  0.00025483  0.20960789  0.24834602  1
  O  O79  1  0.99768212  0.24563652  0.06953372  1
  O  O80  1  0.90376919  0.47852912  0.32211218  1
  O  O81  1  0.81802269  0.66567101  0.17177658  1
  O  O82  1  0.74522268  0.91531852  0.82727144  1
  O  O83  1  0.89703035  0.62038337  0.82165320  1
  O  O84  1  0.77392534  0.99456020  0.08058651  1
  O  O85  1  0.91538401  0.74522709  0.32725739  1
  O  O86  1  0.99434708  0.77361240  0.58051574  1
  O  O87  1  0.01457559  0.78171508  0.75902564  1
