# generated using pymatgen
data_Li4V3P8O29
_symmetry_space_group_name_H-M   'P 1'
_cell_length_a   9.76956920
_cell_length_b   9.81462604
_cell_length_c   14.28375712
_cell_angle_alpha   89.97533497
_cell_angle_beta   90.49780132
_cell_angle_gamma   60.10795859
_symmetry_Int_Tables_number   1
_chemical_formula_structural   Li4V3P8O29
_chemical_formula_sum   'Li8 V6 P16 O58'
_cell_volume   1187.32809741
_cell_formula_units_Z   2
loop_
 _symmetry_equiv_pos_site_id
 _symmetry_equiv_pos_as_xyz
  1  'x, y, z'
loop_
 _atom_site_type_symbol
 _atom_site_label
 _atom_site_symmetry_multiplicity
 _atom_site_fract_x
 _atom_site_fract_y
 _atom_site_fract_z
 _atom_site_occupancy
  Li  Li0  1  0.77439357  0.90869155  0.55615420  1
  Li  Li1  1  0.76959975  0.33133852  0.04996199  1
  Li  Li2  1  0.32866600  0.90414579  0.05756922  1
  Li  Li3  1  0.69963567  0.22114532  0.44230073  1
  Li  Li4  1  0.31175297  0.77396633  0.56392284  1
  Li  Li5  1  0.67319120  0.09244815  0.93881844  1
  Li  Li6  1  0.22225246  0.08916485  0.44702425  1
  Li  Li7  1  0.03905615  0.93976253  0.99345526  1
  V  V8  1  0.56441147  0.43960633  0.24994456  1
  V  V9  1  0.42981879  0.56253477  0.75216796  1
  V  V10  1  0.56768423  0.99822356  0.75062495  1
  V  V11  1  0.43115062  0.00235475  0.24788865  1
  V  V12  1  0.99774260  0.56636081  0.24786836  1
  V  V13  1  0.00098187  0.43636635  0.75250231  1
  P  P14  1  0.91992030  0.77553549  0.84317861  1
  P  P15  1  0.77163785  0.91043185  0.33497819  1
  P  P16  1  0.91612827  0.31449837  0.34225735  1
  P  P17  1  0.66558548  0.66375048  0.13064907  1
  P  P18  1  0.66459638  0.66674235  0.63302575  1
  P  P19  1  0.77422415  0.31438607  0.83592226  1
  P  P20  1  0.67919641  0.23060796  0.65636510  1
  P  P21  1  0.31401452  0.90875315  0.84182030  1
  P  P22  1  0.68289165  0.09373311  0.15671802  1
  P  P23  1  0.32018357  0.77028436  0.34611651  1
  P  P24  1  0.21988627  0.69395212  0.16564333  1
  P  P25  1  0.33357106  0.33392086  0.36561427  1
  P  P26  1  0.33607630  0.33158425  0.87006156  1
  P  P27  1  0.08259190  0.68792199  0.65919713  1
  P  P28  1  0.22606494  0.09292263  0.66459367  1
  P  P29  1  0.07927968  0.22763755  0.15836160  1
  O  O30  1  0.99270143  0.77307736  0.57408518  1
  O  O31  1  0.91484708  0.74295031  0.33058427  1
  O  O32  1  0.76825070  0.02658659  0.06738900  1
  O  O33  1  0.74489344  0.91309495  0.83555100  1
  O  O34  1  0.92464765  0.61600583  0.83210050  1
  O  O35  1  0.81027312  0.66819495  0.17661617  1
  O  O36  1  0.90963770  0.47348285  0.32309297  1
  O  O37  1  0.99127958  0.21793636  0.07549204  1
  O  O38  1  0.91455693  0.34441453  0.83392476  1
  O  O39  1  0.66595675  0.81750868  0.66958394  1
  O  O40  1  0.61866169  0.90247878  0.31650311  1
  O  O41  1  0.81440572  0.52629906  0.68296287  1
  O  O42  1  0.67537679  0.63886996  0.02745068  1
  O  O43  1  0.66697531  0.66215996  0.52883838  1
  O  O44  1  0.67355769  0.51064181  0.17686933  1
  O  O45  1  0.46775911  0.91180142  0.83259431  1
  O  O46  1  0.51110772  0.81131211  0.16296086  1
  O  O47  1  0.74506786  0.33988673  0.33928896  1
  O  O48  1  0.79293943  0.21017063  0.74547923  1
  O  O49  1  0.74913599  0.24294510  0.56711382  1
  O  O50  1  0.77367713  0.22916234  0.92356655  1
  O  O51  1  0.61705803  0.47214709  0.82388072  1
  O  O52  1  0.51557360  0.66431535  0.67242376  1
  O  O53  1  0.65765157  0.26422582  0.16697386  1
  O  O54  1  0.48038789  0.62153355  0.31991486  1
  O  O55  1  0.33525144  0.91966468  0.33817461  1
  O  O56  1  0.79257227  0.00206653  0.24737354  1
  O  O57  1  0.76011191  0.99621773  0.42410861  1
  O  O58  1  0.23739846  0.00534329  0.57604715  1
  O  O59  1  0.66272192  0.08162774  0.66068828  1
  O  O60  1  0.52010184  0.37987115  0.67920248  1
  O  O61  1  0.34327636  0.73895614  0.82641453  1
  O  O62  1  0.48203942  0.33716441  0.32216173  1
  O  O63  1  0.38102529  0.53783339  0.17389678  1
  O  O64  1  0.20923785  0.79645971  0.08541528  1
  O  O65  1  0.26057154  0.75375182  0.43789676  1
  O  O66  1  0.20182723  0.78612041  0.26218702  1
  O  O67  1  0.25412090  0.66008846  0.66069254  1
  O  O68  1  0.49010192  0.18637600  0.83432176  1
  O  O69  1  0.52768577  0.09395103  0.16946197  1
  O  O70  1  0.33208591  0.48215069  0.82251376  1
  O  O71  1  0.33311842  0.34366847  0.97374855  1
  O  O72  1  0.34139045  0.33610449  0.46943453  1
  O  O73  1  0.18473239  0.47693691  0.31879506  1
  O  O74  1  0.37941721  0.09937255  0.68219630  1
  O  O75  1  0.33251599  0.18390516  0.32871180  1
  O  O76  1  0.08401139  0.65675703  0.16654363  1
  O  O77  1  0.00270151  0.79332984  0.75045051  1
  O  O78  1  0.99651536  0.79726671  0.92712559  1
  O  O79  1  0.08938882  0.52866702  0.67780748  1
  O  O80  1  0.18912823  0.33165063  0.82378870  1
  O  O81  1  0.07922982  0.38474696  0.17089418  1
  O  O82  1  0.25230997  0.08725458  0.16151951  1
  O  O83  1  0.22632453  0.97097299  0.93150608  1
  O  O84  1  0.20331968  0.00349213  0.75265350  1
  O  O85  1  0.08330619  0.26060461  0.66842197  1
  O  O86  1  0.00477539  0.23029443  0.42780728  1
  O  O87  1  0.00022360  0.20717100  0.25198998  1
