# generated using pymatgen
data_Li4V3P8O29
_symmetry_space_group_name_H-M   'P 1'
_cell_length_a   9.79457078
_cell_length_b   9.75564413
_cell_length_c   14.26311546
_cell_angle_alpha   90.02934216
_cell_angle_beta   90.18718537
_cell_angle_gamma   60.05226765
_symmetry_Int_Tables_number   1
_chemical_formula_structural   Li4V3P8O29
_chemical_formula_sum   'Li8 V6 P16 O58'
_cell_volume   1180.89749892
_cell_formula_units_Z   2
loop_
 _symmetry_equiv_pos_site_id
 _symmetry_equiv_pos_as_xyz
  1  'x, y, z'
loop_
 _atom_site_type_symbol
 _atom_site_label
 _atom_site_symmetry_multiplicity
 _atom_site_fract_x
 _atom_site_fract_y
 _atom_site_fract_z
 _atom_site_occupancy
  Li  Li0  1  0.91802599  0.30735153  0.56040341  1
  Li  Li1  1  0.76750646  0.32074904  0.05616268  1
  Li  Li2  1  0.33204238  0.89840757  0.05643293  1
  Li  Li3  1  0.68514599  0.22644519  0.44909224  1
  Li  Li4  1  0.32302188  0.77032001  0.55947645  1
  Li  Li5  1  0.08615261  0.69039085  0.43867205  1
  Li  Li6  1  0.09497301  0.23286965  0.93934382  1
  Li  Li7  1  0.97697919  0.94834524  0.00464679  1
  V  V8  1  0.56570104  0.43687182  0.24635274  1
  V  V9  1  0.42990183  0.56689728  0.75784031  1
  V  V10  1  0.56897083  0.00104245  0.74913316  1
  V  V11  1  0.43572667  0.00097798  0.25014255  1
  V  V12  1  0.99580454  0.57122209  0.24841267  1
  V  V13  1  0.00169884  0.43566842  0.74755980  1
  P  P14  1  0.91544112  0.77660180  0.83679039  1
  P  P15  1  0.77031868  0.91794902  0.34083305  1
  P  P16  1  0.91030666  0.31895839  0.34105248  1
  P  P17  1  0.66386443  0.66897501  0.13034919  1
  P  P18  1  0.66078383  0.66646397  0.63309391  1
  P  P19  1  0.77505985  0.31502257  0.84235629  1
  P  P20  1  0.68047874  0.23122047  0.66281537  1
  P  P21  1  0.31518816  0.91661611  0.84224184  1
  P  P22  1  0.69126803  0.08362499  0.15626882  1
  P  P23  1  0.32087770  0.77146685  0.34127173  1
  P  P24  1  0.22119540  0.69385190  0.16147643  1
  P  P25  1  0.33594382  0.33552373  0.36641415  1
  P  P26  1  0.33627077  0.32720007  0.87006404  1
  P  P27  1  0.09130841  0.68143624  0.65672260  1
  P  P28  1  0.22900721  0.08498566  0.65990039  1
  P  P29  1  0.08729321  0.22780365  0.16075901  1
  O  O30  1  0.02168813  0.74736778  0.56363966  1
  O  O31  1  0.91555405  0.75002769  0.34020097  1
  O  O32  1  0.78599270  0.00693393  0.07205742  1
  O  O33  1  0.74152908  0.91586368  0.82837095  1
  O  O34  1  0.91633814  0.61933120  0.82816114  1
  O  O35  1  0.80462981  0.67700311  0.17216193  1
  O  O36  1  0.90249186  0.47879343  0.32106207  1
  O  O37  1  0.00199283  0.22426909  0.07327341  1
  O  O38  1  0.91841098  0.34112871  0.83605657  1
  O  O39  1  0.65856354  0.81522508  0.67765142  1
  O  O40  1  0.61891453  0.90578446  0.31959026  1
  O  O41  1  0.81368957  0.51491743  0.66913983  1
  O  O42  1  0.65019275  0.66067775  0.02693282  1
  O  O43  1  0.64751605  0.67047453  0.52889196  1
  O  O44  1  0.67293273  0.51136017  0.17338135  1
  O  O45  1  0.47221820  0.91344115  0.82831976  1
  O  O46  1  0.50806303  0.81495691  0.17125213  1
  O  O47  1  0.74115632  0.33908715  0.33377421  1
  O  O48  1  0.79236143  0.20810073  0.75199721  1
  O  O49  1  0.75739549  0.24282011  0.57455756  1
  O  O50  1  0.78073099  0.23345058  0.93208478  1
  O  O51  1  0.61851996  0.47354539  0.82765095  1
  O  O52  1  0.51375596  0.66474502  0.67810466  1
  O  O53  1  0.65613409  0.25956393  0.16211321  1
  O  O54  1  0.48045251  0.61968221  0.31988478  1
  O  O55  1  0.34332768  0.91674650  0.33292922  1
  O  O56  1  0.79250734  0.00239401  0.24947437  1
  O  O57  1  0.75558957  0.01180297  0.42541516  1
  O  O58  1  0.23448350  0.98877256  0.57813880  1
  O  O59  1  0.65840162  0.08559581  0.66418119  1
  O  O60  1  0.52177480  0.38300718  0.68145204  1
  O  O61  1  0.34131477  0.74606630  0.83621241  1
  O  O62  1  0.48264431  0.33795273  0.31962757  1
  O  O63  1  0.38184013  0.53747415  0.17143396  1
  O  O64  1  0.20831157  0.79526321  0.07986366  1
  O  O65  1  0.25138322  0.75769199  0.43155282  1
  O  O66  1  0.20327547  0.79062576  0.25753897  1
  O  O67  1  0.25948270  0.66175218  0.66650772  1
  O  O68  1  0.48396920  0.18583027  0.82116139  1
  O  O69  1  0.53515823  0.08037983  0.16919602  1
  O  O70  1  0.33306348  0.48066408  0.82651147  1
  O  O71  1  0.34660279  0.32325204  0.97395281  1
  O  O72  1  0.35881390  0.31976382  0.46955058  1
  O  O73  1  0.18407946  0.48685273  0.33383201  1
  O  O74  1  0.38059833  0.09353161  0.67712090  1
  O  O75  1  0.33961756  0.18687459  0.31719088  1
  O  O76  1  0.08586790  0.65738337  0.16726923  1
  O  O77  1  0.99293456  0.79721161  0.74033407  1
  O  O78  1  0.99724397  0.79548831  0.91847557  1
  O  O79  1  0.10361082  0.51896842  0.67778249  1
  O  O80  1  0.18858435  0.32305014  0.83269759  1
  O  O81  1  0.09476397  0.37894305  0.17362694  1
  O  O82  1  0.25676884  0.08009456  0.16256899  1
  O  O83  1  0.23353964  0.99620150  0.93243892  1
  O  O84  1  0.20211652  0.00965551  0.75606897  1
  O  O85  1  0.08322461  0.25399141  0.65874822  1
  O  O86  1  0.98358421  0.24610883  0.43214441  1
  O  O87  1  0.00210097  0.20614721  0.25249939  1
