# generated using pymatgen
data_Li4V3P8O29
_symmetry_space_group_name_H-M   'P 1'
_cell_length_a   9.79257436
_cell_length_b   9.79100012
_cell_length_c   14.28856598
_cell_angle_alpha   90.02961752
_cell_angle_beta   90.18674896
_cell_angle_gamma   59.89885247
_symmetry_Int_Tables_number   1
_chemical_formula_structural   Li4V3P8O29
_chemical_formula_sum   'Li8 V6 P16 O58'
_cell_volume   1185.21459858
_cell_formula_units_Z   2
loop_
 _symmetry_equiv_pos_site_id
 _symmetry_equiv_pos_as_xyz
  1  'x, y, z'
loop_
 _atom_site_type_symbol
 _atom_site_label
 _atom_site_symmetry_multiplicity
 _atom_site_fract_x
 _atom_site_fract_y
 _atom_site_fract_z
 _atom_site_occupancy
  Li  Li0  1  0.77652827  0.90685870  0.55578649  1
  Li  Li1  1  0.92014770  0.30757170  0.55725611  1
  Li  Li2  1  0.76111862  0.32830310  0.05883885  1
  Li  Li3  1  0.32804227  0.90038974  0.06139634  1
  Li  Li4  1  0.68931063  0.22481989  0.43976325  1
  Li  Li5  1  0.31030806  0.77432852  0.55691415  1
  Li  Li6  1  0.09203952  0.23443078  0.94199778  1
  Li  Li7  1  0.98520018  0.93426654  0.01484822  1
  V  V8  1  0.56443152  0.43711866  0.24819930  1
  V  V9  1  0.43048835  0.56756262  0.75417202  1
  V  V10  1  0.56589913  0.00241522  0.75391502  1
  V  V11  1  0.43421086  0.00176009  0.24982611  1
  V  V12  1  0.99526891  0.57198117  0.24797449  1
  V  V13  1  0.00101807  0.43635369  0.74748846  1
  P  P14  1  0.91690638  0.77288772  0.84159432  1
  P  P15  1  0.77063347  0.91323669  0.33965308  1
  P  P16  1  0.91100662  0.31854323  0.34177542  1
  P  P17  1  0.66845182  0.66267224  0.12924263  1
  P  P18  1  0.66180993  0.66866621  0.63291518  1
  P  P19  1  0.77376058  0.31590452  0.84127426  1
  P  P20  1  0.68081233  0.23077875  0.66071189  1
  P  P21  1  0.31407515  0.91544375  0.84224804  1
  P  P22  1  0.69017267  0.08655207  0.15859407  1
  P  P23  1  0.32094942  0.76990726  0.34132727  1
  P  P24  1  0.21988284  0.69418028  0.16245979  1
  P  P25  1  0.33323269  0.33570676  0.36518119  1
  P  P26  1  0.33518822  0.33130634  0.86935811  1
  P  P27  1  0.08655888  0.68620366  0.66005187  1
  P  P28  1  0.22907198  0.08617230  0.66077315  1
  P  P29  1  0.08517828  0.23002117  0.16067206  1
  O  O30  1  0.99647931  0.77003770  0.57501134  1
  O  O31  1  0.91446844  0.74591351  0.33366813  1
  O  O32  1  0.79133054  0.00198552  0.07778594  1
  O  O33  1  0.74346969  0.91369168  0.82691197  1
  O  O34  1  0.91619986  0.61801148  0.82967679  1
  O  O35  1  0.81256759  0.66982650  0.17618297  1
  O  O36  1  0.90452314  0.47720889  0.32105451  1
  O  O37  1  0.99953333  0.23153348  0.07219439  1
  O  O38  1  0.91807117  0.34040521  0.83440009  1
  O  O39  1  0.66291058  0.81772111  0.67375712  1
  O  O40  1  0.61902042  0.90311886  0.31993493  1
  O  O41  1  0.81213693  0.51598082  0.67022674  1
  O  O42  1  0.67581155  0.65265296  0.02518353  1
  O  O43  1  0.65260457  0.67280324  0.52878132  1
  O  O44  1  0.68054718  0.50941176  0.17146132  1
  O  O45  1  0.47370976  0.91030173  0.82727204  1
  O  O46  1  0.51394561  0.81388200  0.16542503  1
  O  O47  1  0.74416941  0.33674003  0.33740269  1
  O  O48  1  0.79035823  0.20821316  0.75098975  1
  O  O49  1  0.75849079  0.24023544  0.57228030  1
  O  O50  1  0.77592777  0.23854219  0.93131691  1
  O  O51  1  0.61747354  0.47488260  0.82416204  1
  O  O52  1  0.51357892  0.66742124  0.67720173  1
  O  O53  1  0.65271480  0.26061961  0.16107302  1
  O  O54  1  0.48200611  0.62137761  0.31946174  1
  O  O55  1  0.34288287  0.91600210  0.32552080  1
  O  O56  1  0.78663154  0.01293876  0.25634647  1
  O  O57  1  0.75738717  0.99641820  0.43039402  1
  O  O58  1  0.23793523  0.98863812  0.57942594  1
  O  O59  1  0.66066175  0.08352968  0.66029937  1
  O  O60  1  0.52165065  0.38292423  0.67892709  1
  O  O61  1  0.34007535  0.74624761  0.83434336  1
  O  O62  1  0.48429093  0.33088211  0.32536047  1
  O  O63  1  0.37821413  0.54058588  0.16651866  1
  O  O64  1  0.19766366  0.80362021  0.08274979  1
  O  O65  1  0.25600502  0.76473691  0.43345829  1
  O  O66  1  0.20055292  0.78875102  0.25939251  1
  O  O67  1  0.25713185  0.66149730  0.66276349  1
  O  O68  1  0.48571999  0.18608279  0.82191202  1
  O  O69  1  0.53636136  0.07924324  0.17033849  1
  O  O70  1  0.33330534  0.48120501  0.82388554  1
  O  O71  1  0.34839754  0.32566330  0.97273470  1
  O  O72  1  0.33783711  0.32731955  0.46879935  1
  O  O73  1  0.18277181  0.47812225  0.32132647  1
  O  O74  1  0.38101860  0.09402161  0.67983119  1
  O  O75  1  0.33969491  0.18282419  0.31779102  1
  O  O76  1  0.08081525  0.66049818  0.16736386  1
  O  O77  1  0.00612286  0.79134729  0.75143345  1
  O  O78  1  0.99013689  0.79319066  0.92681277  1
  O  O79  1  0.09840032  0.52335040  0.67720636  1
  O  O80  1  0.18950372  0.32411545  0.83206443  1
  O  O81  1  0.08930864  0.38402577  0.17394924  1
  O  O82  1  0.25555474  0.08502027  0.15983575  1
  O  O83  1  0.23668347  0.99485802  0.93281105  1
  O  O84  1  0.20141808  0.01152605  0.75691794  1
  O  O85  1  0.08348034  0.25470258  0.65897435  1
  O  O86  1  0.99053566  0.24407582  0.43151223  1
  O  O87  1  0.00234475  0.20719375  0.25166127  1
