# generated using pymatgen
data_Li5Bi(P2O7)2
_symmetry_space_group_name_H-M   'P 1'
_cell_length_a   8.72835252
_cell_length_b   9.90152950
_cell_length_c   7.24412768
_cell_angle_alpha   76.74650612
_cell_angle_beta   110.97049993
_cell_angle_gamma   103.00895724
_symmetry_Int_Tables_number   1
_chemical_formula_structural   Li5Bi(P2O7)2
_chemical_formula_sum   'Li10 Bi2 P8 O28'
_cell_volume   561.93608887
_cell_formula_units_Z   2
loop_
 _symmetry_equiv_pos_site_id
 _symmetry_equiv_pos_as_xyz
  1  'x, y, z'
loop_
 _atom_site_type_symbol
 _atom_site_label
 _atom_site_symmetry_multiplicity
 _atom_site_fract_x
 _atom_site_fract_y
 _atom_site_fract_z
 _atom_site_occupancy
  Li  Li0  1  0.18855255  0.72217676  0.66386342  1
  Li  Li1  1  0.26165438  0.41581563  0.71696229  1
  Li  Li2  1  0.26840675  0.90981345  0.24172261  1
  Li  Li3  1  0.48576717  0.86078018  0.96457433  1
  Li  Li4  1  0.48771976  0.64300635  0.55857340  1
  Li  Li5  1  0.51228024  0.35699265  0.44142660  1
  Li  Li6  1  0.51423283  0.13921982  0.03542567  1
  Li  Li7  1  0.73159325  0.09018655  0.75827739  1
  Li  Li8  1  0.73834562  0.58418437  0.28303771  1
  Li  Li9  1  0.81144745  0.27782324  0.33613658  1
  Bi  Bi10  1  0.12750569  0.23727072  0.12812143  1
  Bi  Bi11  1  0.87249431  0.76272928  0.87187857  1
  P  P12  1  0.14117761  0.03424315  0.83372003  1
  P  P13  1  0.10238114  0.54454188  0.30672032  1
  P  P14  1  0.34303094  0.05181858  0.58801609  1
  P  P15  1  0.36531944  0.57370410  0.12043684  1
  P  P16  1  0.63468056  0.42629590  0.87956316  1
  P  P17  1  0.65696906  0.94818142  0.41198391  1
  P  P18  1  0.89761886  0.45545812  0.69327968  1
  P  P19  1  0.85882239  0.96575685  0.16627997  1
  O  O20  1  0.04891915  0.37803376  0.78343464  1
  O  O21  1  0.18300717  0.88524060  0.91888434  1
  O  O22  1  0.04163658  0.96113950  0.21102903  1
  O  O23  1  0.05591713  0.38359797  0.31885933  1
  O  O24  1  0.25866704  0.14078030  0.97306592  1
  O  O25  1  0.22461064  0.58774628  0.50485206  1
  O  O26  1  0.18074977  0.08514547  0.62570085  1
  O  O27  1  0.37061445  0.66366144  0.92337548  1
  O  O28  1  0.30516303  0.90407872  0.53978753  1
  O  O29  1  0.19679043  0.60376727  0.14161703  1
  O  O30  1  0.35352083  0.17002806  0.40813454  1
  O  O31  1  0.34147563  0.41289872  0.12412030  1
  O  O32  1  0.49228341  0.06888306  0.77887825  1
  O  O33  1  0.48596196  0.39345847  0.69453987  1
  O  O34  1  0.51403804  0.60654153  0.30546013  1
  O  O35  1  0.50771659  0.93111694  0.22112175  1
  O  O36  1  0.65852437  0.58710128  0.87587970  1
  O  O37  1  0.64647917  0.82997194  0.59186546  1
  O  O38  1  0.80320957  0.39623273  0.85838297  1
  O  O39  1  0.69483697  0.09592128  0.46021247  1
  O  O40  1  0.62938555  0.33633856  0.07662452  1
  O  O41  1  0.81925023  0.91485453  0.37429915  1
  O  O42  1  0.77538936  0.41225372  0.49514794  1
  O  O43  1  0.74133296  0.85921970  0.02693408  1
  O  O44  1  0.94408287  0.61640203  0.68114067  1
  O  O45  1  0.95836342  0.03886050  0.78897097  1
  O  O46  1  0.81699283  0.11475940  0.08111566  1
  O  O47  1  0.95108085  0.62196624  0.21656536  1
