# generated using pymatgen
data_Li4V3P8O29
_symmetry_space_group_name_H-M   'P 1'
_cell_length_a   9.77400503
_cell_length_b   9.76253028
_cell_length_c   14.20307247
_cell_angle_alpha   90.10661644
_cell_angle_beta   90.21857087
_cell_angle_gamma   60.07690480
_symmetry_Int_Tables_number   1
_chemical_formula_structural   Li4V3P8O29
_chemical_formula_sum   'Li8 V6 P16 O58'
_cell_volume   1174.57501582
_cell_formula_units_Z   2
loop_
 _symmetry_equiv_pos_site_id
 _symmetry_equiv_pos_as_xyz
  1  'x, y, z'
loop_
 _atom_site_type_symbol
 _atom_site_label
 _atom_site_symmetry_multiplicity
 _atom_site_fract_x
 _atom_site_fract_y
 _atom_site_fract_z
 _atom_site_occupancy
  Li  Li0  1  0.76922125  0.90352905  0.56240807  1
  Li  Li1  1  0.91392783  0.31659867  0.56460777  1
  Li  Li2  1  0.76400390  0.32628269  0.05580874  1
  Li  Li3  1  0.32474930  0.90582320  0.05817591  1
  Li  Li4  1  0.68528669  0.22673409  0.44094494  1
  Li  Li5  1  0.32803411  0.76911611  0.56000779  1
  Li  Li6  1  0.09298447  0.68285730  0.43980719  1
  Li  Li7  1  0.98347405  0.96355392  0.00268148  1
  V  V8  1  0.56707287  0.43440169  0.24853576  1
  V  V9  1  0.43147139  0.56573077  0.75342526  1
  V  V10  1  0.56451242  0.00213508  0.75539579  1
  V  V11  1  0.43398827  0.00166800  0.25052432  1
  V  V12  1  0.99389782  0.56767475  0.24183822  1
  V  V13  1  0.00269860  0.43267529  0.75154698  1
  P  P14  1  0.91822063  0.77658334  0.83950181  1
  P  P15  1  0.77113498  0.91166690  0.34161407  1
  P  P16  1  0.91290129  0.32031673  0.34634111  1
  P  P17  1  0.66317335  0.66836091  0.12812617  1
  P  P18  1  0.66438059  0.66757714  0.63077896  1
  P  P19  1  0.77422004  0.31365503  0.84050980  1
  P  P20  1  0.68097670  0.22872420  0.65949559  1
  P  P21  1  0.31225740  0.91460437  0.84340185  1
  P  P22  1  0.69296200  0.08334306  0.15840241  1
  P  P23  1  0.32126272  0.76898024  0.34184402  1
  P  P24  1  0.22255090  0.69235648  0.16088305  1
  P  P25  1  0.33118539  0.33658512  0.36673202  1
  P  P26  1  0.33510300  0.33177689  0.86937740  1
  P  P27  1  0.08805715  0.68160649  0.65680196  1
  P  P28  1  0.22833961  0.08524441  0.66128986  1
  P  P29  1  0.08282240  0.22165625  0.16371522  1
  O  O30  1  0.00315010  0.75748808  0.56618411  1
  O  O31  1  0.91814788  0.74446451  0.33832271  1
  O  O32  1  0.79183895  0.99953855  0.07655787  1
  O  O33  1  0.74306748  0.91534583  0.82821168  1
  O  O34  1  0.91940045  0.62002694  0.83093995  1
  O  O35  1  0.81026660  0.67458862  0.17424059  1
  O  O36  1  0.90201605  0.48004499  0.31882680  1
  O  O37  1  0.98852127  0.21496180  0.08354949  1
  O  O38  1  0.91267749  0.34515443  0.83055723  1
  O  O39  1  0.66631951  0.81648576  0.67312384  1
  O  O40  1  0.61941049  0.90194324  0.32160473  1
  O  O41  1  0.81438383  0.51500419  0.66662660  1
  O  O42  1  0.66281113  0.67406079  0.02373446  1
  O  O43  1  0.65341914  0.67730465  0.52568852  1
  O  O44  1  0.67747016  0.51251325  0.16704536  1
  O  O45  1  0.47239228  0.91068408  0.82801625  1
  O  O46  1  0.51099479  0.81515841  0.17076148  1
  O  O47  1  0.74779642  0.33440597  0.33778109  1
  O  O48  1  0.79016274  0.20515240  0.75037284  1
  O  O49  1  0.76027169  0.23760661  0.57091620  1
  O  O50  1  0.77807675  0.23451216  0.93067605  1
  O  O51  1  0.61657942  0.47240320  0.82438009  1
  O  O52  1  0.51473952  0.66581092  0.67286871  1
  O  O53  1  0.65605258  0.25829407  0.16296481  1
  O  O54  1  0.48179067  0.61879258  0.32191409  1
  O  O55  1  0.34237366  0.91550629  0.33222144  1
  O  O56  1  0.78929528  0.00791526  0.25642083  1
  O  O57  1  0.75936146  0.99524972  0.43268467  1
  O  O58  1  0.23656610  0.98722696  0.57946441  1
  O  O59  1  0.66063780  0.08132827  0.65894162  1
  O  O60  1  0.52213633  0.38099187  0.67662722  1
  O  O61  1  0.34155307  0.74365055  0.82937254  1
  O  O62  1  0.48533695  0.33041406  0.32973022  1
  O  O63  1  0.37886233  0.53718000  0.16829698  1
  O  O64  1  0.20157934  0.80062651  0.08142587  1
  O  O65  1  0.24998211  0.75799816  0.43275587  1
  O  O66  1  0.20186864  0.78812960  0.25883452  1
  O  O67  1  0.25652333  0.66086724  0.65886379  1
  O  O68  1  0.48778168  0.18557096  0.82286726  1
  O  O69  1  0.53627294  0.08005440  0.17218399  1
  O  O70  1  0.33417467  0.48214107  0.82287937  1
  O  O71  1  0.34981339  0.33069818  0.97299196  1
  O  O72  1  0.32898082  0.33232658  0.47118348  1
  O  O73  1  0.18150465  0.48398332  0.32456578  1
  O  O74  1  0.38164858  0.09215944  0.67943847  1
  O  O75  1  0.33714041  0.18459357  0.31850111  1
  O  O76  1  0.08272229  0.65799537  0.16722447  1
  O  O77  1  0.99670676  0.79698497  0.74255958  1
  O  O78  1  0.99640866  0.80183551  0.92112513  1
  O  O79  1  0.09727518  0.52201451  0.67522057  1
  O  O80  1  0.19417552  0.32514080  0.82631206  1
  O  O81  1  0.08416595  0.38145348  0.17214498  1
  O  O82  1  0.25660473  0.08294168  0.16149776  1
  O  O83  1  0.23787856  0.98116311  0.93577168  1
  O  O84  1  0.20039082  0.01179391  0.75799755  1
  O  O85  1  0.08385578  0.25369112  0.65965861  1
  O  O86  1  0.98793497  0.25781223  0.43882263  1
  O  O87  1  0.01610178  0.20052610  0.26271051  1
