# generated using pymatgen
data_Li4V3(CO3)6
_symmetry_space_group_name_H-M   'P 1'
_cell_length_a   4.74709604
_cell_length_b   5.99316094
_cell_length_c   12.25043041
_cell_angle_alpha   101.11521490
_cell_angle_beta   89.83534671
_cell_angle_gamma   113.34931695
_symmetry_Int_Tables_number   1
_chemical_formula_structural   Li4V3(CO3)6
_chemical_formula_sum   'Li4 V3 C6 O18'
_cell_volume   312.93367066
_cell_formula_units_Z   1
loop_
 _symmetry_equiv_pos_site_id
 _symmetry_equiv_pos_as_xyz
  1  'x, y, z'
loop_
 _atom_site_type_symbol
 _atom_site_label
 _atom_site_symmetry_multiplicity
 _atom_site_fract_x
 _atom_site_fract_y
 _atom_site_fract_z
 _atom_site_occupancy
  Li  Li0  1  0.59540496  0.19595480  0.60785934  1
  Li  Li1  1  0.74008519  0.48707610  0.07266653  1
  Li  Li2  1  0.25991481  0.51292390  0.92733347  1
  Li  Li3  1  0.40459504  0.80404520  0.39214066  1
  V  V4  1  0.66418500  0.32929579  0.33198976  1
  V  V5  1  0.33581500  0.67070421  0.66801024  1
  V  V6  1  -0.00000000  -0.00000000  -0.00000000  1
  C  C7  1  0.87822515  0.76096082  0.52960740  1
  C  C8  1  0.55105253  0.09886592  0.86450363  1
  C  C9  1  0.78982299  0.57780785  0.80365890  1
  C  C10  1  0.21017701  0.42219215  0.19634110  1
  C  C11  1  0.44894747  0.90113408  0.13549637  1
  C  C12  1  0.12177485  0.23903918  0.47039260  1
  O  O13  1  0.82700489  0.11148591  0.87550437  1
  O  O14  1  0.83783849  0.22219972  0.46491678  1
  O  O15  1  0.89464108  0.49327122  0.71471704  1
  O  O16  1  0.95487422  0.65749790  0.89870102  1
  O  O17  1  0.71133912  0.66182212  0.43485611  1
  O  O18  1  0.38562236  0.99921632  0.77017174  1
  O  O19  1  0.76874412  0.84639425  0.61591638  1
  O  O20  1  0.44049577  0.19870065  0.94990483  1
  O  O21  1  0.48321494  0.42469951  0.20119457  1
  O  O22  1  0.51678506  0.57530049  0.79880543  1
  O  O23  1  0.55950423  0.80129935  0.05009517  1
  O  O24  1  0.23125588  0.15360575  0.38408362  1
  O  O25  1  0.61437764  0.00078368  0.22982826  1
  O  O26  1  0.28866088  0.33817788  0.56514389  1
  O  O27  1  0.04512578  0.34250210  0.10129898  1
  O  O28  1  0.10535892  0.50672878  0.28528296  1
  O  O29  1  0.16216151  0.77780028  0.53508322  1
  O  O30  1  0.17299511  0.88851409  0.12449563  1
