# generated using pymatgen
data_Li4Co2(PO4)3
_symmetry_space_group_name_H-M   'P 1'
_cell_length_a   8.91196656
_cell_length_b   12.17267055
_cell_length_c   8.74507123
_cell_angle_alpha   90.00000000
_cell_angle_beta   90.00000000
_cell_angle_gamma   90.00000000
_symmetry_Int_Tables_number   1
_chemical_formula_structural   Li4Co2(PO4)3
_chemical_formula_sum   'Li16 Co8 P12 O48'
_cell_volume   948.68660280
_cell_formula_units_Z   4
loop_
 _symmetry_equiv_pos_site_id
 _symmetry_equiv_pos_as_xyz
  1  'x, y, z'
loop_
 _atom_site_type_symbol
 _atom_site_label
 _atom_site_symmetry_multiplicity
 _atom_site_fract_x
 _atom_site_fract_y
 _atom_site_fract_z
 _atom_site_occupancy
  Li  Li0  1  0.05148802  0.28805308  0.42734169  1
  Li  Li1  1  0.05148802  0.71194692  0.07265831  1
  Li  Li2  1  0.20278706  0.17961748  0.76113701  1
  Li  Li3  1  0.20278706  0.82038252  0.73886299  1
  Li  Li4  1  0.29721294  0.32038252  0.26113701  1
  Li  Li5  1  0.29721294  0.67961748  0.23886299  1
  Li  Li6  1  0.44851198  0.21194692  0.92734169  1
  Li  Li7  1  0.44851198  0.78805308  0.57265831  1
  Li  Li8  1  0.55148802  0.21194692  0.42734169  1
  Li  Li9  1  0.55148802  0.78805308  0.07265831  1
  Li  Li10  1  0.70278706  0.32038252  0.76113701  1
  Li  Li11  1  0.70278706  0.67961748  0.73886299  1
  Li  Li12  1  0.79721294  0.17961748  0.26113701  1
  Li  Li13  1  0.79721294  0.82038252  0.23886299  1
  Li  Li14  1  0.94851198  0.28805308  0.92734169  1
  Li  Li15  1  0.94851198  0.71194692  0.57265831  1
  Co  Co16  1  0.25105559  0.89453131  0.04264237  1
  Co  Co17  1  0.25105559  0.10546869  0.45735763  1
  Co  Co18  1  0.24894441  0.39453131  0.95735763  1
  Co  Co19  1  0.24894441  0.60546869  0.54264237  1
  Co  Co20  1  0.75105559  0.39453131  0.45735763  1
  Co  Co21  1  0.75105559  0.60546869  0.04264237  1
  Co  Co22  1  0.74894441  0.10546869  0.95735763  1
  Co  Co23  1  0.74894441  0.89453131  0.54264237  1
  P  P24  1  0.04869307  0.50000000  0.25000000  1
  P  P25  1  0.45130693  -0.00000000  0.75000000  1
  P  P26  1  0.54869307  -0.00000000  0.25000000  1
  P  P27  1  0.95130693  0.50000000  0.75000000  1
  P  P28  1  0.10634150  0.15025509  0.10484292  1
  P  P29  1  0.10634150  0.84974491  0.39515708  1
  P  P30  1  0.39365850  0.34974491  0.60484292  1
  P  P31  1  0.39365850  0.65025509  0.89515708  1
  P  P32  1  0.60634150  0.34974491  0.10484292  1
  P  P33  1  0.60634150  0.65025509  0.39515708  1
  P  P34  1  0.89365850  0.15025509  0.60484292  1
  P  P35  1  0.89365850  0.84974491  0.89515708  1
  O  O36  1  0.04520015  0.42626398  0.85776385  1
  O  O37  1  0.04520015  0.57373602  0.64223615  1
  O  O38  1  0.06647028  0.16785599  0.59181308  1
  O  O39  1  0.06647028  0.83214401  0.90818692  1
  O  O40  1  0.15352182  0.41958687  0.16179664  1
  O  O41  1  0.15352182  0.58041313  0.33820336  1
  O  O42  1  0.15649678  0.18932666  0.26654764  1
  O  O43  1  0.15649678  0.81067334  0.23345236  1
  O  O44  1  0.15357635  0.03222188  0.07528770  1
  O  O45  1  0.15357635  0.96777812  0.42471230  1
  O  O46  1  0.17594946  0.22485528  0.97659903  1
  O  O47  1  0.17594946  0.77514472  0.52340097  1
  O  O48  1  0.32405054  0.27514472  0.47659903  1
  O  O49  1  0.32405054  0.72485528  0.02340097  1
  O  O50  1  0.34642365  0.46777812  0.57528770  1
  O  O51  1  0.34642365  0.53222188  0.92471230  1
  O  O52  1  0.34350322  0.68932666  0.73345236  1
  O  O53  1  0.34350322  0.31067334  0.76654764  1
  O  O54  1  0.34647818  0.08041313  0.66179664  1
  O  O55  1  0.34647818  0.91958687  0.83820336  1
  O  O56  1  0.43352972  0.33214401  0.09181308  1
  O  O57  1  0.43352972  0.66785599  0.40818692  1
  O  O58  1  0.45479985  0.07373602  0.35776385  1
  O  O59  1  0.45479985  0.92626398  0.14223615  1
  O  O60  1  0.54520015  0.92626398  0.64223615  1
  O  O61  1  0.54520015  0.07373602  0.85776385  1
  O  O62  1  0.56647028  0.33214401  0.59181308  1
  O  O63  1  0.56647028  0.66785599  0.90818692  1
  O  O64  1  0.65352182  0.08041313  0.16179664  1
  O  O65  1  0.65352182  0.91958687  0.33820336  1
  O  O66  1  0.65649678  0.31067334  0.26654764  1
  O  O67  1  0.65649678  0.68932666  0.23345236  1
  O  O68  1  0.65357635  0.46777812  0.07528770  1
  O  O69  1  0.65357635  0.53222188  0.42471230  1
  O  O70  1  0.67594946  0.27514472  0.97659903  1
  O  O71  1  0.67594946  0.72485528  0.52340097  1
  O  O72  1  0.82405054  0.22485528  0.47659903  1
  O  O73  1  0.82405054  0.77514472  0.02340097  1
  O  O74  1  0.84642365  0.03222188  0.57528770  1
  O  O75  1  0.84642365  0.96777812  0.92471230  1
  O  O76  1  0.84350322  0.18932666  0.76654764  1
  O  O77  1  0.84350322  0.81067334  0.73345236  1
  O  O78  1  0.84647818  0.41958687  0.66179664  1
  O  O79  1  0.84647818  0.58041313  0.83820336  1
  O  O80  1  0.93352972  0.16785599  0.09181308  1
  O  O81  1  0.93352972  0.83214401  0.40818692  1
  O  O82  1  0.95479985  0.42626398  0.35776385  1
  O  O83  1  0.95479985  0.57373602  0.14223615  1
