# generated using pymatgen
data_Li3MnV(PO4)3
_symmetry_space_group_name_H-M   'P 1'
_cell_length_a   9.13325452
_cell_length_b   8.37246598
_cell_length_c   8.45998790
_cell_angle_alpha   59.72789029
_cell_angle_beta   63.00873751
_cell_angle_gamma   89.27465173
_symmetry_Int_Tables_number   1
_chemical_formula_structural   Li3MnV(PO4)3
_chemical_formula_sum   'Li6 Mn2 V2 P6 O24'
_cell_volume   477.81055484
_cell_formula_units_Z   2
loop_
 _symmetry_equiv_pos_site_id
 _symmetry_equiv_pos_as_xyz
  1  'x, y, z'
loop_
 _atom_site_type_symbol
 _atom_site_label
 _atom_site_symmetry_multiplicity
 _atom_site_fract_x
 _atom_site_fract_y
 _atom_site_fract_z
 _atom_site_occupancy
  Li  Li0  1  0.14164136  0.73336876  0.19531277  1
  Li  Li1  1  0.14416758  0.34050592  0.92979467  1
  Li  Li2  1  0.58957862  0.78891616  0.67848052  1
  Li  Li3  1  0.86183514  0.67589619  0.05846964  1
  Li  Li4  1  0.90102776  0.94304640  0.35871396  1
  Li  Li5  1  0.87092269  0.25255072  0.81082242  1
  Mn  Mn6  1  0.56107288  0.85850504  0.29201635  1
  Mn  Mn7  1  0.43801567  0.14572493  0.69659526  1
  V  V8  1  0.04171537  0.34130714  0.31388016  1
  V  V9  1  0.96332399  0.65073229  0.69271542  1
  P  P10  1  0.25102635  0.05205917  0.20579185  1
  P  P11  1  0.25408893  0.45385097  0.50024773  1
  P  P12  1  0.23612240  0.74677038  0.80787209  1
  P  P13  1  0.75765026  0.25703476  0.19727865  1
  P  P14  1  0.75303965  0.53452770  0.50999685  1
  P  P15  1  0.74936134  0.96164154  0.77534474  1
  O  O16  1  0.10645090  0.85174560  0.35981572  1
  O  O17  1  0.26038472  0.14629058  0.99000468  1
  O  O18  1  0.17461550  0.17825109  0.29864278  1
  O  O19  1  0.18140805  0.47666768  0.35474438  1
  O  O20  1  0.10367662  0.45460778  0.69332442  1
  O  O21  1  0.09597127  0.78600359  0.74732850  1
  O  O22  1  0.41643609  0.03524469  0.19757904  1
  O  O23  1  0.27865803  0.24981468  0.60788038  1
  O  O24  1  0.41314498  0.61448927  0.37015444  1
  O  O25  1  0.17069595  0.52772853  0.00050212  1
  O  O26  1  0.25148513  0.87168853  0.88895593  1
  O  O27  1  0.40862826  0.77440168  0.62943939  1
  O  O28  1  0.58995498  0.20014951  0.39750893  1
  O  O29  1  0.75760358  0.13238768  0.11274252  1
  O  O30  1  0.81332598  0.47562320  0.01764684  1
  O  O31  1  0.58927518  0.38432266  0.62028130  1
  O  O32  1  0.73582230  0.74293955  0.41720887  1
  O  O33  1  0.57274460  0.97339502  0.79330983  1
  O  O34  1  0.90615734  0.21665552  0.25212636  1
  O  O35  1  0.90261300  0.53771854  0.31031598  1
  O  O36  1  0.81997599  0.49687608  0.66229668  1
  O  O37  1  0.80830215  0.83942902  0.67677958  1
  O  O38  1  0.74167672  0.86964130  0.98746782  1
  O  O39  1  0.87860568  0.16911816  0.62279043  1
