# generated using pymatgen
data_Li4V3P8O29
_symmetry_space_group_name_H-M   'P 1'
_cell_length_a   9.76188262
_cell_length_b   9.77230359
_cell_length_c   14.22861380
_cell_angle_alpha   89.80089398
_cell_angle_beta   90.23705902
_cell_angle_gamma   60.07830296
_symmetry_Int_Tables_number   1
_chemical_formula_structural   Li4V3P8O29
_chemical_formula_sum   'Li8 V6 P16 O58'
_cell_volume   1176.39535434
_cell_formula_units_Z   2
loop_
 _symmetry_equiv_pos_site_id
 _symmetry_equiv_pos_as_xyz
  1  'x, y, z'
loop_
 _atom_site_type_symbol
 _atom_site_label
 _atom_site_symmetry_multiplicity
 _atom_site_fract_x
 _atom_site_fract_y
 _atom_site_fract_z
 _atom_site_occupancy
  Li  Li0  1  0.77320340  0.31798068  0.05522404  1
  Li  Li1  1  0.30393307  0.92042338  0.05845866  1
  Li  Li2  1  0.32741644  0.76603865  0.56307054  1
  Li  Li3  1  0.68908910  0.08616594  0.93642771  1
  Li  Li4  1  0.22911172  0.68121675  0.94163855  1
  Li  Li5  1  0.09023650  0.67120218  0.44094320  1
  Li  Li6  1  0.23137301  0.09671467  0.44570235  1
  Li  Li7  1  0.92561076  0.04974231  0.49541278  1
  V  V8  1  0.56833381  0.42734296  0.25772776  1
  V  V9  1  0.43507350  0.56483380  0.74968940  1
  V  V10  1  0.57059769  0.99398640  0.74593105  1
  V  V11  1  0.43525715  0.00190257  0.25038006  1
  V  V12  1  0.99937788  0.56533549  0.24668901  1
  V  V13  1  0.00014962  0.43274101  0.74991470  1
  P  P14  1  0.91722038  0.77225435  0.83695401  1
  P  P15  1  0.77906695  0.91279359  0.33802513  1
  P  P16  1  0.92007765  0.30610875  0.34169437  1
  P  P17  1  0.66264557  0.66273978  0.13368797  1
  P  P18  1  0.66730300  0.66657860  0.62947480  1
  P  P19  1  0.77126174  0.31968714  0.84021128  1
  P  P20  1  0.68943417  0.22538657  0.66003919  1
  P  P21  1  0.32003778  0.90946496  0.84352715  1
  P  P22  1  0.68058879  0.08955840  0.15664167  1
  P  P23  1  0.31726361  0.77128966  0.34147110  1
  P  P24  1  0.23110697  0.67988862  0.16122150  1
  P  P25  1  0.32772390  0.33732361  0.37111978  1
  P  P26  1  0.33562277  0.33021760  0.86802169  1
  P  P27  1  0.08536961  0.68611504  0.65423698  1
  P  P28  1  0.22512847  0.08748304  0.66287202  1
  P  P29  1  0.08491768  0.22816445  0.15756517  1
  O  O30  1  0.01382571  0.76512670  0.56285746  1
  O  O31  1  0.92018609  0.73755357  0.33388912  1
  O  O32  1  0.74398104  0.02106660  0.06363635  1
  O  O33  1  0.74586451  0.91620513  0.83788077  1
  O  O34  1  0.91037872  0.61816347  0.82222529  1
  O  O35  1  0.81404496  0.65910602  0.17993145  1
  O  O36  1  0.92268646  0.46222033  0.33013884  1
  O  O37  1  0.99198754  0.23992085  0.07256753  1
  O  O38  1  0.91825389  0.34019690  0.83394136  1
  O  O39  1  0.67081891  0.81448071  0.67654509  1
  O  O40  1  0.62123380  0.91500048  0.33036252  1
  O  O41  1  0.81331272  0.51984108  0.67658775  1
  O  O42  1  0.66895689  0.65457593  0.02963146  1
  O  O43  1  0.67121759  0.67483845  0.52557186  1
  O  O44  1  0.66523655  0.51286372  0.17717422  1
  O  O45  1  0.47943631  0.90090058  0.82047627  1
  O  O46  1  0.51421261  0.81348988  0.17225430  1
  O  O47  1  0.74571100  0.34146107  0.33565355  1
  O  O48  1  0.79037039  0.20397752  0.75596815  1
  O  O49  1  0.78912743  0.20553675  0.57777774  1
  O  O50  1  0.75897524  0.24686532  0.93033704  1
  O  O51  1  0.62183168  0.48162799  0.82094756  1
  O  O52  1  0.51155875  0.67754051  0.66616696  1
  O  O53  1  0.66226139  0.25751005  0.16718986  1
  O  O54  1  0.47681429  0.61715865  0.32655524  1
  O  O55  1  0.33998063  0.91680950  0.33983926  1
  O  O56  1  0.79872467  0.98738821  0.23965747  1
  O  O57  1  0.80247976  0.99494352  0.41812287  1
  O  O58  1  0.22810960  0.00175320  0.57414851  1
  O  O59  1  0.65527542  0.08527017  0.67027353  1
  O  O60  1  0.53380863  0.38123364  0.66904193  1
  O  O61  1  0.33835515  0.74260485  0.83950936  1
  O  O62  1  0.48180837  0.33122984  0.32710444  1
  O  O63  1  0.38283541  0.52094124  0.18100742  1
  O  O64  1  0.23987119  0.75749207  0.07252764  1
  O  O65  1  0.23545781  0.76601293  0.42952184  1
  O  O66  1  0.20970112  0.79217199  0.25022771  1
  O  O67  1  0.25547207  0.66152950  0.66325289  1
  O  O68  1  0.48529151  0.17930155  0.82879387  1
  O  O69  1  0.51820836  0.10251110  0.17957408  1
  O  O70  1  0.33210079  0.48296371  0.82856099  1
  O  O71  1  0.33257117  0.33229491  0.97245017  1
  O  O72  1  0.32228845  0.35285692  0.47501116  1
  O  O73  1  0.18540762  0.49084018  0.32538705  1
  O  O74  1  0.38191256  0.09054105  0.67528822  1
  O  O75  1  0.32166213  0.19057652  0.33446874  1
  O  O76  1  0.08463857  0.65821400  0.16551783  1
  O  O77  1  0.98967850  0.79851184  0.74058885  1
  O  O78  1  0.01039534  0.77031369  0.91974370  1
  O  O79  1  0.08805215  0.52837565  0.67201266  1
  O  O80  1  0.18585262  0.33491593  0.82014632  1
  O  O81  1  0.09563396  0.38001177  0.17797779  1
  O  O82  1  0.25319473  0.08245424  0.16028820  1
  O  O83  1  0.24890498  0.99079243  0.93285804  1
  O  O84  1  0.20647555  0.00026528  0.75341253  1
  O  O85  1  0.08340376  0.25670787  0.66536384  1
  O  O86  1  0.00353370  0.20601185  0.42527675  1
  O  O87  1  0.00049952  0.20491564  0.24891500  1
