# generated using pymatgen
data_Li4V3P8O29
_symmetry_space_group_name_H-M   'P 1'
_cell_length_a   9.78744041
_cell_length_b   9.75505176
_cell_length_c   14.24588631
_cell_angle_alpha   89.67154905
_cell_angle_beta   89.97525963
_cell_angle_gamma   59.81493958
_symmetry_Int_Tables_number   1
_chemical_formula_structural   Li4V3P8O29
_chemical_formula_sum   'Li8 V6 P16 O58'
_cell_volume   1175.70141395
_cell_formula_units_Z   2
loop_
 _symmetry_equiv_pos_site_id
 _symmetry_equiv_pos_as_xyz
  1  'x, y, z'
loop_
 _atom_site_type_symbol
 _atom_site_label
 _atom_site_symmetry_multiplicity
 _atom_site_fract_x
 _atom_site_fract_y
 _atom_site_fract_z
 _atom_site_occupancy
  Li  Li0  1  0.91465701  0.77504036  0.06022397  1
  Li  Li1  1  0.77297770  0.31389753  0.05892756  1
  Li  Li2  1  0.31928790  0.90754471  0.06094541  1
  Li  Li3  1  0.67298874  0.23464651  0.43908793  1
  Li  Li4  1  0.32877626  0.76453817  0.55908317  1
  Li  Li5  1  0.23519328  0.09577105  0.43818645  1
  Li  Li6  1  0.08649033  0.22781291  0.94011193  1
  Li  Li7  1  0.98493978  0.96073185  0.49116819  1
  V  V8  1  0.56488015  0.43413524  0.24923908  1
  V  V9  1  0.43422877  0.56421656  0.75469997  1
  V  V10  1  0.57179720  0.99724010  0.75060158  1
  V  V11  1  0.43478347  0.00149980  0.24818973  1
  V  V12  1  0.00364296  0.56594019  0.25853100  1
  V  V13  1  0.99515589  0.44131850  0.73897647  1
  P  P14  1  0.91379679  0.76736197  0.84371740  1
  P  P15  1  0.77481298  0.91780914  0.33997649  1
  P  P16  1  0.91824631  0.30292124  0.33737594  1
  P  P17  1  0.67287006  0.66387801  0.13330747  1
  P  P18  1  0.65829139  0.67184209  0.63093063  1
  P  P19  1  0.77765208  0.31529308  0.83870261  1
  P  P20  1  0.68658912  0.22659836  0.65880675  1
  P  P21  1  0.31782047  0.91195935  0.84058362  1
  P  P22  1  0.68429544  0.08615099  0.15626479  1
  P  P23  1  0.31509020  0.77324224  0.34600861  1
  P  P24  1  0.22402895  0.68957910  0.16590981  1
  P  P25  1  0.33482479  0.32914227  0.37199774  1
  P  P26  1  0.32964422  0.32976464  0.86580157  1
  P  P27  1  0.08413983  0.70026384  0.66180471  1
  P  P28  1  0.22958206  0.08746704  0.65951580  1
  P  P29  1  0.08701637  0.23521556  0.15537855  1
  O  O30  1  0.99872201  0.80363337  0.58120028  1
  O  O31  1  0.91648487  0.74336277  0.33557020  1
  O  O32  1  0.76409443  0.99442081  0.07106437  1
  O  O33  1  0.74513885  0.91329466  0.83187822  1
  O  O34  1  0.90397286  0.61779893  0.81642068  1
  O  O35  1  0.81763856  0.66596146  0.18140228  1
  O  O36  1  0.92004691  0.46160080  0.32953944  1
  O  O37  1  0.00109720  0.25001988  0.06489594  1
  O  O38  1  0.92289755  0.33899953  0.83149685  1
  O  O39  1  0.66663038  0.81318150  0.67724673  1
  O  O40  1  0.61902044  0.91861518  0.33222084  1
  O  O41  1  0.80953793  0.51772872  0.67181983  1
  O  O42  1  0.68588331  0.66065767  0.02885952  1
  O  O43  1  0.65030072  0.67609349  0.52724784  1
  O  O44  1  0.67479226  0.51051629  0.17124392  1
  O  O45  1  0.47728861  0.90364022  0.82356519  1
  O  O46  1  0.51711665  0.81313065  0.16870069  1
  O  O47  1  0.74558965  0.33731295  0.33753735  1
  O  O48  1  0.79628757  0.20709500  0.74884130  1
  O  O49  1  0.76500339  0.21918607  0.56828300  1
  O  O50  1  0.77263296  0.24372120  0.92946142  1
  O  O51  1  0.62248698  0.47740282  0.82010998  1
  O  O52  1  0.50817570  0.67435913  0.67362258  1
  O  O53  1  0.66138495  0.25542954  0.15784053  1
  O  O54  1  0.47061432  0.61776888  0.33225415  1
  O  O55  1  0.34070331  0.91796378  0.33347851  1
  O  O56  1  0.79493539  0.99974553  0.24668635  1
  O  O57  1  0.79361783  0.00285501  0.42181589  1
  O  O58  1  0.22835673  0.00186641  0.57270988  1
  O  O59  1  0.65586349  0.08603842  0.66973297  1
  O  O60  1  0.52969333  0.38464949  0.67559624  1
  O  O61  1  0.34154969  0.74280381  0.83473735  1
  O  O62  1  0.48821596  0.32157787  0.33397818  1
  O  O63  1  0.37705920  0.52570127  0.18078496  1
  O  O64  1  0.22926364  0.77839158  0.08266527  1
  O  O65  1  0.23107755  0.79063692  0.43721260  1
  O  O66  1  0.19906055  0.78917873  0.26113313  1
  O  O67  1  0.25999462  0.65916386  0.66475662  1
  O  O68  1  0.47719756  0.18171948  0.82224058  1
  O  O69  1  0.52201736  0.09840884  0.17729071  1
  O  O70  1  0.33970582  0.47644723  0.82370081  1
  O  O71  1  0.32359820  0.32798592  0.96935484  1
  O  O72  1  0.32374616  0.33411190  0.47633282  1
  O  O73  1  0.18802231  0.48392074  0.32501000  1
  O  O74  1  0.38517829  0.08743686  0.67374482  1
  O  O75  1  0.31972020  0.18909905  0.33066602  1
  O  O76  1  0.07905590  0.66444616  0.16519118  1
  O  O77  1  0.01400454  0.78767293  0.76048686  1
  O  O78  1  0.98911834  0.75393390  0.93547177  1
  O  O79  1  0.07973943  0.54181384  0.66848732  1
  O  O80  1  0.18078189  0.33763486  0.81887669  1
  O  O81  1  0.09615861  0.38438064  0.17891537  1
  O  O82  1  0.25259099  0.08503716  0.15690737  1
  O  O83  1  0.23935380  0.99747201  0.92897591  1
  O  O84  1  0.20520003  0.00365852  0.75148208  1
  O  O85  1  0.08755654  0.25938129  0.66261114  1
  O  O86  1  0.01098879  0.19833202  0.41743395  1
  O  O87  1  0.98913041  0.21260006  0.23904572  1
