# generated using pymatgen
data_Li2VF5
_symmetry_space_group_name_H-M   'P 1'
_cell_length_a   5.94549262
_cell_length_b   7.70275819
_cell_length_c   17.38092266
_cell_angle_alpha   89.99651477
_cell_angle_beta   90.03950937
_cell_angle_gamma   89.88292833
_symmetry_Int_Tables_number   1
_chemical_formula_structural   Li2VF5
_chemical_formula_sum   'Li16 V8 F40'
_cell_volume   795.98690923
_cell_formula_units_Z   8
loop_
 _symmetry_equiv_pos_site_id
 _symmetry_equiv_pos_as_xyz
  1  'x, y, z'
loop_
 _atom_site_type_symbol
 _atom_site_label
 _atom_site_symmetry_multiplicity
 _atom_site_fract_x
 _atom_site_fract_y
 _atom_site_fract_z
 _atom_site_occupancy
  Li  Li0  1  0.01280274  0.76537992  0.47226775  1
  Li  Li1  1  0.01307005  0.26623170  0.02819910  1
  Li  Li2  1  0.25013465  0.40886088  0.64719189  1
  Li  Li3  1  0.25098507  0.90906180  0.85300819  1
  Li  Li4  1  0.24874770  0.37506947  0.18798022  1
  Li  Li5  1  0.25195507  0.87504988  0.31203588  1
  Li  Li6  1  0.48710762  0.76635314  0.47160032  1
  Li  Li7  1  0.48749668  0.26573651  0.02799787  1
  Li  Li8  1  0.51219228  0.23364711  0.52826875  1
  Li  Li9  1  0.51299430  0.73388875  0.97169356  1
  Li  Li10  1  0.74815182  0.59122986  0.35283898  1
  Li  Li11  1  0.74975053  0.12539831  0.68797582  1
  Li  Li12  1  0.74851970  0.62446720  0.81202600  1
  Li  Li13  1  0.75083504  0.09094040  0.14687983  1
  Li  Li14  1  0.98704345  0.23418123  0.52791197  1
  Li  Li15  1  0.98738960  0.73425215  0.97211679  1
  V  V16  1  0.24991300  0.42704411  0.85467791  1
  V  V17  1  0.24949447  0.39389499  0.37523230  1
  V  V18  1  0.24974558  0.92672384  0.64561090  1
  V  V19  1  0.25022265  0.89411512  0.12465132  1
  V  V20  1  0.75038537  0.10588490  0.87535350  1
  V  V21  1  0.75000391  0.60590641  0.62473479  1
  V  V22  1  0.75041849  0.07318302  0.35444918  1
  V  V23  1  0.75020902  0.57304648  0.14538741  1
  F  F24  1  0.99773765  0.73918379  0.16226914  1
  F  F25  1  0.00669865  0.24087426  0.33600575  1
  F  F26  1  0.01305467  0.55328367  0.41461204  1
  F  F27  1  0.01437904  0.05049805  0.08485302  1
  F  F28  1  0.01742028  0.10959669  0.62429464  1
  F  F29  1  0.01910958  0.60793411  0.87578142  1
  F  F30  1  0.24956019  0.25545541  0.47116185  1
  F  F31  1  0.25057158  0.35580514  0.96609697  1
  F  F32  1  0.25091765  0.47746251  0.74784387  1
  F  F33  1  0.24920515  0.00880560  0.22281979  1
  F  F34  1  0.25013283  0.97804845  0.75229549  1
  F  F35  1  0.24974602  0.85600004  0.53377448  1
  F  F36  1  0.25086527  0.50943494  0.27706123  1
  F  F37  1  0.25058326  0.75563216  0.02909747  1
  F  F38  1  0.48360321  0.11107995  0.62464690  1
  F  F39  1  0.48556740  0.61331423  0.87548661  1
  F  F40  1  0.48527603  0.55054088  0.41506337  1
  F  F41  1  0.48699842  0.05345933  0.08517427  1
  F  F42  1  0.49405854  0.74139637  0.16372858  1
  F  F43  1  0.50108996  0.23878717  0.33785598  1
  F  F44  1  0.49759154  0.26077507  0.83776766  1
  F  F45  1  0.50112229  0.76017221  0.66285761  1
  F  F46  1  0.51416367  0.44844483  0.58520812  1
  F  F47  1  0.51470870  0.94941919  0.91502652  1
  F  F48  1  0.51968491  0.39221804  0.12421083  1
  F  F49  1  0.51544752  0.88634736  0.37519608  1
  F  F50  1  0.74949442  0.14486823  0.46597461  1
  F  F51  1  0.75038803  0.24427658  0.97094045  1
  F  F52  1  0.74980286  0.74470576  0.52893988  1
  F  F53  1  0.75016435  0.49040982  0.72285532  1
  F  F54  1  0.74956858  0.99128506  0.77712106  1
  F  F55  1  0.74907829  0.02334121  0.24770299  1
  F  F56  1  0.75083691  0.52247884  0.25222898  1
  F  F57  1  0.75084663  0.64432018  0.03387465  1
  F  F58  1  0.98099007  0.89206251  0.37586877  1
  F  F59  1  0.98588961  0.38663231  0.12446222  1
  F  F60  1  0.98643220  0.44756533  0.58511889  1
  F  F61  1  0.98745238  0.94656492  0.91487572  1
  F  F62  1  0.99376502  0.25869489  0.83629927  1
  F  F63  1  0.99646885  0.75925171  0.66344025  1
