# generated using pymatgen
data_Li3V3P8O29
_symmetry_space_group_name_H-M   'P 1'
_cell_length_a   9.76392028
_cell_length_b   9.73366750
_cell_length_c   14.12770241
_cell_angle_alpha   89.91654941
_cell_angle_beta   90.10905272
_cell_angle_gamma   59.94099739
_symmetry_Int_Tables_number   1
_chemical_formula_structural   Li3V3P8O29
_chemical_formula_sum   'Li6 V6 P16 O58'
_cell_volume   1162.09575568
_cell_formula_units_Z   2
loop_
 _symmetry_equiv_pos_site_id
 _symmetry_equiv_pos_as_xyz
  1  'x, y, z'
loop_
 _atom_site_type_symbol
 _atom_site_label
 _atom_site_symmetry_multiplicity
 _atom_site_fract_x
 _atom_site_fract_y
 _atom_site_fract_z
 _atom_site_occupancy
  Li  Li0  1  0.90683509  0.32671502  0.55243054  1
  Li  Li1  1  0.33377271  0.90062407  0.06246490  1
  Li  Li2  1  0.32876509  0.76463848  0.55642792  1
  Li  Li3  1  0.08957081  0.23442590  0.94544971  1
  Li  Li4  1  0.96047161  0.98331333  0.00513006  1
  Li  Li5  1  0.97556738  0.98498435  0.49099340  1
  V  V6  1  0.56771363  0.43302887  0.24718167  1
  V  V7  1  0.43648367  0.56172722  0.75603985  1
  V  V8  1  0.56900713  0.99985774  0.74675191  1
  V  V9  1  0.43787391  0.00305819  0.25581945  1
  V  V10  1  0.99926694  0.56866890  0.24845107  1
  V  V11  1  0.99937964  0.44155070  0.74926924  1
  P  P12  1  0.91497374  0.78024057  0.84243601  1
  P  P13  1  0.78067868  0.91473738  0.34277343  1
  P  P14  1  0.91238491  0.31210368  0.33989472  1
  P  P15  1  0.66493682  0.66844520  0.13014424  1
  P  P16  1  0.66389817  0.66666915  0.63121964  1
  P  P17  1  0.77994017  0.30635364  0.84501198  1
  P  P18  1  0.69177980  0.22569357  0.65898895  1
  P  P19  1  0.31675547  0.91417463  0.84225421  1
  P  P20  1  0.69111464  0.08438650  0.15750480  1
  P  P21  1  0.31412929  0.77324265  0.34292519  1
  P  P22  1  0.22154980  0.69342866  0.15989732  1
  P  P23  1  0.33236004  0.33852187  0.36903318  1
  P  P24  1  0.33407075  0.32871039  0.86866546  1
  P  P25  1  0.08729222  0.69417032  0.65705665  1
  P  P26  1  0.22392133  0.08652827  0.65902594  1
  P  P27  1  0.09052358  0.22367999  0.15867749  1
  O  O28  1  0.00818355  0.78320551  0.57043041  1
  O  O29  1  0.91574633  0.73977527  0.33224039  1
  O  O30  1  0.78061496  0.00547646  0.07152599  1
  O  O31  1  0.74088316  0.91586262  0.83007212  1
  O  O32  1  0.91515658  0.61968880  0.82546411  1
  O  O33  1  0.81459730  0.66423099  0.17498458  1
  O  O34  1  0.91234825  0.46957521  0.32544317  1
  O  O35  1  0.01502508  0.21595874  0.06849691  1
  O  O36  1  0.91855545  0.34318924  0.83612095  1
  O  O37  1  0.66669660  0.81326467  0.67484708  1
  O  O38  1  0.62054410  0.91554924  0.32958969  1
  O  O39  1  0.81527450  0.51413724  0.67366873  1
  O  O40  1  0.66048423  0.66724024  0.02519465  1
  O  O41  1  0.66447267  0.65987754  0.52632931  1
  O  O42  1  0.66389502  0.52069132  0.17637456  1
  O  O43  1  0.47476259  0.90966374  0.82475136  1
  O  O44  1  0.51507858  0.81761465  0.17201323  1
  O  O45  1  0.74082853  0.34282125  0.33072621  1
  O  O46  1  0.79728802  0.20376373  0.75188252  1
  O  O47  1  0.78468321  0.22014030  0.57451992  1
  O  O48  1  0.79266811  0.21573295  0.93132558  1
  O  O49  1  0.62001075  0.46674832  0.82877594  1
  O  O50  1  0.51417685  0.66910328  0.67449573  1
  O  O51  1  0.65263513  0.25984951  0.16643751  1
  O  O52  1  0.47062741  0.61695996  0.32760204  1
  O  O53  1  0.34693666  0.91379938  0.33108263  1
  O  O54  1  0.79785218  0.00059292  0.25006398  1
  O  O55  1  0.79360052  0.99299624  0.42877903  1
  O  O56  1  0.21749951  0.99389590  0.57747575  1
  O  O57  1  0.65671822  0.08700938  0.66473673  1
  O  O58  1  0.53313864  0.38338615  0.67507244  1
  O  O59  1  0.34389699  0.74314599  0.83418788  1
  O  O60  1  0.47743520  0.33899512  0.32272953  1
  O  O61  1  0.38045704  0.53636474  0.17065927  1
  O  O62  1  0.21011523  0.79497160  0.07758212  1
  O  O63  1  0.23218632  0.78618563  0.43417010  1
  O  O64  1  0.19911493  0.79355886  0.25635799  1
  O  O65  1  0.26237035  0.65640407  0.66496125  1
  O  O66  1  0.47960534  0.18478882  0.82144178  1
  O  O67  1  0.53453512  0.08248196  0.17357307  1
  O  O68  1  0.33331169  0.47925361  0.82474982  1
  O  O69  1  0.32707803  0.32686341  0.97313038  1
  O  O70  1  0.33050558  0.33502175  0.47355272  1
  O  O71  1  0.18257304  0.48184247  0.32254044  1
  O  O72  1  0.38143869  0.08690370  0.67210109  1
  O  O73  1  0.33556578  0.18627432  0.32347042  1
  O  O74  1  0.08337740  0.65831495  0.16408306  1
  O  O75  1  0.00356370  0.79626925  0.75047003  1
  O  O76  1  0.99252548  0.78961201  0.92953711  1
  O  O77  1  0.08628347  0.53430113  0.67393608  1
  O  O78  1  0.18277560  0.32963841  0.82491247  1
  O  O79  1  0.08993309  0.38119693  0.17348958  1
  O  O80  1  0.26304345  0.08089633  0.16406534  1
  O  O81  1  0.23743370  0.99500299  0.93272107  1
  O  O82  1  0.20031680  0.01068223  0.75622977  1
  O  O83  1  0.08187459  0.26024513  0.66059616  1
  O  O84  1  0.98653574  0.22835743  0.43036667  1
  O  O85  1  0.00355096  0.20162717  0.24972862  1
