# generated using pymatgen
data_Fe25Si11O48
_symmetry_space_group_name_H-M   'P 1'
_cell_length_a   10.23562816
_cell_length_b   10.24135349
_cell_length_c   10.24158897
_cell_angle_alpha   120.00076057
_cell_angle_beta   109.46584908
_cell_angle_gamma   80.40827234
_symmetry_Int_Tables_number   1
_chemical_formula_structural   Fe25Si11O48
_chemical_formula_sum   'Fe25 Si11 O48'
_cell_volume   876.60639349
_cell_formula_units_Z   1
loop_
 _symmetry_equiv_pos_site_id
 _symmetry_equiv_pos_as_xyz
  1  'x, y, z'
loop_
 _atom_site_type_symbol
 _atom_site_label
 _atom_site_symmetry_multiplicity
 _atom_site_fract_x
 _atom_site_fract_y
 _atom_site_fract_z
 _atom_site_occupancy
  Fe  Fe0  1  0.81438595  0.83479308  0.10307155  1
  Fe  Fe1  1  0.81400094  0.33036429  0.10365681  1
  Fe  Fe2  1  0.62470532  0.66666700  0.20802681  1
  Fe  Fe3  1  0.81029229  0.16403438  0.26998694  1
  Fe  Fe4  1  0.81404633  0.49729161  0.43860700  1
  Fe  Fe5  1  0.81404633  0.83604139  0.60798140  1
  Fe  Fe6  1  0.31008255  0.83555124  0.10357457  1
  Fe  Fe7  1  0.30984080  0.66666700  0.27203199  1
  Fe  Fe8  1  0.56147903  0.00267012  0.18700238  1
  Fe  Fe9  1  0.81400094  0.00296871  0.43995852  1
  Fe  Fe10  1  0.56065444  0.66666700  0.52342576  1
  Fe  Fe11  1  0.06610061  0.66666700  0.02292990  1
  Fe  Fe12  1  0.81021485  0.66666700  0.76695620  1
  Fe  Fe13  1  0.81029229  0.16929862  0.77261856  1
  Fe  Fe14  1  0.31286227  0.16694463  0.27222367  1
  Fe  Fe15  1  0.31294310  0.83437151  0.60415693  1
  Fe  Fe16  1  0.81438595  0.49853992  0.93494446  1
  Fe  Fe17  1  0.31294310  0.49896249  0.43645243  1
  Fe  Fe18  1  0.06350790  0.33374877  0.35423076  1
  Fe  Fe19  1  0.31292431  0.33423930  0.60410419  1
  Fe  Fe20  1  0.56147903  0.33066288  0.85099926  1
  Fe  Fe21  1  0.31008255  0.49778176  0.93468933  1
  Fe  Fe22  1  0.31286227  0.16638937  0.77194604  1
  Fe  Fe23  1  0.31292431  0.99909470  0.93653190  1
  Fe  Fe24  1  0.06350790  0.99958423  0.68714899  1
  Si  Si25  1  0.49985342  0.33286287  0.16668201  1
  Si  Si26  1  0.12486240  0.33226006  0.04106398  1
  Si  Si27  1  0.62491959  0.33313911  0.54163488  1
  Si  Si28  1  0.99984284  0.99981458  0.00001705  1
  Si  Si29  1  0.49985342  0.00047113  0.50048714  1
  Si  Si30  1  0.50005381  0.66666700  0.83294921  1
  Si  Si31  1  0.00043258  0.66666700  0.33325498  1
  Si  Si32  1  0.12486240  0.00107294  0.37547091  1
  Si  Si33  1  0.62491959  0.00019489  0.87516277  1
  Si  Si34  1  0.12528395  0.66666700  0.70845767  1
  Si  Si35  1  0.99984284  0.33351842  0.66686947  1
  O  O36  1  0.94392370  0.66666700  0.16015886  1
  O  O37  1  0.94216027  0.15428063  0.13455869  1
  O  O38  1  0.94321829  0.51261445  0.31457081  1
  O  O39  1  0.94321829  0.82071955  0.46862335  1
  O  O40  1  0.69143789  0.49013001  0.05463073  1
  O  O41  1  0.69143789  0.84320299  0.23116672  1
  O  O42  1  0.68332570  0.00268350  0.04864999  1
  O  O43  1  0.95276053  0.00349099  0.31901860  1
  O  O44  1  0.69267551  0.66666700  0.40873910  1
  O  O45  1  0.42611015  0.66666700  0.14170562  1
  O  O46  1  0.95199161  0.66666700  0.65230361  1
  O  O47  1  0.94190489  0.33434093  0.49332137  1
  O  O48  1  0.67314087  0.33285525  0.22456086  1
  O  O49  1  0.94216027  0.17905237  0.64694506  1
  O  O50  1  0.44153925  0.17788913  0.14709536  1
  O  O51  1  0.94200583  0.84496238  0.97981186  1
  O  O52  1  0.94200583  0.48837162  0.80151648  1
  O  O53  1  0.44199240  0.84753047  0.48188843  1
  O  O54  1  0.44199240  0.48580253  0.30102497  1
  O  O55  1  0.17984366  0.48629520  0.05923718  1
  O  O56  1  0.68425574  0.48768355  0.56411609  1
  O  O57  1  0.68425574  0.84565045  0.74309954  1
  O  O58  1  0.17984366  0.84703780  0.23960798  1
  O  O59  1  0.68348717  0.18177480  0.40724477  1
  O  O60  1  0.18283606  0.33293259  0.21523463  1
  O  O61  1  0.45139689  0.33370955  0.48374715  1
  O  O62  1  0.95276053  0.32984201  0.98219461  1
  O  O63  1  0.68332570  0.33064950  0.71263350  1
  O  O64  1  0.67320793  0.66666700  0.88923024  1
  O  O65  1  0.17303363  0.99961876  0.05763678  1
  O  O66  1  0.44177925  0.00110745  0.32773722  1
  O  O67  1  0.17446855  0.66666700  0.39174615  1
  O  O68  1  0.44167193  0.66666700  0.65852511  1
  O  O69  1  0.94190489  0.99899207  0.82564644  1
  O  O70  1  0.67314087  0.00047875  0.55837261  1
  O  O71  1  0.44173823  0.82045924  0.96666621  1
  O  O72  1  0.44153925  0.15544487  0.63587323  1
  O  O73  1  0.44173823  0.51287376  0.81287297  1
  O  O74  1  0.18264936  0.82112837  0.72794967  1
  O  O75  1  0.68348717  0.15155820  0.89213697  1
  O  O76  1  0.18264936  0.51220463  0.57348830  1
  O  O77  1  0.18355326  0.15492864  0.39456143  1
  O  O78  1  0.45139689  0.99962345  0.81670460  1
  O  O79  1  0.18283606  0.00040041  0.54896905  1
  O  O80  1  0.18053910  0.66666700  0.88089410  1
  O  O81  1  0.17303363  0.33371424  0.72468402  1
  O  O82  1  0.44177925  0.33222555  0.99329577  1
  O  O83  1  0.18355326  0.17840436  0.90629878  1
