# generated using pymatgen
data_Li5Mn4(P2O7)4
_symmetry_space_group_name_H-M   'P 1'
_cell_length_a   9.85024041
_cell_length_b   9.77704822
_cell_length_c   11.25761165
_cell_angle_alpha   89.92324987
_cell_angle_beta   101.08300039
_cell_angle_gamma   89.82245842
_symmetry_Int_Tables_number   1
_chemical_formula_structural   Li5Mn4(P2O7)4
_chemical_formula_sum   'Li10 Mn8 P16 O56'
_cell_volume   1063.95126035
_cell_formula_units_Z   2
loop_
 _symmetry_equiv_pos_site_id
 _symmetry_equiv_pos_as_xyz
  1  'x, y, z'
loop_
 _atom_site_type_symbol
 _atom_site_label
 _atom_site_symmetry_multiplicity
 _atom_site_fract_x
 _atom_site_fract_y
 _atom_site_fract_z
 _atom_site_occupancy
  Li  Li0  1  0.11764592  0.71564807  0.45258979  1
  Li  Li1  1  0.08608068  0.10414392  0.02032883  1
  Li  Li2  1  0.41282561  0.59609434  0.97568148  1
  Li  Li3  1  0.40698467  0.94509849  0.51136925  1
  Li  Li4  1  0.39340495  0.22002273  0.55040454  1
  Li  Li5  1  0.84285539  0.58286319  0.95522640  1
  Li  Li6  1  0.64452890  0.11334529  0.04812481  1
  Li  Li7  1  0.90891688  0.88831469  0.97263695  1
  Li  Li8  1  0.81983586  0.59070777  0.45066006  1
  Li  Li9  1  0.89731038  0.28644193  0.54985191  1
  Mn  Mn10  1  0.20721708  0.91797624  0.68109418  1
  Mn  Mn11  1  0.27334121  0.22093491  0.83533659  1
  Mn  Mn12  1  0.22465447  0.71292143  0.16863443  1
  Mn  Mn13  1  0.30745446  0.42406981  0.33122037  1
  Mn  Mn14  1  0.70478050  0.58437871  0.66995878  1
  Mn  Mn15  1  0.76512745  0.29128347  0.83028537  1
  Mn  Mn16  1  0.70830066  0.77547070  0.16517989  1
  Mn  Mn17  1  0.80963804  0.07317527  0.33319331  1
  P  P18  1  0.02898156  0.44330053  0.76110546  1
  P  P19  1  0.11719288  0.70418014  0.89548447  1
  P  P20  1  0.05825205  0.93231114  0.23962029  1
  P  P21  1  0.13752671  0.15197249  0.42379123  1
  P  P22  1  0.37845963  0.63822179  0.56241128  1
  P  P23  1  0.43581169  0.42559073  0.75685022  1
  P  P24  1  0.53111697  0.05665344  0.76438960  1
  P  P25  1  0.37755001  0.21127557  0.11641776  1
  P  P26  1  0.61216959  0.78982771  0.88979357  1
  P  P27  1  0.45879944  0.93815279  0.23976876  1
  P  P28  1  0.56017161  0.56925744  0.24227796  1
  P  P29  1  0.63327794  0.34411037  0.41899287  1
  P  P30  1  0.87964496  0.86125755  0.56267951  1
  P  P31  1  0.94239966  0.07364954  0.75662019  1
  P  P32  1  0.88351702  0.28933613  0.11978890  1
  P  P33  1  0.96249649  0.56138420  0.23576290  1
  O  O34  1  0.01576159  0.42433242  0.62802282  1
  O  O35  1  0.03083465  0.85069437  0.55008350  1
  O  O36  1  0.08902093  0.08942145  0.73079031  1
  O  O37  1  0.11522314  0.33916858  0.84659967  1
  O  O38  1  0.10109853  0.58830832  0.79133405  1
  O  O39  1  0.16852799  0.82729224  0.83759633  1
  O  O40  1  0.22672026  0.64645125  0.00471820  1
  O  O41  1  0.02239105  0.24916297  0.09950771  1
  O  O42  1  0.12622573  0.06944425  0.29696661  1
  O  O43  1  0.06141138  0.93326013  0.10627221  1
  O  O44  1  0.10879496  0.55685129  0.20116068  1
  O  O45  1  0.20047291  0.29062464  0.40164347  1
  O  O46  1  0.15062731  0.81159302  0.29903464  1
  O  O47  1  0.23780177  0.07181299  0.51951407  1
  O  O48  1  0.28125476  0.56038732  0.45913416  1
  O  O49  1  0.34429621  0.30391638  0.69618020  1
  O  O50  1  0.31179434  0.77852919  0.57567124  1
  O  O51  1  0.38721859  0.05402217  0.80511698  1
  O  O52  1  0.36946475  0.56065978  0.68835666  1
  O  O53  1  0.41329251  0.43029310  0.88541921  1
  O  O54  1  0.47212968  0.75959059  0.91251190  1
  O  O55  1  0.26828723  0.16442342  0.00329122  1
  O  O56  1  0.31640882  0.32691735  0.18281143  1
  O  O57  1  0.38900315  0.08592179  0.21189541  1
  O  O58  1  0.41099318  0.57710854  0.26912628  1
  O  O59  1  0.36885911  0.83796960  0.15132808  1
  O  O60  1  0.52015529  0.08057222  0.63127140  1
  O  O61  1  0.48635655  0.33252359  0.44207598  1
  O  O62  1  0.52777090  0.64336040  0.55089590  1
  O  O63  1  0.46643305  0.91180747  0.37048119  1
  O  O64  1  0.62860665  0.15160530  0.85397008  1
  O  O65  1  0.58675042  0.41383383  0.73762077  1
  O  O66  1  0.59981253  0.90804076  0.78734460  1
  O  O67  1  0.69195781  0.67582256  0.84070044  1
  O  O68  1  0.71251049  0.85564945  0.00434998  1
  O  O69  1  0.51484226  0.23548554  0.08389508  1
  O  O70  1  0.56621960  0.58975631  0.11047563  1
  O  O71  1  0.62107273  0.42412611  0.28961174  1
  O  O72  1  0.60436518  0.94366631  0.19893774  1
  O  O73  1  0.69667393  0.20541822  0.39933578  1
  O  O74  1  0.66376533  0.67874112  0.30904591  1
  O  O75  1  0.73290580  0.42841472  0.51172349  1
  O  O76  1  0.78864407  0.94492314  0.46100954  1
  O  O77  1  0.84640455  0.19566980  0.70259788  1
  O  O78  1  0.81708438  0.72171018  0.57890832  1
  O  O79  1  0.88037076  0.45420451  0.80122755  1
  O  O80  1  0.93235570  0.05765318  0.88850489  1
  O  O81  1  0.87446847  0.93909337  0.68893976  1
  O  O82  1  0.97850709  0.71771049  0.93285112  1
  O  O83  1  0.78684619  0.34928397  0.00486636  1
  O  O84  1  0.80376115  0.17618879  0.17689625  1
  O  O85  1  0.90122143  0.40951665  0.22123774  1
  O  O86  1  0.86394932  0.65026110  0.14138558  1
  O  O87  1  0.90915964  0.92328392  0.26657733  1
  O  O88  1  0.98870948  0.16613547  0.44288843  1
  O  O89  1  0.96620444  0.60056483  0.36530260  1
