# generated using pymatgen
data_Li2VCO5
_symmetry_space_group_name_H-M   'P 1'
_cell_length_a   9.42613883
_cell_length_b   12.01767540
_cell_length_c   2.93970400
_cell_angle_alpha   90.00000000
_cell_angle_beta   90.00000000
_cell_angle_gamma   90.00000000
_symmetry_Int_Tables_number   1
_chemical_formula_structural   Li2VCO5
_chemical_formula_sum   'Li8 V4 C4 O20'
_cell_volume   333.01048264
_cell_formula_units_Z   4
loop_
 _symmetry_equiv_pos_site_id
 _symmetry_equiv_pos_as_xyz
  1  'x, y, z'
loop_
 _atom_site_type_symbol
 _atom_site_label
 _atom_site_symmetry_multiplicity
 _atom_site_fract_x
 _atom_site_fract_y
 _atom_site_fract_z
 _atom_site_occupancy
  Li  Li0  1  0.00483087  0.28179421  0.50000000  1
  Li  Li1  1  -0.00000000  0.00000000  0.50000000  1
  Li  Li2  1  -0.00000000  0.50000000  0.00000000  1
  Li  Li3  1  0.99516913  0.71820579  0.50000000  1
  Li  Li4  1  0.50483087  0.21820579  0.50000000  1
  Li  Li5  1  0.50000000  0.50000000  0.50000000  1
  Li  Li6  1  0.50000000  0.00000000  0.00000000  1
  Li  Li7  1  0.49516913  0.78179421  0.50000000  1
  V  V8  1  0.24318994  0.11278799  -0.00000000  1
  V  V9  1  0.25681006  0.61278799  -0.00000000  1
  V  V10  1  0.74318994  0.38721201  0.00000000  1
  V  V11  1  0.75681006  0.88721201  -0.00000000  1
  C  C12  1  0.23281807  0.86111357  0.00000000  1
  C  C13  1  0.26718193  0.36111357  0.00000000  1
  C  C14  1  0.73281807  0.63888643  0.00000000  1
  C  C15  1  0.76718193  0.13888643  0.00000000  1
  O  O16  1  0.11779992  0.14282152  0.50000000  1
  O  O17  1  0.12774758  0.57905962  0.50000000  1
  O  O18  1  0.13265804  0.36196209  -0.00000000  1
  O  O19  1  0.16070028  0.76750837  -0.00000000  1
  O  O20  1  0.15699930  0.95329829  -0.00000000  1
  O  O21  1  0.34300070  0.45329829  -0.00000000  1
  O  O22  1  0.33929972  0.26750837  0.00000000  1
  O  O23  1  0.36734196  0.86196209  -0.00000000  1
  O  O24  1  0.37225242  0.07905962  0.50000000  1
  O  O25  1  0.38220008  0.64282152  0.50000000  1
  O  O26  1  0.61779992  0.35717848  0.50000000  1
  O  O27  1  0.62774758  0.92094038  0.50000000  1
  O  O28  1  0.63265804  0.13803791  -0.00000000  1
  O  O29  1  0.66070028  0.73249163  0.00000000  1
  O  O30  1  0.65699930  0.54670171  0.00000000  1
  O  O31  1  0.84300070  0.04670171  -0.00000000  1
  O  O32  1  0.83929972  0.23249163  0.00000000  1
  O  O33  1  0.86734196  0.63803791  -0.00000000  1
  O  O34  1  0.87225242  0.42094038  0.50000000  1
  O  O35  1  0.88220008  0.85717848  0.50000000  1
