# generated using pymatgen
data_SbH2C(O2F3)2
_symmetry_space_group_name_H-M   'P 1'
_cell_length_a   8.36836518
_cell_length_b   8.36836518
_cell_length_c   13.31058623
_cell_angle_alpha   74.67897868
_cell_angle_beta   105.32102132
_cell_angle_gamma   114.86945519
_symmetry_Int_Tables_number   1
_chemical_formula_structural   SbH2C(O2F3)2
_chemical_formula_sum   'Sb4 H8 C4 O16 F24'
_cell_volume   803.05755609
_cell_formula_units_Z   4
loop_
 _symmetry_equiv_pos_site_id
 _symmetry_equiv_pos_as_xyz
  1  'x, y, z'
loop_
 _atom_site_type_symbol
 _atom_site_label
 _atom_site_symmetry_multiplicity
 _atom_site_fract_x
 _atom_site_fract_y
 _atom_site_fract_z
 _atom_site_occupancy
  Sb  Sb0  1  0.75498488  0.19498572  0.63922929  1
  Sb  Sb1  1  0.19498572  0.75498488  0.86077071  1
  Sb  Sb2  1  0.24501512  0.80501428  0.36077071  1
  Sb  Sb3  1  0.80501428  0.24501512  0.13922929  1
  H  H4  1  0.26955481  0.22918098  0.09631286  1
  H  H5  1  0.22918098  0.26955481  0.40368714  1
  H  H6  1  0.73044519  0.77081902  0.90368714  1
  H  H7  1  0.77081902  0.73044519  0.59631286  1
  H  H8  1  0.05170743  0.17702040  0.84055731  1
  H  H9  1  0.17702040  0.05170743  0.65944269  1
  H  H10  1  0.94829257  0.82297960  0.15944269  1
  H  H11  1  0.82297960  0.94829257  0.34055731  1
  C  C12  1  0.08231718  0.08732030  0.99952550  1
  C  C13  1  0.08732030  0.08231718  0.50047450  1
  C  C14  1  0.91768282  0.91267970  0.00047450  1
  C  C15  1  0.91267970  0.91768282  0.49952550  1
  O  O16  1  0.16918419  0.11157393  0.09299193  1
  O  O17  1  0.11157393  0.16918419  0.40700807  1
  O  O18  1  0.83081581  0.88842607  0.90700807  1
  O  O19  1  0.88842607  0.83081581  0.59299193  1
  O  O20  1  0.12916975  0.19488417  0.91710664  1
  O  O21  1  0.19488417  0.12916975  0.58289336  1
  O  O22  1  0.87083025  0.80511583  0.08289336  1
  O  O23  1  0.80511583  0.87083025  0.41710664  1
  O  O24  1  0.46720743  0.61267177  0.13557627  1
  O  O25  1  0.61267177  0.46720743  0.36442373  1
  O  O26  1  0.53279257  0.38732823  0.86442373  1
  O  O27  1  0.38732823  0.53279257  0.63557627  1
  O  O28  1  0.45214157  0.46174120  0.13154392  1
  O  O29  1  0.46174120  0.45214157  0.36845608  1
  O  O30  1  0.54785843  0.53825880  0.86845608  1
  O  O31  1  0.53825880  0.54785843  0.63154392  1
  F  F32  1  0.84581310  0.17086838  0.52672851  1
  F  F33  1  0.17086838  0.84581310  0.97327149  1
  F  F34  1  0.15418690  0.82913162  0.47327149  1
  F  F35  1  0.82913162  0.15418690  0.02672851  1
  F  F36  1  0.68844071  0.22030400  0.75831247  1
  F  F37  1  0.22030400  0.68844071  0.74168753  1
  F  F38  1  0.31155929  0.77969600  0.24168753  1
  F  F39  1  0.77969600  0.31155929  0.25831247  1
  F  F40  1  0.98586025  0.19516254  0.73201463  1
  F  F41  1  0.19516254  0.98586025  0.76798537  1
  F  F42  1  0.01413975  0.80483746  0.26798537  1
  F  F43  1  0.80483746  0.01413975  0.23201463  1
  F  F44  1  0.66530853  0.94001480  0.67846172  1
  F  F45  1  0.94001480  0.66530853  0.82153828  1
  F  F46  1  0.33469147  0.05998520  0.32153828  1
  F  F47  1  0.05998520  0.33469147  0.17846172  1
  F  F48  1  0.53497638  0.18909213  0.54909847  1
  F  F49  1  0.18909213  0.53497638  0.95090153  1
  F  F50  1  0.46502362  0.81090787  0.45090153  1
  F  F51  1  0.81090787  0.46502362  0.04909847  1
  F  F52  1  0.86344085  0.44792446  0.59894237  1
  F  F53  1  0.44792446  0.86344085  0.90105763  1
  F  F54  1  0.13655915  0.55207554  0.40105763  1
  F  F55  1  0.55207554  0.13655915  0.09894237  1
