# generated using pymatgen
data_Sr(H8O5)2
_symmetry_space_group_name_H-M   'P 1'
_cell_length_a   6.77644293
_cell_length_b   6.77644293
_cell_length_c   11.44433121
_cell_angle_alpha   80.07173867
_cell_angle_beta   80.07173867
_cell_angle_gamma   79.84767013
_symmetry_Int_Tables_number   1
_chemical_formula_structural   Sr(H8O5)2
_chemical_formula_sum   'Sr2 H32 O20'
_cell_volume   504.05457424
_cell_formula_units_Z   2
loop_
 _symmetry_equiv_pos_site_id
 _symmetry_equiv_pos_as_xyz
  1  'x, y, z'
loop_
 _atom_site_type_symbol
 _atom_site_label
 _atom_site_symmetry_multiplicity
 _atom_site_fract_x
 _atom_site_fract_y
 _atom_site_fract_z
 _atom_site_occupancy
  Sr  Sr0  1  0.03827111  0.02494545  0.26629769  1
  Sr  Sr1  1  0.02494545  0.03827111  0.76629769  1
  H  H2  1  0.25726151  0.37259906  0.33688115  1
  H  H3  1  0.12615599  0.29249914  0.45534902  1
  H  H4  1  0.93320129  0.59094372  0.35244963  1
  H  H5  1  0.87257348  0.68139855  0.47283549  1
  H  H6  1  0.60712395  0.05471292  0.40991702  1
  H  H7  1  0.60907282  0.29477948  0.36375671  1
  H  H8  1  0.46037076  0.90908201  0.31175010  1
  H  H9  1  0.40290682  0.69162960  0.35702275  1
  H  H10  1  0.90908201  0.46037076  0.81175010  1
  H  H11  1  0.69162960  0.40290682  0.85702275  1
  H  H12  1  0.29477948  0.60907282  0.86375671  1
  H  H13  1  0.05471292  0.60712395  0.90991702  1
  H  H14  1  0.37259906  0.25726151  0.83688115  1
  H  H15  1  0.29249914  0.12615599  0.95534902  1
  H  H16  1  0.59094372  0.93320129  0.85244963  1
  H  H17  1  0.68139855  0.87257348  0.97283549  1
  H  H18  1  0.66900216  0.58490532  0.67551995  1
  H  H19  1  0.99046785  0.71061409  0.62235367  1
  H  H20  1  0.01683185  0.46228846  0.60910723  1
  H  H21  1  0.27121144  0.33652085  0.60221082  1
  H  H22  1  0.34938928  0.71390931  0.64275191  1
  H  H23  1  0.28549274  0.85119194  0.52524081  1
  H  H24  1  0.64634353  0.28226183  0.65286612  1
  H  H25  1  0.72292661  0.14887355  0.55098294  1
  H  H26  1  0.28226183  0.64634353  0.15286612  1
  H  H27  1  0.14887355  0.72292661  0.05098294  1
  H  H28  1  0.71390931  0.34938928  0.14275191  1
  H  H29  1  0.85119194  0.28549274  0.02524081  1
  H  H30  1  0.71061409  0.99046785  0.12235367  1
  H  H31  1  0.58490532  0.66900216  0.17551995  1
  H  H32  1  0.33652085  0.27121144  0.10221082  1
  H  H33  1  0.46228846  0.01683185  0.10910723  1
  O  O34  1  0.47268937  0.48349478  0.31988686  1
  O  O35  1  0.48349478  0.47268937  0.81988686  1
  O  O36  1  0.53381586  0.52990735  0.68839969  1
  O  O37  1  0.52990735  0.53381586  0.18839969  1
  O  O38  1  0.13295914  0.30540300  0.36552521  1
  O  O39  1  0.87564911  0.71855022  0.38358754  1
  O  O40  1  0.69623457  0.15748423  0.39497774  1
  O  O41  1  0.35638249  0.84404289  0.36786457  1
  O  O42  1  0.84404289  0.35638249  0.86786457  1
  O  O43  1  0.15748423  0.69623457  0.89497774  1
  O  O44  1  0.30540300  0.13295914  0.86552521  1
  O  O45  1  0.71855022  0.87564911  0.88358754  1
  O  O46  1  0.89815649  0.61472422  0.61995908  1
  O  O47  1  0.13745813  0.30487708  0.60008708  1
  O  O48  1  0.24000809  0.82127539  0.61265709  1
  O  O49  1  0.72076189  0.14703127  0.63796513  1
  O  O50  1  0.14703127  0.72076189  0.13796513  1
  O  O51  1  0.82127539  0.24000809  0.11265709  1
  O  O52  1  0.61472422  0.89815649  0.11995908  1
  O  O53  1  0.30487708  0.13745813  0.10008708  1
