# generated using pymatgen
data_MnH12C2NCl3O2
_symmetry_space_group_name_H-M   'P 1'
_cell_length_a   10.74736227
_cell_length_b   10.74736227
_cell_length_c   9.39721759
_cell_angle_alpha   90.00000000
_cell_angle_beta   90.00000000
_cell_angle_gamma   109.55004508
_symmetry_Int_Tables_number   1
_chemical_formula_structural   MnH12C2NCl3O2
_chemical_formula_sum   'Mn4 H48 C8 N4 Cl12 O8'
_cell_volume   1022.85740860
_cell_formula_units_Z   4
loop_
 _symmetry_equiv_pos_site_id
 _symmetry_equiv_pos_as_xyz
  1  'x, y, z'
loop_
 _atom_site_type_symbol
 _atom_site_label
 _atom_site_symmetry_multiplicity
 _atom_site_fract_x
 _atom_site_fract_y
 _atom_site_fract_z
 _atom_site_occupancy
  Mn  Mn0  1  0.26791455  0.26791455  0.71448642  1
  Mn  Mn1  1  0.73208545  0.73208545  0.28551358  1
  Mn  Mn2  1  0.23208545  0.23208545  0.21448642  1
  Mn  Mn3  1  0.76791455  0.76791455  0.78551358  1
  H  H4  1  0.98741551  0.32431996  0.91077027  1
  H  H5  1  0.67568004  0.01258449  0.08922973  1
  H  H6  1  0.17568004  0.51258449  0.41077027  1
  H  H7  1  0.48741551  0.82431996  0.58922973  1
  H  H8  1  0.01258449  0.67568004  0.08922973  1
  H  H9  1  0.32431996  0.98741551  0.91077027  1
  H  H10  1  0.82431996  0.48741551  0.58922973  1
  H  H11  1  0.51258449  0.17568004  0.41077027  1
  H  H12  1  0.81998010  0.31173357  0.87095416  1
  H  H13  1  0.68826643  0.18001990  0.12904584  1
  H  H14  1  0.18826643  0.68001990  0.37095416  1
  H  H15  1  0.31998010  0.81173357  0.62904584  1
  H  H16  1  0.18001990  0.68826643  0.12904584  1
  H  H17  1  0.31173357  0.81998010  0.87095416  1
  H  H18  1  0.81173357  0.31998010  0.62904584  1
  H  H19  1  0.68001990  0.18826643  0.37095416  1
  H  H20  1  0.13947194  0.61562109  0.54511269  1
  H  H21  1  0.38437891  0.86052806  0.45488731  1
  H  H22  1  0.88437891  0.36052806  0.04511269  1
  H  H23  1  0.63947194  0.11562109  0.95488731  1
  H  H24  1  0.86052806  0.38437891  0.45488731  1
  H  H25  1  0.61562109  0.13947194  0.54511269  1
  H  H26  1  0.11562109  0.63947194  0.95488731  1
  H  H27  1  0.36052806  0.88437891  0.04511269  1
  H  H28  1  0.98770515  0.15512623  0.65943341  1
  H  H29  1  0.84487377  0.01229485  0.34056659  1
  H  H30  1  0.34487377  0.51229485  0.15943341  1
  H  H31  1  0.48770515  0.65512623  0.84056659  1
  H  H32  1  0.01229485  0.84487377  0.34056659  1
  H  H33  1  0.15512623  0.98770515  0.65943341  1
  H  H34  1  0.65512623  0.48770515  0.84056659  1
  H  H35  1  0.51229485  0.34487377  0.15943341  1
  H  H36  1  0.25388547  0.44244757  0.03301049  1
  H  H37  1  0.55755243  0.74611453  0.96698951  1
  H  H38  1  0.05755243  0.24611453  0.53301049  1
  H  H39  1  0.75388547  0.94244757  0.46698951  1
  H  H40  1  0.74611453  0.55755243  0.96698951  1
  H  H41  1  0.44244757  0.25388547  0.03301049  1
  H  H42  1  0.94244757  0.75388547  0.46698951  1
  H  H43  1  0.24611453  0.05755243  0.53301049  1
  H  H44  1  0.34987238  0.59850952  0.58324857  1
  H  H45  1  0.40149048  0.65012762  0.41675143  1
  H  H46  1  0.90149048  0.15012762  0.08324857  1
  H  H47  1  0.84987238  0.09850952  0.91675143  1
  H  H48  1  0.65012762  0.40149048  0.41675143  1
  H  H49  1  0.59850952  0.34987238  0.58324857  1
  H  H50  1  0.09850952  0.84987238  0.91675143  1
  H  H51  1  0.15012762  0.90149048  0.08324857  1
  C  C52  1  0.88705920  0.29926132  0.95295108  1
  C  C53  1  0.70073868  0.11294080  0.04704892  1
  C  C54  1  0.20073868  0.61294080  0.45295108  1
  C  C55  1  0.38705920  0.79926132  0.54704892  1
  C  C56  1  0.11294080  0.70073868  0.04704892  1
  C  C57  1  0.29926132  0.88705920  0.95295108  1
  C  C58  1  0.79926132  0.38705920  0.54704892  1
  C  C59  1  0.61294080  0.20073868  0.45295108  1
  N  N60  1  0.34100839  0.65899161  0.50000000  1
  N  N61  1  0.84100839  0.15899161  0.00000000  1
  N  N62  1  0.65899161  0.34100839  0.50000000  1
  N  N63  1  0.15899161  0.84100839  0.00000000  1
  Cl  Cl64  1  0.16579638  0.16579638  0.95238312  1
  Cl  Cl65  1  0.83420362  0.83420362  0.04761688  1
  Cl  Cl66  1  0.33420362  0.33420362  0.45238312  1
  Cl  Cl67  1  0.66579638  0.66579638  0.54761688  1
  Cl  Cl68  1  0.29129323  0.50288865  0.79096234  1
  Cl  Cl69  1  0.49711135  0.70870677  0.20903766  1
  Cl  Cl70  1  0.99711135  0.20870677  0.29096234  1
  Cl  Cl71  1  0.79129323  0.00288865  0.70903766  1
  Cl  Cl72  1  0.70870677  0.49711135  0.20903766  1
  Cl  Cl73  1  0.50288865  0.29129323  0.79096234  1
  Cl  Cl74  1  0.00288865  0.79129323  0.70903766  1
  Cl  Cl75  1  0.20870677  0.99711135  0.29096234  1
  O  O76  1  0.26242275  0.43945062  0.13696290  1
  O  O77  1  0.56054938  0.73757725  0.86303710  1
  O  O78  1  0.06054938  0.23757725  0.63696290  1
  O  O79  1  0.76242275  0.93945062  0.36303710  1
  O  O80  1  0.73757725  0.56054938  0.86303710  1
  O  O81  1  0.43945062  0.26242275  0.13696290  1
  O  O82  1  0.93945062  0.76242275  0.36303710  1
  O  O83  1  0.23757725  0.06054938  0.63696290  1
