# generated using pymatgen
data_Ca9(WO3)20
_symmetry_space_group_name_H-M   'P 1'
_cell_length_a   7.59765767
_cell_length_b   12.97737620
_cell_length_c   12.92413198
_cell_angle_alpha   85.16373001
_cell_angle_beta   107.09356367
_cell_angle_gamma   107.02128777
_symmetry_Int_Tables_number   1
_chemical_formula_structural   Ca9(WO3)20
_chemical_formula_sum   'Ca9 W20 O60'
_cell_volume   1164.64355560
_cell_formula_units_Z   1
loop_
 _symmetry_equiv_pos_site_id
 _symmetry_equiv_pos_as_xyz
  1  'x, y, z'
loop_
 _atom_site_type_symbol
 _atom_site_label
 _atom_site_symmetry_multiplicity
 _atom_site_fract_x
 _atom_site_fract_y
 _atom_site_fract_z
 _atom_site_occupancy
  Ca  Ca0  1  0.96043572  0.62658556  0.79428688  1
  Ca  Ca1  1  0.52187958  0.68425331  0.85950585  1
  Ca  Ca2  1  0.16384708  0.15060318  0.67709098  1
  Ca  Ca3  1  0.66979970  0.20937081  0.63022760  1
  Ca  Ca4  1  0.74647170  0.49641598  0.49652742  1
  Ca  Ca5  1  0.33724768  0.85485743  0.31963792  1
  Ca  Ca6  1  0.81468076  0.78716747  0.34219306  1
  Ca  Ca7  1  0.98592560  0.32079070  0.15106050  1
  Ca  Ca8  1  0.53791892  0.36397081  0.21186603  1
  W  W9  1  0.56004997  0.20187553  0.91527394  1
  W  W10  1  0.05709950  0.20187553  0.91527394  1
  W  W11  1  0.35364052  0.91661010  0.79486828  1
  W  W12  1  0.85783786  0.91661010  0.79486828  1
  W  W13  1  0.07258683  0.42649610  0.71201846  1
  W  W14  1  0.56592772  0.42649610  0.71201846  1
  W  W15  1  0.14521080  0.71100962  0.57406864  1
  W  W16  1  0.63986746  0.71100962  0.57406864  1
  W  W17  1  0.24880431  0.00073959  0.50053679  1
  W  W18  1  0.75247206  0.00073959  0.50053679  1
  W  W19  1  0.35261487  0.28851990  0.42492728  1
  W  W20  1  0.86083231  0.28851990  0.42492728  1
  W  W21  1  0.42679175  0.57439341  0.28796301  1
  W  W22  1  0.93556466  0.57439341  0.28796301  1
  W  W23  1  0.64115136  0.08295017  0.20226172  1
  W  W24  1  0.14406053  0.08295017  0.20226172  1
  W  W25  1  0.44180541  0.79645915  0.08289767  1
  W  W26  1  0.93755141  0.79645915  0.08289767  1
  W  W27  1  0.74848694  0.49877562  0.00059836  1
  W  W28  1  0.25088804  0.49877562  0.00059836  1
  O  O29  1  0.71740275  0.34196792  0.97969529  1
  O  O30  1  0.10426046  0.34196792  0.97969529  1
  O  O31  1  0.83925784  0.84485936  0.93926897  1
  O  O32  1  0.44486949  0.84485936  0.93926897  1
  O  O33  1  0.33283224  0.22377425  0.94189024  1
  O  O34  1  0.78023295  0.18190829  0.87855661  1
  O  O35  1  0.41053927  0.06358217  0.85895549  1
  O  O36  1  0.01199739  0.06358217  0.85895549  1
  O  O37  1  0.64105389  0.52934351  0.84240191  1
  O  O38  1  0.23069153  0.52934351  0.84240191  1
  O  O39  1  0.61384681  0.94539838  0.78229524  1
  O  O40  1  0.09551667  0.87734621  0.81368813  1
  O  O41  1  0.04623420  0.26685482  0.77000001  1
  O  O42  1  0.49062063  0.26685482  0.77000001  1
  O  O43  1  0.28367932  0.76891729  0.72587567  1
  O  O44  1  0.71111365  0.76891729  0.72587567  1
  O  O45  1  0.30381712  0.42741540  0.68021883  1
  O  O46  1  0.84020371  0.42826184  0.75214459  1
  O  O47  1  0.26773480  0.99295084  0.65734364  1
  O  O48  1  0.88256068  0.99295084  0.65734364  1
  O  O49  1  0.66268241  0.57407463  0.63869228  1
  O  O50  1  0.05008549  0.57407463  0.63869228  1
  O  O51  1  0.91826541  0.75011755  0.58641427  1
  O  O52  1  0.37168405  0.67440574  0.56896135  1
  O  O53  1  0.52812929  0.35492414  0.57290572  1
  O  O54  1  0.89969956  0.35492414  0.57290572  1
  O  O55  1  0.60977762  0.84058349  0.49028424  1
  O  O56  1  0.22109112  0.84058349  0.49028424  1
  O  O57  1  0.95989930  0.96071745  0.45908015  1
  O  O58  1  0.53773009  0.03348734  0.54197285  1
  O  O59  1  0.89122566  0.15663803  0.51889132  1
  O  O60  1  0.28430368  0.15663803  0.51889132  1
  O  O61  1  0.97774714  0.64884481  0.42993350  1
  O  O62  1  0.60103117  0.64884481  0.42993350  1
  O  O63  1  0.12489523  0.32522534  0.42456513  1
  O  O64  1  0.58439645  0.24883016  0.41996374  1
  O  O65  1  0.45776767  0.42899771  0.35422213  1
  O  O66  1  0.82545216  0.42899771  0.35422213  1
  O  O67  1  0.22907613  0.01078562  0.34417243  1
  O  O68  1  0.62588192  0.01078562  0.34417243  1
  O  O69  1  0.19840375  0.57344870  0.32335880  1
  O  O70  1  0.66891796  0.58691255  0.25092438  1
  O  O71  1  0.77961716  0.22771428  0.26535642  1
  O  O72  1  0.21345354  0.22771428  0.26535642  1
  O  O73  1  0.45234914  0.73867915  0.23273081  1
  O  O74  1  0.01905982  0.73867915  0.23273081  1
  O  O75  1  0.88666183  0.05604196  0.21728170  1
  O  O76  1  0.40493786  0.12068940  0.18918532  1
  O  O77  1  0.26840766  0.47411734  0.15827743  1
  O  O78  1  0.86398710  0.47411734  0.15827743  1
  O  O79  1  0.08787756  0.94122957  0.14300900  1
  O  O80  1  0.49636001  0.94122957  0.14300900  1
  O  O81  1  0.16801092  0.78023726  0.05578558  1
  O  O82  1  0.72101571  0.81361769  0.12841373  1
  O  O83  1  0.64688743  0.14814411  0.06008200  1
  O  O84  1  0.06133868  0.14814411  0.06008200  1
  O  O85  1  0.39407204  0.65192579  0.02367425  1
  O  O86  1  0.78152800  0.65192579  0.02367425  1
  O  O87  1  0.49168533  0.45402389  0.02934678  1
  O  O88  1  0.00469348  0.53875987  0.97062610  1
