# generated using pymatgen
data_KCu3(AsO5)2
_symmetry_space_group_name_H-M   'P 1'
_cell_length_a   5.86544888
_cell_length_b   5.86544888
_cell_length_c   8.24158959
_cell_angle_alpha   66.56720523
_cell_angle_beta   113.43279477
_cell_angle_gamma   118.58121417
_symmetry_Int_Tables_number   1
_chemical_formula_structural   KCu3(AsO5)2
_chemical_formula_sum   'K1 Cu3 As2 O10'
_cell_volume   220.75238180
_cell_formula_units_Z   1
loop_
 _symmetry_equiv_pos_site_id
 _symmetry_equiv_pos_as_xyz
  1  'x, y, z'
loop_
 _atom_site_type_symbol
 _atom_site_label
 _atom_site_symmetry_multiplicity
 _atom_site_fract_x
 _atom_site_fract_y
 _atom_site_fract_z
 _atom_site_occupancy
  K  K0  1  -0.00000000  0.00000000  0.50000000  1
  Cu  Cu1  1  -0.00000000  0.00000000  0.00000000  1
  Cu  Cu2  1  -0.00000000  0.50000000  0.00000000  1
  Cu  Cu3  1  0.50000000  0.00000000  0.00000000  1
  As  As4  1  0.43303382  0.56696618  0.73845819  1
  As  As5  1  0.56696618  0.43303382  0.26154181  1
  O  O6  1  0.28584051  0.71415949  0.78472083  1
  O  O7  1  0.71415949  0.28584051  0.21527917  1
  O  O8  1  0.37769979  0.62230021  0.50969775  1
  O  O9  1  0.62230021  0.37769979  0.49030225  1
  O  O10  1  0.29736209  0.21493281  0.83878717  1
  O  O11  1  0.78506719  0.70263791  0.83878717  1
  O  O12  1  0.70263791  0.78506719  0.16121283  1
  O  O13  1  0.21493281  0.29736209  0.16121283  1
  O  O14  1  0.79060641  0.20939359  0.90108146  1
  O  O15  1  0.20939359  0.79060641  0.09891854  1
