# generated using pymatgen
data_Co3OF5
_symmetry_space_group_name_H-M   'P 1'
_cell_length_a   7.47641192
_cell_length_b   5.67641949
_cell_length_c   5.67813815
_cell_angle_alpha   71.67930461
_cell_angle_beta   72.51273229
_cell_angle_gamma   72.67312994
_symmetry_Int_Tables_number   1
_chemical_formula_structural   Co3OF5
_chemical_formula_sum   'Co6 O2 F10'
_cell_volume   212.61405700
_cell_formula_units_Z   2
loop_
 _symmetry_equiv_pos_site_id
 _symmetry_equiv_pos_as_xyz
  1  'x, y, z'
loop_
 _atom_site_type_symbol
 _atom_site_label
 _atom_site_symmetry_multiplicity
 _atom_site_fract_x
 _atom_site_fract_y
 _atom_site_fract_z
 _atom_site_occupancy
  Co  Co0  1  0.83857566  0.65226603  0.66730816  1
  Co  Co1  1  0.33560536  0.66569130  0.67196973  1
  Co  Co2  1  0.66489182  0.31039537  0.31672366  1
  Co  Co3  1  0.16095329  0.33241380  0.34832614  1
  Co  Co4  1  0.50385073  0.00483860  0.00663451  1
  Co  Co5  1  0.99351882  0.03322884  0.97423910  1
  O  O6  1  0.70189072  0.11021384  0.11006831  1
  O  O7  1  0.00153032  0.29888253  0.70396628  1
  F  F8  1  0.32771746  0.36598762  0.97710491  1
  F  F9  1  0.66828149  0.02358229  0.63723184  1
  F  F10  1  0.63726352  0.54872730  0.54899253  1
  F  F11  1  0.29612115  0.90226128  0.90522916  1
  F  F12  1  0.96085922  0.23625897  0.23870244  1
  F  F13  1  0.37631182  0.42888842  0.43200564  1
  F  F14  1  0.03390383  0.76952987  0.77330921  1
  F  F15  1  0.33079022  0.96876582  0.36867786  1
  F  F16  1  0.66580684  0.63428175  0.02947616  1
  F  F17  1  0.00212775  0.71378736  0.29003637  1
