# generated using pymatgen
data_NaBH4
_symmetry_space_group_name_H-M   'P 1'
_cell_length_a   8.67184009
_cell_length_b   5.10672685
_cell_length_c   6.16333701
_cell_angle_alpha   90.00000000
_cell_angle_beta   90.00000000
_cell_angle_gamma   90.00000000
_symmetry_Int_Tables_number   1
_chemical_formula_structural   NaBH4
_chemical_formula_sum   'Na4 B4 H16'
_cell_volume   272.94164529
_cell_formula_units_Z   4
loop_
 _symmetry_equiv_pos_site_id
 _symmetry_equiv_pos_as_xyz
  1  'x, y, z'
loop_
 _atom_site_type_symbol
 _atom_site_label
 _atom_site_symmetry_multiplicity
 _atom_site_fract_x
 _atom_site_fract_y
 _atom_site_fract_z
 _atom_site_occupancy
  Na  Na0  1  0.65143009  0.25000000  0.24339634  1
  Na  Na1  1  0.15143009  0.25000000  0.25660366  1
  Na  Na2  1  0.34856991  0.75000000  0.75660366  1
  Na  Na3  1  0.84856991  0.75000000  0.74339634  1
  B  B4  1  0.79780296  0.25000000  0.88130052  1
  B  B5  1  0.29780296  0.25000000  0.61869948  1
  B  B6  1  0.20219704  0.75000000  0.11869948  1
  B  B7  1  0.70219704  0.75000000  0.38130052  1
  H  H8  1  0.86037368  0.25000000  0.70333431  1
  H  H9  1  0.36037368  0.25000000  0.79666569  1
  H  H10  1  0.13962632  0.75000000  0.29666569  1
  H  H11  1  0.63962632  0.75000000  0.20333431  1
  H  H12  1  0.84359350  0.75000000  0.35641837  1
  H  H13  1  0.34359350  0.75000000  0.14358163  1
  H  H14  1  0.15640650  0.25000000  0.64358163  1
  H  H15  1  0.65640650  0.25000000  0.85641837  1
  H  H16  1  0.33760934  0.05952630  0.51046046  1
  H  H17  1  0.83760934  0.44047370  0.98953954  1
  H  H18  1  0.66239066  0.55952630  0.48953954  1
  H  H19  1  0.16239066  0.94047370  0.01046046  1
  H  H20  1  0.66239066  0.94047370  0.48953954  1
  H  H21  1  0.16239066  0.55952630  0.01046046  1
  H  H22  1  0.33760934  0.44047370  0.51046046  1
  H  H23  1  0.83760934  0.05952630  0.98953954  1
