# generated using pymatgen
data_AlCoO3
_symmetry_space_group_name_H-M   'P 1'
_cell_length_a   4.82808901
_cell_length_b   5.17886233
_cell_length_c   4.82717128
_cell_angle_alpha   90.00302493
_cell_angle_beta   60.09657875
_cell_angle_gamma   117.87654142
_symmetry_Int_Tables_number   1
_chemical_formula_structural   AlCoO3
_chemical_formula_sum   'Al2 Co2 O6'
_cell_volume   88.10695813
_cell_formula_units_Z   2
loop_
 _symmetry_equiv_pos_site_id
 _symmetry_equiv_pos_as_xyz
  1  'x, y, z'
loop_
 _atom_site_type_symbol
 _atom_site_label
 _atom_site_symmetry_multiplicity
 _atom_site_fract_x
 _atom_site_fract_y
 _atom_site_fract_z
 _atom_site_occupancy
  Al  Al0  1  0.29435427  0.44176943  0.85262262  1
  Al  Al1  1  0.70570088  0.55850691  0.14736564  1
  Co  Co2  1  0.30976110  0.96501368  0.34516975  1
  Co  Co3  1  0.69043146  0.03508113  0.65474133  1
  O  O4  1  0.80130087  0.74630692  0.75209896  1
  O  O5  1  0.80663682  0.25252532  0.94651594  1
  O  O6  1  0.49714136  0.74542315  0.44666032  1
  O  O7  1  0.50204742  0.25410486  0.55384281  1
  O  O8  1  0.19366539  0.74772637  0.05369449  1
  O  O9  1  0.19896143  0.25354123  0.24728714  1
