# generated using pymatgen
data_Ti2Mn3Te3O16
_symmetry_space_group_name_H-M   'P 1'
_cell_length_a   6.39844146
_cell_length_b   6.16562455
_cell_length_c   9.34028395
_cell_angle_alpha   90.04703180
_cell_angle_beta   93.34499130
_cell_angle_gamma   118.76417879
_symmetry_Int_Tables_number   1
_chemical_formula_structural   Ti2Mn3Te3O16
_chemical_formula_sum   'Ti2 Mn3 Te3 O16'
_cell_volume   322.28432225
_cell_formula_units_Z   1
loop_
 _symmetry_equiv_pos_site_id
 _symmetry_equiv_pos_as_xyz
  1  'x, y, z'
loop_
 _atom_site_type_symbol
 _atom_site_label
 _atom_site_symmetry_multiplicity
 _atom_site_fract_x
 _atom_site_fract_y
 _atom_site_fract_z
 _atom_site_occupancy
  Ti  Ti0  1  0.35681233  0.67843798  0.51034487  1
  Ti  Ti1  1  0.72537086  0.36248847  0.96464815  1
  Mn  Mn2  1  0.64604378  0.82311701  0.20318524  1
  Mn  Mn3  1  0.85122888  0.67571555  0.69384864  1
  Mn  Mn4  1  0.84968966  0.17447079  0.69501222  1
  Te  Te5  1  0.15074618  0.82470810  0.21681374  1
  Te  Te6  1  0.15077886  0.32601451  0.21683709  1
  Te  Te7  1  0.35306658  0.17694180  0.71577605  1
  O  O8  1  0.21061458  0.85040930  0.60064926  1
  O  O9  1  0.03409485  0.51734231  0.33908898  1
  O  O10  1  0.27470110  0.63708662  0.09905067  1
  O  O11  1  0.01073075  0.00553056  0.32393034  1
  O  O12  1  0.04763535  0.02470321  0.79825339  1
  O  O13  1  0.21129122  0.36079202  0.60050776  1
  O  O14  1  0.43730659  0.93908861  0.33758120  1
  O  O15  1  0.43752282  0.49838383  0.33751760  1
  O  O16  1  0.28765779  0.14354680  0.11078788  1
  O  O17  1  0.65180409  0.82646194  0.58483091  1
  O  O18  1  0.51988518  0.46414648  0.85192785  1
  O  O19  1  0.51902681  0.05548136  0.85203968  1
  O  O20  1  0.62938487  0.31390887  0.60249564  1
  O  O21  1  0.84570987  0.66376559  0.10628709  1
  O  O22  1  0.95338902  0.47570655  0.84782424  1
  O  O23  1  0.84550799  0.18195175  0.10648151  1
