# generated using pymatgen
data_Bi(SO4)2
_symmetry_space_group_name_H-M   'P 1'
_cell_length_a   10.00410479
_cell_length_b   9.86641251
_cell_length_c   14.74928925
_cell_angle_alpha   90.00000000
_cell_angle_beta   90.00000000
_cell_angle_gamma   90.00000000
_symmetry_Int_Tables_number   1
_chemical_formula_structural   Bi(SO4)2
_chemical_formula_sum   'Bi8 S16 O64'
_cell_volume   1455.82305930
_cell_formula_units_Z   8
loop_
 _symmetry_equiv_pos_site_id
 _symmetry_equiv_pos_as_xyz
  1  'x, y, z'
loop_
 _atom_site_type_symbol
 _atom_site_label
 _atom_site_symmetry_multiplicity
 _atom_site_fract_x
 _atom_site_fract_y
 _atom_site_fract_z
 _atom_site_occupancy
  Bi  Bi0  1  0.14321201  0.10137509  0.12473124  1
  Bi  Bi1  1  0.14321201  0.39862491  0.62473124  1
  Bi  Bi2  1  0.35678799  0.60137509  0.12473124  1
  Bi  Bi3  1  0.35678799  0.89862491  0.62473124  1
  Bi  Bi4  1  0.64321201  0.10137509  0.37526876  1
  Bi  Bi5  1  0.64321201  0.39862491  0.87526876  1
  Bi  Bi6  1  0.85678799  0.60137509  0.37526876  1
  Bi  Bi7  1  0.85678799  0.89862491  0.87526876  1
  S  S8  1  0.07654826  0.07057789  0.72719434  1
  S  S9  1  0.07654826  0.42942211  0.22719434  1
  S  S10  1  0.15791308  0.68616158  0.48825932  1
  S  S11  1  0.15791308  0.81383842  0.98825932  1
  S  S12  1  0.34208692  0.18616158  0.48825932  1
  S  S13  1  0.34208692  0.31383842  0.98825932  1
  S  S14  1  0.42345174  0.92942211  0.22719434  1
  S  S15  1  0.42345174  0.57057789  0.72719434  1
  S  S16  1  0.57654826  0.42942211  0.27280566  1
  S  S17  1  0.57654826  0.07057789  0.77280566  1
  S  S18  1  0.65791308  0.68616158  0.01174068  1
  S  S19  1  0.65791308  0.81383842  0.51174068  1
  S  S20  1  0.84208692  0.18616158  0.01174068  1
  S  S21  1  0.84208692  0.31383842  0.51174068  1
  S  S22  1  0.92345174  0.57057789  0.77280566  1
  S  S23  1  0.92345174  0.92942211  0.27280566  1
  O  O24  1  0.00851827  0.69317219  0.47723361  1
  O  O25  1  0.00851827  0.80682781  0.97723361  1
  O  O26  1  0.00500196  0.98944131  0.34283671  1
  O  O27  1  0.00500196  0.51055869  0.84283671  1
  O  O28  1  0.02826822  0.46445096  0.32184767  1
  O  O29  1  0.02826822  0.03554904  0.82184767  1
  O  O30  1  0.07708483  0.27708673  0.22538037  1
  O  O31  1  0.07708483  0.22291327  0.72538037  1
  O  O32  1  0.18332130  0.73641838  0.07511884  1
  O  O33  1  0.18332130  0.76358162  0.57511884  1
  O  O34  1  0.19694186  0.96017135  0.00561916  1
  O  O35  1  0.19694186  0.53982865  0.50561916  1
  O  O36  1  0.22011149  0.02391048  0.72325864  1
  O  O37  1  0.22011149  0.47608952  0.22325864  1
  O  O38  1  0.23185432  0.73681508  0.41153997  1
  O  O39  1  0.23185432  0.76318492  0.91153997  1
  O  O40  1  0.26814568  0.23681508  0.41153997  1
  O  O41  1  0.26814568  0.26318492  0.91153997  1
  O  O42  1  0.27988851  0.97608952  0.22325864  1
  O  O43  1  0.27988851  0.52391048  0.72325864  1
  O  O44  1  0.30305814  0.03982865  0.50561916  1
  O  O45  1  0.30305814  0.46017135  0.00561916  1
  O  O46  1  0.31667870  0.23641838  0.07511884  1
  O  O47  1  0.31667870  0.26358162  0.57511884  1
  O  O48  1  0.42291517  0.77708673  0.22538037  1
  O  O49  1  0.42291517  0.72291327  0.72538037  1
  O  O50  1  0.47173178  0.53554904  0.82184767  1
  O  O51  1  0.47173178  0.96445096  0.32184767  1
  O  O52  1  0.49499804  0.48944131  0.34283671  1
  O  O53  1  0.49499804  0.01055869  0.84283671  1
  O  O54  1  0.49148173  0.19317219  0.47723361  1
  O  O55  1  0.49148173  0.30682781  0.97723361  1
  O  O56  1  0.50851827  0.69317219  0.02276639  1
  O  O57  1  0.50851827  0.80682781  0.52276639  1
  O  O58  1  0.50500196  0.51055869  0.65716329  1
  O  O59  1  0.50500196  0.98944131  0.15716329  1
  O  O60  1  0.52826822  0.46445096  0.17815233  1
  O  O61  1  0.52826822  0.03554904  0.67815233  1
  O  O62  1  0.57708483  0.27708673  0.27461963  1
  O  O63  1  0.57708483  0.22291327  0.77461963  1
  O  O64  1  0.68332130  0.73641838  0.42488116  1
  O  O65  1  0.68332130  0.76358162  0.92488116  1
  O  O66  1  0.69694186  0.53982865  0.99438084  1
  O  O67  1  0.69694186  0.96017135  0.49438084  1
  O  O68  1  0.72011149  0.47608952  0.27674136  1
  O  O69  1  0.72011149  0.02391048  0.77674136  1
  O  O70  1  0.73185432  0.73681508  0.08846003  1
  O  O71  1  0.73185432  0.76318492  0.58846003  1
  O  O72  1  0.76814568  0.23681508  0.08846003  1
  O  O73  1  0.76814568  0.26318492  0.58846003  1
  O  O74  1  0.77988851  0.52391048  0.77674136  1
  O  O75  1  0.77988851  0.97608952  0.27674136  1
  O  O76  1  0.80305814  0.46017135  0.49438084  1
  O  O77  1  0.80305814  0.03982865  0.99438084  1
  O  O78  1  0.81667870  0.23641838  0.42488116  1
  O  O79  1  0.81667870  0.26358162  0.92488116  1
  O  O80  1  0.92291517  0.72291327  0.77461963  1
  O  O81  1  0.92291517  0.77708673  0.27461963  1
  O  O82  1  0.97173178  0.53554904  0.67815233  1
  O  O83  1  0.97173178  0.96445096  0.17815233  1
  O  O84  1  0.99499804  0.01055869  0.65716329  1
  O  O85  1  0.99499804  0.48944131  0.15716329  1
  O  O86  1  0.99148173  0.19317219  0.02276639  1
  O  O87  1  0.99148173  0.30682781  0.52276639  1
