# generated using pymatgen
data_Mn3Fe3(CoO8)2
_symmetry_space_group_name_H-M   'P 1'
_cell_length_a   5.89544655
_cell_length_b   5.85846073
_cell_length_c   8.67607194
_cell_angle_alpha   90.02222631
_cell_angle_beta   88.90004077
_cell_angle_gamma   119.76455043
_symmetry_Int_Tables_number   1
_chemical_formula_structural   Mn3Fe3(CoO8)2
_chemical_formula_sum   'Mn3 Fe3 Co2 O16'
_cell_volume   260.06108881
_cell_formula_units_Z   1
loop_
 _symmetry_equiv_pos_site_id
 _symmetry_equiv_pos_as_xyz
  1  'x, y, z'
loop_
 _atom_site_type_symbol
 _atom_site_label
 _atom_site_symmetry_multiplicity
 _atom_site_fract_x
 _atom_site_fract_y
 _atom_site_fract_z
 _atom_site_occupancy
  Mn  Mn0  1  0.65967323  0.82989369  0.20816432  1
  Mn  Mn1  1  0.82861386  0.66066325  0.71082086  1
  Mn  Mn2  1  0.82896123  0.16817488  0.71062350  1
  Fe  Fe3  1  0.16288455  0.83176328  0.20470310  1
  Fe  Fe4  1  0.16271278  0.33090272  0.20454874  1
  Fe  Fe5  1  0.33161389  0.16615553  0.70762521  1
  Co  Co6  1  0.33462111  0.66753532  0.48935786  1
  Co  Co7  1  0.66486018  0.33230909  0.98820674  1
  O  O8  1  0.17143660  0.82501475  0.59992459  1
  O  O9  1  0.05403798  0.52749088  0.34871632  1
  O  O10  1  0.34216492  0.67134442  0.09385423  1
  O  O11  1  0.98739503  0.99351841  0.31106151  1
  O  O12  1  0.99008662  0.99499152  0.81452167  1
  O  O13  1  0.17081917  0.34519460  0.59997098  1
  O  O14  1  0.48452791  0.95166057  0.34625405  1
  O  O15  1  0.48434152  0.53294473  0.34651903  1
  O  O16  1  0.34790903  0.17374157  0.10011827  1
  O  O17  1  0.66176604  0.83078359  0.60213394  1
  O  O18  1  0.52935424  0.48128017  0.84612676  1
  O  O19  1  0.52916904  0.04808897  0.84583820  1
  O  O20  1  0.67784963  0.33901740  0.59829906  1
  O  O21  1  0.82115776  0.65269385  0.09892212  1
  O  O22  1  0.95285488  0.47642698  0.84045875  1
  O  O23  1  0.82118781  0.16860881  0.09895118  1
