# generated using pymatgen
data_AcPm3
_symmetry_space_group_name_H-M   'P 1'
_cell_length_a   7.50497935
_cell_length_b   7.50497851
_cell_length_c   6.12313573
_cell_angle_alpha   90.00000000
_cell_angle_beta   90.00000000
_cell_angle_gamma   119.99999898
_symmetry_Int_Tables_number   1
_chemical_formula_structural   AcPm3
_chemical_formula_sum   'Ac2 Pm6'
_cell_volume   298.67816706
_cell_formula_units_Z   2
loop_
 _symmetry_equiv_pos_site_id
 _symmetry_equiv_pos_as_xyz
  1  'x, y, z'
loop_
 _atom_site_type_symbol
 _atom_site_label
 _atom_site_symmetry_multiplicity
 _atom_site_fract_x
 _atom_site_fract_y
 _atom_site_fract_z
 _atom_site_occupancy
  Ac  Ac0  1  0.33333400  0.66666800  0.75000000  1
  Ac  Ac1  1  0.66666800  0.33333300  0.25000000  1
  Pm  Pm2  1  0.16279904  0.32559808  0.25000000  1
  Pm  Pm3  1  0.67440192  0.83719996  0.25000000  1
  Pm  Pm4  1  0.16279804  0.83719996  0.25000000  1
  Pm  Pm5  1  0.83720096  0.67440292  0.75000000  1
  Pm  Pm6  1  0.32559808  0.16279904  0.75000000  1
  Pm  Pm7  1  0.83720096  0.16279904  0.75000000  1
