# generated using pymatgen
data_AlF3
_symmetry_space_group_name_H-M   'P 1'
_cell_length_a   8.82866346
_cell_length_b   7.24838433
_cell_length_c   5.09936766
_cell_angle_alpha   135.62036191
_cell_angle_beta   149.95844840
_cell_angle_gamma   34.34708026
_symmetry_Int_Tables_number   1
_chemical_formula_structural   AlF3
_chemical_formula_sum   'Al2 F6'
_cell_volume   92.17311026
_cell_formula_units_Z   2
loop_
 _symmetry_equiv_pos_site_id
 _symmetry_equiv_pos_as_xyz
  1  'x, y, z'
loop_
 _atom_site_type_symbol
 _atom_site_label
 _atom_site_symmetry_multiplicity
 _atom_site_fract_x
 _atom_site_fract_y
 _atom_site_fract_z
 _atom_site_occupancy
  Al  Al0  1  0.49987558  0.74994117  -0.00026144  1
  Al  Al1  1  0.49986298  0.25005883  -0.00026144  1
  F  F2  1  0.48728800  0.00000000  0.97457599  1
  F  F3  1  0.00745862  0.93123422  0.39242016  1
  F  F4  1  0.38496154  0.06876578  0.39242016  1
  F  F5  1  0.51422185  0.50000000  0.02844370  1
  F  F6  1  0.99302329  0.56785310  0.60633143  1
  F  F7  1  0.61330814  0.43214690  0.60633143  1
