# generated using pymatgen
data_AcPr3
_symmetry_space_group_name_H-M   'P 1'
_cell_length_a   7.56386766
_cell_length_b   7.56386737
_cell_length_c   6.24126481
_cell_angle_alpha   90.00000000
_cell_angle_beta   90.00000000
_cell_angle_gamma   119.99999160
_symmetry_Int_Tables_number   1
_chemical_formula_structural   AcPr3
_chemical_formula_sum   'Ac2 Pr6'
_cell_volume   309.23675329
_cell_formula_units_Z   2
loop_
 _symmetry_equiv_pos_site_id
 _symmetry_equiv_pos_as_xyz
  1  'x, y, z'
loop_
 _atom_site_type_symbol
 _atom_site_label
 _atom_site_symmetry_multiplicity
 _atom_site_fract_x
 _atom_site_fract_y
 _atom_site_fract_z
 _atom_site_occupancy
  Ac  Ac0  1  0.33333300  0.66666700  0.75000000  1
  Ac  Ac1  1  0.66666700  0.33333300  0.25000000  1
  Pr  Pr2  1  0.16340690  0.32681380  0.25000000  1
  Pr  Pr3  1  0.67318720  0.83659410  0.25000000  1
  Pr  Pr4  1  0.16340590  0.83659410  0.25000000  1
  Pr  Pr5  1  0.83659310  0.67318620  0.75000000  1
  Pr  Pr6  1  0.32681380  0.16340790  0.75000000  1
  Pr  Pr7  1  0.83659310  0.16340790  0.75000000  1
