# generated using pymatgen
data_Ac3Cd
_symmetry_space_group_name_H-M   'P 1'
_cell_length_a   6.73653756
_cell_length_b   6.73653756
_cell_length_c   6.73653756
_cell_angle_alpha   134.17120169
_cell_angle_beta   134.17120169
_cell_angle_gamma   66.82072873
_symmetry_Int_Tables_number   1
_chemical_formula_structural   Ac3Cd
_chemical_formula_sum   'Ac3 Cd1'
_cell_volume   154.74557136
_cell_formula_units_Z   1
loop_
 _symmetry_equiv_pos_site_id
 _symmetry_equiv_pos_as_xyz
  1  'x, y, z'
loop_
 _atom_site_type_symbol
 _atom_site_label
 _atom_site_symmetry_multiplicity
 _atom_site_fract_x
 _atom_site_fract_y
 _atom_site_fract_z
 _atom_site_occupancy
  Ac  Ac0  1  0.75000100  0.25000100  0.50000000  1
  Ac  Ac1  1  0.25000100  0.75000100  0.50000000  1
  Ac  Ac2  1  0.49999900  0.49999900  0.00000000  1
  Cd  Cd3  1  -0.00000000  0.00000000  -0.00000000  1
