# generated using pymatgen
data_FePH5CO8
_symmetry_space_group_name_H-M   'P 1'
_cell_length_a   7.25861664
_cell_length_b   9.77514248
_cell_length_c   10.57211617
_cell_angle_alpha   90.00000000
_cell_angle_beta   99.87905888
_cell_angle_gamma   90.00000000
_symmetry_Int_Tables_number   1
_chemical_formula_structural   FePH5CO8
_chemical_formula_sum   'Fe4 P4 H20 C4 O32'
_cell_volume   739.01114262
_cell_formula_units_Z   4
loop_
 _symmetry_equiv_pos_site_id
 _symmetry_equiv_pos_as_xyz
  1  'x, y, z'
loop_
 _atom_site_type_symbol
 _atom_site_label
 _atom_site_symmetry_multiplicity
 _atom_site_fract_x
 _atom_site_fract_y
 _atom_site_fract_z
 _atom_site_occupancy
  Fe  Fe0  1  0.37818489  0.79399186  0.05824514  1
  Fe  Fe1  1  0.62181511  0.29399186  0.44175486  1
  Fe  Fe2  1  0.37818489  0.70600814  0.55824514  1
  Fe  Fe3  1  0.62181511  0.20600814  0.94175486  1
  P  P4  1  0.55060181  0.89176743  0.80090718  1
  P  P5  1  0.44939819  0.10823257  0.19909282  1
  P  P6  1  0.55060181  0.60823257  0.30090718  1
  P  P7  1  0.44939819  0.39176743  0.69909282  1
  H  H8  1  0.87332989  0.30386096  0.14539191  1
  H  H9  1  0.97928466  0.16861765  0.52864905  1
  H  H10  1  0.12667011  0.80386096  0.35460809  1
  H  H11  1  0.21701912  0.02045862  0.50132675  1
  H  H12  1  0.29817865  0.32965245  0.03660352  1
  H  H13  1  0.21701912  0.47954138  0.00132675  1
  H  H14  1  0.23305546  0.36531544  0.82095183  1
  H  H15  1  0.02071534  0.83138235  0.47135095  1
  H  H16  1  0.70182135  0.82965245  0.46339648  1
  H  H17  1  0.23305546  0.13468456  0.32095183  1
  H  H18  1  0.02071534  0.66861765  0.97135095  1
  H  H19  1  0.76694454  0.63468456  0.17904817  1
  H  H20  1  0.70182135  0.67034755  0.96339648  1
  H  H21  1  0.78298088  0.97954138  0.49867325  1
  H  H22  1  0.87332989  0.19613904  0.64539191  1
  H  H23  1  0.97928466  0.33138235  0.02864905  1
  H  H24  1  0.78298088  0.52045862  0.99867325  1
  H  H25  1  0.29817865  0.17034755  0.53660352  1
  H  H26  1  0.12667011  0.69613904  0.85460809  1
  H  H27  1  0.76694454  0.86531544  0.67904817  1
  C  C28  1  0.05401544  0.06934036  0.86525404  1
  C  C29  1  0.94598456  0.93065964  0.13474596  1
  C  C30  1  0.05401544  0.43065964  0.36525404  1
  C  C31  1  0.94598456  0.56934036  0.63474596  1
  O  O32  1  0.14745364  0.68010734  0.94726374  1
  O  O33  1  0.94889902  0.15820277  0.82886143  1
  O  O34  1  0.46839147  0.29666148  0.58494964  1
  O  O35  1  0.24527402  0.14893439  0.22932254  1
  O  O36  1  0.44933723  0.95694901  0.16335888  1
  O  O37  1  0.44933723  0.54305099  0.66335888  1
  O  O38  1  0.19365771  0.11824312  0.48359549  1
  O  O39  1  0.75472598  0.64893439  0.27067746  1
  O  O40  1  0.24527402  0.35106561  0.72932254  1
  O  O41  1  0.75472598  0.85106561  0.77067746  1
  O  O42  1  0.80634229  0.61824312  0.01640451  1
  O  O43  1  0.15943308  0.98201436  0.90328396  1
  O  O44  1  0.46839147  0.20333852  0.08494964  1
  O  O45  1  0.59541081  0.13586821  0.31950280  1
  O  O46  1  0.59541081  0.36413179  0.81950280  1
  O  O47  1  0.40458919  0.63586821  0.18049720  1
  O  O48  1  0.40458919  0.86413179  0.68049720  1
  O  O49  1  0.15943308  0.51798564  0.40328396  1
  O  O50  1  0.85254636  0.31989266  0.05273626  1
  O  O51  1  0.05110098  0.84179723  0.17113857  1
  O  O52  1  0.84056692  0.48201436  0.59671604  1
  O  O53  1  0.80634229  0.88175688  0.51640451  1
  O  O54  1  0.53160853  0.70333852  0.41505036  1
  O  O55  1  0.94889902  0.34179723  0.32886143  1
  O  O56  1  0.19365771  0.38175688  0.98359549  1
  O  O57  1  0.05110098  0.65820277  0.67113857  1
  O  O58  1  0.85254636  0.18010734  0.55273626  1
  O  O59  1  0.53160853  0.79666148  0.91505036  1
  O  O60  1  0.55066277  0.45694901  0.33664112  1
  O  O61  1  0.84056692  0.01798564  0.09671604  1
  O  O62  1  0.55066277  0.04305099  0.83664112  1
  O  O63  1  0.14745364  0.81989266  0.44726374  1
