# generated using pymatgen
data_Er5Mg
_symmetry_space_group_name_H-M   'P 1'
_cell_length_a   6.07601920
_cell_length_b   6.07602102
_cell_length_c   6.53700259
_cell_angle_alpha   117.69342435
_cell_angle_beta   62.30657488
_cell_angle_gamma   119.99999767
_symmetry_Int_Tables_number   1
_chemical_formula_structural   Er5Mg
_chemical_formula_sum   'Er5 Mg1'
_cell_volume   176.35766442
_cell_formula_units_Z   1
loop_
 _symmetry_equiv_pos_site_id
 _symmetry_equiv_pos_as_xyz
  1  'x, y, z'
loop_
 _atom_site_type_symbol
 _atom_site_label
 _atom_site_symmetry_multiplicity
 _atom_site_fract_x
 _atom_site_fract_y
 _atom_site_fract_z
 _atom_site_occupancy
  Er  Er0  1  0.67076229  0.33743029  0.00000100  1
  Er  Er1  1  0.99590271  0.00000000  0.00000000  1
  Er  Er2  1  0.33333300  0.66256971  1.00000000  1
  Er  Er3  1  0.50115157  0.83218143  0.49654328  1
  Er  Er4  1  0.16551443  0.16781857  0.50345572  1
  Mg  Mg5  1  0.83333300  0.50000000  0.50000000  1
