# generated using pymatgen
data_Cu3As
_symmetry_space_group_name_H-M   'P 1'
_cell_length_a   5.30223963
_cell_length_b   5.30223898
_cell_length_c   4.30809942
_cell_angle_alpha   90.00000000
_cell_angle_beta   90.00000000
_cell_angle_gamma   119.99998929
_symmetry_Int_Tables_number   1
_chemical_formula_structural   Cu3As
_chemical_formula_sum   'Cu6 As2'
_cell_volume   104.89023173
_cell_formula_units_Z   2
loop_
 _symmetry_equiv_pos_site_id
 _symmetry_equiv_pos_as_xyz
  1  'x, y, z'
loop_
 _atom_site_type_symbol
 _atom_site_label
 _atom_site_symmetry_multiplicity
 _atom_site_fract_x
 _atom_site_fract_y
 _atom_site_fract_z
 _atom_site_occupancy
  Cu  Cu0  1  0.16313054  0.32626009  0.25000000  1
  Cu  Cu1  1  0.67373891  0.83686946  0.25000000  1
  Cu  Cu2  1  0.16312954  0.83686946  0.25000000  1
  Cu  Cu3  1  0.83687046  0.67373791  0.75000100  1
  Cu  Cu4  1  0.32625909  0.16312954  0.75000100  1
  Cu  Cu5  1  0.83686846  0.16312954  0.75000100  1
  As  As6  1  0.33333300  0.66666600  0.75000100  1
  As  As7  1  0.66666700  0.33333300  0.25000000  1
