# generated using pymatgen
data_Ti4VO8
_symmetry_space_group_name_H-M   'P 1'
_cell_length_a   5.93868070
_cell_length_b   5.93868074
_cell_length_c   5.84170050
_cell_angle_alpha   89.88175772
_cell_angle_beta   59.44247318
_cell_angle_gamma   59.87228625
_symmetry_Int_Tables_number   1
_chemical_formula_structural   Ti4VO8
_chemical_formula_sum   'Ti4 V1 O8'
_cell_volume   144.31176297
_cell_formula_units_Z   1
loop_
 _symmetry_equiv_pos_site_id
 _symmetry_equiv_pos_as_xyz
  1  'x, y, z'
loop_
 _atom_site_type_symbol
 _atom_site_label
 _atom_site_symmetry_multiplicity
 _atom_site_fract_x
 _atom_site_fract_y
 _atom_site_fract_z
 _atom_site_occupancy
  Ti  Ti0  1  0.00000000  0.50000000  0.50000000  1
  Ti  Ti1  1  0.00000000  0.00000000  0.00000000  1
  Ti  Ti2  1  0.50000000  0.00000000  0.00000000  1
  Ti  Ti3  1  0.00000000  0.50000000  0.00000000  1
  V  V4  1  0.50000000  0.50000000  0.00000000  1
  O  O5  1  0.46571658  0.26156578  0.79584819  1
  O  O6  1  0.99139775  0.25958113  0.75999559  1
  O  O7  1  0.49958554  0.75139334  0.75999559  1
  O  O8  1  0.98986009  0.74914140  0.75928131  1
  O  O9  1  0.01013991  0.25085860  0.24071869  1
  O  O10  1  0.50041446  0.24860666  0.24000441  1
  O  O11  1  0.00860225  0.74041887  0.24000441  1
  O  O12  1  0.53428342  0.73843422  0.20415181  1
