# generated using pymatgen
data_Mg17Al11Pb
_symmetry_space_group_name_H-M   'P 1'
_cell_length_a   9.21504413
_cell_length_b   9.24474568
_cell_length_c   9.23554605
_cell_angle_alpha   109.62668561
_cell_angle_beta   109.49666253
_cell_angle_gamma   109.26559727
_symmetry_Int_Tables_number   1
_chemical_formula_structural   Mg17Al11Pb
_chemical_formula_sum   'Mg17 Al11 Pb1'
_cell_volume   605.84588430
_cell_formula_units_Z   1
loop_
 _symmetry_equiv_pos_site_id
 _symmetry_equiv_pos_as_xyz
  1  'x, y, z'
loop_
 _atom_site_type_symbol
 _atom_site_label
 _atom_site_symmetry_multiplicity
 _atom_site_fract_x
 _atom_site_fract_y
 _atom_site_fract_z
 _atom_site_occupancy
  Mg  Mg0  1  0.33919556  0.99276979  0.99999900  1
  Mg  Mg1  1  0.00422762  0.34174845  0.99999900  1
  Mg  Mg2  1  0.00287428  0.00651985  0.00000000  1
  Mg  Mg3  1  0.31865775  0.60076407  0.00000000  1
  Mg  Mg4  1  0.58863984  0.30128784  0.00000100  1
  Mg  Mg5  1  0.68452346  0.68652942  0.29931084  1
  Mg  Mg6  1  0.60667704  0.00100679  0.31774055  1
  Mg  Mg7  1  0.00518691  0.59838203  0.32403675  1
  Mg  Mg8  1  0.00297905  0.01031274  0.35096463  1
  Mg  Mg9  1  0.39581636  0.71309906  0.39528999  1
  Mg  Mg10  1  0.71460981  0.39799776  0.40111168  1
  Mg  Mg11  1  0.31349913  0.99688708  0.59888932  1
  Mg  Mg12  1  0.00052637  0.31780907  0.60471201  1
  Mg  Mg13  1  0.65201343  0.65934811  0.64903437  1
  Mg  Mg14  1  0.68115116  0.27434628  0.67596325  1
  Mg  Mg15  1  0.28893550  0.68326424  0.68225845  1
  Mg  Mg16  1  0.38521262  0.38721858  0.70069016  1
  Al  Al17  1  0.62119117  0.83085702  0.00000100  1
  Al  Al18  1  0.36727562  0.36563386  0.18101494  1
  Al  Al19  1  0.82379395  0.18966927  0.18714716  1
  Al  Al20  1  0.19814200  0.82511341  0.18874286  1
  Al  Al21  1  0.36551582  0.18116129  0.36384776  1
  Al  Al22  1  0.18301837  0.36682806  0.36354151  1
  Al  Al23  1  0.81947787  0.00328655  0.63645949  1
  Al  Al24  1  0.00166806  0.81731453  0.63615224  1
  Al  Al25  1  0.00939914  0.63637155  0.81125714  1
  Al  Al26  1  0.63664679  0.00252212  0.81285184  1
  Al  Al27  1  0.18625968  0.18461792  0.81898506  1
  Pb  Pb28  1  0.80288966  0.62733327  0.00000000  1
