# generated using pymatgen
data_Sr(Mg4Al3)4
_symmetry_space_group_name_H-M   'P 1'
_cell_length_a   8.95109441
_cell_length_b   9.33727575
_cell_length_c   9.33727597
_cell_angle_alpha   110.29383305
_cell_angle_beta   108.63552930
_cell_angle_gamma   108.63552737
_symmetry_Int_Tables_number   1
_chemical_formula_structural   Sr(Mg4Al3)4
_chemical_formula_sum   'Sr1 Mg16 Al12'
_cell_volume   606.83432426
_cell_formula_units_Z   1
loop_
 _symmetry_equiv_pos_site_id
 _symmetry_equiv_pos_as_xyz
  1  'x, y, z'
loop_
 _atom_site_type_symbol
 _atom_site_label
 _atom_site_symmetry_multiplicity
 _atom_site_fract_x
 _atom_site_fract_y
 _atom_site_fract_z
 _atom_site_occupancy
  Sr  Sr0  1  0.37451611  0.99999900  0.99999900  1
  Mg  Mg1  1  0.99567412  0.34051932  0.00000000  1
  Mg  Mg2  1  0.61677080  0.33354273  1.00000000  1
  Mg  Mg3  1  0.31400629  0.60069607  1.00000000  1
  Mg  Mg4  1  0.99180982  0.00000100  0.00000100  1
  Mg  Mg5  1  0.68704848  0.68581126  0.29204857  1
  Mg  Mg6  1  0.00123722  0.60623731  0.31418774  1
  Mg  Mg7  1  0.61677080  1.00000000  0.33354273  1
  Mg  Mg8  1  0.99567412  0.99999900  0.34051932  1
  Mg  Mg9  1  0.39499991  0.70795143  0.39376369  1
  Mg  Mg10  1  0.71331122  0.39930493  0.39930393  1
  Mg  Mg11  1  0.31400729  0.99999900  0.60069607  1
  Mg  Mg12  1  0.00123722  0.31418774  0.60623731  1
  Mg  Mg13  1  0.65515480  0.65947968  0.65947968  1
  Mg  Mg14  1  0.28323007  0.66645827  0.66645827  1
  Mg  Mg15  1  0.68704748  0.29204857  0.68581126  1
  Mg  Mg16  1  0.39499991  0.39376269  0.70795143  1
  Al  Al17  1  0.63434188  0.81815352  0.99999900  1
  Al  Al18  1  0.81254373  0.63851193  1.00000000  1
  Al  Al19  1  0.36196884  0.36616607  0.18048345  1
  Al  Al20  1  0.81618836  0.18184648  0.18184748  1
  Al  Al21  1  0.18148439  0.81951555  0.18568162  1
  Al  Al22  1  0.17403080  0.36148907  0.36148807  1
  Al  Al23  1  0.36196884  0.18048245  0.36616607  1
  Al  Al24  1  0.99580376  0.81431838  0.63383493  1
  Al  Al25  1  0.81254373  1.00000000  0.63851193  1
  Al  Al26  1  0.99580376  0.63383493  0.81431838  1
  Al  Al27  1  0.63434288  0.99999900  0.81815252  1
  Al  Al28  1  0.18148539  0.18568162  0.81951555  1
