# generated using pymatgen
data_Mg16PaAl12
_symmetry_space_group_name_H-M   'P 1'
_cell_length_a   8.78930982
_cell_length_b   9.27680264
_cell_length_c   9.27680364
_cell_angle_alpha   110.51115412
_cell_angle_beta   108.41013443
_cell_angle_gamma   108.41012586
_symmetry_Int_Tables_number   1
_chemical_formula_structural   Mg16PaAl12
_chemical_formula_sum   'Mg16 Pa1 Al12'
_cell_volume   589.72547509
_cell_formula_units_Z   1
loop_
 _symmetry_equiv_pos_site_id
 _symmetry_equiv_pos_as_xyz
  1  'x, y, z'
loop_
 _atom_site_type_symbol
 _atom_site_label
 _atom_site_symmetry_multiplicity
 _atom_site_fract_x
 _atom_site_fract_y
 _atom_site_fract_z
 _atom_site_occupancy
  Mg  Mg0  1  0.99822981  1.00000000  0.99999900  1
  Mg  Mg1  1  0.31663050  0.59699372  0.99999900  1
  Mg  Mg2  1  0.99680190  0.34195042  1.00000000  1
  Mg  Mg3  1  0.60956098  0.33435490  0.00000000  1
  Mg  Mg4  1  0.69075805  0.68830032  0.29913858  1
  Mg  Mg5  1  0.00245673  0.61083726  0.31169868  1
  Mg  Mg6  1  0.60956098  0.00000000  0.33435490  1
  Mg  Mg7  1  0.99680190  1.00000000  0.34195042  1
  Mg  Mg8  1  0.39162047  0.70086242  0.38916374  1
  Mg  Mg9  1  0.71963878  0.40300728  0.40300728  1
  Mg  Mg10  1  0.31663150  0.99999900  0.59699272  1
  Mg  Mg11  1  0.00245673  0.31169968  0.61083726  1
  Mg  Mg12  1  0.65485048  0.65804858  0.65804858  1
  Mg  Mg13  1  0.27520708  0.66564610  0.66564510  1
  Mg  Mg14  1  0.69075805  0.29913858  0.68830132  1
  Mg  Mg15  1  0.39162047  0.38916274  0.70086242  1
  Pa  Pa16  1  0.37228653  0.99999900  1.00000000  1
  Al  Al17  1  0.62685974  0.81966591  0.00000000  1
  Al  Al18  1  0.80928344  0.63849007  0.00000000  1
  Al  Al19  1  0.36497636  0.35990913  0.17809373  1
  Al  Al20  1  0.80719283  0.18033409  0.18033409  1
  Al  Al21  1  0.18688264  0.82190627  0.18181540  1
  Al  Al22  1  0.36497636  0.17809373  0.35991013  1
  Al  Al23  1  0.17079537  0.36151093  0.36151193  1
  Al  Al24  1  0.80928544  0.99999900  0.63849007  1
  Al  Al25  1  0.00506824  0.81818560  0.64009187  1
  Al  Al26  1  0.00506724  0.64009187  0.81818560  1
  Al  Al27  1  0.62685974  0.99999900  0.81966591  1
  Al  Al28  1  0.18688264  0.18181540  0.82190627  1
