# generated using pymatgen
data_Mg5Hg
_symmetry_space_group_name_H-M   'P 1'
_cell_length_a   3.26366408
_cell_length_b   8.24456134
_cell_length_c   5.04767681
_cell_angle_alpha   90.00000000
_cell_angle_beta   90.00000000
_cell_angle_gamma   78.58415437
_symmetry_Int_Tables_number   1
_chemical_formula_structural   Mg5Hg
_chemical_formula_sum   'Mg5 Hg1'
_cell_volume   133.13325266
_cell_formula_units_Z   1
loop_
 _symmetry_equiv_pos_site_id
 _symmetry_equiv_pos_as_xyz
  1  'x, y, z'
loop_
 _atom_site_type_symbol
 _atom_site_label
 _atom_site_symmetry_multiplicity
 _atom_site_fract_x
 _atom_site_fract_y
 _atom_site_fract_z
 _atom_site_occupancy
  Mg  Mg0  1  0.99978306  0.00043289  0.00000000  1
  Mg  Mg1  1  0.32947931  0.34104038  -0.00000000  1
  Mg  Mg2  1  0.66535196  0.66929509  0.00000000  1
  Mg  Mg3  1  0.44361441  0.11277117  0.49999900  1
  Mg  Mg4  1  0.11660621  0.76678658  0.49999900  1
  Hg  Hg5  1  0.77849606  0.44300689  0.49999900  1
