# generated using pymatgen
data_MgPb5
_symmetry_space_group_name_H-M   'P 1'
_cell_length_a   3.67691775
_cell_length_b   6.77579419
_cell_length_c   8.10610589
_cell_angle_alpha   71.49263845
_cell_angle_beta   90.00000000
_cell_angle_gamma   105.74327243
_symmetry_Int_Tables_number   1
_chemical_formula_structural   MgPb5
_chemical_formula_sum   'Mg1 Pb5'
_cell_volume   183.50461053
_cell_formula_units_Z   1
loop_
 _symmetry_equiv_pos_site_id
 _symmetry_equiv_pos_as_xyz
  1  'x, y, z'
loop_
 _atom_site_type_symbol
 _atom_site_label
 _atom_site_symmetry_multiplicity
 _atom_site_fract_x
 _atom_site_fract_y
 _atom_site_fract_z
 _atom_site_occupancy
  Mg  Mg0  1  0.38879961  0.77759922  0.72190925  1
  Pb  Pb1  1  0.99594136  0.99188171  0.99270890  1
  Pb  Pb2  1  0.72640232  0.45280565  0.05073762  1
  Pb  Pb3  1  0.33477377  0.66954655  0.33624247  1
  Pb  Pb4  1  0.05031121  0.10062142  0.39712536  1
  Pb  Pb5  1  0.67043873  0.34087745  0.66794240  1
