# generated using pymatgen
data_Mg17Al11Hg
_symmetry_space_group_name_H-M   'P 1'
_cell_length_a   9.17907501
_cell_length_b   9.21277597
_cell_length_c   9.10584820
_cell_angle_alpha   109.60437461
_cell_angle_beta   109.45385159
_cell_angle_gamma   109.75372215
_symmetry_Int_Tables_number   1
_chemical_formula_structural   Mg17Al11Hg
_chemical_formula_sum   'Mg17 Al11 Hg1'
_cell_volume   589.83763890
_cell_formula_units_Z   1
loop_
 _symmetry_equiv_pos_site_id
 _symmetry_equiv_pos_as_xyz
  1  'x, y, z'
loop_
 _atom_site_type_symbol
 _atom_site_label
 _atom_site_symmetry_multiplicity
 _atom_site_fract_x
 _atom_site_fract_y
 _atom_site_fract_z
 _atom_site_occupancy
  Mg  Mg0  1  0.59831107  0.31078035  0.00000000  1
  Mg  Mg1  1  0.34241830  0.99842232  0.00000100  1
  Mg  Mg2  1  0.31498386  0.60329651  1.00000000  1
  Mg  Mg3  1  0.00233038  0.00188859  0.00000000  1
  Mg  Mg4  1  0.00357087  0.34104803  0.00000000  1
  Mg  Mg5  1  0.68410371  0.68474662  0.28862128  1
  Mg  Mg6  1  0.00049264  0.60084236  0.31521931  1
  Mg  Mg7  1  0.60324272  0.00032225  0.31656846  1
  Mg  Mg8  1  0.00105178  0.00323643  0.34577765  1
  Mg  Mg9  1  0.39631176  0.71272332  0.39614581  1
  Mg  Mg10  1  0.71464178  0.39800066  0.39913920  1
  Mg  Mg11  1  0.31550358  0.99886146  0.60086180  1
  Mg  Mg12  1  0.00016694  0.31657751  0.60385519  1
  Mg  Mg13  1  0.65527413  0.65745878  0.65422235  1
  Mg  Mg14  1  0.28667425  0.68375379  0.68343154  1
  Mg  Mg15  1  0.68527333  0.28562305  0.68477969  1
  Mg  Mg16  1  0.39548242  0.39612634  0.71137972  1
  Al  Al17  1  0.62846457  0.82081574  0.00000100  1
  Al  Al18  1  0.36777417  0.36681658  0.18218917  1
  Al  Al19  1  0.18955754  0.82102341  0.18632667  1
  Al  Al20  1  0.82065210  0.18721250  0.18663755  1
  Al  Al21  1  0.18251387  0.36646268  0.36486441  1
  Al  Al22  1  0.36667429  0.18146199  0.36543542  1
  Al  Al23  1  0.00123787  0.81602657  0.63456558  1
  Al  Al24  1  0.81765046  0.00159927  0.63513659  1
  Al  Al25  1  0.63401455  0.00057595  0.81336245  1
  Al  Al26  1  0.00323088  0.63469674  0.81367333  1
  Al  Al27  1  0.18558400  0.18462641  0.81780983  1
  Hg  Hg28  1  0.80281721  0.62497479  0.99999900  1
