# generated using pymatgen
data_Li4TiFe5O12
_symmetry_space_group_name_H-M   'P 1'
_cell_length_a   5.16527286
_cell_length_b   5.14649220
_cell_length_c   10.26739123
_cell_angle_alpha   89.43620390
_cell_angle_beta   88.87645692
_cell_angle_gamma   59.87920799
_symmetry_Int_Tables_number   1
_chemical_formula_structural   Li4TiFe5O12
_chemical_formula_sum   'Li4 Ti1 Fe5 O12'
_cell_volume   236.03799746
_cell_formula_units_Z   1
loop_
 _symmetry_equiv_pos_site_id
 _symmetry_equiv_pos_as_xyz
  1  'x, y, z'
loop_
 _atom_site_type_symbol
 _atom_site_label
 _atom_site_symmetry_multiplicity
 _atom_site_fract_x
 _atom_site_fract_y
 _atom_site_fract_z
 _atom_site_occupancy
  Li  Li0  1  0.13489699  0.51015348  0.75040470  1
  Li  Li1  1  0.35494853  0.51015348  0.24959530  1
  Li  Li2  1  0.64505147  0.48984652  0.75040470  1
  Li  Li3  1  0.86510301  0.48984652  0.24959530  1
  Ti  Ti4  1  0.00000000  0.00000000  0.00000000  1
  Fe  Fe5  1  0.16433172  0.67133756  0.50000000  1
  Fe  Fe6  1  0.66349854  0.67300393  0.00000000  1
  Fe  Fe7  1  0.33650146  0.32699607  1.00000000  1
  Fe  Fe8  1  0.83566828  0.32866244  0.50000000  1
  Fe  Fe9  1  0.50000000  0.00000000  0.50000000  1
  O  O10  1  0.00887972  0.66360829  0.10796168  1
  O  O11  1  0.32751199  0.66360829  0.89203832  1
  O  O12  1  0.18218762  0.33486377  0.39321394  1
  O  O13  1  0.51705238  0.66513623  0.39321394  1
  O  O14  1  0.48294762  0.33486377  0.60678606  1
  O  O15  1  0.18493804  1.00000000  0.59494501  1
  O  O16  1  0.81781238  0.66513623  0.60678606  1
  O  O17  1  0.67248801  0.33639171  0.10796168  1
  O  O18  1  0.31506530  1.00000000  0.09713748  1
  O  O19  1  0.99112028  0.33639171  0.89203832  1
  O  O20  1  0.68493470  0.00000000  0.90286252  1
  O  O21  1  0.81506196  0.00000000  0.40505499  1
