# generated using pymatgen
data_Mg16Al12Tl
_symmetry_space_group_name_H-M   'P 1'
_cell_length_a   9.35300430
_cell_length_b   9.14062160
_cell_length_c   9.07697118
_cell_angle_alpha   108.99163459
_cell_angle_beta   109.94834339
_cell_angle_gamma   110.22093234
_symmetry_Int_Tables_number   1
_chemical_formula_structural   Mg16Al12Tl
_chemical_formula_sum   'Mg16 Al12 Tl1'
_cell_volume   591.74433347
_cell_formula_units_Z   1
loop_
 _symmetry_equiv_pos_site_id
 _symmetry_equiv_pos_as_xyz
  1  'x, y, z'
loop_
 _atom_site_type_symbol
 _atom_site_label
 _atom_site_symmetry_multiplicity
 _atom_site_fract_x
 _atom_site_fract_y
 _atom_site_fract_z
 _atom_site_occupancy
  Mg  Mg0  1  0.00125337  0.00133292  0.00000000  1
  Mg  Mg1  1  0.31299528  0.60355565  0.00000000  1
  Mg  Mg2  1  0.00153449  0.34533416  0.00000000  1
  Mg  Mg3  1  0.33732683  0.00430009  0.00000000  1
  Mg  Mg4  1  0.67982910  0.68367233  0.28429466  1
  Mg  Mg5  1  0.60034812  0.99931613  0.31308464  1
  Mg  Mg6  1  0.00393198  0.60437134  0.31685109  1
  Mg  Mg7  1  0.00335661  0.99649367  0.34859426  1
  Mg  Mg8  1  0.71220043  0.39479060  0.39425201  1
  Mg  Mg9  1  0.39878360  0.71692392  0.40122532  1
  Mg  Mg10  1  0.99755827  0.31569860  0.59877568  1
  Mg  Mg11  1  0.31794742  0.00053860  0.60574799  1
  Mg  Mg12  1  0.65476335  0.64789941  0.65140574  1
  Mg  Mg13  1  0.68708089  0.28752125  0.68314891  1
  Mg  Mg14  1  0.28726448  0.68623248  0.68691636  1
  Mg  Mg15  1  0.39553645  0.39937868  0.71570634  1
  Al  Al16  1  0.82385599  0.64589914  1.00000000  1
  Al  Al17  1  0.63318148  0.80904461  1.00000000  1
  Al  Al18  1  0.35832492  0.36773740  0.18382561  1
  Al  Al19  1  0.18738760  0.82038637  0.18694660  1
  Al  Al20  1  0.82557973  0.17879545  0.18814063  1
  Al  Al21  1  0.18078635  0.36649521  0.36800651  1
  Al  Al22  1  0.36822032  0.18519707  0.37012522  1
  Al  Al23  1  0.99809610  0.81507385  0.62987678  1
  Al  Al24  1  0.81278184  0.99848970  0.63199549  1
  Al  Al25  1  0.63744010  0.99065382  0.81186037  1
  Al  Al26  1  0.00044100  0.63344077  0.81305340  1
  Al  Al27  1  0.17449831  0.18391079  0.81617339  1
  Tl  Tl28  1  0.60769859  0.31752601  1.00000000  1
