# generated using pymatgen
data_Cu2TeO6
_symmetry_space_group_name_H-M   'P 1'
_cell_length_a   4.70248990
_cell_length_b   5.04234307
_cell_length_c   9.10624699
_cell_angle_alpha   90.00000000
_cell_angle_beta   97.38497060
_cell_angle_gamma   90.00000000
_symmetry_Int_Tables_number   1
_chemical_formula_structural   Cu2TeO6
_chemical_formula_sum   'Cu4 Te2 O12'
_cell_volume   214.13228541
_cell_formula_units_Z   2
loop_
 _symmetry_equiv_pos_site_id
 _symmetry_equiv_pos_as_xyz
  1  'x, y, z'
loop_
 _atom_site_type_symbol
 _atom_site_label
 _atom_site_symmetry_multiplicity
 _atom_site_fract_x
 _atom_site_fract_y
 _atom_site_fract_z
 _atom_site_occupancy
  Cu  Cu0  1  0.51664010  0.98087288  0.67897156  1
  Cu  Cu1  1  0.01664010  0.51912712  0.17897156  1
  Cu  Cu2  1  0.48335990  0.01912712  0.32102844  1
  Cu  Cu3  1  0.98335990  0.48087288  0.82102844  1
  Te  Te4  1  0.50000000  0.50000000  0.50000000  1
  Te  Te5  1  -0.00000000  0.00000000  0.00000000  1
  O  O6  1  0.73234710  0.19529557  0.46706106  1
  O  O7  1  0.23234710  0.30470443  0.96706106  1
  O  O8  1  0.26765290  0.80470443  0.53293894  1
  O  O9  1  0.76765290  0.69529557  0.03293894  1
  O  O10  1  0.80522822  0.20658814  0.13847886  1
  O  O11  1  0.30522822  0.29341186  0.63847886  1
  O  O12  1  0.19477178  0.79341186  0.86152114  1
  O  O13  1  0.69477178  0.70658814  0.36152114  1
  O  O14  1  0.75136451  0.16871121  0.82878248  1
  O  O15  1  0.25136451  0.33128879  0.32878248  1
  O  O16  1  0.24863549  0.83128879  0.17121752  1
  O  O17  1  0.74863549  0.66871121  0.67121752  1
