# generated using pymatgen
data_Nd5Ge3C
_symmetry_space_group_name_H-M   'P 1'
_cell_length_a   6.76137699
_cell_length_b   8.84612555
_cell_length_c   8.84878503
_cell_angle_alpha   119.99005576
_cell_angle_beta   89.99998197
_cell_angle_gamma   90.00003611
_symmetry_Int_Tables_number   1
_chemical_formula_structural   Nd5Ge3C
_chemical_formula_sum   'Nd10 Ge6 C2'
_cell_volume   458.40150649
_cell_formula_units_Z   2
loop_
 _symmetry_equiv_pos_site_id
 _symmetry_equiv_pos_as_xyz
  1  'x, y, z'
loop_
 _atom_site_type_symbol
 _atom_site_label
 _atom_site_symmetry_multiplicity
 _atom_site_fract_x
 _atom_site_fract_y
 _atom_site_fract_z
 _atom_site_occupancy
  Nd  Nd0  1  0.49999769  0.33335352  0.66659671  1
  Nd  Nd1  1  0.49999769  0.66675681  0.33340329  1
  Nd  Nd2  1  0.99999837  0.66664576  0.33340425  1
  Nd  Nd3  1  0.99999837  0.33324151  0.66659575  1
  Nd  Nd4  1  0.74997469  0.22232805  0.00000000  1
  Nd  Nd5  1  0.75001624  0.77762085  0.77769127  1
  Nd  Nd6  1  0.75001624  0.99992957  0.22230873  1
  Nd  Nd7  1  0.24996787  0.77767024  1.00000000  1
  Nd  Nd8  1  0.25001173  0.22237884  0.22230870  1
  Nd  Nd9  1  0.25001173  0.00007014  0.77769130  1
  Ge  Ge10  1  0.75007956  0.59095656  0.00000000  1
  Ge  Ge11  1  0.74996028  0.40896639  0.40888609  1
  Ge  Ge12  1  0.74996028  0.00008030  0.59111391  1
  Ge  Ge13  1  0.25007747  0.40904412  1.00000000  1
  Ge  Ge14  1  0.24996056  0.59103299  0.59111228  1
  Ge  Ge15  1  0.24996056  0.99992071  0.40888772  1
  C  C16  1  0.50000423  0.99998568  -0.00000000  1
  C  C17  1  0.00000646  0.00001793  -0.00000000  1
