# generated using pymatgen
data_Li4Fe5NiO12
_symmetry_space_group_name_H-M   'P 1'
_cell_length_a   5.11912286
_cell_length_b   5.11182587
_cell_length_c   10.23636641
_cell_angle_alpha   89.54379071
_cell_angle_beta   89.24762056
_cell_angle_gamma   59.92297413
_symmetry_Int_Tables_number   1
_chemical_formula_structural   Li4Fe5NiO12
_chemical_formula_sum   'Li4 Fe5 Ni1 O12'
_cell_volume   231.77812911
_cell_formula_units_Z   1
loop_
 _symmetry_equiv_pos_site_id
 _symmetry_equiv_pos_as_xyz
  1  'x, y, z'
loop_
 _atom_site_type_symbol
 _atom_site_label
 _atom_site_symmetry_multiplicity
 _atom_site_fract_x
 _atom_site_fract_y
 _atom_site_fract_z
 _atom_site_occupancy
  Li  Li0  1  0.14497152  0.51255846  0.75381014  1
  Li  Li1  1  0.34668999  0.49856705  0.24901608  1
  Li  Li2  1  0.66286107  0.47670969  0.75145868  1
  Li  Li3  1  0.85305704  0.48698639  0.25153075  1
  Fe  Fe4  1  0.16182084  0.67646939  0.50021581  1
  Fe  Fe5  1  0.66035182  0.67750866  0.00098097  1
  Fe  Fe6  1  0.33140174  0.33551821  0.00091205  1
  Fe  Fe7  1  0.83389620  0.33129750  0.50095560  1
  Fe  Fe8  1  0.49772870  0.00389600  0.50193065  1
  Ni  Ni9  1  0.00017775  0.99796468  0.00136403  1
  O  O10  1  0.02490605  0.63195539  0.10977133  1
  O  O11  1  0.34104430  0.63241951  0.89235942  1
  O  O12  1  0.15192207  0.34438175  0.39515843  1
  O  O13  1  0.52062296  0.64653947  0.39505728  1
  O  O14  1  0.50163855  0.34525034  0.60611996  1
  O  O15  1  0.14891862  0.01875994  0.60001577  1
  O  O16  1  0.83237686  0.64398287  0.60627656  1
  O  O17  1  0.64264690  0.36426766  0.10294641  1
  O  O18  1  0.34775100  0.00091807  0.09717474  1
  O  O19  1  0.99119860  0.36473048  0.89934182  1
  O  O20  1  0.65040832  0.00095348  0.90520082  1
  O  O21  1  0.83010212  0.02108501  0.40206070  1
