# generated using pymatgen
data_BaV2Cu3(HO5)2
_symmetry_space_group_name_H-M   'P 1'
_cell_length_a   6.06326727
_cell_length_b   5.96631171
_cell_length_c   7.71458702
_cell_angle_alpha   69.32043375
_cell_angle_beta   66.86030833
_cell_angle_gamma   59.46096281
_symmetry_Int_Tables_number   1
_chemical_formula_structural   BaV2Cu3(HO5)2
_chemical_formula_sum   'Ba1 V2 Cu3 H2 O10'
_cell_volume   216.83858782
_cell_formula_units_Z   1
loop_
 _symmetry_equiv_pos_site_id
 _symmetry_equiv_pos_as_xyz
  1  'x, y, z'
loop_
 _atom_site_type_symbol
 _atom_site_label
 _atom_site_symmetry_multiplicity
 _atom_site_fract_x
 _atom_site_fract_y
 _atom_site_fract_z
 _atom_site_occupancy
  Ba  Ba0  1  0.00000000  0.50000000  0.50000000  1
  V  V1  1  0.58580552  0.09905272  0.72933624  1
  V  V2  1  0.41419448  0.90094728  0.27066376  1
  Cu  Cu3  1  0.00000000  -0.00000000  -0.00000000  1
  Cu  Cu4  1  0.00000000  0.50000000  -0.00000000  1
  Cu  Cu5  1  0.50000000  0.50000000  -0.00000000  1
  H  H6  1  0.26420391  0.74343002  0.72816217  1
  H  H7  1  0.73579609  0.25656998  0.27183783  1
  O  O8  1  0.21194518  0.69807717  0.87803248  1
  O  O9  1  0.78805482  0.30192283  0.12196752  1
  O  O10  1  0.23237148  0.23228347  0.81668685  1
  O  O11  1  0.71865820  0.23228347  0.81668685  1
  O  O12  1  0.76762852  0.76771653  0.18331315  1
  O  O13  1  0.28134180  0.76771653  0.18331315  1
  O  O14  1  0.72291962  0.75576099  0.79839977  1
  O  O15  1  0.27708038  0.24423901  0.20160023  1
  O  O16  1  0.33031394  0.82290364  0.51646847  1
  O  O17  1  0.66968606  0.17709636  0.48353153  1
