# generated using pymatgen
data_Pr3AlFeS7
_symmetry_space_group_name_H-M   'P 1'
_cell_length_a   5.99414673
_cell_length_b   10.18266097
_cell_length_c   10.08763441
_cell_angle_alpha   119.92703164
_cell_angle_beta   90.00000000
_cell_angle_gamma   90.00000000
_symmetry_Int_Tables_number   1
_chemical_formula_structural   Pr3AlFeS7
_chemical_formula_sum   'Pr6 Al2 Fe2 S14'
_cell_volume   533.61432229
_cell_formula_units_Z   2
loop_
 _symmetry_equiv_pos_site_id
 _symmetry_equiv_pos_as_xyz
  1  'x, y, z'
loop_
 _atom_site_type_symbol
 _atom_site_label
 _atom_site_symmetry_multiplicity
 _atom_site_fract_x
 _atom_site_fract_y
 _atom_site_fract_z
 _atom_site_occupancy
  Pr  Pr0  1  0.25620496  0.23214989  0.37236291  1
  Pr  Pr1  1  0.25688225  0.62363721  0.85728673  1
  Pr  Pr2  1  0.25674618  0.14239679  0.76872847  1
  Pr  Pr3  1  0.75620496  0.76785011  0.62763709  1
  Pr  Pr4  1  0.75688225  0.37636279  0.14271327  1
  Pr  Pr5  1  0.75674618  0.85760321  0.23127153  1
  Al  Al6  1  0.83648044  0.33301099  0.66599953  1
  Al  Al7  1  0.33648044  0.66698901  0.33400047  1
  Fe  Fe8  1  0.47674521  0.00044990  0.00014009  1
  Fe  Fe9  1  0.97674521  0.99955010  0.99985991  1
  S  S10  1  0.71356517  0.14361875  0.23186779  1
  S  S11  1  0.71283387  0.76474255  0.90974273  1
  S  S12  1  0.71268551  0.09085225  0.85795272  1
  S  S13  1  0.21356517  0.85638125  0.76813221  1
  S  S14  1  0.21283387  0.23525745  0.09025727  1
  S  S15  1  0.21268551  0.90914775  0.14204728  1
  S  S16  1  0.98205892  0.09978087  0.51840469  1
  S  S17  1  0.98263101  0.48061632  0.57947021  1
  S  S18  1  0.98258617  0.41893335  0.90102940  1
  S  S19  1  0.48205892  0.90021913  0.48159531  1
  S  S20  1  0.48263101  0.51938368  0.42052979  1
  S  S21  1  0.48258617  0.58106665  0.09897060  1
  S  S22  1  0.46658031  0.33288599  0.66649488  1
  S  S23  1  0.96658031  0.66711401  0.33350512  1
