# generated using pymatgen
data_NaGd3GeS7
_symmetry_space_group_name_H-M   'P 1'
_cell_length_a   5.89474836
_cell_length_b   10.02615857
_cell_length_c   10.02589583
_cell_angle_alpha   119.99865015
_cell_angle_beta   90.00000000
_cell_angle_gamma   90.00000000
_symmetry_Int_Tables_number   1
_chemical_formula_structural   NaGd3GeS7
_chemical_formula_sum   'Na2 Gd6 Ge2 S14'
_cell_volume   513.16799877
_cell_formula_units_Z   2
loop_
 _symmetry_equiv_pos_site_id
 _symmetry_equiv_pos_as_xyz
  1  'x, y, z'
loop_
 _atom_site_type_symbol
 _atom_site_label
 _atom_site_symmetry_multiplicity
 _atom_site_fract_x
 _atom_site_fract_y
 _atom_site_fract_z
 _atom_site_occupancy
  Na  Na0  1  0.03338319  0.99999880  -0.00000003  1
  Na  Na1  1  0.53338319  0.00000120  0.00000003  1
  Gd  Gd2  1  0.74534477  0.22640538  0.36232736  1
  Gd  Gd3  1  0.74534639  0.63768399  0.86408200  1
  Gd  Gd4  1  0.74534650  0.13592638  0.77359741  1
  Gd  Gd5  1  0.24534477  0.77359462  0.63767264  1
  Gd  Gd6  1  0.24534639  0.36231601  0.13591800  1
  Gd  Gd7  1  0.24534650  0.86407362  0.22640259  1
  Ge  Ge8  1  0.16596882  0.33335668  0.66667810  1
  Ge  Ge9  1  0.66596882  0.66664332  0.33332190  1
  S  S10  1  0.54175566  0.33335018  0.66667469  1
  S  S11  1  0.04175566  0.66664982  0.33332531  1
  S  S12  1  0.78875584  0.26194165  0.10112998  1
  S  S13  1  0.78875636  0.89887359  0.16082068  1
  S  S14  1  0.78875874  0.83919355  0.73805680  1
  S  S15  1  0.28875584  0.73805835  0.89887002  1
  S  S16  1  0.28875636  0.10112641  0.83917932  1
  S  S17  1  0.28875874  0.16080645  0.26194320  1
  S  S18  1  0.00545258  0.42011091  0.89957351  1
  S  S19  1  0.00547592  0.10045587  0.52054791  1
  S  S20  1  0.00545522  0.47947546  0.57989549  1
  S  S21  1  0.50545258  0.57988909  0.10042649  1
  S  S22  1  0.50547592  0.89954413  0.47945209  1
  S  S23  1  0.50545522  0.52052454  0.42010451  1
