# generated using pymatgen
data_La3InNiS7
_symmetry_space_group_name_H-M   'P 1'
_cell_length_a   6.32981508
_cell_length_b   10.17726235
_cell_length_c   10.17579804
_cell_angle_alpha   120.02412597
_cell_angle_beta   90.00000000
_cell_angle_gamma   90.00000000
_symmetry_Int_Tables_number   1
_chemical_formula_structural   La3InNiS7
_chemical_formula_sum   'La6 In2 Ni2 S14'
_cell_volume   567.56482334
_cell_formula_units_Z   2
loop_
 _symmetry_equiv_pos_site_id
 _symmetry_equiv_pos_as_xyz
  1  'x, y, z'
loop_
 _atom_site_type_symbol
 _atom_site_label
 _atom_site_symmetry_multiplicity
 _atom_site_fract_x
 _atom_site_fract_y
 _atom_site_fract_z
 _atom_site_occupancy
  La  La0  1  0.30762037  0.85292578  0.22358339  1
  La  La1  1  0.30775461  0.77619838  0.62961361  1
  La  La2  1  0.30772144  0.37044168  0.14685962  1
  La  La3  1  0.80762037  0.14707422  0.77641661  1
  La  La4  1  0.80775461  0.22380162  0.37038639  1
  La  La5  1  0.80772144  0.62955832  0.85314038  1
  In  In6  1  0.37923183  0.33350426  0.66674033  1
  In  In7  1  0.87923183  0.66649574  0.33325967  1
  Ni  Ni8  1  0.49553834  0.00014632  0.00018559  1
  Ni  Ni9  1  0.99553834  0.99985368  0.99981441  1
  S  S10  1  0.22825476  0.12870605  0.21696360  1
  S  S11  1  0.22805119  0.78237375  0.91167667  1
  S  S12  1  0.22830597  0.08824758  0.87091443  1
  S  S13  1  0.72825476  0.87129395  0.78303640  1
  S  S14  1  0.72805119  0.21762625  0.08832333  1
  S  S15  1  0.72830597  0.91175242  0.12908557  1
  S  S16  1  0.04710962  0.56992419  0.08096585  1
  S  S17  1  0.04733912  0.91865029  0.48934221  1
  S  S18  1  0.04734878  0.51068597  0.42963616  1
  S  S19  1  0.54710962  0.43007581  0.91903415  1
  S  S20  1  0.54733912  0.08134971  0.51065779  1
  S  S21  1  0.54734878  0.48931403  0.57036384  1
  S  S22  1  0.99615397  0.33318495  0.66654696  1
  S  S23  1  0.49615397  0.66681505  0.33345304  1
