# generated using pymatgen
data_Y2Co17H3
_symmetry_space_group_name_H-M   'P 1'
_cell_length_a   6.29826637
_cell_length_b   6.29826637
_cell_length_c   6.29826671
_cell_angle_alpha   83.48489296
_cell_angle_beta   83.48489296
_cell_angle_gamma   83.48488643
_symmetry_Int_Tables_number   1
_chemical_formula_structural   Y2Co17H3
_chemical_formula_sum   'Y2 Co17 H3'
_cell_volume   245.34027330
_cell_formula_units_Z   1
loop_
 _symmetry_equiv_pos_site_id
 _symmetry_equiv_pos_as_xyz
  1  'x, y, z'
loop_
 _atom_site_type_symbol
 _atom_site_label
 _atom_site_symmetry_multiplicity
 _atom_site_fract_x
 _atom_site_fract_y
 _atom_site_fract_z
 _atom_site_occupancy
  Y  Y0  1  0.65622837  0.65622837  0.65622837  1
  Y  Y1  1  0.34377163  0.34377163  0.34377163  1
  Co  Co2  1  0.00000000  -0.00000000  0.50000000  1
  Co  Co3  1  0.00000000  0.50000000  -0.00000000  1
  Co  Co4  1  0.50000000  -0.00000000  -0.00000000  1
  Co  Co5  1  0.28405101  0.71594899  -0.00000000  1
  Co  Co6  1  0.71594899  1.00000000  0.28405101  1
  Co  Co7  1  0.00000000  0.28405101  0.71594899  1
  Co  Co8  1  0.28405101  0.00000000  0.71594899  1
  Co  Co9  1  1.00000000  0.71594899  0.28405101  1
  Co  Co10  1  0.71594899  0.28405101  -0.00000000  1
  Co  Co11  1  0.34550175  0.34550175  0.85363387  1
  Co  Co12  1  0.34550175  0.85363387  0.34550175  1
  Co  Co13  1  0.85363387  0.34550175  0.34550175  1
  Co  Co14  1  0.65449825  0.65449825  0.14636613  1
  Co  Co15  1  0.65449825  0.14636613  0.65449825  1
  Co  Co16  1  0.14636613  0.65449825  0.65449825  1
  Co  Co17  1  0.90392835  0.90392835  0.90392835  1
  Co  Co18  1  0.09607165  0.09607165  0.09607165  1
  H  H19  1  0.50000000  0.50000000  -0.00000000  1
  H  H20  1  0.50000000  -0.00000000  0.50000000  1
  H  H21  1  0.00000000  0.50000000  0.50000000  1
