# generated using pymatgen
data_PrVO4
_symmetry_space_group_name_H-M   'P 1'
_cell_length_a   6.74607329
_cell_length_b   7.11341300
_cell_length_c   7.29980341
_cell_angle_alpha   90.00000000
_cell_angle_beta   90.00000000
_cell_angle_gamma   105.58083313
_symmetry_Int_Tables_number   1
_chemical_formula_structural   PrVO4
_chemical_formula_sum   'Pr4 V4 O16'
_cell_volume   337.42742435
_cell_formula_units_Z   4
loop_
 _symmetry_equiv_pos_site_id
 _symmetry_equiv_pos_as_xyz
  1  'x, y, z'
loop_
 _atom_site_type_symbol
 _atom_site_label
 _atom_site_symmetry_multiplicity
 _atom_site_fract_x
 _atom_site_fract_y
 _atom_site_fract_z
 _atom_site_occupancy
  Pr  Pr0  1  0.40239303  0.21863785  0.65438916  1
  Pr  Pr1  1  0.90239303  0.71863785  0.84561084  1
  Pr  Pr2  1  0.59760697  0.78136215  0.34561084  1
  Pr  Pr3  1  0.09760697  0.28136215  0.15438916  1
  V  V4  1  0.88791199  0.19657801  0.66513197  1
  V  V5  1  0.38791199  0.69657801  0.83486803  1
  V  V6  1  0.11208801  0.80342199  0.33486803  1
  V  V7  1  0.61208801  0.30342199  0.16513197  1
  O  O8  1  0.07871340  0.24896737  0.49589752  1
  O  O9  1  0.57871340  0.74896737  0.00410248  1
  O  O10  1  0.92128660  0.75103263  0.50410248  1
  O  O11  1  0.42128660  0.25103263  0.99589752  1
  O  O12  1  0.00357819  0.10818049  0.84664752  1
  O  O13  1  0.50357819  0.60818049  0.65335248  1
  O  O14  1  0.99642181  0.89181951  0.15335248  1
  O  O15  1  0.49642181  0.39181951  0.34664752  1
  O  O16  1  0.66937807  0.01493177  0.60572400  1
  O  O17  1  0.16937807  0.51493177  0.89427600  1
  O  O18  1  0.33062193  0.98506823  0.39427600  1
  O  O19  1  0.83062193  0.48506823  0.10572400  1
  O  O20  1  0.77245510  0.38055486  0.72066258  1
  O  O21  1  0.27245510  0.88055486  0.77933742  1
  O  O22  1  0.22754490  0.61944514  0.27933742  1
  O  O23  1  0.72754490  0.11944514  0.22066258  1
