# generated using pymatgen
data_KTeO4
_symmetry_space_group_name_H-M   'P 1'
_cell_length_a   5.16916435
_cell_length_b   6.51049555
_cell_length_c   11.48554352
_cell_angle_alpha   90.00000000
_cell_angle_beta   90.00000000
_cell_angle_gamma   91.83269835
_symmetry_Int_Tables_number   1
_chemical_formula_structural   KTeO4
_chemical_formula_sum   'K4 Te4 O16'
_cell_volume   386.33470907
_cell_formula_units_Z   4
loop_
 _symmetry_equiv_pos_site_id
 _symmetry_equiv_pos_as_xyz
  1  'x, y, z'
loop_
 _atom_site_type_symbol
 _atom_site_label
 _atom_site_symmetry_multiplicity
 _atom_site_fract_x
 _atom_site_fract_y
 _atom_site_fract_z
 _atom_site_occupancy
  K  K0  1  0.23925324  0.98920964  0.83923128  1
  K  K1  1  0.76074676  0.51079036  0.33923128  1
  K  K2  1  0.76074676  0.01079036  0.16076872  1
  K  K3  1  0.23925324  0.48920964  0.66076872  1
  Te  Te4  1  0.25062061  0.50664487  0.07700375  1
  Te  Te5  1  0.74937939  0.99335513  0.57700375  1
  Te  Te6  1  0.74937939  0.49335513  0.92299625  1
  Te  Te7  1  0.25062061  0.00664487  0.42299625  1
  O  O8  1  0.93971890  0.66879280  0.04626675  1
  O  O9  1  0.06028110  0.83120720  0.54626675  1
  O  O10  1  0.06028110  0.33120720  0.95373325  1
  O  O11  1  0.93971890  0.16879280  0.45373325  1
  O  O12  1  0.43811184  0.66016794  0.94578510  1
  O  O13  1  0.56188816  0.83983206  0.44578510  1
  O  O14  1  0.56188816  0.33983206  0.05421490  1
  O  O15  1  0.43811184  0.16016794  0.55421490  1
  O  O16  1  0.40688000  0.70350667  0.18096334  1
  O  O17  1  0.59312000  0.79649333  0.68096334  1
  O  O18  1  0.59312000  0.29649333  0.81903666  1
  O  O19  1  0.40688000  0.20350667  0.31903666  1
  O  O20  1  0.89844158  0.66972191  0.80767510  1
  O  O21  1  0.10155842  0.83027809  0.30767510  1
  O  O22  1  0.10155842  0.33027809  0.19232490  1
  O  O23  1  0.89844158  0.16972191  0.69232490  1
