# generated using pymatgen
data_Y3BeCrS7
_symmetry_space_group_name_H-M   'P 1'
_cell_length_a   6.00609967
_cell_length_b   9.58857513
_cell_length_c   9.58869236
_cell_angle_alpha   119.99861653
_cell_angle_beta   90.00000000
_cell_angle_gamma   90.00000000
_symmetry_Int_Tables_number   1
_chemical_formula_structural   Y3BeCrS7
_chemical_formula_sum   'Y6 Be2 Cr2 S14'
_cell_volume   478.23645795
_cell_formula_units_Z   2
loop_
 _symmetry_equiv_pos_site_id
 _symmetry_equiv_pos_as_xyz
  1  'x, y, z'
loop_
 _atom_site_type_symbol
 _atom_site_label
 _atom_site_symmetry_multiplicity
 _atom_site_fract_x
 _atom_site_fract_y
 _atom_site_fract_z
 _atom_site_occupancy
  Y  Y0  1  0.26508831  0.24497949  0.39302834  1
  Y  Y1  1  0.26506558  0.60698267  0.85196166  1
  Y  Y2  1  0.26507742  0.14805266  0.75500574  1
  Y  Y3  1  0.76508831  0.75502051  0.60697166  1
  Y  Y4  1  0.76506558  0.39301733  0.14803834  1
  Y  Y5  1  0.76507742  0.85194734  0.24499426  1
  Be  Be6  1  0.84816769  0.33332058  0.66665935  1
  Be  Be7  1  0.34816769  0.66667942  0.33334065  1
  Cr  Cr8  1  0.46091482  0.00007864  0.00003940  1
  Cr  Cr9  1  0.96091482  0.99992136  0.99996060  1
  S  S10  1  0.70386180  0.13849332  0.22687805  1
  S  S11  1  0.70379710  0.77314229  0.91161101  1
  S  S12  1  0.70383053  0.08841059  0.86152074  1
  S  S13  1  0.20386180  0.86150668  0.77312195  1
  S  S14  1  0.20379710  0.22685771  0.08838899  1
  S  S15  1  0.20383053  0.91158941  0.13847926  1
  S  S16  1  0.98461218  0.10285013  0.52010947  1
  S  S17  1  0.98461225  0.47988457  0.58275732  1
  S  S18  1  0.98461724  0.41723862  0.89713052  1
  S  S19  1  0.48461218  0.89714987  0.47989053  1
  S  S20  1  0.48461225  0.52011543  0.41724268  1
  S  S21  1  0.48461724  0.58276138  0.10286948  1
  S  S22  1  0.49835509  0.33333863  0.66665585  1
  S  S23  1  0.99835509  0.66666137  0.33334415  1
