# generated using pymatgen
data_Pr2AlCo2
_symmetry_space_group_name_H-M   'P 1'
_cell_length_a   4.02136403
_cell_length_b   5.63015774
_cell_length_c   5.66225001
_cell_angle_alpha   119.81268847
_cell_angle_beta   110.79975761
_cell_angle_gamma   90.00000000
_symmetry_Int_Tables_number   1
_chemical_formula_structural   Pr2AlCo2
_chemical_formula_sum   'Pr2 Al1 Co2'
_cell_volume   101.48980991
_cell_formula_units_Z   1
loop_
 _symmetry_equiv_pos_site_id
 _symmetry_equiv_pos_as_xyz
  1  'x, y, z'
loop_
 _atom_site_type_symbol
 _atom_site_label
 _atom_site_symmetry_multiplicity
 _atom_site_fract_x
 _atom_site_fract_y
 _atom_site_fract_z
 _atom_site_occupancy
  Al  Al0  1  0.00000000  0.00000000  0.00000000  1
  Co  Co1  1  0.50000000  0.26963004  0.00000000  1
  Co  Co2  1  0.50000000  0.73036996  0.00000000  1
  Pr  Pr3  1  0.19823731  0.69823731  0.39647462  1
  Pr  Pr4  1  0.80176269  0.30176269  0.60352538  1
