# generated using pymatgen
data_Mg(BH4)2
_symmetry_space_group_name_H-M   'P 1'
_cell_length_a   5.64910893
_cell_length_b   5.64910893
_cell_length_c   6.04081816
_cell_angle_alpha   90.00000000
_cell_angle_beta   90.00000000
_cell_angle_gamma   90.00000000
_symmetry_Int_Tables_number   1
_chemical_formula_structural   Mg(BH4)2
_chemical_formula_sum   'Mg2 B4 H16'
_cell_volume   192.77719696
_cell_formula_units_Z   2
loop_
 _symmetry_equiv_pos_site_id
 _symmetry_equiv_pos_as_xyz
  1  'x, y, z'
loop_
 _atom_site_type_symbol
 _atom_site_label
 _atom_site_symmetry_multiplicity
 _atom_site_fract_x
 _atom_site_fract_y
 _atom_site_fract_z
 _atom_site_occupancy
  Mg  Mg0  1  0.50000000  0.50000000  0.49970231  1
  Mg  Mg1  1  -0.00000000  0.00000000  0.99970231  1
  B  B2  1  0.23940099  0.76059901  0.74409669  1
  B  B3  1  0.76059901  0.23940099  0.74409669  1
  B  B4  1  0.73940099  0.73940099  0.24409669  1
  B  B5  1  0.26059901  0.26059901  0.24409669  1
  H  H6  1  0.04025934  0.69959918  0.80300593  1
  H  H7  1  0.95974066  0.30040082  0.80300593  1
  H  H8  1  0.54025934  0.80040082  0.30300593  1
  H  H9  1  0.45974066  0.19959918  0.30300593  1
  H  H10  1  0.30040082  0.95974066  0.80300593  1
  H  H11  1  0.69959918  0.04025934  0.80300593  1
  H  H12  1  0.80040082  0.54025934  0.30300593  1
  H  H13  1  0.19959918  0.45974066  0.30300593  1
  H  H14  1  0.37963649  0.62036351  0.82344978  1
  H  H15  1  0.62036351  0.37963649  0.82344978  1
  H  H16  1  0.87963649  0.87963649  0.32344978  1
  H  H17  1  0.12036351  0.12036351  0.32344978  1
  H  H18  1  0.23348904  0.76651096  0.54389051  1
  H  H19  1  0.76651096  0.23348904  0.54389051  1
  H  H20  1  0.73348904  0.73348904  0.04389051  1
  H  H21  1  0.26651096  0.26651096  0.04389051  1
