# generated using pymatgen
data_Li5Cu4(BO3)4
_symmetry_space_group_name_H-M   'P 1'
_cell_length_a   5.16929419
_cell_length_b   5.16024013
_cell_length_c   10.26588350
_cell_angle_alpha   88.37676820
_cell_angle_beta   89.96394563
_cell_angle_gamma   60.24753338
_symmetry_Int_Tables_number   1
_chemical_formula_structural   Li5Cu4(BO3)4
_chemical_formula_sum   'Li5 Cu4 B4 O12'
_cell_volume   237.61819166
_cell_formula_units_Z   1
loop_
 _symmetry_equiv_pos_site_id
 _symmetry_equiv_pos_as_xyz
  1  'x, y, z'
loop_
 _atom_site_type_symbol
 _atom_site_label
 _atom_site_symmetry_multiplicity
 _atom_site_fract_x
 _atom_site_fract_y
 _atom_site_fract_z
 _atom_site_occupancy
  Li  Li0  1  0.29955845  0.66422342  0.33202003  1
  Li  Li1  1  0.33272287  0.66269416  0.92292205  1
  Li  Li2  1  0.66239354  0.31171703  0.15336551  1
  Li  Li3  1  0.63085880  0.34639612  0.52734912  1
  Li  Li4  1  0.66893654  0.37159889  0.71708817  1
  Cu  Cu5  1  0.99663308  0.67821456  0.62820556  1
  Cu  Cu6  1  0.32581274  0.02496291  0.12727592  1
  Cu  Cu7  1  0.67953374  0.96793575  0.88387108  1
  Cu  Cu8  1  0.03673977  0.32331795  0.36836779  1
  B  B9  1  0.01038861  0.34246807  0.88501760  1
  B  B10  1  0.33581285  0.00465031  0.62379363  1
  B  B11  1  0.66137420  0.98199732  0.36643755  1
  B  B12  1  0.99537730  0.65957738  0.12713953  1
  O  O13  1  0.05273926  0.25046040  0.59268600  1
  O  O14  1  0.26363619  0.08100017  0.92700479  1
  O  O15  1  0.04154078  0.58382768  0.83627968  1
  O  O16  1  0.57227302  0.05601361  0.65513169  1
  O  O17  1  0.26771360  0.64294682  0.12760563  1
  O  O18  1  0.38073926  0.71842488  0.62114032  1
  O  O19  1  0.64132921  0.25735605  0.35491451  1
  O  O20  1  0.73834998  0.36017879  0.89018176  1
  O  O21  1  0.41960077  0.95131929  0.32705272  1
  O  O22  1  0.96616979  0.41559566  0.16776118  1
  O  O23  1  0.74399323  0.92140751  0.08744939  1
  O  O24  1  0.91917045  0.73631528  0.41713879  1
