# generated using pymatgen
data_Mg14ZrNb
_symmetry_space_group_name_H-M   'P 1'
_cell_length_a   6.40516056
_cell_length_b   6.40516004
_cell_length_c   9.97975769
_cell_angle_alpha   90.00000000
_cell_angle_beta   90.00000000
_cell_angle_gamma   120.00000268
_symmetry_Int_Tables_number   1
_chemical_formula_structural   Mg14ZrNb
_chemical_formula_sum   'Mg14 Zr1 Nb1'
_cell_volume   354.57705042
_cell_formula_units_Z   1
loop_
 _symmetry_equiv_pos_site_id
 _symmetry_equiv_pos_as_xyz
  1  'x, y, z'
loop_
 _atom_site_type_symbol
 _atom_site_label
 _atom_site_symmetry_multiplicity
 _atom_site_fract_x
 _atom_site_fract_y
 _atom_site_fract_z
 _atom_site_occupancy
  Mg  Mg0  1  0.17081538  0.83540719  0.12500000  1
  Mg  Mg1  1  0.16745341  0.83372621  0.62500000  1
  Mg  Mg2  1  0.66459281  0.32918462  0.12500000  1
  Mg  Mg3  1  0.66627379  0.33254659  0.62500000  1
  Mg  Mg4  1  0.66459281  0.83540719  0.12500000  1
  Mg  Mg5  1  0.66627379  0.83372621  0.62500000  1
  Mg  Mg6  1  0.32852940  0.17147060  0.37934590  1
  Mg  Mg7  1  0.32852940  0.17147060  0.87065410  1
  Mg  Mg8  1  0.32852940  0.65705981  0.37934590  1
  Mg  Mg9  1  0.32852940  0.65705981  0.87065410  1
  Mg  Mg10  1  0.84294019  0.17147060  0.37934590  1
  Mg  Mg11  1  0.84294019  0.17147060  0.87065410  1
  Mg  Mg12  1  0.83333300  0.66666700  0.37333677  1
  Mg  Mg13  1  0.83333300  0.66666700  0.87666323  1
  Zr  Zr14  1  0.16666700  0.33333300  0.12500000  1
  Nb  Nb15  1  0.16666700  0.33333300  0.62500000  1
