# generated using pymatgen
data_Sm2Zr2O7
_symmetry_space_group_name_H-M   'P 1'
_cell_length_a   7.52438033
_cell_length_b   7.08599433
_cell_length_c   13.35321041
_cell_angle_alpha   90.00000000
_cell_angle_beta   114.89043591
_cell_angle_gamma   90.00000000
_symmetry_Int_Tables_number   1
_chemical_formula_structural   Sm2Zr2O7
_chemical_formula_sum   'Sm8 Zr8 O28'
_cell_volume   645.83152058
_cell_formula_units_Z   4
loop_
 _symmetry_equiv_pos_site_id
 _symmetry_equiv_pos_as_xyz
  1  'x, y, z'
loop_
 _atom_site_type_symbol
 _atom_site_label
 _atom_site_symmetry_multiplicity
 _atom_site_fract_x
 _atom_site_fract_y
 _atom_site_fract_z
 _atom_site_occupancy
  Sm  Sm0  1  0.16037431  0.88628366  0.63786162  1
  Sm  Sm1  1  0.33962569  0.38628366  0.86213838  1
  Sm  Sm2  1  0.13504377  0.67428364  0.38538510  1
  Sm  Sm3  1  0.36495623  0.17428364  0.11461490  1
  Sm  Sm4  1  0.63504377  0.82571636  0.88538510  1
  Sm  Sm5  1  0.86495623  0.32571636  0.61461490  1
  Sm  Sm6  1  0.66037431  0.61371634  0.13786162  1
  Sm  Sm7  1  0.83962569  0.11371634  0.36213838  1
  Zr  Zr8  1  0.14918370  0.85775841  0.89759958  1
  Zr  Zr9  1  0.35081630  0.35775841  0.60240042  1
  Zr  Zr10  1  0.33205272  0.10839349  0.38758387  1
  Zr  Zr11  1  0.16794728  0.60839349  0.11241613  1
  Zr  Zr12  1  0.83205272  0.39160651  0.88758387  1
  Zr  Zr13  1  0.66794728  0.89160651  0.61241613  1
  Zr  Zr14  1  0.64918370  0.64224159  0.39759958  1
  Zr  Zr15  1  0.85081630  0.14224159  0.10240042  1
  O  O16  1  0.94736190  0.68103252  0.93697773  1
  O  O17  1  0.19689745  0.22869503  0.67461400  1
  O  O18  1  0.30554785  0.10007479  0.93061082  1
  O  O19  1  0.06802463  0.06323361  0.25041951  1
  O  O20  1  0.00438219  0.60730497  0.19974577  1
  O  O21  1  0.19445215  0.60007479  0.56938918  1
  O  O22  1  0.15691440  0.98663231  0.46857405  1
  O  O23  1  0.30310255  0.72869503  0.82538600  1
  O  O24  1  0.24709439  0.36810111  0.42394190  1
  O  O25  1  0.56802463  0.43676639  0.75041951  1
  O  O26  1  0.55263810  0.18103252  0.56302227  1
  O  O27  1  0.50438219  0.89269503  0.69974577  1
  O  O28  1  0.25290561  0.86810111  0.07605810  1
  O  O29  1  0.65691440  0.51336769  0.96857405  1
  O  O30  1  0.34308560  0.48663231  0.03142595  1
  O  O31  1  0.74709439  0.13189889  0.92394190  1
  O  O32  1  0.49561781  0.10730497  0.30025423  1
  O  O33  1  0.44736190  0.81896748  0.43697773  1
  O  O34  1  0.43197537  0.56323361  0.24958049  1
  O  O35  1  0.75290561  0.63189889  0.57605810  1
  O  O36  1  0.69689745  0.27130497  0.17461400  1
  O  O37  1  0.84308560  0.01336769  0.53142595  1
  O  O38  1  0.80554785  0.39992521  0.43061082  1
  O  O39  1  0.99561781  0.39269503  0.80025423  1
  O  O40  1  0.93197537  0.93676639  0.74958049  1
  O  O41  1  0.69445215  0.89992521  0.06938918  1
  O  O42  1  0.80310255  0.77130497  0.32538600  1
  O  O43  1  0.05263810  0.31896748  0.06302227  1
