# generated using pymatgen
data_CeCO4
_symmetry_space_group_name_H-M   'P 1'
_cell_length_a   10.16942734
_cell_length_b   11.79575006
_cell_length_c   11.79578954
_cell_angle_alpha   119.99951428
_cell_angle_beta   90.00000000
_cell_angle_gamma   90.00000000
_symmetry_Int_Tables_number   1
_chemical_formula_structural   CeCO4
_chemical_formula_sum   'Ce18 C18 O72'
_cell_volume   1225.41116216
_cell_formula_units_Z   18
loop_
 _symmetry_equiv_pos_site_id
 _symmetry_equiv_pos_as_xyz
  1  'x, y, z'
loop_
 _atom_site_type_symbol
 _atom_site_label
 _atom_site_symmetry_multiplicity
 _atom_site_fract_x
 _atom_site_fract_y
 _atom_site_fract_z
 _atom_site_occupancy
  Ce  Ce0  1  0.24610723  0.89050518  0.77419410  1
  Ce  Ce1  1  0.24611200  0.22580168  0.11631486  1
  Ce  Ce2  1  0.24610732  0.88368687  0.10949511  1
  Ce  Ce3  1  0.75389277  0.89050518  0.77419410  1
  Ce  Ce4  1  0.75388800  0.22580168  0.11631486  1
  Ce  Ce5  1  0.75389268  0.88368687  0.10949511  1
  Ce  Ce6  1  0.25477030  0.21586837  0.44044360  1
  Ce  Ce7  1  0.25476884  0.55955679  0.77542277  1
  Ce  Ce8  1  0.25476566  0.22458662  0.78413606  1
  Ce  Ce9  1  0.74522970  0.21586837  0.44044360  1
  Ce  Ce10  1  0.74523116  0.55955679  0.77542277  1
  Ce  Ce11  1  0.74523434  0.22458662  0.78413606  1
  Ce  Ce12  1  0.25142730  0.89273227  0.44658354  1
  Ce  Ce13  1  0.25142808  0.55341031  0.44613869  1
  Ce  Ce14  1  0.25143276  0.55386052  0.10727022  1
  Ce  Ce15  1  0.74857270  0.89273227  0.44658354  1
  Ce  Ce16  1  0.74857192  0.55341031  0.44613869  1
  Ce  Ce17  1  0.74856724  0.55386052  0.10727022  1
  C  C18  1  0.00000000  0.35507879  0.49734484  1
  C  C19  1  0.00000000  0.50265777  0.85773447  1
  C  C20  1  0.00000000  0.14226737  0.64492195  1
  C  C21  1  0.00000000  0.79618614  0.87926156  1
  C  C22  1  0.00000000  0.12073805  0.91692538  1
  C  C23  1  0.00000000  0.08307635  0.20381519  1
  C  C24  1  0.00000000  0.82768463  0.52736918  1
  C  C25  1  0.00000000  0.47262797  0.30031523  1
  C  C26  1  0.00000000  0.69968384  0.17231577  1
  C  C27  1  0.50000000  0.12868582  0.58438064  1
  C  C28  1  0.50000000  0.41561803  0.54430273  1
  C  C29  1  0.50000000  0.45569945  0.87131774  1
  C  C30  1  0.50000000  0.75646681  0.21858050  1
  C  C31  1  0.50000000  0.78142728  0.53788919  1
  C  C32  1  0.50000000  0.46210874  0.24353312  1
  C  C33  1  0.50000000  0.80510370  0.82937717  1
  C  C34  1  0.50000000  0.17061980  0.97572495  1
  C  C35  1  0.50000000  0.02427099  0.19489804  1
  O  O36  1  0.00000000  0.24157148  0.48841973  1
  O  O37  1  0.00000000  0.51157847  0.75315109  1
  O  O38  1  0.00000000  0.24685101  0.75843014  1
  O  O39  1  0.11176688  0.40739700  0.49860736  1
  O  O40  1  0.11176920  0.50139638  0.90879431  1
  O  O41  1  0.11177128  0.09120940  0.59260004  1
  O  O42  1  0.88823312  0.40739700  0.49860736  1
  O  O43  1  0.88823080  0.50139638  0.90879431  1
  O  O44  1  0.88822872  0.09120940  0.59260004  1
  O  O45  1  0.00000000  0.86258992  0.82068474  1
  O  O46  1  0.00000000  0.17930856  0.04189960  1
  O  O47  1  0.00000000  0.95810546  0.13741860  1
  O  O48  1  0.11083792  0.09084891  0.85340439  1
  O  O49  1  0.11082883  0.14658925  0.23744055  1
  O  O50  1  0.11083647  0.76255978  0.90915152  1
  O  O51  1  0.88916208  0.09084891  0.85340439  1
  O  O52  1  0.88917117  0.14658925  0.23744055  1
  O  O53  1  0.88916353  0.76255978  0.90915152  1
  O  O54  1  0.00000000  0.84133714  0.42587910  1
  O  O55  1  0.00000000  0.57412043  0.41545306  1
  O  O56  1  0.00000000  0.58454580  0.15866434  1
  O  O57  1  0.11156416  0.82381918  0.57734662  1
  O  O58  1  0.11156580  0.42264738  0.24646971  1
  O  O59  1  0.11156252  0.75352763  0.17618369  1
  O  O60  1  0.88843584  0.82381918  0.57734662  1
  O  O61  1  0.88843420  0.42264738  0.24646971  1
  O  O62  1  0.88843748  0.75352763  0.17618369  1
  O  O63  1  0.50000000  0.29077780  0.48959954  1
  O  O64  1  0.50000000  0.51039883  0.80117727  1
  O  O65  1  0.50000000  0.19882532  0.70921624  1
  O  O66  1  0.38931207  0.09327126  0.52069582  1
  O  O67  1  0.38930910  0.47930566  0.57257411  1
  O  O68  1  0.38930820  0.42742825  0.90673660  1
  O  O69  1  0.61068793  0.09327126  0.52069582  1
  O  O70  1  0.61069090  0.47930566  0.57257411  1
  O  O71  1  0.61069180  0.42742825  0.90673660  1
  O  O72  1  0.50000000  0.84581198  0.47707041  1
  O  O73  1  0.50000000  0.52293322  0.36873571  1
  O  O74  1  0.50000000  0.63126469  0.15419879  1
  O  O75  1  0.38926237  0.82030031  0.25111096  1
  O  O76  1  0.38926387  0.74889367  0.56918972  1
  O  O77  1  0.38926196  0.43080286  0.17969588  1
  O  O78  1  0.61073763  0.82030031  0.25111096  1
  O  O79  1  0.61073613  0.74889367  0.56918972  1
  O  O80  1  0.61073804  0.43080286  0.17969588  1
  O  O81  1  0.50000000  0.90973427  0.82069686  1
  O  O82  1  0.50000000  0.17929739  0.08903319  1
  O  O83  1  0.50000000  0.91096420  0.09027076  1
  O  O84  1  0.38865948  0.75414875  0.83148592  1
  O  O85  1  0.38866041  0.16850993  0.92265935  1
  O  O86  1  0.38866373  0.07733655  0.24585023  1
  O  O87  1  0.61134052  0.75414875  0.83148592  1
  O  O88  1  0.61133959  0.16850993  0.92265935  1
  O  O89  1  0.61133627  0.07733655  0.24585023  1
  O  O90  1  0.25100200  -0.00000161  -0.00000155  1
  O  O91  1  0.74899800  -0.00000161  -0.00000155  1
  O  O92  1  0.25231508  0.33334334  0.66667570  1
  O  O93  1  0.74768492  0.33334334  0.66667570  1
  O  O94  1  0.24933613  0.66666439  0.33332921  1
  O  O95  1  0.75066387  0.66666439  0.33332921  1
  O  O96  1  0.29916369  0.32087403  0.32147513  1
  O  O97  1  0.29916233  0.67851816  0.99939768  1
  O  O98  1  0.29916202  0.00059809  0.67912343  1
  O  O99  1  0.70083631  0.32087403  0.32147513  1
  O  O100  1  0.70083767  0.67851816  0.99939768  1
  O  O101  1  0.70083798  0.00059809  0.67912343  1
  O  O102  1  0.20242978  0.00087449  0.34578880  1
  O  O103  1  0.20242910  0.65420682  0.65509264  1
  O  O104  1  0.20242882  0.34491278  0.99911987  1
  O  O105  1  0.79757022  0.00087449  0.34578880  1
  O  O106  1  0.79757090  0.65420682  0.65509264  1
  O  O107  1  0.79757118  0.34491278  0.99911987  1
