# generated using pymatgen
data_InH4CSeO7
_symmetry_space_group_name_H-M   'P 1'
_cell_length_a   5.39779685
_cell_length_b   7.25114662
_cell_length_c   9.47935987
_cell_angle_alpha   99.55227387
_cell_angle_beta   102.09686013
_cell_angle_gamma   105.87047019
_symmetry_Int_Tables_number   1
_chemical_formula_structural   InH4CSeO7
_chemical_formula_sum   'In2 H8 C2 Se2 O14'
_cell_volume   338.98321696
_cell_formula_units_Z   2
loop_
 _symmetry_equiv_pos_site_id
 _symmetry_equiv_pos_as_xyz
  1  'x, y, z'
loop_
 _atom_site_type_symbol
 _atom_site_label
 _atom_site_symmetry_multiplicity
 _atom_site_fract_x
 _atom_site_fract_y
 _atom_site_fract_z
 _atom_site_occupancy
  In  In0  1  0.88299771  0.95534670  0.67160276  1
  In  In1  1  0.11700229  0.04465330  0.32839724  1
  H  H2  1  0.20572348  0.72471384  0.61531515  1
  H  H3  1  0.79427652  0.27528616  0.38468485  1
  H  H4  1  0.11916712  0.68139091  0.76313723  1
  H  H5  1  0.88083288  0.31860909  0.23686277  1
  H  H6  1  0.61001146  0.30988723  0.02147463  1
  H  H7  1  0.38998854  0.69011277  0.97852537  1
  H  H8  1  0.84097888  0.51512433  0.07846418  1
  H  H9  1  0.15902112  0.48487567  0.92153582  1
  C  C10  1  0.13477111  0.08096316  0.01275016  1
  C  C11  1  0.86522889  0.91903684  0.98724984  1
  Se  Se12  1  0.47615169  0.69702695  0.36738710  1
  Se  Se13  1  0.52384831  0.30297305  0.63261290  1
  O  O14  1  0.05601764  0.71342767  0.66500949  1
  O  O15  1  0.94398236  0.28657233  0.33499051  1
  O  O16  1  0.46950143  0.73643884  0.55164313  1
  O  O17  1  0.53049857  0.26356116  0.44835687  1
  O  O18  1  0.20150379  0.12702057  0.89905646  1
  O  O19  1  0.79849621  0.87297943  0.10094354  1
  O  O20  1  0.72542323  0.84169981  0.85481523  1
  O  O21  1  0.27457677  0.15830019  0.14518477  1
  O  O22  1  0.74859448  0.20463604  0.71999944  1
  O  O23  1  0.25140552  0.79536396  0.28000056  1
  O  O24  1  0.79132422  0.87822621  0.41422987  1
  O  O25  1  0.20867578  0.12177379  0.58577013  1
  O  O26  1  0.79875085  0.37405460  0.07545133  1
  O  O27  1  0.20124915  0.62594540  0.92454867  1
