# generated using pymatgen
data_H36Pb3C10(I5N2)2
_symmetry_space_group_name_H-M   'P 1'
_cell_length_a   9.16150078
_cell_length_b   9.03045918
_cell_length_c   26.84944247
_cell_angle_alpha   99.68134692
_cell_angle_beta   90.00000000
_cell_angle_gamma   90.00000000
_symmetry_Int_Tables_number   1
_chemical_formula_structural   H36Pb3C10(I5N2)2
_chemical_formula_sum   'H72 Pb6 C20 I20 N8'
_cell_volume   2189.68759497
_cell_formula_units_Z   2
loop_
 _symmetry_equiv_pos_site_id
 _symmetry_equiv_pos_as_xyz
  1  'x, y, z'
loop_
 _atom_site_type_symbol
 _atom_site_label
 _atom_site_symmetry_multiplicity
 _atom_site_fract_x
 _atom_site_fract_y
 _atom_site_fract_z
 _atom_site_occupancy
  H  H0  1  0.90287153  0.32284782  0.84158936  1
  H  H1  1  0.09712847  0.48125846  0.15841064  1
  H  H2  1  0.59712847  0.82284782  0.84158936  1
  H  H3  1  0.40287153  0.98125846  0.15841064  1
  H  H4  1  0.01529724  0.24423657  0.87792542  1
  H  H5  1  0.98470276  0.36631114  0.12207458  1
  H  H6  1  0.48470276  0.74423657  0.87792542  1
  H  H7  1  0.51529724  0.86631114  0.12207458  1
  H  H8  1  0.87846773  0.35008071  0.90400557  1
  H  H9  1  0.12153227  0.44607514  0.09599443  1
  H  H10  1  0.62153227  0.85008071  0.90400557  1
  H  H11  1  0.37846773  0.94607514  0.09599443  1
  H  H12  1  0.98451595  0.57795039  0.87906609  1
  H  H13  1  0.01548405  0.69888431  0.12093391  1
  H  H14  1  0.51548405  0.07795039  0.87906609  1
  H  H15  1  0.48451595  0.19888431  0.12093391  1
  H  H16  1  0.10529664  0.49325282  0.91860579  1
  H  H17  1  0.89470336  0.57464702  0.08139421  1
  H  H18  1  0.39470336  0.99325282  0.91860579  1
  H  H19  1  0.60529664  0.07464702  0.08139421  1
  H  H20  1  0.13521622  0.46449141  0.85198732  1
  H  H21  1  0.86478378  0.61250408  0.14801268  1
  H  H22  1  0.36478378  0.96449141  0.85198732  1
  H  H23  1  0.63521622  0.11250408  0.14801268  1
  H  H24  1  0.58394298  0.76653065  0.69270566  1
  H  H25  1  0.41605702  0.07382499  0.30729434  1
  H  H26  1  0.91605702  0.26653065  0.69270566  1
  H  H27  1  0.08394298  0.57382499  0.30729434  1
  H  H28  1  0.61689403  0.90805002  0.66220121  1
  H  H29  1  0.38310597  0.24584881  0.33779879  1
  H  H30  1  0.88310597  0.40805002  0.66220121  1
  H  H31  1  0.11689403  0.74584881  0.33779879  1
  H  H32  1  0.45302825  0.89626682  0.68962943  1
  H  H33  1  0.54697175  0.20663739  0.31037057  1
  H  H34  1  0.04697175  0.39626682  0.68962943  1
  H  H35  1  0.95302825  0.70663739  0.31037057  1
  H  H36  1  0.40559325  0.65826187  0.63201022  1
  H  H37  1  0.59440675  0.02625165  0.36798978  1
  H  H38  1  0.09440675  0.15826187  0.63201022  1
  H  H39  1  0.90559325  0.52625165  0.36798978  1
  H  H40  1  0.57535211  0.68362798  0.60235319  1
  H  H41  1  0.42464789  0.08127479  0.39764681  1
  H  H42  1  0.92464789  0.18362798  0.60235319  1
  H  H43  1  0.07535211  0.58127479  0.39764681  1
  H  H44  1  0.47457089  0.93826708  0.58405380  1
  H  H45  1  0.52542911  0.35421328  0.41594620  1
  H  H46  1  0.02542911  0.43826708  0.58405380  1
  H  H47  1  0.97457089  0.85421328  0.41594620  1
  H  H48  1  0.30432409  0.88884005  0.60768883  1
  H  H49  1  0.69567591  0.28115122  0.39231117  1
  H  H50  1  0.19567591  0.38884005  0.60768883  1
  H  H51  1  0.80432409  0.78115122  0.39231117  1
  H  H52  1  0.46549833  0.72571192  0.51420427  1
  H  H53  1  0.53450167  0.21150765  0.48579573  1
  H  H54  1  0.03450167  0.22571192  0.51420427  1
  H  H55  1  0.96549833  0.71150765  0.48579573  1
  H  H56  1  0.31962914  0.64215541  0.54192419  1
  H  H57  1  0.68037086  0.10023122  0.45807581  1
  H  H58  1  0.18037086  0.14215541  0.54192419  1
  H  H59  1  0.81962914  0.60023122  0.45807581  1
  H  H60  1  0.23136820  0.77004775  0.47083136  1
  H  H61  1  0.76863180  0.29921638  0.52916864  1
  H  H62  1  0.26863180  0.27004775  0.47083136  1
  H  H63  1  0.73136820  0.79921638  0.52916864  1
  H  H64  1  0.15336481  0.85283706  0.52969709  1
  H  H65  1  0.84663519  0.32313997  0.47030291  1
  H  H66  1  0.34663519  0.35283706  0.52969709  1
  H  H67  1  0.65336481  0.82313997  0.47030291  1
  H  H68  1  0.29834337  0.94375826  0.50285218  1
  H  H69  1  0.70165663  0.44090607  0.49714782  1
  H  H70  1  0.20165663  0.44375826  0.50285218  1
  H  H71  1  0.79834337  0.94090607  0.49714782  1
  Pb  Pb72  1  -0.00000000  0.98616629  -0.00000000  1
  Pb  Pb73  1  0.50000000  0.48616629  0.00000000  1
  Pb  Pb74  1  0.00125087  0.85000477  0.75232224  1
  Pb  Pb75  1  0.99874913  0.09768253  0.24767776  1
  Pb  Pb76  1  0.49874913  0.35000477  0.75232224  1
  Pb  Pb77  1  0.50125087  0.59768253  0.24767776  1
  C  C78  1  0.05197686  0.47924368  0.88170839  1
  C  C79  1  0.94802314  0.59753529  0.11829161  1
  C  C80  1  0.44802314  0.97924368  0.88170839  1
  C  C81  1  0.55197686  0.09753529  0.11829161  1
  C  C82  1  0.48052733  0.74280487  0.62127348  1
  C  C83  1  0.51947267  0.12153140  0.37872652  1
  C  C84  1  0.01947267  0.24280487  0.62127348  1
  C  C85  1  0.98052733  0.62153140  0.37872652  1
  C  C86  1  0.40475221  0.84174394  0.58859222  1
  C  C87  1  0.59524779  0.25315172  0.41140778  1
  C  C88  1  0.09524779  0.34174394  0.58859222  1
  C  C89  1  0.90475221  0.75315172  0.41140778  1
  C  C90  1  0.36551118  0.75129499  0.53680355  1
  C  C91  1  0.63448882  0.21449144  0.46319645  1
  C  C92  1  0.13448882  0.25129499  0.53680355  1
  C  C93  1  0.86551118  0.71449144  0.46319645  1
  C  C94  1  0.25622392  0.83370865  0.50844633  1
  C  C95  1  0.74377608  0.32526231  0.49155367  1
  C  C96  1  0.24377608  0.33370865  0.50844633  1
  C  C97  1  0.75622392  0.82526231  0.49155367  1
  I  I98  1  0.02229911  0.93826620  0.87793812  1
  I  I99  1  0.97770089  0.06032808  0.12206188  1
  I  I100  1  0.47770089  0.43826620  0.87793812  1
  I  I101  1  0.52229911  0.56032808  0.12206188  1
  I  I102  1  0.23716130  0.58241271  0.73864803  1
  I  I103  1  0.76283870  0.84376468  0.26135197  1
  I  I104  1  0.26283870  0.08241271  0.73864803  1
  I  I105  1  0.73716130  0.34376468  0.26135197  1
  I  I106  1  0.73719277  0.62446744  0.76676322  1
  I  I107  1  0.26280723  0.85770422  0.23323678  1
  I  I108  1  0.76280723  0.12446744  0.76676322  1
  I  I109  1  0.23719277  0.35770422  0.23323678  1
  I  I110  1  0.24540884  0.24105627  0.01359096  1
  I  I111  1  0.75459116  0.22746531  0.98640904  1
  I  I112  1  0.25459116  0.74105627  0.01359096  1
  I  I113  1  0.74540884  0.72746531  0.98640904  1
  I  I114  1  0.93221251  0.79238225  0.63763133  1
  I  I115  1  0.06778749  0.15475092  0.36236867  1
  I  I116  1  0.56778749  0.29238225  0.63763133  1
  I  I117  1  0.43221251  0.65475092  0.36236867  1
  N  N118  1  0.95721270  0.34253621  0.87586863  1
  N  N119  1  0.04278730  0.46666757  0.12413137  1
  N  N120  1  0.54278730  0.84253621  0.87586863  1
  N  N121  1  0.45721270  0.96666757  0.12413137  1
  N  N122  1  0.53658458  0.83376127  0.66954441  1
  N  N123  1  0.46341542  0.16421686  0.33045559  1
  N  N124  1  0.96341542  0.33376127  0.66954441  1
  N  N125  1  0.03658458  0.66421686  0.33045559  1
