# generated using pymatgen
data_Sm2Ga9NiGe2
_symmetry_space_group_name_H-M   'P 1'
_cell_length_a   5.97386172
_cell_length_b   5.97386172
_cell_length_c   15.20833599
_cell_angle_alpha   90.00000000
_cell_angle_beta   90.00000000
_cell_angle_gamma   90.00000000
_symmetry_Int_Tables_number   1
_chemical_formula_structural   Sm2Ga9NiGe2
_chemical_formula_sum   'Sm4 Ga18 Ni2 Ge4'
_cell_volume   542.74024919
_cell_formula_units_Z   2
loop_
 _symmetry_equiv_pos_site_id
 _symmetry_equiv_pos_as_xyz
  1  'x, y, z'
loop_
 _atom_site_type_symbol
 _atom_site_label
 _atom_site_symmetry_multiplicity
 _atom_site_fract_x
 _atom_site_fract_y
 _atom_site_fract_z
 _atom_site_occupancy
  Sm  Sm0  1  0.75000000  0.25000000  0.74887343  1
  Sm  Sm1  1  0.25000000  0.75000000  0.74887343  1
  Sm  Sm2  1  0.25000000  0.75000000  0.25112657  1
  Sm  Sm3  1  0.75000000  0.25000000  0.25112657  1
  Ga  Ga4  1  0.51761322  0.51761322  0.91449466  1
  Ga  Ga5  1  0.98238678  0.51761322  0.91449466  1
  Ga  Ga6  1  0.51761322  0.98238678  0.91449466  1
  Ga  Ga7  1  0.98238678  0.98238678  0.91449466  1
  Ga  Ga8  1  0.48238678  0.48238678  0.08550534  1
  Ga  Ga9  1  0.01761322  0.48238678  0.08550534  1
  Ga  Ga10  1  0.48238678  0.01761322  0.08550534  1
  Ga  Ga11  1  0.01761322  0.01761322  0.08550534  1
  Ga  Ga12  1  0.52866488  0.52866488  0.58262586  1
  Ga  Ga13  1  0.97133512  0.52866488  0.58262586  1
  Ga  Ga14  1  0.52866488  0.97133512  0.58262586  1
  Ga  Ga15  1  0.97133512  0.97133512  0.58262586  1
  Ga  Ga16  1  0.47133512  0.47133512  0.41737414  1
  Ga  Ga17  1  0.02866488  0.47133512  0.41737414  1
  Ga  Ga18  1  0.47133512  0.02866488  0.41737414  1
  Ga  Ga19  1  0.02866488  0.02866488  0.41737414  1
  Ga  Ga20  1  0.75000000  0.75000000  0.34343942  1
  Ga  Ga21  1  0.25000000  0.25000000  0.65656058  1
  Ni  Ni22  1  0.75000000  0.25000000  0.00000000  1
  Ni  Ni23  1  0.25000000  0.75000000  0.00000000  1
  Ge  Ge24  1  0.75000000  0.75000000  0.18014285  1
  Ge  Ge25  1  0.25000000  0.25000000  0.81985715  1
  Ge  Ge26  1  0.75000000  0.75000000  0.77563538  1
  Ge  Ge27  1  0.25000000  0.25000000  0.22436462  1
