# generated using pymatgen
data_FeBiO3
_symmetry_space_group_name_H-M   'P 1'
_cell_length_a   5.61153179
_cell_length_b   7.94478540
_cell_length_c   9.81426779
_cell_angle_alpha   113.87589473
_cell_angle_beta   106.91210498
_cell_angle_gamma   90.00000000
_symmetry_Int_Tables_number   1
_chemical_formula_structural   FeBiO3
_chemical_formula_sum   'Fe6 Bi6 O18'
_cell_volume   379.31449064
_cell_formula_units_Z   6
loop_
 _symmetry_equiv_pos_site_id
 _symmetry_equiv_pos_as_xyz
  1  'x, y, z'
loop_
 _atom_site_type_symbol
 _atom_site_label
 _atom_site_symmetry_multiplicity
 _atom_site_fract_x
 _atom_site_fract_y
 _atom_site_fract_z
 _atom_site_occupancy
  Fe  Fe0  1  -0.00000000  0.00000000  0.50000000  1
  Fe  Fe1  1  -0.00000000  0.50000000  0.50000000  1
  Fe  Fe2  1  0.67488201  0.17015808  0.83334243  1
  Fe  Fe3  1  0.67488201  0.66318436  0.83334243  1
  Fe  Fe4  1  0.32511799  0.82984192  0.16665757  1
  Fe  Fe5  1  0.32511799  0.33681564  0.16665757  1
  Bi  Bi6  1  0.46819017  0.24893033  0.49786065  1
  Bi  Bi7  1  0.53180983  0.75106967  0.50213935  1
  Bi  Bi8  1  0.21532593  0.41740357  0.83480714  1
  Bi  Bi9  1  0.78467407  0.58259643  0.16519286  1
  Bi  Bi10  1  0.20497507  0.91505078  0.83010156  1
  Bi  Bi11  1  0.79502493  0.08494922  0.16989844  1
  O  O12  1  0.58004232  0.38432506  0.76865013  1
  O  O13  1  0.41995768  0.61567494  0.23134987  1
  O  O14  1  -0.00000000  0.28742356  0.00000000  1
  O  O15  1  -0.00000000  0.71257644  0.00000000  1
  O  O16  1  0.76441247  0.04934603  0.63596942  1
  O  O17  1  0.76441247  0.58662339  0.63596942  1
  O  O18  1  0.23558753  0.95065397  0.36403058  1
  O  O19  1  0.23558753  0.41337661  0.36403058  1
  O  O20  1  0.70701995  0.94189523  0.30332810  1
  O  O21  1  0.70701995  0.36143287  0.30332810  1
  O  O22  1  0.29298005  0.05810477  0.69667190  1
  O  O23  1  0.29298005  0.63856713  0.69667190  1
  O  O24  1  0.50000000  0.32046801  0.00000000  1
  O  O25  1  0.50000000  0.67953199  0.00000000  1
  O  O26  1  0.63184749  0.94316323  0.88632645  1
  O  O27  1  0.36815251  0.05683677  0.11367355  1
  O  O28  1  0.08204782  0.26898780  0.53797561  1
  O  O29  1  0.91795218  0.73101220  0.46202439  1
