# generated using pymatgen
data_FeH20C8NCl4
_symmetry_space_group_name_H-M   'P 1'
_cell_length_a   8.60774288
_cell_length_b   13.64342378
_cell_length_c   14.86931431
_cell_angle_alpha   90.00000000
_cell_angle_beta   90.00000000
_cell_angle_gamma   90.00000000
_symmetry_Int_Tables_number   1
_chemical_formula_structural   FeH20C8NCl4
_chemical_formula_sum   'Fe4 H80 C32 N4 Cl16'
_cell_volume   1746.23865080
_cell_formula_units_Z   4
loop_
 _symmetry_equiv_pos_site_id
 _symmetry_equiv_pos_as_xyz
  1  'x, y, z'
loop_
 _atom_site_type_symbol
 _atom_site_label
 _atom_site_symmetry_multiplicity
 _atom_site_fract_x
 _atom_site_fract_y
 _atom_site_fract_z
 _atom_site_occupancy
  Fe  Fe0  1  0.72114684  0.22227479  0.74073671  1
  Fe  Fe1  1  0.27885316  0.72227479  0.25926329  1
  Fe  Fe2  1  0.72114684  0.72227479  0.75926329  1
  Fe  Fe3  1  0.27885316  0.22227479  0.24073671  1
  H  H4  1  0.27230982  0.33128809  0.91485021  1
  H  H5  1  0.72769018  0.83128809  0.08514979  1
  H  H6  1  0.27230982  0.83128809  0.58514979  1
  H  H7  1  0.72769018  0.33128809  0.41485021  1
  H  H8  1  0.23817159  0.38172508  0.02339826  1
  H  H9  1  0.76182841  0.88172508  0.97660174  1
  H  H10  1  0.23817159  0.88172508  0.47660174  1
  H  H11  1  0.76182841  0.38172508  0.52339826  1
  H  H12  1  0.50185597  0.45899013  0.02312904  1
  H  H13  1  0.49814403  0.95899013  0.97687096  1
  H  H14  1  0.50185597  0.95899013  0.47687096  1
  H  H15  1  0.49814403  0.45899013  0.52312904  1
  H  H16  1  0.50471397  0.33091501  0.00467587  1
  H  H17  1  0.49528603  0.83091501  0.99532413  1
  H  H18  1  0.50471397  0.83091501  0.49532413  1
  H  H19  1  0.49528603  0.33091501  0.50467587  1
  H  H20  1  0.53847442  0.41041405  0.91290215  1
  H  H21  1  0.46152558  0.91041405  0.08709785  1
  H  H22  1  0.53847442  0.91041405  0.58709785  1
  H  H23  1  0.46152558  0.41041405  0.41290215  1
  H  H24  1  0.40458125  0.51048882  0.82848933  1
  H  H25  1  0.59541875  0.01048882  0.17151067  1
  H  H26  1  0.40458125  0.01048882  0.67151067  1
  H  H27  1  0.59541875  0.51048882  0.32848933  1
  H  H28  1  0.22532791  0.56467894  0.79628564  1
  H  H29  1  0.77467209  0.06467894  0.20371436  1
  H  H30  1  0.22532791  0.06467894  0.70371436  1
  H  H31  1  0.77467209  0.56467894  0.29628564  1
  H  H32  1  0.13003165  0.40420935  0.73626937  1
  H  H33  1  0.86996835  0.90420935  0.26373063  1
  H  H34  1  0.13003165  0.90420935  0.76373063  1
  H  H35  1  0.86996835  0.40420935  0.23626937  1
  H  H36  1  0.31238298  0.43903521  0.69129239  1
  H  H37  1  0.68761702  0.93903521  0.30870761  1
  H  H38  1  0.31238298  0.93903521  0.80870761  1
  H  H39  1  0.68761702  0.43903521  0.19129239  1
  H  H40  1  0.30537234  0.34511167  0.77235138  1
  H  H41  1  0.69462766  0.84511167  0.22764862  1
  H  H42  1  0.30537234  0.84511167  0.72764862  1
  H  H43  1  0.69462766  0.34511167  0.27235138  1
  H  H44  1  0.99529808  0.52066487  0.86928895  1
  H  H45  1  0.00470192  0.02066487  0.13071105  1
  H  H46  1  0.99529808  0.02066487  0.63071105  1
  H  H47  1  0.00470192  0.52066487  0.36928895  1
  H  H48  1  0.02989087  0.39236174  0.87594116  1
  H  H49  1  0.97010913  0.89236174  0.12405884  1
  H  H50  1  0.02989087  0.89236174  0.62405884  1
  H  H51  1  0.97010913  0.39236174  0.37594116  1
  H  H52  1  0.96457571  0.52760213  0.03886959  1
  H  H53  1  0.03542429  0.02760213  0.96113041  1
  H  H54  1  0.96457571  0.02760213  0.46113041  1
  H  H55  1  0.03542429  0.52760213  0.53886959  1
  H  H56  1  0.83585287  0.44679820  0.98409872  1
  H  H57  1  0.16414713  0.94679820  0.01590128  1
  H  H58  1  0.83585287  0.94679820  0.51590128  1
  H  H59  1  0.16414713  0.44679820  0.48409872  1
  H  H60  1  0.99556533  0.39836962  0.04463194  1
  H  H61  1  0.00443467  0.89836962  0.95536806  1
  H  H62  1  0.99556533  0.89836962  0.45536806  1
  H  H63  1  0.00443467  0.39836962  0.54463194  1
  H  H64  1  0.37727874  0.58349500  0.96828413  1
  H  H65  1  0.62272126  0.08349500  0.03171587  1
  H  H66  1  0.37727874  0.08349500  0.53171587  1
  H  H67  1  0.62272126  0.58349500  0.46828413  1
  H  H68  1  0.21997594  0.55348173  0.04059187  1
  H  H69  1  0.78002406  0.05348173  0.95940813  1
  H  H70  1  0.21997594  0.05348173  0.45940813  1
  H  H71  1  0.78002406  0.55348173  0.54059187  1
  H  H72  1  0.04203393  0.66234297  0.94818914  1
  H  H73  1  0.95796607  0.16234297  0.05181086  1
  H  H74  1  0.04203393  0.16234297  0.55181086  1
  H  H75  1  0.95796607  0.66234297  0.44818914  1
  H  H76  1  0.20699582  0.72203882  0.99272192  1
  H  H77  1  0.79300418  0.22203882  0.00727808  1
  H  H78  1  0.20699582  0.22203882  0.50727808  1
  H  H79  1  0.79300418  0.72203882  0.49272192  1
  H  H80  1  0.20162940  0.69285392  0.87678605  1
  H  H81  1  0.79837060  0.19285392  0.12321395  1
  H  H82  1  0.20162940  0.19285392  0.62321395  1
  H  H83  1  0.79837060  0.69285392  0.37678605  1
  C  C84  1  0.29729214  0.39358549  0.95905570  1
  C  C85  1  0.70270786  0.89358549  0.04094430  1
  C  C86  1  0.29729214  0.89358549  0.54094430  1
  C  C87  1  0.70270786  0.39358549  0.45905570  1
  C  C88  1  0.47138924  0.40154058  0.97498075  1
  C  C89  1  0.52861076  0.90154058  0.02501925  1
  C  C90  1  0.47138924  0.90154058  0.52501925  1
  C  C91  1  0.52861076  0.40154058  0.47498075  1
  C  C92  1  0.27986603  0.49709133  0.82049655  1
  C  C93  1  0.72013397  0.99709133  0.17950345  1
  C  C94  1  0.27986603  0.99709133  0.67950345  1
  C  C95  1  0.72013397  0.49709133  0.32049655  1
  C  C96  1  0.25262630  0.41510072  0.75284014  1
  C  C97  1  0.74737370  0.91510072  0.24715986  1
  C  C98  1  0.25262630  0.91510072  0.74715986  1
  C  C99  1  0.74737370  0.41510072  0.25284014  1
  C  C100  1  0.04369360  0.46224093  0.91151156  1
  C  C101  1  0.95630640  0.96224093  0.08848844  1
  C  C102  1  0.04369360  0.96224093  0.58848844  1
  C  C103  1  0.95630640  0.46224093  0.41151156  1
  C  C104  1  0.95847615  0.45870586  0.00120181  1
  C  C105  1  0.04152385  0.95870586  0.99879819  1
  C  C106  1  0.95847615  0.95870586  0.49879819  1
  C  C107  1  0.04152385  0.45870586  0.50120181  1
  C  C108  1  0.25129409  0.57281883  0.97135726  1
  C  C109  1  0.74870591  0.07281883  0.02864274  1
  C  C110  1  0.25129409  0.07281883  0.52864274  1
  C  C111  1  0.74870591  0.57281883  0.47135726  1
  C  C112  1  0.16890355  0.66679840  0.94372727  1
  C  C113  1  0.83109645  0.16679840  0.05627273  1
  C  C114  1  0.16890355  0.16679840  0.55627273  1
  C  C115  1  0.83109645  0.66679840  0.44372727  1
  N  N116  1  0.21775084  0.48149985  0.91554227  1
  N  N117  1  0.78224916  0.98149985  0.08445773  1
  N  N118  1  0.21775084  0.98149985  0.58445773  1
  N  N119  1  0.78224916  0.48149985  0.41554227  1
  Cl  Cl120  1  0.72090574  0.38378548  0.73082106  1
  Cl  Cl121  1  0.27909426  0.88378548  0.26917894  1
  Cl  Cl122  1  0.72090574  0.88378548  0.76917894  1
  Cl  Cl123  1  0.27909426  0.38378548  0.23082106  1
  Cl  Cl124  1  0.94645343  0.17614847  0.79935341  1
  Cl  Cl125  1  0.05354657  0.67614847  0.20064659  1
  Cl  Cl126  1  0.94645343  0.67614847  0.70064659  1
  Cl  Cl127  1  0.05354657  0.17614847  0.29935341  1
  Cl  Cl128  1  0.69239168  0.15911886  0.60461730  1
  Cl  Cl129  1  0.30760832  0.65911886  0.39538270  1
  Cl  Cl130  1  0.69239168  0.65911886  0.89538270  1
  Cl  Cl131  1  0.30760832  0.15911886  0.10461730  1
  Cl  Cl132  1  0.52709947  0.17321505  0.82691648  1
  Cl  Cl133  1  0.47290053  0.67321505  0.17308352  1
  Cl  Cl134  1  0.52709947  0.67321505  0.67308352  1
  Cl  Cl135  1  0.47290053  0.17321505  0.32691648  1
