# generated using pymatgen
data_NaCa2(SiO3)3
_symmetry_space_group_name_H-M   'P 1'
_cell_length_a   7.16272207
_cell_length_b   7.01077172
_cell_length_c   8.09293602
_cell_angle_alpha   102.32946958
_cell_angle_beta   95.73715491
_cell_angle_gamma   90.20779773
_symmetry_Int_Tables_number   1
_chemical_formula_structural   NaCa2(SiO3)3
_chemical_formula_sum   'Na2 Ca4 Si6 O18'
_cell_volume   394.90429367
_cell_formula_units_Z   2
loop_
 _symmetry_equiv_pos_site_id
 _symmetry_equiv_pos_as_xyz
  1  'x, y, z'
loop_
 _atom_site_type_symbol
 _atom_site_label
 _atom_site_symmetry_multiplicity
 _atom_site_fract_x
 _atom_site_fract_y
 _atom_site_fract_z
 _atom_site_occupancy
  Na  Na0  1  0.65216084  0.73339780  0.43841894  1
  Na  Na1  1  0.34783916  0.26660220  0.56158106  1
  Ca  Ca2  1  0.85063874  0.41080905  0.14440480  1
  Ca  Ca3  1  0.14936126  0.58919095  0.85559520  1
  Ca  Ca4  1  0.85962462  0.91263601  0.15149295  1
  Ca  Ca5  1  0.14037538  0.08736399  0.84850705  1
  Si  Si6  1  0.33716589  0.40580448  0.21864856  1
  Si  Si7  1  0.66283411  0.59419552  0.78135144  1
  Si  Si8  1  0.34182079  0.95017737  0.21566907  1
  Si  Si9  1  0.65817921  0.04982263  0.78433093  1
  Si  Si10  1  0.14483767  0.73448522  0.45201172  1
  Si  Si11  1  0.85516233  0.26551478  0.54798828  1
  O  O12  1  0.87027876  0.21126288  0.34601003  1
  O  O13  1  0.12972124  0.78873712  0.65398997  1
  O  O14  1  0.94670941  0.70460483  0.33193122  1
  O  O15  1  0.05329059  0.29539517  0.66806878  1
  O  O16  1  0.54269908  0.49504737  0.19434889  1
  O  O17  1  0.45730092  0.50495263  0.80565111  1
  O  O18  1  0.54409722  0.84960775  0.18293432  1
  O  O19  1  0.45590278  0.15039225  0.81706568  1
  O  O20  1  0.17172384  0.38880632  0.06502334  1
  O  O21  1  0.82827616  0.61119368  0.93497666  1
  O  O22  1  0.17631825  0.89280001  0.05984676  1
  O  O23  1  0.82368175  0.10719999  0.94015324  1
  O  O24  1  0.27124952  0.53208072  0.40088044  1
  O  O25  1  0.72875048  0.46791928  0.59911956  1
  O  O26  1  0.27408407  0.90790713  0.39478373  1
  O  O27  1  0.72591593  0.09209287  0.60521627  1
  O  O28  1  0.38629627  0.18944112  0.26218373  1
  O  O29  1  0.61370373  0.81055888  0.73781627  1
