# generated using pymatgen
data_NaAgH2(SO2)2
_symmetry_space_group_name_H-M   'P 1'
_cell_length_a   7.82517811
_cell_length_b   7.80199751
_cell_length_c   9.42310060
_cell_angle_alpha   90.00000000
_cell_angle_beta   90.00000000
_cell_angle_gamma   96.51808940
_symmetry_Int_Tables_number   1
_chemical_formula_structural   NaAgH2(SO2)2
_chemical_formula_sum   'Na4 Ag4 H8 S8 O16'
_cell_volume   571.58063010
_cell_formula_units_Z   4
loop_
 _symmetry_equiv_pos_site_id
 _symmetry_equiv_pos_as_xyz
  1  'x, y, z'
loop_
 _atom_site_type_symbol
 _atom_site_label
 _atom_site_symmetry_multiplicity
 _atom_site_fract_x
 _atom_site_fract_y
 _atom_site_fract_z
 _atom_site_occupancy
  Na  Na0  1  0.16947672  0.95847265  0.55588405  1
  Na  Na1  1  0.66947672  0.95847265  0.44411595  1
  Na  Na2  1  0.16355905  0.46291818  0.48712330  1
  Na  Na3  1  0.66355905  0.46291818  0.51287670  1
  Ag  Ag4  1  0.49970489  0.99947415  0.95544588  1
  Ag  Ag5  1  0.99970489  0.99947415  0.04455412  1
  Ag  Ag6  1  0.20690634  0.49614966  0.06158305  1
  Ag  Ag7  1  0.70690634  0.49614966  0.93841695  1
  H  H8  1  0.47914182  0.13512845  0.69023642  1
  H  H9  1  0.97914182  0.13512845  0.30976358  1
  H  H10  1  0.32853489  0.24269284  0.71718586  1
  H  H11  1  0.82853489  0.24269284  0.28281414  1
  H  H12  1  0.45479495  0.61828223  0.29428276  1
  H  H13  1  0.95479495  0.61828223  0.70571724  1
  H  H14  1  0.31738303  0.74821071  0.29870799  1
  H  H15  1  0.81738303  0.74821071  0.70129201  1
  S  S16  1  0.45212692  0.67547815  0.91733508  1
  S  S17  1  0.95212692  0.67547815  0.08266492  1
  S  S18  1  0.28847460  0.18672780  0.08331424  1
  S  S19  1  0.78847460  0.18672780  0.91668576  1
  S  S20  1  0.39561060  0.66795909  0.69960870  1
  S  S21  1  0.89561060  0.66795909  0.30039130  1
  S  S22  1  0.36012906  0.17097939  0.29722428  1
  S  S23  1  0.86012906  0.17097939  0.70277572  1
  O  O24  1  0.21503249  0.70449403  0.68051006  1
  O  O25  1  0.71503249  0.70449403  0.31948994  1
  O  O26  1  0.41514997  0.49055397  0.64977632  1
  O  O27  1  0.91514997  0.49055397  0.35022368  1
  O  O28  1  0.51880613  0.79774737  0.63078357  1
  O  O29  1  0.01880613  0.79774737  0.36921643  1
  O  O30  1  0.20515180  0.19926047  0.38256562  1
  O  O31  1  0.70515180  0.19926047  0.61743438  1
  O  O32  1  0.50384694  0.30586903  0.32120239  1
  O  O33  1  0.00384694  0.30586903  0.67879761  1
  O  O34  1  0.40772910  0.99566384  0.32361317  1
  O  O35  1  0.90772910  0.99566384  0.67638683  1
  O  O36  1  0.35542550  0.12333345  0.71327678  1
  O  O37  1  0.85542550  0.12333345  0.28672322  1
  O  O38  1  0.33135522  0.62493452  0.30584650  1
  O  O39  1  0.83135522  0.62493452  0.69415350  1
