# generated using pymatgen
data_Cr2As6O19
_symmetry_space_group_name_H-M   'P 1'
_cell_length_a   5.11483501
_cell_length_b   11.45077690
_cell_length_c   13.33566119
_cell_angle_alpha   90.00000000
_cell_angle_beta   90.00000000
_cell_angle_gamma   90.00000000
_symmetry_Int_Tables_number   1
_chemical_formula_structural   Cr2As6O19
_chemical_formula_sum   'Cr4 As12 O38'
_cell_volume   781.05413425
_cell_formula_units_Z   2
loop_
 _symmetry_equiv_pos_site_id
 _symmetry_equiv_pos_as_xyz
  1  'x, y, z'
loop_
 _atom_site_type_symbol
 _atom_site_label
 _atom_site_symmetry_multiplicity
 _atom_site_fract_x
 _atom_site_fract_y
 _atom_site_fract_z
 _atom_site_occupancy
  Cr  Cr0  1  -0.00000000  -0.00000000  0.50000000  1
  Cr  Cr1  1  -0.00000000  -0.00000000  0.00000000  1
  Cr  Cr2  1  -0.00000000  0.50000000  0.50000000  1
  Cr  Cr3  1  -0.00000000  0.50000000  0.00000000  1
  As  As4  1  0.50927197  0.10953060  0.37026797  1
  As  As5  1  0.50927197  0.10953060  0.12973203  1
  As  As6  1  0.50927197  0.39046940  0.37026797  1
  As  As7  1  0.50927197  0.39046940  0.12973203  1
  As  As8  1  0.49072803  0.89046940  0.62973203  1
  As  As9  1  0.49072803  0.89046940  0.87026797  1
  As  As10  1  0.49072803  0.60953060  0.62973203  1
  As  As11  1  0.49072803  0.60953060  0.87026797  1
  As  As12  1  0.06044983  0.75000000  0.36671013  1
  As  As13  1  0.06044983  0.75000000  0.13328987  1
  As  As14  1  0.93955017  0.25000000  0.63328987  1
  As  As15  1  0.93955017  0.25000000  0.86671013  1
  O  O16  1  0.36343384  0.08933665  0.25000000  1
  O  O17  1  0.36343384  0.41066335  0.25000000  1
  O  O18  1  0.63656616  0.91066335  0.75000000  1
  O  O19  1  0.63656616  0.58933665  0.75000000  1
  O  O20  1  0.25305214  0.11784140  0.44828415  1
  O  O21  1  0.25305214  0.11784140  0.05171585  1
  O  O22  1  0.25305214  0.38215860  0.44828415  1
  O  O23  1  0.25305214  0.38215860  0.05171585  1
  O  O24  1  0.74694786  0.88215860  0.55171585  1
  O  O25  1  0.74694786  0.88215860  0.94828415  1
  O  O26  1  0.74694786  0.61784140  0.55171585  1
  O  O27  1  0.74694786  0.61784140  0.94828415  1
  O  O28  1  0.17714706  0.87166916  0.42777689  1
  O  O29  1  0.17714706  0.87166916  0.07222311  1
  O  O30  1  0.17714706  0.62833084  0.42777689  1
  O  O31  1  0.17714706  0.62833084  0.07222311  1
  O  O32  1  0.82285294  0.12833084  0.57222311  1
  O  O33  1  0.82285294  0.12833084  0.92777689  1
  O  O34  1  0.82285294  0.37166916  0.57222311  1
  O  O35  1  0.82285294  0.37166916  0.92777689  1
  O  O36  1  0.23088537  0.75000000  0.25000000  1
  O  O37  1  0.76911463  0.25000000  0.75000000  1
  O  O38  1  0.76509817  0.01825443  0.38077390  1
  O  O39  1  0.76509817  0.01825443  0.11922610  1
  O  O40  1  0.76509817  0.48174557  0.38077390  1
  O  O41  1  0.76509817  0.48174557  0.11922610  1
  O  O42  1  0.23490183  0.98174557  0.61922610  1
  O  O43  1  0.23490183  0.98174557  0.88077390  1
  O  O44  1  0.23490183  0.51825443  0.61922610  1
  O  O45  1  0.23490183  0.51825443  0.88077390  1
  O  O46  1  0.65851688  0.25000000  0.36396385  1
  O  O47  1  0.65851688  0.25000000  0.13603615  1
  O  O48  1  0.34148312  0.75000000  0.63603615  1
  O  O49  1  0.34148312  0.75000000  0.86396385  1
  O  O50  1  0.73345682  0.75000000  0.33388374  1
  O  O51  1  0.73345682  0.75000000  0.16611626  1
  O  O52  1  0.26654318  0.25000000  0.66611626  1
  O  O53  1  0.26654318  0.25000000  0.83388374  1
