# generated using pymatgen
data_Tm2Ga3Fe14
_symmetry_space_group_name_H-M   'P 1'
_cell_length_a   8.25275320
_cell_length_b   8.51405639
_cell_length_c   8.51405639
_cell_angle_alpha   120.00422617
_cell_angle_beta   90.00000000
_cell_angle_gamma   90.00000000
_symmetry_Int_Tables_number   1
_chemical_formula_structural   Tm2Ga3Fe14
_chemical_formula_sum   'Tm4 Ga6 Fe28'
_cell_volume   518.06474349
_cell_formula_units_Z   2
loop_
 _symmetry_equiv_pos_site_id
 _symmetry_equiv_pos_as_xyz
  1  'x, y, z'
loop_
 _atom_site_type_symbol
 _atom_site_label
 _atom_site_symmetry_multiplicity
 _atom_site_fract_x
 _atom_site_fract_y
 _atom_site_fract_z
 _atom_site_occupancy
  Tm  Tm0  1  0.75000000  0.00000833  0.99999167  1
  Tm  Tm1  1  0.25000000  0.99999167  0.00000833  1
  Tm  Tm2  1  0.25000000  0.66668216  0.33331784  1
  Tm  Tm3  1  0.75000000  0.33331784  0.66668216  1
  Ga  Ga4  1  0.50000000  0.50000000  -0.00000000  1
  Ga  Ga5  1  0.50000000  0.50000000  0.50000000  1
  Ga  Ga6  1  0.50000000  0.00000000  0.50000000  1
  Ga  Ga7  1  -0.00000000  0.50000000  -0.00000000  1
  Ga  Ga8  1  -0.00000000  0.50000000  0.50000000  1
  Ga  Ga9  1  -0.00000000  0.00000000  0.50000000  1
  Fe  Fe10  1  0.61128093  0.66663797  0.33336203  1
  Fe  Fe11  1  0.38871907  0.33336203  0.66663797  1
  Fe  Fe12  1  0.11128093  0.33336203  0.66663797  1
  Fe  Fe13  1  0.88871907  0.66663797  0.33336203  1
  Fe  Fe14  1  0.75000000  0.67880368  0.02637467  1
  Fe  Fe15  1  0.75000000  0.34759662  0.32118026  1
  Fe  Fe16  1  0.75000000  0.97376467  0.65251103  1
  Fe  Fe17  1  0.75000000  0.34748897  0.02623533  1
  Fe  Fe18  1  0.75000000  0.97362533  0.32119632  1
  Fe  Fe19  1  0.75000000  0.67881974  0.65240338  1
  Fe  Fe20  1  0.25000000  0.32119632  0.97362533  1
  Fe  Fe21  1  0.25000000  0.65240338  0.67881974  1
  Fe  Fe22  1  0.25000000  0.02623533  0.34748897  1
  Fe  Fe23  1  0.25000000  0.65251103  0.97376467  1
  Fe  Fe24  1  0.25000000  0.02637467  0.67880368  1
  Fe  Fe25  1  0.25000000  0.32118026  0.34759662  1
  Fe  Fe26  1  0.48697902  0.83522778  0.67039877  1
  Fe  Fe27  1  0.48695267  0.83519925  0.16480075  1
  Fe  Fe28  1  0.48697902  0.32960123  0.16477222  1
  Fe  Fe29  1  0.51302098  0.16477222  0.32960123  1
  Fe  Fe30  1  0.51304733  0.16480075  0.83519925  1
  Fe  Fe31  1  0.51302098  0.67039877  0.83522778  1
  Fe  Fe32  1  0.98697902  0.16477222  0.32960123  1
  Fe  Fe33  1  0.98695267  0.16480075  0.83519925  1
  Fe  Fe34  1  0.98697902  0.67039877  0.83522778  1
  Fe  Fe35  1  0.01302098  0.83522778  0.67039877  1
  Fe  Fe36  1  0.01304733  0.83519925  0.16480075  1
  Fe  Fe37  1  0.01302098  0.32960123  0.16477222  1
