# generated using pymatgen
data_CoH20PtC4(NO3)4
_symmetry_space_group_name_H-M   'P 1'
_cell_length_a   7.17878805
_cell_length_b   7.49605516
_cell_length_c   9.20323628
_cell_angle_alpha   114.03226720
_cell_angle_beta   112.95539008
_cell_angle_gamma   90.00000000
_symmetry_Int_Tables_number   1
_chemical_formula_structural   CoH20PtC4(NO3)4
_chemical_formula_sum   'Co1 H20 Pt1 C4 N4 O12'
_cell_volume   409.00436047
_cell_formula_units_Z   1
loop_
 _symmetry_equiv_pos_site_id
 _symmetry_equiv_pos_as_xyz
  1  'x, y, z'
loop_
 _atom_site_type_symbol
 _atom_site_label
 _atom_site_symmetry_multiplicity
 _atom_site_fract_x
 _atom_site_fract_y
 _atom_site_fract_z
 _atom_site_occupancy
  Co  Co0  1  0.50000000  0.50000000  -0.00000000  1
  H  H1  1  0.02678788  0.62807642  0.82534359  1
  H  H2  1  0.79855571  0.19726717  0.82534359  1
  H  H3  1  0.20144429  0.37192358  0.17465641  1
  H  H4  1  0.97321212  0.80273283  0.17465641  1
  H  H5  1  0.78694284  0.63003122  0.80207921  1
  H  H6  1  0.01513637  0.17204798  0.80207921  1
  H  H7  1  0.98486363  0.36996878  0.19792079  1
  H  H8  1  0.21305716  0.82795202  0.19792079  1
  H  H9  1  0.86957834  0.70502302  0.68658825  1
  H  H10  1  0.81700991  0.98156523  0.68658825  1
  H  H11  1  0.18299009  0.29497698  0.31341175  1
  H  H12  1  0.13042166  0.01843477  0.31341175  1
  H  H13  1  0.44734938  0.79703220  0.89282763  1
  H  H14  1  0.44547825  0.09579543  0.89282763  1
  H  H15  1  0.55452175  0.20296780  0.10717237  1
  H  H16  1  0.55265062  0.90420457  0.10717237  1
  H  H17  1  0.79337869  0.18068815  0.36717908  1
  H  H18  1  0.57380039  0.18649093  0.36717908  1
  H  H19  1  0.42619961  0.81931185  0.63282092  1
  H  H20  1  0.20662131  0.81350907  0.63282092  1
  Pt  Pt21  1  -0.00000000  -0.00000000  -0.00000000  1
  C  C22  1  0.20824086  0.31397962  0.63533506  1
  C  C23  1  0.42709420  0.32135544  0.63533506  1
  C  C24  1  0.57290580  0.68602038  0.36466494  1
  C  C25  1  0.79175914  0.67864456  0.36466494  1
  N  N26  1  0.91007546  0.70807197  0.80842500  1
  N  N27  1  0.89834954  0.10035303  0.80842500  1
  N  N28  1  0.10165046  0.29192803  0.19157500  1
  N  N29  1  0.08992454  0.89964697  0.19157500  1
  O  O30  1  0.20392598  0.39135155  0.78610899  1
  O  O31  1  0.58218301  0.39475744  0.78610899  1
  O  O32  1  0.41781699  0.60864845  0.21389101  1
  O  O33  1  0.79607402  0.60524256  0.21389101  1
  O  O34  1  0.05544140  0.23268049  0.48857002  1
  O  O35  1  0.43312862  0.25588954  0.48857002  1
  O  O36  1  0.56687138  0.76731951  0.51142998  1
  O  O37  1  0.94455860  0.74411046  0.51142998  1
  O  O38  1  0.50000000  0.77461304  1.00000000  1
  O  O39  1  0.50000000  0.22538696  0.00000000  1
  O  O40  1  0.64355322  0.14355322  0.28710644  1
  O  O41  1  0.35644678  0.85644678  0.71289356  1
