# generated using pymatgen
data_Sc5(Si5Rh2)2
_symmetry_space_group_name_H-M   'P 1'
_cell_length_a   4.03949553
_cell_length_b   12.43513516
_cell_length_c   12.43513516
_cell_angle_alpha   90.00000000
_cell_angle_beta   90.00000000
_cell_angle_gamma   90.00000000
_symmetry_Int_Tables_number   1
_chemical_formula_structural   Sc5(Si5Rh2)2
_chemical_formula_sum   'Sc10 Si20 Rh8'
_cell_volume   624.63764175
_cell_formula_units_Z   2
loop_
 _symmetry_equiv_pos_site_id
 _symmetry_equiv_pos_as_xyz
  1  'x, y, z'
loop_
 _atom_site_type_symbol
 _atom_site_label
 _atom_site_symmetry_multiplicity
 _atom_site_fract_x
 _atom_site_fract_y
 _atom_site_fract_z
 _atom_site_occupancy
  Sc  Sc0  1  -0.00000000  0.50000000  0.50000000  1
  Sc  Sc1  1  0.00000000  0.00000000  -0.00000000  1
  Sc  Sc2  1  0.50000000  0.17655918  0.67655918  1
  Sc  Sc3  1  0.50000000  0.82344082  0.32344082  1
  Sc  Sc4  1  0.50000000  0.32344082  0.17655918  1
  Sc  Sc5  1  0.50000000  0.67655918  0.82344082  1
  Sc  Sc6  1  0.50000000  0.38446309  0.88446309  1
  Sc  Sc7  1  0.50000000  0.61553691  0.11553691  1
  Sc  Sc8  1  0.50000000  0.11553691  0.38446309  1
  Sc  Sc9  1  0.50000000  0.88446309  0.61553691  1
  Si  Si10  1  -0.00000000  0.06575023  0.56575023  1
  Si  Si11  1  0.00000000  0.93424977  0.43424977  1
  Si  Si12  1  0.00000000  0.43424977  0.06575023  1
  Si  Si13  1  -0.00000000  0.56575023  0.93424977  1
  Si  Si14  1  0.00000000  0.70086953  0.66236224  1
  Si  Si15  1  0.00000000  0.29913047  0.33763776  1
  Si  Si16  1  -0.00000000  0.79913047  0.16236224  1
  Si  Si17  1  -0.00000000  0.20086953  0.83763776  1
  Si  Si18  1  0.00000000  0.66236224  0.29913047  1
  Si  Si19  1  -0.00000000  0.33763776  0.70086953  1
  Si  Si20  1  -0.00000000  0.16236224  0.20086953  1
  Si  Si21  1  -0.00000000  0.83763776  0.79913047  1
  Si  Si22  1  0.50000000  0.50241148  0.65218364  1
  Si  Si23  1  0.50000000  0.49758852  0.34781636  1
  Si  Si24  1  0.50000000  0.99758852  0.15218364  1
  Si  Si25  1  0.50000000  0.00241148  0.84781636  1
  Si  Si26  1  0.50000000  0.65218364  0.49758852  1
  Si  Si27  1  0.50000000  0.34781636  0.50241148  1
  Si  Si28  1  0.50000000  0.15218364  0.00241148  1
  Si  Si29  1  0.50000000  0.84781636  0.99758852  1
  Rh  Rh30  1  -0.00000000  0.52196824  0.74711940  1
  Rh  Rh31  1  -0.00000000  0.47803176  0.25288060  1
  Rh  Rh32  1  0.00000000  0.97803176  0.24711940  1
  Rh  Rh33  1  0.00000000  0.02196824  0.75288060  1
  Rh  Rh34  1  -0.00000000  0.74711940  0.47803176  1
  Rh  Rh35  1  -0.00000000  0.25288060  0.52196824  1
  Rh  Rh36  1  -0.00000000  0.24711940  0.02196824  1
  Rh  Rh37  1  -0.00000000  0.75288060  0.97803176  1
