# generated using pymatgen
data_U6Cu2Se13
_symmetry_space_group_name_H-M   'P 1'
_cell_length_a   8.48896994
_cell_length_b   8.48896994
_cell_length_c   14.97085885
_cell_angle_alpha   98.63212087
_cell_angle_beta   98.63212087
_cell_angle_gamma   100.87068760
_symmetry_Int_Tables_number   1
_chemical_formula_structural   U6Cu2Se13
_chemical_formula_sum   'U12 Cu4 Se26'
_cell_volume   1029.64561852
_cell_formula_units_Z   2
loop_
 _symmetry_equiv_pos_site_id
 _symmetry_equiv_pos_as_xyz
  1  'x, y, z'
loop_
 _atom_site_type_symbol
 _atom_site_label
 _atom_site_symmetry_multiplicity
 _atom_site_fract_x
 _atom_site_fract_y
 _atom_site_fract_z
 _atom_site_occupancy
  U  U0  1  0.01176452  0.66759684  0.38802627  1
  U  U1  1  0.33240316  0.98823548  0.11197373  1
  U  U2  1  0.98823548  0.33240316  0.61197373  1
  U  U3  1  0.66759684  0.01176452  0.88802627  1
  U  U4  1  0.15635904  0.49505858  0.14526328  1
  U  U5  1  0.50494142  0.84364096  0.35473672  1
  U  U6  1  0.84364096  0.50494142  0.85473672  1
  U  U7  1  0.49505858  0.15635904  0.64526328  1
  U  U8  1  0.83851727  0.82199913  0.14189024  1
  U  U9  1  0.17800087  0.16148273  0.35810976  1
  U  U10  1  0.16148273  0.17800087  0.85810976  1
  U  U11  1  0.82199913  0.83851727  0.64189024  1
  Cu  Cu12  1  0.68281475  0.39152356  0.37071746  1
  Cu  Cu13  1  0.60847644  0.31718525  0.12928254  1
  Cu  Cu14  1  0.31718525  0.60847644  0.62928254  1
  Cu  Cu15  1  0.39152356  0.68281475  0.87071746  1
  Se  Se16  1  0.68640876  0.65054660  0.45207662  1
  Se  Se17  1  0.34945340  0.31359124  0.04792338  1
  Se  Se18  1  0.31359124  0.34945340  0.54792338  1
  Se  Se19  1  0.65054660  0.68640876  0.95207662  1
  Se  Se20  1  0.06822253  0.14496778  0.16757652  1
  Se  Se21  1  0.85503222  0.93177747  0.33242348  1
  Se  Se22  1  0.93177747  0.85503222  0.83242348  1
  Se  Se23  1  0.14496778  0.06822253  0.66757652  1
  Se  Se24  1  0.27878391  0.51292909  0.33713763  1
  Se  Se25  1  0.48707091  0.72121609  0.16286237  1
  Se  Se26  1  0.72121609  0.48707091  0.66286237  1
  Se  Se27  1  0.51292909  0.27878391  0.83713763  1
  Se  Se28  1  0.84277393  0.51193084  0.20195248  1
  Se  Se29  1  0.48806916  0.15722607  0.29804752  1
  Se  Se30  1  0.15722607  0.48806916  0.79804752  1
  Se  Se31  1  0.51193084  0.84277393  0.70195248  1
  Se  Se32  1  0.93803207  0.32993627  0.41566951  1
  Se  Se33  1  0.67006373  0.06196793  0.08433049  1
  Se  Se34  1  0.06196793  0.67006373  0.58433049  1
  Se  Se35  1  0.32993627  0.93803207  0.91566951  1
  Se  Se36  1  0.06179941  0.71073782  0.02400344  1
  Se  Se37  1  0.28926218  0.93820059  0.47599656  1
  Se  Se38  1  0.93820059  0.28926218  0.97599656  1
  Se  Se39  1  0.71073782  0.06179941  0.52400344  1
  Se  Se40  1  0.17102945  0.82897055  0.25000000  1
  Se  Se41  1  0.82897055  0.17102945  0.75000000  1
