# generated using pymatgen
data_Al3P2(H4O7)2
_symmetry_space_group_name_H-M   'P 1'
_cell_length_a   7.43551425
_cell_length_b   7.83011385
_cell_length_c   10.05682012
_cell_angle_alpha   70.21822144
_cell_angle_beta   69.50046911
_cell_angle_gamma   65.56580310
_symmetry_Int_Tables_number   1
_chemical_formula_structural   Al3P2(H4O7)2
_chemical_formula_sum   'Al6 P4 H16 O28'
_cell_volume   486.28506827
_cell_formula_units_Z   2
loop_
 _symmetry_equiv_pos_site_id
 _symmetry_equiv_pos_as_xyz
  1  'x, y, z'
loop_
 _atom_site_type_symbol
 _atom_site_label
 _atom_site_symmetry_multiplicity
 _atom_site_fract_x
 _atom_site_fract_y
 _atom_site_fract_z
 _atom_site_occupancy
  Al  Al0  1  0.73339679  0.82270402  0.24511694  1
  Al  Al1  1  0.26660321  0.17729598  0.75488306  1
  Al  Al2  1  0.24680762  0.81801588  0.73602042  1
  Al  Al3  1  0.75319238  0.18198412  0.26397958  1
  Al  Al4  1  0.75719162  0.50161240  0.75322044  1
  Al  Al5  1  0.24280838  0.49838760  0.24677956  1
  P  P6  1  0.65143943  0.60595549  0.05946062  1
  P  P7  1  0.34856057  0.39404451  0.94053938  1
  P  P8  1  0.16591348  0.60212184  0.54827801  1
  P  P9  1  0.83408652  0.39787816  0.45172199  1
  H  H10  1  0.86648946  0.04848089  0.76368529  1
  H  H11  1  0.13351054  0.95151911  0.23631471  1
  H  H12  1  0.86180946  0.83343950  0.82818346  1
  H  H13  1  0.13819054  0.16656050  0.17181654  1
  H  H14  1  0.35740642  0.87335862  0.40563632  1
  H  H15  1  0.64259358  0.12664138  0.59436368  1
  H  H16  1  0.40379136  0.07043175  0.32056291  1
  H  H17  1  0.59620864  0.92956825  0.67943709  1
  H  H18  1  0.82705311  0.85615732  0.45484289  1
  H  H19  1  0.17294689  0.14384268  0.54515711  1
  H  H20  1  0.30591144  0.86009958  0.95870660  1
  H  H21  1  0.69408856  0.13990042  0.04129340  1
  H  H22  1  0.04011861  0.69496625  0.07139224  1
  H  H23  1  0.95988139  0.30503375  0.92860776  1
  H  H24  1  0.57762114  0.70379617  0.57262065  1
  H  H25  1  0.42237886  0.29620383  0.42737935  1
  O  O26  1  0.93439216  0.64109728  0.61647490  1
  O  O27  1  0.06560784  0.35890272  0.38352510  1
  O  O28  1  0.19633788  0.64153050  0.38111631  1
  O  O29  1  0.80366212  0.35846950  0.61888369  1
  O  O30  1  0.71656324  0.64008452  0.89062252  1
  O  O31  1  0.28343676  0.35991548  0.10937748  1
  O  O32  1  0.94570376  0.91533814  0.80033601  1
  O  O33  1  0.05429624  0.08466186  0.19966399  1
  O  O34  1  0.76246625  0.93386137  0.37417414  1
  O  O35  1  0.23753375  0.06613863  0.62582586  1
  O  O36  1  0.26620944  0.93147219  0.86678156  1
  O  O37  1  0.73379056  0.06852781  0.13321844  1
  O  O38  1  0.70466419  0.60567195  0.39440450  1
  O  O39  1  0.29533581  0.39432805  0.60559550  1
  O  O40  1  0.68964008  0.76016777  0.09718592  1
  O  O41  1  0.31035992  0.23983223  0.90281408  1
  O  O42  1  0.01796600  0.69452232  0.17352641  1
  O  O43  1  0.98203400  0.30547768  0.82647359  1
  O  O44  1  0.42937330  0.94005370  0.31180854  1
  O  O45  1  0.57062670  0.05994630  0.68819146  1
  O  O46  1  0.21752976  0.59718543  0.87620116  1
  O  O47  1  0.78247024  0.40281457  0.12379884  1
  O  O48  1  0.53999116  0.70665359  0.67617847  1
  O  O49  1  0.46000884  0.29334641  0.32382153  1
  O  O50  1  0.22999065  0.75041419  0.57397637  1
  O  O51  1  0.77000935  0.24958581  0.42602363  1
  O  O52  1  0.42012951  0.63617761  0.11120532  1
  O  O53  1  0.57987049  0.36382239  0.88879468  1
