# generated using pymatgen
data_LiBH5N
_symmetry_space_group_name_H-M   'P 1'
_cell_length_a   5.19423674
_cell_length_b   7.13921246
_cell_length_c   14.03337073
_cell_angle_alpha   90.00000000
_cell_angle_beta   90.00000000
_cell_angle_gamma   90.00000000
_symmetry_Int_Tables_number   1
_chemical_formula_structural   LiBH5N
_chemical_formula_sum   'Li8 B8 H40 N8'
_cell_volume   520.39611392
_cell_formula_units_Z   8
loop_
 _symmetry_equiv_pos_site_id
 _symmetry_equiv_pos_as_xyz
  1  'x, y, z'
loop_
 _atom_site_type_symbol
 _atom_site_label
 _atom_site_symmetry_multiplicity
 _atom_site_fract_x
 _atom_site_fract_y
 _atom_site_fract_z
 _atom_site_occupancy
  Li  Li0  1  0.06419786  0.45129992  0.17728284  1
  Li  Li1  1  0.93580214  0.95129992  0.32271716  1
  Li  Li2  1  0.43580214  0.54870008  0.67728284  1
  Li  Li3  1  0.56419786  0.04870008  0.82271716  1
  Li  Li4  1  0.93580214  0.54870008  0.82271716  1
  Li  Li5  1  0.06419786  0.04870008  0.67728284  1
  Li  Li6  1  0.56419786  0.45129992  0.32271716  1
  Li  Li7  1  0.43580214  0.95129992  0.17728284  1
  B  B8  1  0.53315570  0.59488251  0.15387100  1
  B  B9  1  0.46684430  0.09488251  0.34612900  1
  B  B10  1  0.96684430  0.40511749  0.65387100  1
  B  B11  1  0.03315570  0.90511749  0.84612900  1
  B  B12  1  0.46684430  0.40511749  0.84612900  1
  B  B13  1  0.53315570  0.90511749  0.65387100  1
  B  B14  1  0.03315570  0.59488251  0.34612900  1
  B  B15  1  0.96684430  0.09488251  0.15387100  1
  H  H16  1  0.35468362  0.67749439  0.11198925  1
  H  H17  1  0.64531638  0.17749439  0.38801075  1
  H  H18  1  0.14531638  0.32250561  0.61198925  1
  H  H19  1  0.85468362  0.82250561  0.88801075  1
  H  H20  1  0.64531638  0.32250561  0.88801075  1
  H  H21  1  0.35468362  0.82250561  0.61198925  1
  H  H22  1  0.85468362  0.67749439  0.38801075  1
  H  H23  1  0.14531638  0.17749439  0.11198925  1
  H  H24  1  0.58459438  0.68559855  0.22628911  1
  H  H25  1  0.41540562  0.18559855  0.27371089  1
  H  H26  1  0.91540562  0.31440145  0.72628911  1
  H  H27  1  0.08459438  0.81440145  0.77371089  1
  H  H28  1  0.41540562  0.31440145  0.77371089  1
  H  H29  1  0.58459438  0.81440145  0.72628911  1
  H  H30  1  0.08459438  0.68559855  0.27371089  1
  H  H31  1  0.91540562  0.18559855  0.22628911  1
  H  H32  1  0.44696016  0.44110243  0.18029283  1
  H  H33  1  0.55303984  0.94110243  0.31970717  1
  H  H34  1  0.05303984  0.55889757  0.68029283  1
  H  H35  1  0.94696016  0.05889757  0.81970717  1
  H  H36  1  0.55303984  0.55889757  0.81970717  1
  H  H37  1  0.44696016  0.05889757  0.68029283  1
  H  H38  1  0.94696016  0.44110243  0.31970717  1
  H  H39  1  0.05303984  0.94110243  0.18029283  1
  H  H40  1  0.85892727  0.68836814  0.07444671  1
  H  H41  1  0.14107273  0.18836814  0.42555329  1
  H  H42  1  0.64107273  0.31163186  0.57444671  1
  H  H43  1  0.35892727  0.81163186  0.92555329  1
  H  H44  1  0.14107273  0.31163186  0.92555329  1
  H  H45  1  0.85892727  0.81163186  0.57444671  1
  H  H46  1  0.35892727  0.68836814  0.42555329  1
  H  H47  1  0.64107273  0.18836814  0.07444671  1
  H  H48  1  0.74756069  0.49359319  0.03230129  1
  H  H49  1  0.25243931  0.99359319  0.46769871  1
  H  H50  1  0.75243931  0.50640681  0.53230129  1
  H  H51  1  0.24756069  0.00640681  0.96769871  1
  H  H52  1  0.25243931  0.50640681  0.96769871  1
  H  H53  1  0.74756069  0.00640681  0.53230129  1
  H  H54  1  0.24756069  0.49359319  0.46769871  1
  H  H55  1  0.75243931  0.99359319  0.03230129  1
  N  N56  1  0.78196332  0.56322332  0.09479013  1
  N  N57  1  0.21803668  0.06322332  0.40520987  1
  N  N58  1  0.71803668  0.43677668  0.59479013  1
  N  N59  1  0.28196332  0.93677668  0.90520987  1
  N  N60  1  0.21803668  0.43677668  0.90520987  1
  N  N61  1  0.78196332  0.93677668  0.59479013  1
  N  N62  1  0.28196332  0.56322332  0.40520987  1
  N  N63  1  0.71803668  0.06322332  0.09479013  1
