# generated using pymatgen
data_MgH30C2(SO9)2
_symmetry_space_group_name_H-M   'P 1'
_cell_length_a   8.88036909
_cell_length_b   8.88043439
_cell_length_c   8.88041980
_cell_angle_alpha   63.45863486
_cell_angle_beta   63.45940840
_cell_angle_gamma   63.45952248
_symmetry_Int_Tables_number   1
_chemical_formula_structural   MgH30C2(SO9)2
_chemical_formula_sum   'Mg1 H30 C2 S2 O18'
_cell_volume   533.09606856
_cell_formula_units_Z   1
loop_
 _symmetry_equiv_pos_site_id
 _symmetry_equiv_pos_as_xyz
  1  'x, y, z'
loop_
 _atom_site_type_symbol
 _atom_site_label
 _atom_site_symmetry_multiplicity
 _atom_site_fract_x
 _atom_site_fract_y
 _atom_site_fract_z
 _atom_site_occupancy
  Mg  Mg0  1  0.00000000  -0.00000000  -0.00000000  1
  H  H1  1  0.07849938  0.12148868  0.63881415  1
  H  H2  1  0.12149518  0.63881215  0.07849455  1
  H  H3  1  0.63881914  0.07849299  0.12148723  1
  H  H4  1  0.92150062  0.87851132  0.36118585  1
  H  H5  1  0.87850482  0.36118785  0.92150545  1
  H  H6  1  0.36118086  0.92150701  0.87851277  1
  H  H7  1  0.87988203  0.11987104  0.71222469  1
  H  H8  1  0.11986912  0.71222742  0.87988064  1
  H  H9  1  0.71222811  0.87987819  0.11987027  1
  H  H10  1  0.12011797  0.88012896  0.28777531  1
  H  H11  1  0.88013088  0.28777258  0.12011936  1
  H  H12  1  0.28777189  0.12012181  0.88012973  1
  H  H13  1  0.49396294  0.27302431  0.40420818  1
  H  H14  1  0.27305442  0.40420748  0.49393610  1
  H  H15  1  0.40423736  0.49393581  0.27302367  1
  H  H16  1  0.50603706  0.72697569  0.59579182  1
  H  H17  1  0.72694558  0.59579252  0.50606390  1
  H  H18  1  0.59576264  0.50606419  0.72697633  1
  H  H19  1  0.72433723  0.05501914  0.61441509  1
  H  H20  1  0.05501325  0.61441663  0.72433982  1
  H  H21  1  0.61441006  0.72434152  0.05502225  1
  H  H22  1  0.27566277  0.94498086  0.38558491  1
  H  H23  1  0.94498675  0.38558337  0.27566018  1
  H  H24  1  0.38558994  0.27565848  0.94497775  1
  H  H25  1  0.59245697  0.21191254  0.69815062  1
  H  H26  1  0.21190956  0.69815216  0.59245589  1
  H  H27  1  0.69815351  0.59245622  0.21191266  1
  H  H28  1  0.40754303  0.78808746  0.30184938  1
  H  H29  1  0.78809044  0.30184784  0.40754411  1
  H  H30  1  0.30184649  0.40754378  0.78808734  1
  C  C31  1  0.37391095  0.37388599  0.37388613  1
  C  C32  1  0.62608905  0.62611401  0.62611387  1
  S  S33  1  0.28986652  0.28985252  0.28985300  1
  S  S34  1  0.71013348  0.71014748  0.71014700  1
  O  O35  1  0.97780043  0.10618306  0.74741779  1
  O  O36  1  0.10618031  0.74741882  0.97780124  1
  O  O37  1  0.74741956  0.97780035  0.10618224  1
  O  O38  1  0.02219957  0.89381694  0.25258221  1
  O  O39  1  0.89381969  0.25258118  0.02219876  1
  O  O40  1  0.25258044  0.02219965  0.89381776  1
  O  O41  1  0.24715477  0.13078937  0.43108722  1
  O  O42  1  0.13081102  0.43108424  0.24713679  1
  O  O43  1  0.43110218  0.24713734  0.13078826  1
  O  O44  1  0.75284523  0.86921063  0.56891278  1
  O  O45  1  0.86918898  0.56891576  0.75286321  1
  O  O46  1  0.56889782  0.75286266  0.86921174  1
  O  O47  1  0.71576268  0.16645764  0.62232098  1
  O  O48  1  0.16645470  0.62232144  0.71576293  1
  O  O49  1  0.62231924  0.71576238  0.16645732  1
  O  O50  1  0.28423732  0.83354236  0.37767902  1
  O  O51  1  0.83354530  0.37767856  0.28423707  1
  O  O52  1  0.37768076  0.28423762  0.83354268  1
