# generated using pymatgen
data_NaH6CSNO3
_symmetry_space_group_name_H-M   'P 1'
_cell_length_a   9.99146601
_cell_length_b   10.70470316
_cell_length_c   10.70470346
_cell_angle_alpha   110.78136715
_cell_angle_beta   108.12697163
_cell_angle_gamma   108.12697214
_symmetry_Int_Tables_number   1
_chemical_formula_structural   NaH6CSNO3
_chemical_formula_sum   'Na6 H36 C6 S6 N6 O18'
_cell_volume   895.55854276
_cell_formula_units_Z   6
loop_
 _symmetry_equiv_pos_site_id
 _symmetry_equiv_pos_as_xyz
  1  'x, y, z'
loop_
 _atom_site_type_symbol
 _atom_site_label
 _atom_site_symmetry_multiplicity
 _atom_site_fract_x
 _atom_site_fract_y
 _atom_site_fract_z
 _atom_site_occupancy
  Na  Na0  1  0.46673523  0.46540295  0.64622575  1
  Na  Na1  1  0.82050948  0.35377425  0.81917720  1
  Na  Na2  1  0.00133228  0.18082280  0.53459705  1
  Na  Na3  1  0.53326477  0.53459705  0.35377425  1
  Na  Na4  1  0.17949052  0.64622575  0.18082280  1
  Na  Na5  1  0.99866772  0.81917720  0.46540295  1
  H  H6  1  0.22179643  0.33852070  0.34653459  1
  H  H7  1  0.87526184  0.65346541  0.99198612  1
  H  H8  1  0.88327572  0.00801388  0.66147930  1
  H  H9  1  0.77820357  0.66147930  0.65346541  1
  H  H10  1  0.12473816  0.34653459  0.00801388  1
  H  H11  1  0.11672428  0.99198612  0.33852070  1
  H  H12  1  0.32698192  0.26532436  0.30202383  1
  H  H13  1  0.02495809  0.69797617  0.96330053  1
  H  H14  1  0.06165756  0.03669947  0.73467564  1
  H  H15  1  0.67301808  0.73467564  0.69797617  1
  H  H16  1  0.97504191  0.30202383  0.03669947  1
  H  H17  1  0.93834244  0.96330053  0.26532436  1
  H  H18  1  0.44226971  0.71889260  0.70597954  1
  H  H19  1  0.73629017  0.29402047  0.01291307  1
  H  H20  1  0.72337710  0.98708693  0.28110740  1
  H  H21  1  0.55773029  0.28110740  0.29402046  1
  H  H22  1  0.26370983  0.70597953  0.98708693  1
  H  H23  1  0.27662290  0.01291307  0.71889260  1
  H  H24  1  0.25519537  0.63114411  0.64184323  1
  H  H25  1  0.61335214  0.35815677  0.98930088  1
  H  H26  1  0.62405127  0.01069912  0.36885589  1
  H  H27  1  0.74480463  0.36885589  0.35815677  1
  H  H28  1  0.38664786  0.64184323  0.01069912  1
  H  H29  1  0.37594873  0.98930088  0.63114411  1
  H  H30  1  0.53173039  0.21609071  0.52800627  1
  H  H31  1  0.00372412  0.47199373  0.68808444  1
  H  H32  1  0.31563968  0.31191556  0.78390929  1
  H  H33  1  0.46826961  0.78390929  0.47199373  1
  H  H34  1  0.99627588  0.52800627  0.31191556  1
  H  H35  1  0.68436032  0.68808444  0.21609071  1
  H  H36  1  0.65286470  0.35590654  0.54253338  1
  H  H37  1  0.11033132  0.45746662  0.81337316  1
  H  H38  1  0.29695816  0.18662684  0.64409346  1
  H  H39  1  0.34713530  0.64409346  0.45746662  1
  H  H40  1  0.88966868  0.54253338  0.18662684  1
  H  H41  1  0.70304184  0.81337316  0.35590654  1
  C  C42  1  0.69263387  0.86267505  0.98911064  1
  C  C43  1  0.70352323  0.01088936  0.87356441  1
  C  C44  1  0.82995882  0.12643559  0.13732495  1
  C  C45  1  0.30736613  0.13732495  0.01088936  1
  C  C46  1  0.29647677  0.98911064  0.12643559  1
  C  C47  1  0.17004118  0.87356441  0.86267505  1
  S  S48  1  0.63328341  0.68634982  0.97489417  1
  S  S49  1  0.65838924  0.02510583  0.71145565  1
  S  S50  1  0.94693359  0.28854435  0.31365018  1
  S  S51  1  0.36671659  0.31365018  0.02510583  1
  S  S52  1  0.34161076  0.97489417  0.28854435  1
  S  S53  1  0.05306641  0.71145565  0.68634982  1
  N  N54  1  0.65111839  0.87024112  0.85896942  1
  N  N55  1  0.79214897  0.14103058  0.01127170  1
  N  N56  1  0.78087727  0.98872830  0.12975888  1
  N  N57  1  0.34888161  0.12975888  0.14103058  1
  N  N58  1  0.20785103  0.85896942  0.98872830  1
  N  N59  1  0.21912273  0.01127170  0.87024112  1
  O  O60  1  0.33181597  0.35513058  0.37841134  1
  O  O61  1  0.95340463  0.62158866  0.97671925  1
  O  O62  1  0.97668539  0.02328075  0.64486942  1
  O  O63  1  0.66818403  0.64486942  0.62158866  1
  O  O64  1  0.04659537  0.37841134  0.02328075  1
  O  O65  1  0.02331461  0.97671925  0.35513058  1
  O  O66  1  0.34250965  0.62547012  0.62033161  1
  O  O67  1  0.72217803  0.37966839  0.00513851  1
  O  O68  1  0.71703953  0.99486149  0.37452988  1
  O  O69  1  0.65749035  0.37452988  0.37966839  1
  O  O70  1  0.27782197  0.62033161  0.99486149  1
  O  O71  1  0.28296047  0.00513851  0.62547012  1
  O  O72  1  0.61554732  0.32092651  0.60558596  1
  O  O73  1  0.00996136  0.39441404  0.71534054  1
  O  O74  1  0.29462082  0.28465946  0.67907349  1
  O  O75  1  0.38445268  0.67907349  0.39441404  1
  O  O76  1  0.99003864  0.60558596  0.28465946  1
  O  O77  1  0.70537918  0.71534054  0.32092651  1
