# generated using pymatgen
data_V5NiH20NO22
_symmetry_space_group_name_H-M   'P 1'
_cell_length_a   8.87704921
_cell_length_b   11.17515762
_cell_length_c   11.27109633
_cell_angle_alpha   65.46745238
_cell_angle_beta   71.93233655
_cell_angle_gamma   71.82144987
_symmetry_Int_Tables_number   1
_chemical_formula_structural   V5NiH20NO22
_chemical_formula_sum   'V10 Ni2 H40 N2 O44'
_cell_volume   945.08063806
_cell_formula_units_Z   2
loop_
 _symmetry_equiv_pos_site_id
 _symmetry_equiv_pos_as_xyz
  1  'x, y, z'
loop_
 _atom_site_type_symbol
 _atom_site_label
 _atom_site_symmetry_multiplicity
 _atom_site_fract_x
 _atom_site_fract_y
 _atom_site_fract_z
 _atom_site_occupancy
  V  V0  1  0.30301289  0.26413667  0.76797495  1
  V  V1  1  0.69698711  0.73586333  0.23202505  1
  V  V2  1  0.61535041  0.22944714  0.54778052  1
  V  V3  1  0.38464959  0.77055286  0.45221948  1
  V  V4  1  0.63652525  0.28501362  0.79491594  1
  V  V5  1  0.36347475  0.71498638  0.20508406  1
  V  V6  1  0.67493238  0.50903696  0.51320242  1
  V  V7  1  0.32506762  0.49096304  0.48679758  1
  V  V8  1  0.64915245  0.45193442  0.26611147  1
  V  V9  1  0.35084755  0.54806558  0.73388853  1
  Ni  Ni10  1  0.22155365  0.26830946  0.21755138  1
  Ni  Ni11  1  0.77844635  0.73169054  0.78244862  1
  H  H12  1  0.03121721  0.11037313  0.26587074  1
  H  H13  1  0.96878279  0.88962687  0.73412926  1
  H  H14  1  0.95043621  0.17919769  0.37361206  1
  H  H15  1  0.04956379  0.82080231  0.62638794  1
  H  H16  1  0.23992610  0.16852170  0.46278518  1
  H  H17  1  0.76007390  0.83147830  0.53721482  1
  H  H18  1  0.37856900  0.25200890  0.39114264  1
  H  H19  1  0.62143100  0.74799110  0.60885736  1
  H  H20  1  0.13058011  0.48713473  0.30299134  1
  H  H21  1  0.86941989  0.51286527  0.69700866  1
  H  H22  1  0.98469940  0.48289132  0.25210972  1
  H  H23  1  0.01530060  0.51710868  0.74789028  1
  H  H24  1  0.44024565  0.39321463  0.00890167  1
  H  H25  1  0.55975435  0.60678537  0.99109833  1
  H  H26  1  0.42667161  0.43601339  0.13093368  1
  H  H27  1  0.57332839  0.56398661  0.86906632  1
  H  H28  1  0.13046558  0.38180971  0.96949065  1
  H  H29  1  0.86953442  0.61819029  0.03050935  1
  H  H30  1  0.97742311  0.34298647  0.09102108  1
  H  H31  1  0.02257689  0.65701353  0.90897892  1
  H  H32  1  0.39279733  0.13049804  0.05150179  1
  H  H33  1  0.60720267  0.86950196  0.94849821  1
  H  H34  1  0.34011655  0.02011468  0.19297427  1
  H  H35  1  0.65988345  0.97988532  0.80702573  1
  H  H36  1  0.05749054  0.96264894  0.13754986  1
  H  H37  1  0.94250946  0.03735106  0.86245014  1
  H  H38  1  0.05438326  0.10802154  0.03423824  1
  H  H39  1  0.94561674  0.89197846  0.96576176  1
  H  H40  1  0.96745107  0.17097479  0.61191221  1
  H  H41  1  0.03254893  0.82902521  0.38808779  1
  H  H42  1  0.08380843  0.24981170  0.61266991  1
  H  H43  1  0.91619157  0.75018830  0.38733009  1
  H  H44  1  0.68009946  0.09944781  0.32593683  1
  H  H45  1  0.31990054  0.90055219  0.67406317  1
  H  H46  1  0.78964779  0.07189143  0.18530416  1
  H  H47  1  0.21035221  0.92810857  0.81469584  1
  H  H48  1  0.59531776  0.16257296  0.19131551  1
  H  H49  1  0.40468224  0.83742704  0.80868449  1
  H  H50  1  0.62922494  0.99559288  0.27777005  1
  H  H51  1  0.37077506  0.00440712  0.72222995  1
  N  N52  1  0.67314884  0.08255521  0.24409402  1
  N  N53  1  0.32685116  0.91744479  0.75590598  1
  O  O54  1  0.16490147  0.17617293  0.86288724  1
  O  O55  1  0.83509853  0.82382707  0.13711276  1
  O  O56  1  0.71257974  0.11982037  0.47338592  1
  O  O57  1  0.28742026  0.88017963  0.52661408  1
  O  O58  1  0.74771989  0.20945347  0.90688381  1
  O  O59  1  0.25228011  0.79054653  0.09311619  1
  O  O60  1  0.79427782  0.62010112  0.39759319  1
  O  O61  1  0.20572218  0.37989888  0.60240681  1
  O  O62  1  0.78337665  0.57383229  0.19210411  1
  O  O63  1  0.21662335  0.42616771  0.80789589  1
  O  O64  1  0.52005046  0.64214795  0.59016040  1
  O  O65  1  0.47994954  0.35785205  0.40983960  1
  O  O66  1  0.75326888  0.34080494  0.19457617  1
  O  O67  1  0.24673112  0.65919506  0.80542383  1
  O  O68  1  0.49663382  0.55675993  0.16235758  1
  O  O69  1  0.50336618  0.44324007  0.83764242  1
  O  O70  1  0.43618589  0.16426113  0.66079824  1
  O  O71  1  0.56381411  0.83573887  0.33920176  1
  O  O72  1  0.45464421  0.20686085  0.87279293  1
  O  O73  1  0.54535579  0.79313915  0.12720707  1
  O  O74  1  0.72130303  0.18137919  0.68405066  1
  O  O75  1  0.27869697  0.81862081  0.31594934  1
  O  O76  1  0.76482935  0.41886603  0.65171674  1
  O  O77  1  0.23517065  0.58113397  0.34828326  1
  O  O78  1  0.51505211  0.59435272  0.38082120  1
  O  O79  1  0.48494789  0.40564728  0.61917880  1
  O  O80  1  0.74174563  0.37460811  0.43404193  1
  O  O81  1  0.25825437  0.62539189  0.56595807  1
  O  O82  1  0.05526357  0.14497454  0.32428019  1
  O  O83  1  0.94473643  0.85502546  0.67571981  1
  O  O84  1  0.32762600  0.19007822  0.38131371  1
  O  O85  1  0.67237400  0.80992178  0.61868629  1
  O  O86  1  0.08748383  0.43007687  0.28007923  1
  O  O87  1  0.91251617  0.56992313  0.71992077  1
  O  O88  1  0.41496845  0.36297240  0.10808850  1
  O  O89  1  0.58503155  0.63702760  0.89191150  1
  O  O90  1  0.09209545  0.34660519  0.06833203  1
  O  O91  1  0.90790455  0.65339481  0.93166797  1
  O  O92  1  0.36760385  0.10891824  0.14941512  1
  O  O93  1  0.63239615  0.89108176  0.85058488  1
  O  O94  1  0.01082883  0.05698726  0.12821481  1
  O  O95  1  0.98917117  0.94301274  0.87178519  1
  O  O96  1  0.08215720  0.16671572  0.60368359  1
  O  O97  1  0.91784280  0.83328428  0.39631641  1
