# generated using pymatgen
data_MnH16C4S4(N4Cl)2
_symmetry_space_group_name_H-M   'P 1'
_cell_length_a   9.76592557
_cell_length_b   13.82256955
_cell_length_c   13.82256955
_cell_angle_alpha   90.00000000
_cell_angle_beta   90.00000000
_cell_angle_gamma   90.00000000
_symmetry_Int_Tables_number   1
_chemical_formula_structural   MnH16C4S4(N4Cl)2
_chemical_formula_sum   'Mn4 H64 C16 S16 N32 Cl8'
_cell_volume   1865.91122642
_cell_formula_units_Z   4
loop_
 _symmetry_equiv_pos_site_id
 _symmetry_equiv_pos_as_xyz
  1  'x, y, z'
loop_
 _atom_site_type_symbol
 _atom_site_label
 _atom_site_symmetry_multiplicity
 _atom_site_fract_x
 _atom_site_fract_y
 _atom_site_fract_z
 _atom_site_occupancy
  Mn  Mn0  1  0.50000000  0.50000000  0.00000000  1
  Mn  Mn1  1  0.50000000  -0.00000000  0.50000000  1
  Mn  Mn2  1  -0.00000000  0.50000000  0.50000000  1
  Mn  Mn3  1  -0.00000000  -0.00000000  0.00000000  1
  H  H4  1  0.73324010  0.20077765  0.00088278  1
  H  H5  1  0.73324010  0.29922235  0.49911722  1
  H  H6  1  0.23324010  0.50088278  0.79922235  1
  H  H7  1  0.23324010  0.99911722  0.70077765  1
  H  H8  1  0.26675990  0.79922235  0.99911722  1
  H  H9  1  0.26675990  0.70077765  0.50088278  1
  H  H10  1  0.76675990  0.49911722  0.20077765  1
  H  H11  1  0.76675990  0.00088278  0.29922235  1
  H  H12  1  0.71627789  0.32767987  0.00097937  1
  H  H13  1  0.71627789  0.17232013  0.49902063  1
  H  H14  1  0.21627789  0.50097937  0.67232013  1
  H  H15  1  0.21627789  0.99902063  0.82767987  1
  H  H16  1  0.28372211  0.67232013  0.99902063  1
  H  H17  1  0.28372211  0.82767987  0.50097937  1
  H  H18  1  0.78372211  0.49902063  0.32767987  1
  H  H19  1  0.78372211  0.00097937  0.17232013  1
  H  H20  1  0.57793647  0.10528099  0.91830784  1
  H  H21  1  0.57793647  0.39471901  0.58169216  1
  H  H22  1  0.07793647  0.41830784  0.89471901  1
  H  H23  1  0.07793647  0.08169216  0.60528099  1
  H  H24  1  0.42206353  0.89471901  0.08169216  1
  H  H25  1  0.42206353  0.60528099  0.41830784  1
  H  H26  1  0.92206353  0.58169216  0.10528099  1
  H  H27  1  0.92206353  0.91830784  0.39471901  1
  H  H28  1  0.44478867  0.16197225  0.85371593  1
  H  H29  1  0.44478867  0.33802775  0.64628407  1
  H  H30  1  0.94478867  0.35371593  0.83802775  1
  H  H31  1  0.94478867  0.14628407  0.66197225  1
  H  H32  1  0.55521133  0.83802775  0.14628407  1
  H  H33  1  0.55521133  0.66197225  0.35371593  1
  H  H34  1  0.05521133  0.64628407  0.16197225  1
  H  H35  1  0.05521133  0.85371593  0.33802775  1
  H  H36  1  0.35272614  0.37603193  0.38775115  1
  H  H37  1  0.35272614  0.12396807  0.11224885  1
  H  H38  1  0.85272614  0.88775115  0.62396807  1
  H  H39  1  0.85272614  0.61224885  0.87603193  1
  H  H40  1  0.64727386  0.62396807  0.61224885  1
  H  H41  1  0.64727386  0.87603193  0.88775115  1
  H  H42  1  0.14727386  0.11224885  0.37603193  1
  H  H43  1  0.14727386  0.38775115  0.12396807  1
  H  H44  1  0.47050687  0.29868135  0.33053490  1
  H  H45  1  0.47050687  0.20131865  0.16946510  1
  H  H46  1  0.97050687  0.83053490  0.70131865  1
  H  H47  1  0.97050687  0.66946510  0.79868135  1
  H  H48  1  0.52949313  0.70131865  0.66946510  1
  H  H49  1  0.52949313  0.79868135  0.83053490  1
  H  H50  1  0.02949313  0.16946510  0.29868135  1
  H  H51  1  0.02949313  0.33053490  0.20131865  1
  H  H52  1  0.25910031  0.50505934  0.30401783  1
  H  H53  1  0.25910031  0.99494066  0.19598217  1
  H  H54  1  0.75910031  0.80401783  0.49494066  1
  H  H55  1  0.75910031  0.69598217  0.00505934  1
  H  H56  1  0.74089969  0.49494066  0.69598217  1
  H  H57  1  0.74089969  0.00505934  0.80401783  1
  H  H58  1  0.24089969  0.19598217  0.50505934  1
  H  H59  1  0.24089969  0.30401783  0.99494066  1
  H  H60  1  0.32608153  0.53607556  0.19037373  1
  H  H61  1  0.32608153  0.96392444  0.30962627  1
  H  H62  1  0.82608153  0.69037373  0.46392444  1
  H  H63  1  0.82608153  0.80962627  0.03607556  1
  H  H64  1  0.67391847  0.46392444  0.80962627  1
  H  H65  1  0.67391847  0.03607556  0.69037373  1
  H  H66  1  0.17391847  0.30962627  0.53607556  1
  H  H67  1  0.17391847  0.19037373  0.96392444  1
  C  C68  1  0.40957348  0.41472939  0.24946410  1
  C  C69  1  0.40957348  0.08527061  0.25053590  1
  C  C70  1  0.90957348  0.74946410  0.58527061  1
  C  C71  1  0.90957348  0.75053590  0.91472939  1
  C  C72  1  0.59042652  0.58527061  0.75053590  1
  C  C73  1  0.59042652  0.91472939  0.74946410  1
  C  C74  1  0.09042652  0.25053590  0.41472939  1
  C  C75  1  0.09042652  0.24946410  0.08527061  1
  C  C76  1  0.56850311  0.25462077  0.92557413  1
  C  C77  1  0.56850311  0.24537923  0.57442587  1
  C  C78  1  0.06850311  0.42557413  0.74537923  1
  C  C79  1  0.06850311  0.07442587  0.75462077  1
  C  C80  1  0.43149689  0.74537923  0.07442587  1
  C  C81  1  0.43149689  0.75462077  0.42557413  1
  C  C82  1  0.93149689  0.57442587  0.25462077  1
  C  C83  1  0.93149689  0.92557413  0.24537923  1
  S  S84  1  0.51671212  0.38678477  0.15522540  1
  S  S85  1  0.51671212  0.11321523  0.34477460  1
  S  S86  1  0.01671212  0.65522540  0.61321523  1
  S  S87  1  0.01671212  0.84477460  0.88678477  1
  S  S88  1  0.48328788  0.61321523  0.84477460  1
  S  S89  1  0.48328788  0.88678477  0.65522540  1
  S  S90  1  0.98328788  0.34477460  0.38678477  1
  S  S91  1  0.98328788  0.15522540  0.11321523  1
  S  S92  1  0.47468403  0.35303051  0.88847933  1
  S  S93  1  0.47468403  0.14696949  0.61152067  1
  S  S94  1  0.97468403  0.38847933  0.64696949  1
  S  S95  1  0.97468403  0.11152067  0.85303051  1
  S  S96  1  0.52531597  0.64696949  0.11152067  1
  S  S97  1  0.52531597  0.85303051  0.38847933  1
  S  S98  1  0.02531597  0.61152067  0.35303051  1
  S  S99  1  0.02531597  0.88847933  0.14696949  1
  N  N100  1  0.68153010  0.26130828  0.97958025  1
  N  N101  1  0.68153010  0.23869172  0.52041975  1
  N  N102  1  0.18153010  0.47958025  0.73869172  1
  N  N103  1  0.18153010  0.02041975  0.76130828  1
  N  N104  1  0.31846990  0.73869172  0.02041975  1
  N  N105  1  0.31846990  0.76130828  0.47958025  1
  N  N106  1  0.81846990  0.52041975  0.26130828  1
  N  N107  1  0.81846990  0.97958025  0.23869172  1
  N  N108  1  0.52573769  0.16646146  0.89912255  1
  N  N109  1  0.52573769  0.33353854  0.60087745  1
  N  N110  1  0.02573769  0.39912255  0.83353854  1
  N  N111  1  0.02573769  0.10087745  0.66646146  1
  N  N112  1  0.47426231  0.83353854  0.10087745  1
  N  N113  1  0.47426231  0.66646146  0.39912255  1
  N  N114  1  0.97426231  0.60087745  0.16646146  1
  N  N115  1  0.97426231  0.89912255  0.33353854  1
  N  N116  1  0.41231798  0.35999798  0.32941103  1
  N  N117  1  0.41231798  0.14000202  0.17058897  1
  N  N118  1  0.91231798  0.82941103  0.64000202  1
  N  N119  1  0.91231798  0.67058897  0.85999798  1
  N  N120  1  0.58768202  0.64000202  0.67058897  1
  N  N121  1  0.58768202  0.85999798  0.82941103  1
  N  N122  1  0.08768202  0.17058897  0.35999798  1
  N  N123  1  0.08768202  0.32941103  0.14000202  1
  N  N124  1  0.32163325  0.48924362  0.24699881  1
  N  N125  1  0.32163325  0.01075638  0.25300119  1
  N  N126  1  0.82163325  0.74699881  0.51075638  1
  N  N127  1  0.82163325  0.75300119  0.98924362  1
  N  N128  1  0.67836675  0.51075638  0.75300119  1
  N  N129  1  0.67836675  0.98924362  0.74699881  1
  N  N130  1  0.17836675  0.25300119  0.48924362  1
  N  N131  1  0.17836675  0.24699881  0.01075638  1
  Cl  Cl132  1  0.23550789  0.50578391  0.99724560  1
  Cl  Cl133  1  0.23550789  0.99421609  0.50275440  1
  Cl  Cl134  1  0.73550789  0.49724560  0.49421609  1
  Cl  Cl135  1  0.73550789  0.00275440  0.00578391  1
  Cl  Cl136  1  0.76449211  0.49421609  0.00275440  1
  Cl  Cl137  1  0.76449211  0.00578391  0.49724560  1
  Cl  Cl138  1  0.26449211  0.50275440  0.50578391  1
  Cl  Cl139  1  0.26449211  0.99724560  0.99421609  1
