# generated using pymatgen
data_Na2Al2Si3H6O13
_symmetry_space_group_name_H-M   'P 1'
_cell_length_a   6.60208382
_cell_length_b   10.08274134
_cell_length_c   10.21728003
_cell_angle_alpha   83.59274665
_cell_angle_beta   71.15045023
_cell_angle_gamma   69.79351282
_symmetry_Int_Tables_number   1
_chemical_formula_structural   Na2Al2Si3H6O13
_chemical_formula_sum   'Na4 Al4 Si6 H12 O26'
_cell_volume   604.04455006
_cell_formula_units_Z   2
loop_
 _symmetry_equiv_pos_site_id
 _symmetry_equiv_pos_as_xyz
  1  'x, y, z'
loop_
 _atom_site_type_symbol
 _atom_site_label
 _atom_site_symmetry_multiplicity
 _atom_site_fract_x
 _atom_site_fract_y
 _atom_site_fract_z
 _atom_site_occupancy
  Na  Na0  1  0.15614390  0.95139362  0.46690480  1
  Na  Na1  1  0.37304870  0.45139362  0.03309520  1
  Na  Na2  1  0.71499087  0.88867658  0.41175634  1
  Na  Na3  1  0.87674722  0.38867658  0.08824366  1
  Al  Al4  1  0.41196827  0.57139592  0.31959552  1
  Al  Al5  1  0.48156379  0.07139592  0.18040448  1
  Al  Al6  1  0.32891068  0.39877661  0.67402043  1
  Al  Al7  1  0.75293110  0.89877661  0.82597957  1
  Si  Si8  1  0.75533836  0.49780550  0.49235989  1
  Si  Si9  1  0.99769825  0.99780550  0.00764011  1
  Si  Si10  1  0.27767129  0.30229121  0.41162030  1
  Si  Si11  1  0.43929159  0.80229121  0.08837970  1
  Si  Si12  1  0.99128117  0.66686380  0.58848566  1
  Si  Si13  1  0.32976684  0.16686380  0.91151434  1
  H  H14  1  0.86883909  0.58641258  0.20734790  1
  H  H15  1  0.82618700  0.08641258  0.29265210  1
  H  H16  1  0.90662815  0.65256604  0.05648306  1
  H  H17  1  0.71311122  0.15256604  0.44351694  1
  H  H18  1  0.88485912  0.29112539  0.87804154  1
  H  H19  1  0.51290066  0.79112539  0.62195846  1
  H  H20  1  0.40441931  0.94841419  0.67267807  1
  H  H21  1  0.82709738  0.44841419  0.82732193  1
  H  H22  1  0.91326359  0.22095659  0.62798227  1
  H  H23  1  0.29124586  0.72095659  0.87201773  1
  H  H24  1  0.95757318  0.09255018  0.73394596  1
  H  H25  1  0.44151914  0.59255018  0.76605404  1
  O  O26  1  0.67753316  0.53372527  0.35197211  1
  O  O27  1  0.77950527  0.03372527  0.14802789  1
  O  O28  1  0.56167111  0.46364391  0.62300945  1
  O  O29  1  0.93468056  0.96364391  0.87699055  1
  O  O30  1  0.45064503  0.64676090  0.15522728  1
  O  O31  1  0.35587232  0.14676090  0.34477272  1
  O  O32  1  0.87488382  0.82031093  0.66147742  1
  O  O33  1  0.28636124  0.32031093  0.83852258  1
  O  O34  1  0.19276274  0.68220560  0.44930316  1
  O  O35  1  0.39206590  0.18220560  0.05069684  1
  O  O36  1  0.37932818  0.28475820  0.54019254  1
  O  O37  1  0.66952072  0.78475820  0.95980746  1
  O  O38  1  0.37147997  0.41225338  0.29597750  1
  O  O39  1  0.41745747  0.91225338  0.20402250  1
  O  O40  1  0.06943696  0.53641182  0.68815048  1
  O  O41  1  0.50758744  0.03641182  0.81184952  1
  O  O42  1  0.99509112  0.36692122  0.46378560  1
  O  O43  1  0.20887672  0.86692122  0.03621440  1
  O  O44  1  0.79265165  0.64262667  0.53152342  1
  O  O45  1  0.07417507  0.14262667  0.96847658  1
  O  O46  1  0.98110231  0.57908396  0.11356885  1
  O  O47  1  0.84467116  0.07908396  0.38643115  1
  O  O48  1  0.76530675  0.38393462  0.89510756  1
  O  O49  1  0.41041431  0.88393462  0.60489244  1
  O  O50  1  0.98175471  0.11973532  0.63621389  1
  O  O51  1  0.36796860  0.61973532  0.86378611  1
