# generated using pymatgen
data_Li2V18O39
_symmetry_space_group_name_H-M   'P 1'
_cell_length_a   3.74782212
_cell_length_b   11.28158231
_cell_length_c   17.47936131
_cell_angle_alpha   104.73442374
_cell_angle_beta   90.00000000
_cell_angle_gamma   99.56135112
_symmetry_Int_Tables_number   1
_chemical_formula_structural   Li2V18O39
_chemical_formula_sum   'Li2 V18 O39'
_cell_volume   704.12667265
_cell_formula_units_Z   1
loop_
 _symmetry_equiv_pos_site_id
 _symmetry_equiv_pos_as_xyz
  1  'x, y, z'
loop_
 _atom_site_type_symbol
 _atom_site_label
 _atom_site_symmetry_multiplicity
 _atom_site_fract_x
 _atom_site_fract_y
 _atom_site_fract_z
 _atom_site_occupancy
  Li  Li0  1  0.73993432  0.47986864  0.34043107  1
  Li  Li1  1  0.26006568  0.52013136  0.65956893  1
  V  V2  1  0.11879787  0.23759575  0.23741382  1
  V  V3  1  0.88120213  0.76240425  0.76258618  1
  V  V4  1  0.44804506  0.89609011  0.90125412  1
  V  V5  1  0.55195494  0.10390989  0.09874588  1
  V  V6  1  0.79809221  0.59618443  0.55104366  1
  V  V7  1  0.20190779  0.40381557  0.44895634  1
  V  V8  1  0.25932959  0.51865918  0.15176047  1
  V  V9  1  0.74067041  0.48134082  0.84823953  1
  V  V10  1  0.58899686  0.17799372  0.82459431  1
  V  V11  1  0.41100314  0.82200628  0.17540569  1
  V  V12  1  0.93433818  0.86867636  0.47249053  1
  V  V13  1  0.06566182  0.13132364  0.52750947  1
  V  V14  1  0.36125919  0.72251839  0.34506466  1
  V  V15  1  0.63874081  0.27748161  0.65493534  1
  V  V16  1  0.69158851  0.38317701  0.02194791  1
  V  V17  1  0.30841149  0.61682299  0.97805209  1
  V  V18  1  0.02261913  0.04523826  0.69105510  1
  V  V19  1  0.97738087  0.95476174  0.30894490  1
  O  O20  1  0.39083226  0.78166452  0.78844314  1
  O  O21  1  0.60916774  0.21833548  0.21155686  1
  O  O22  1  0.06456959  0.12913918  0.12452312  1
  O  O23  1  0.93543041  0.87086082  0.87547688  1
  O  O24  1  0.72956196  0.45912391  0.45119471  1
  O  O25  1  0.27043804  0.54087609  0.54880529  1
  O  O26  1  0.42149613  0.84299226  0.45404241  1
  O  O27  1  0.57850387  0.15700774  0.54595759  1
  O  O28  1  0.08425100  0.16850201  0.79548814  1
  O  O29  1  0.91574900  0.83149799  0.20451186  1
  O  O30  1  0.75619646  0.51239291  0.12568878  1
  O  O31  1  0.24380354  0.48760709  0.87431122  1
  O  O32  1  0.55057638  0.10115275  0.70234791  1
  O  O33  1  0.44942362  0.89884725  0.29765209  1
  O  O34  1  0.22101277  0.44202554  0.03299802  1
  O  O35  1  0.77898723  0.55797446  0.96700198  1
  O  O36  1  0.88776656  0.77553312  0.35440041  1
  O  O37  1  0.11223344  0.22446688  0.64559959  1
  O  O38  1  0.50000000  0.00000000  -0.00000000  1
  O  O39  1  0.83038890  0.66077779  0.66646446  1
  O  O40  1  0.16961110  0.33922221  0.33353554  1
  O  O41  1  0.52602769  0.05205538  0.86046555  1
  O  O42  1  0.47397231  0.94794462  0.13953445  1
  O  O43  1  0.20084612  0.40169224  0.19688786  1
  O  O44  1  0.79915388  0.59830776  0.80311214  1
  O  O45  1  0.86332402  0.72664804  0.51976127  1
  O  O46  1  0.13667598  0.27335196  0.48023873  1
  O  O47  1  0.62594631  0.25189262  0.05334925  1
  O  O48  1  0.37405369  0.74810738  0.94665075  1
  O  O49  1  0.29187955  0.58375909  0.36797358  1
  O  O50  1  0.70812045  0.41624091  0.63202642  1
  O  O51  1  0.95400343  0.90800687  0.71724842  1
  O  O52  1  0.04599657  0.09199313  0.28275158  1
  O  O53  1  0.65416971  0.30833942  0.90734460  1
  O  O54  1  0.34583029  0.69166058  0.09265540  1
  O  O55  1  0.32764375  0.65528749  0.23013998  1
  O  O56  1  0.67235625  0.34471251  0.76986002  1
  O  O57  1  0.00626358  0.01252717  0.42837177  1
  O  O58  1  0.99373642  0.98747283  0.57162823  1
