# generated using pymatgen
data_SiBH3CNCl3
_symmetry_space_group_name_H-M   'P 1'
_cell_length_a   11.24634316
_cell_length_b   11.24634316
_cell_length_c   11.24634285
_cell_angle_alpha   105.58111454
_cell_angle_beta   105.58111454
_cell_angle_gamma   105.58111737
_symmetry_Int_Tables_number   1
_chemical_formula_structural   SiBH3CNCl3
_chemical_formula_sum   'Si6 B6 H18 C6 N6 Cl18'
_cell_volume   1227.59175160
_cell_formula_units_Z   6
loop_
 _symmetry_equiv_pos_site_id
 _symmetry_equiv_pos_as_xyz
  1  'x, y, z'
loop_
 _atom_site_type_symbol
 _atom_site_label
 _atom_site_symmetry_multiplicity
 _atom_site_fract_x
 _atom_site_fract_y
 _atom_site_fract_z
 _atom_site_occupancy
  Si  Si0  1  0.12129645  0.54051219  0.35562905  1
  Si  Si1  1  0.54051219  0.35562905  0.12129645  1
  Si  Si2  1  0.35562905  0.12129645  0.54051219  1
  Si  Si3  1  0.62129645  0.85562905  0.04051219  1
  Si  Si4  1  0.85562905  0.04051219  0.62129645  1
  Si  Si5  1  0.04051219  0.62129645  0.85562905  1
  B  B6  1  0.12052262  0.28365277  0.20689286  1
  B  B7  1  0.28365277  0.20689286  0.12052262  1
  B  B8  1  0.20689286  0.12052262  0.28365277  1
  B  B9  1  0.62052262  0.70689286  0.78365277  1
  B  B10  1  0.70689286  0.78365277  0.62052262  1
  B  B11  1  0.78365277  0.62052262  0.70689286  1
  H  H12  1  0.06891046  0.19608199  0.33971380  1
  H  H13  1  0.19608199  0.33971380  0.06891046  1
  H  H14  1  0.33971380  0.06891046  0.19608199  1
  H  H15  1  0.56891046  0.83971380  0.69608199  1
  H  H16  1  0.83971380  0.69608199  0.56891046  1
  H  H17  1  0.69608199  0.56891046  0.83971380  1
  H  H18  1  0.00838364  0.39966634  0.12603386  1
  H  H19  1  0.39966634  0.12603386  0.00838364  1
  H  H20  1  0.12603386  0.00838364  0.39966634  1
  H  H21  1  0.50838364  0.62603386  0.89966634  1
  H  H22  1  0.62603386  0.89966634  0.50838364  1
  H  H23  1  0.89966634  0.50838364  0.62603386  1
  H  H24  1  0.94444667  0.32960862  0.23016910  1
  H  H25  1  0.32960862  0.23016910  0.94444667  1
  H  H26  1  0.23016910  0.94444667  0.32960862  1
  H  H27  1  0.44444667  0.73016910  0.82960862  1
  H  H28  1  0.73016910  0.82960862  0.44444667  1
  H  H29  1  0.82960862  0.44444667  0.73016910  1
  C  C30  1  0.03683173  0.37741176  0.21694869  1
  C  C31  1  0.37741176  0.21694869  0.03683173  1
  C  C32  1  0.21694869  0.03683173  0.37741176  1
  C  C33  1  0.53683173  0.71694869  0.87741176  1
  C  C34  1  0.71694869  0.87741176  0.53683173  1
  C  C35  1  0.87741176  0.53683173  0.71694869  1
  N  N36  1  0.12459964  0.19854380  0.28181866  1
  N  N37  1  0.19854380  0.28181866  0.12459964  1
  N  N38  1  0.28181866  0.12459964  0.19854380  1
  N  N39  1  0.62459964  0.78181866  0.69854380  1
  N  N40  1  0.78181866  0.69854380  0.62459964  1
  N  N41  1  0.69854380  0.62459964  0.78181866  1
  Cl  Cl42  1  0.00016847  0.64906474  0.36434826  1
  Cl  Cl43  1  0.64906474  0.36434826  0.00016847  1
  Cl  Cl44  1  0.36434826  0.00016847  0.64906474  1
  Cl  Cl45  1  0.50016847  0.86434826  0.14906474  1
  Cl  Cl46  1  0.86434826  0.14906474  0.50016847  1
  Cl  Cl47  1  0.14906474  0.50016847  0.86434826  1
  Cl  Cl48  1  0.28680923  0.65552927  0.33811885  1
  Cl  Cl49  1  0.65552927  0.33811885  0.28680923  1
  Cl  Cl50  1  0.33811885  0.28680923  0.65552927  1
  Cl  Cl51  1  0.78680923  0.83811885  0.15552927  1
  Cl  Cl52  1  0.83811885  0.15552927  0.78680923  1
  Cl  Cl53  1  0.15552927  0.78680923  0.83811885  1
  Cl  Cl54  1  0.17690540  0.51845058  0.53552049  1
  Cl  Cl55  1  0.51845058  0.53552049  0.17690540  1
  Cl  Cl56  1  0.53552049  0.17690540  0.51845058  1
  Cl  Cl57  1  0.67690540  0.03552049  0.01845058  1
  Cl  Cl58  1  0.03552049  0.01845058  0.67690540  1
  Cl  Cl59  1  0.01845058  0.67690540  0.03552049  1
