# generated using pymatgen
data_Sb2H24C6(NCl3)3
_symmetry_space_group_name_H-M   'P 1'
_cell_length_a   9.35415005
_cell_length_b   9.71094383
_cell_length_c   14.69555829
_cell_angle_alpha   95.94917363
_cell_angle_beta   90.00000000
_cell_angle_gamma   90.00000000
_symmetry_Int_Tables_number   1
_chemical_formula_structural   Sb2H24C6(NCl3)3
_chemical_formula_sum   'Sb4 H48 C12 N6 Cl18'
_cell_volume   1327.72010719
_cell_formula_units_Z   2
loop_
 _symmetry_equiv_pos_site_id
 _symmetry_equiv_pos_as_xyz
  1  'x, y, z'
loop_
 _atom_site_type_symbol
 _atom_site_label
 _atom_site_symmetry_multiplicity
 _atom_site_fract_x
 _atom_site_fract_y
 _atom_site_fract_z
 _atom_site_occupancy
  Sb  Sb0  1  0.19656959  0.00121084  0.50286616  1
  Sb  Sb1  1  0.80343041  0.00121084  0.00286616  1
  Sb  Sb2  1  0.70008851  0.67408063  0.33920391  1
  Sb  Sb3  1  0.29991149  0.67408063  0.83920391  1
  H  H4  1  0.26407244  0.27806821  0.77538947  1
  H  H5  1  0.73592756  0.27806821  0.27538947  1
  H  H6  1  0.28588442  0.10915769  0.73980043  1
  H  H7  1  0.71411558  0.10915769  0.23980043  1
  H  H8  1  0.11280006  0.35261644  0.43849004  1
  H  H9  1  0.88719994  0.35261644  0.93849004  1
  H  H10  1  0.03357849  0.50066766  0.42247551  1
  H  H11  1  0.96642151  0.50066766  0.92247551  1
  H  H12  1  0.14269715  0.96077249  0.20355856  1
  H  H13  1  0.85730285  0.96077249  0.70355856  1
  H  H14  1  0.11925165  0.86997231  0.09997968  1
  H  H15  1  0.88074835  0.86997231  0.59997968  1
  H  H16  1  0.51171615  0.22351627  0.73532459  1
  H  H17  1  0.48828385  0.22351627  0.23532459  1
  H  H18  1  0.49018345  0.28692077  0.85377369  1
  H  H19  1  0.50981655  0.28692077  0.35377369  1
  H  H20  1  0.51103158  0.10538113  0.82249381  1
  H  H21  1  0.48896842  0.10538113  0.32249381  1
  H  H22  1  0.12613645  0.13870171  0.86682654  1
  H  H23  1  0.87386355  0.13870171  0.36682654  1
  H  H24  1  0.28732036  0.05017503  0.89388342  1
  H  H25  1  0.71267964  0.05017503  0.39388342  1
  H  H26  1  0.26498299  0.23002033  0.93304707  1
  H  H27  1  0.73501701  0.23002033  0.43304707  1
  H  H28  1  0.21850677  0.44850015  0.58106906  1
  H  H29  1  0.78149323  0.44850015  0.08106906  1
  H  H30  1  0.13540158  0.61146616  0.56497112  1
  H  H31  1  0.86459842  0.61146616  0.06497112  1
  H  H32  1  0.02815253  0.46299264  0.58359686  1
  H  H33  1  0.97184747  0.46299264  0.08359686  1
  H  H34  1  0.26295181  0.61658215  0.41838522  1
  H  H35  1  0.73704819  0.61658215  0.91838522  1
  H  H36  1  0.24328675  0.47232684  0.33216300  1
  H  H37  1  0.75671325  0.47232684  0.83216300  1
  H  H38  1  0.34560844  0.45473749  0.43398558  1
  H  H39  1  0.65439156  0.45473749  0.93398558  1
  H  H40  1  0.05514868  0.73284517  0.22052410  1
  H  H41  1  0.94485132  0.73284517  0.72052410  1
  H  H42  1  0.20793982  0.66354136  0.15665336  1
  H  H43  1  0.79206018  0.66354136  0.65665336  1
  H  H44  1  0.23279159  0.75847911  0.26662677  1
  H  H45  1  0.76720841  0.75847911  0.76662677  1
  H  H46  1  0.36743060  0.82577931  0.08254474  1
  H  H47  1  0.63256940  0.82577931  0.58254474  1
  H  H48  1  0.39910417  0.90882767  0.19524014  1
  H  H49  1  0.60089583  0.90882767  0.69524014  1
  H  H50  1  0.33599027  0.00795121  0.10604586  1
  H  H51  1  0.66400973  0.00795121  0.60604586  1
  C  C52  1  0.46760296  0.20167129  0.80123528  1
  C  C53  1  0.53239704  0.20167129  0.30123528  1
  C  C54  1  0.24154663  0.14859249  0.87791893  1
  C  C55  1  0.75845337  0.14859249  0.37791893  1
  C  C56  1  0.12610778  0.49862972  0.55298263  1
  C  C57  1  0.87389222  0.49862972  0.05298263  1
  C  C58  1  0.25297683  0.50388566  0.40550586  1
  C  C59  1  0.74702317  0.50388566  0.90550586  1
  C  C60  1  0.16777253  0.74885689  0.20439167  1
  C  C61  1  0.83222747  0.74885689  0.70439167  1
  C  C62  1  0.33198968  0.90803657  0.13422663  1
  C  C63  1  0.66801032  0.90803657  0.63422663  1
  N  N64  1  0.30969986  0.18659392  0.79234042  1
  N  N65  1  0.69030014  0.18659392  0.29234042  1
  N  N66  1  0.12238905  0.45932450  0.45232842  1
  N  N67  1  0.87761095  0.45932450  0.95232842  1
  N  N68  1  0.18157998  0.87895871  0.15976136  1
  N  N69  1  0.81842002  0.87895871  0.65976136  1
  Cl  Cl70  1  0.00800350  0.15088161  0.57137317  1
  Cl  Cl71  1  0.99199650  0.15088161  0.07137317  1
  Cl  Cl72  1  0.15843963  0.12158597  0.35000127  1
  Cl  Cl73  1  0.84156037  0.12158597  0.85000127  1
  Cl  Cl74  1  0.38069609  0.18148691  0.55090739  1
  Cl  Cl75  1  0.61930391  0.18148691  0.05090739  1
  Cl  Cl76  1  0.49065498  0.84061353  0.39036689  1
  Cl  Cl77  1  0.50934502  0.84061353  0.89036689  1
  Cl  Cl78  1  0.22764511  0.90574079  0.66600742  1
  Cl  Cl79  1  0.77235489  0.90574079  0.16600742  1
  Cl  Cl80  1  0.96501265  0.80344599  0.46652819  1
  Cl  Cl81  1  0.03498735  0.80344599  0.96652819  1
  Cl  Cl82  1  0.89050640  0.47467526  0.29061664  1
  Cl  Cl83  1  0.10949360  0.47467526  0.79061664  1
  Cl  Cl84  1  0.64705930  0.54498025  0.46795948  1
  Cl  Cl85  1  0.35294070  0.54498025  0.96795948  1
  Cl  Cl86  1  0.53715834  0.54731919  0.23221867  1
  Cl  Cl87  1  0.46284166  0.54731919  0.73221867  1
