# generated using pymatgen
data_Rb2CrCl5O
_symmetry_space_group_name_H-M   'P 1'
_cell_length_a   7.13877346
_cell_length_b   10.19424437
_cell_length_c   14.15213247
_cell_angle_alpha   90.00000000
_cell_angle_beta   90.00000000
_cell_angle_gamma   90.00000000
_symmetry_Int_Tables_number   1
_chemical_formula_structural   Rb2CrCl5O
_chemical_formula_sum   'Rb8 Cr4 Cl20 O4'
_cell_volume   1029.91296555
_cell_formula_units_Z   4
loop_
 _symmetry_equiv_pos_site_id
 _symmetry_equiv_pos_as_xyz
  1  'x, y, z'
loop_
 _atom_site_type_symbol
 _atom_site_label
 _atom_site_symmetry_multiplicity
 _atom_site_fract_x
 _atom_site_fract_y
 _atom_site_fract_z
 _atom_site_occupancy
  Rb  Rb0  1  0.69613657  0.99854494  0.14146463  1
  Rb  Rb1  1  0.80386343  0.50145506  0.64146463  1
  Rb  Rb2  1  0.30386343  0.49854494  0.85853537  1
  Rb  Rb3  1  0.19613657  0.00145506  0.35853537  1
  Rb  Rb4  1  0.30386343  0.00145506  0.85853537  1
  Rb  Rb5  1  0.19613657  0.49854494  0.35853537  1
  Rb  Rb6  1  0.69613657  0.50145506  0.14146463  1
  Rb  Rb7  1  0.80386343  0.99854494  0.64146463  1
  Cr  Cr8  1  0.69059413  0.75000000  0.39875124  1
  Cr  Cr9  1  0.80940587  0.75000000  0.89875124  1
  Cr  Cr10  1  0.30940587  0.25000000  0.60124876  1
  Cr  Cr11  1  0.19059413  0.25000000  0.10124876  1
  Cl  Cl12  1  0.95368731  0.75000000  0.49733725  1
  Cl  Cl13  1  0.54631269  0.75000000  0.99733725  1
  Cl  Cl14  1  0.04631269  0.25000000  0.50266275  1
  Cl  Cl15  1  0.45368731  0.25000000  0.00266275  1
  Cl  Cl16  1  0.92420425  0.75000000  0.26695742  1
  Cl  Cl17  1  0.57579575  0.75000000  0.76695742  1
  Cl  Cl18  1  0.07579575  0.25000000  0.73304258  1
  Cl  Cl19  1  0.42420425  0.25000000  0.23304258  1
  Cl  Cl20  1  0.46981043  0.75000000  0.27541746  1
  Cl  Cl21  1  0.03018957  0.75000000  0.77541746  1
  Cl  Cl22  1  0.53018957  0.25000000  0.72458254  1
  Cl  Cl23  1  0.96981043  0.25000000  0.22458254  1
  Cl  Cl24  1  0.70649994  0.97961521  0.39032750  1
  Cl  Cl25  1  0.79350006  0.52038479  0.89032750  1
  Cl  Cl26  1  0.29350006  0.47961521  0.60967250  1
  Cl  Cl27  1  0.20649994  0.02038479  0.10967250  1
  Cl  Cl28  1  0.29350006  0.02038479  0.60967250  1
  Cl  Cl29  1  0.20649994  0.47961521  0.10967250  1
  Cl  Cl30  1  0.70649994  0.52038479  0.39032750  1
  Cl  Cl31  1  0.79350006  0.97961521  0.89032750  1
  O  O32  1  0.53624312  0.75000000  0.48113257  1
  O  O33  1  0.96375688  0.75000000  0.98113257  1
  O  O34  1  0.46375688  0.25000000  0.51886743  1
  O  O35  1  0.03624312  0.25000000  0.01886743  1
