# generated using pymatgen
data_Y2Ga2Co15
_symmetry_space_group_name_H-M   'P 1'
_cell_length_a   8.17711101
_cell_length_b   8.34364268
_cell_length_c   8.34364268
_cell_angle_alpha   120.02285008
_cell_angle_beta   90.00000000
_cell_angle_gamma   90.00000000
_symmetry_Int_Tables_number   1
_chemical_formula_structural   Y2Ga2Co15
_chemical_formula_sum   'Y4 Ga4 Co30'
_cell_volume   492.88077214
_cell_formula_units_Z   2
loop_
 _symmetry_equiv_pos_site_id
 _symmetry_equiv_pos_as_xyz
  1  'x, y, z'
loop_
 _atom_site_type_symbol
 _atom_site_label
 _atom_site_symmetry_multiplicity
 _atom_site_fract_x
 _atom_site_fract_y
 _atom_site_fract_z
 _atom_site_occupancy
  Y  Y0  1  0.75000000  0.00025157  0.99974843  1
  Y  Y1  1  0.25000000  0.99974843  0.00025157  1
  Y  Y2  1  0.25000000  0.66678937  0.33321063  1
  Y  Y3  1  0.75000000  0.33321063  0.66678937  1
  Ga  Ga4  1  0.59654238  0.66671385  0.33328615  1
  Ga  Ga5  1  0.40345762  0.33328615  0.66671385  1
  Ga  Ga6  1  0.09654238  0.33328615  0.66671385  1
  Ga  Ga7  1  0.90345762  0.66671385  0.33328615  1
  Co  Co8  1  0.50000000  0.50000000  -0.00000000  1
  Co  Co9  1  0.50000000  0.50000000  0.50000000  1
  Co  Co10  1  0.50000000  -0.00000000  0.50000000  1
  Co  Co11  1  -0.00000000  0.50000000  -0.00000000  1
  Co  Co12  1  -0.00000000  0.50000000  0.50000000  1
  Co  Co13  1  -0.00000000  -0.00000000  0.50000000  1
  Co  Co14  1  0.75000000  0.67258672  0.04613073  1
  Co  Co15  1  0.75000000  0.37353474  0.32725969  1
  Co  Co16  1  0.75000000  0.95387214  0.62666010  1
  Co  Co17  1  0.75000000  0.37333990  0.04612786  1
  Co  Co18  1  0.75000000  0.95386927  0.32741328  1
  Co  Co19  1  0.75000000  0.67274031  0.62646526  1
  Co  Co20  1  0.25000000  0.32741328  0.95386927  1
  Co  Co21  1  0.25000000  0.62646526  0.67274031  1
  Co  Co22  1  0.25000000  0.04612786  0.37333990  1
  Co  Co23  1  0.25000000  0.62666010  0.95387214  1
  Co  Co24  1  0.25000000  0.04613073  0.67258672  1
  Co  Co25  1  0.25000000  0.32725969  0.37353474  1
  Co  Co26  1  0.47603954  0.83797756  0.67584999  1
  Co  Co27  1  0.47575020  0.83793012  0.16206988  1
  Co  Co28  1  0.47603954  0.32415001  0.16202244  1
  Co  Co29  1  0.52396046  0.16202244  0.32415001  1
  Co  Co30  1  0.52424980  0.16206988  0.83793012  1
  Co  Co31  1  0.52396046  0.67584999  0.83797756  1
  Co  Co32  1  0.97603954  0.16202244  0.32415001  1
  Co  Co33  1  0.97575020  0.16206988  0.83793012  1
  Co  Co34  1  0.97603954  0.67584999  0.83797756  1
  Co  Co35  1  0.02396046  0.83797756  0.67584999  1
  Co  Co36  1  0.02424980  0.83793012  0.16206988  1
  Co  Co37  1  0.02396046  0.32415001  0.16202244  1
