# generated using pymatgen
data_Mn5Te3O16
_symmetry_space_group_name_H-M   'P 1'
_cell_length_a   6.17770973
_cell_length_b   6.08044601
_cell_length_c   9.38268377
_cell_angle_alpha   89.21858816
_cell_angle_beta   92.63417863
_cell_angle_gamma   118.47445261
_symmetry_Int_Tables_number   1
_chemical_formula_structural   Mn5Te3O16
_chemical_formula_sum   'Mn5 Te3 O16'
_cell_volume   309.46759288
_cell_formula_units_Z   1
loop_
 _symmetry_equiv_pos_site_id
 _symmetry_equiv_pos_as_xyz
  1  'x, y, z'
loop_
 _atom_site_type_symbol
 _atom_site_label
 _atom_site_symmetry_multiplicity
 _atom_site_fract_x
 _atom_site_fract_y
 _atom_site_fract_z
 _atom_site_occupancy
  Mn  Mn0  1  0.35732625  0.67599313  0.50735796  1
  Mn  Mn1  1  0.66075546  0.83479200  0.20674688  1
  Mn  Mn2  1  0.69644385  0.34929939  0.97913536  1
  Mn  Mn3  1  0.83550090  0.66336757  0.70992795  1
  Mn  Mn4  1  0.83245926  0.16208955  0.71367795  1
  Te  Te5  1  0.16277869  0.83442518  0.21012493  1
  Te  Te6  1  0.16460414  0.33953859  0.21054486  1
  Te  Te7  1  0.33199577  0.15782468  0.71551128  1
  O  O8  1  0.17362396  0.84762160  0.60799717  1
  O  O9  1  0.03175351  0.51982914  0.32917889  1
  O  O10  1  0.29189232  0.65130659  0.09052729  1
  O  O11  1  0.02258113  0.01769782  0.31995862  1
  O  O12  1  0.02584820  0.01626044  0.81963158  1
  O  O13  1  0.17152257  0.33018284  0.61324909  1
  O  O14  1  0.45099308  0.95422828  0.32860125  1
  O  O15  1  0.45406815  0.49601642  0.32843005  1
  O  O16  1  0.30918608  0.15968066  0.10121968  1
  O  O17  1  0.69043553  0.84465550  0.61273821  1
  O  O18  1  0.51601664  0.45698592  0.84559178  1
  O  O19  1  0.52279012  0.03570723  0.83759849  1
  O  O20  1  0.63252661  0.30754236  0.60347209  1
  O  O21  1  0.86016707  0.68895994  0.09970130  1
  O  O22  1  0.94809827  0.46663900  0.82322123  1
  O  O23  1  0.85663045  0.18955715  0.10157614  1
