# generated using pymatgen
data_Ti45Se16
_symmetry_space_group_name_H-M   'P 1'
_cell_length_a   3.48685985
_cell_length_b   16.47849805
_cell_length_c   17.77968724
_cell_angle_alpha   91.71415172
_cell_angle_beta   95.62731796
_cell_angle_gamma   90.00000000
_symmetry_Int_Tables_number   1
_chemical_formula_structural   Ti45Se16
_chemical_formula_sum   'Ti45 Se16'
_cell_volume   1016.20640471
_cell_formula_units_Z   1
loop_
 _symmetry_equiv_pos_site_id
 _symmetry_equiv_pos_as_xyz
  1  'x, y, z'
loop_
 _atom_site_type_symbol
 _atom_site_label
 _atom_site_symmetry_multiplicity
 _atom_site_fract_x
 _atom_site_fract_y
 _atom_site_fract_z
 _atom_site_occupancy
  Ti  Ti0  1  0.00000000  0.50000000  0.00000000  1
  Ti  Ti1  1  0.47203273  0.63355127  0.94406546  1
  Ti  Ti2  1  0.52796727  0.36644873  0.05593454  1
  Ti  Ti3  1  0.55912153  0.55909076  0.11824307  1
  Ti  Ti4  1  0.44087847  0.44090924  0.88175693  1
  Ti  Ti5  1  0.08688078  0.44958294  0.17376155  1
  Ti  Ti6  1  0.91311922  0.55041706  0.82623845  1
  Ti  Ti7  1  0.10344333  0.66484327  0.20688666  1
  Ti  Ti8  1  0.89655667  0.33515673  0.79311334  1
  Ti  Ti9  1  0.64545598  0.52723701  0.29091197  1
  Ti  Ti10  1  0.35454402  0.47276299  0.70908803  1
  Ti  Ti11  1  0.62075356  0.33253843  0.24150712  1
  Ti  Ti12  1  0.37924644  0.66746157  0.75849288  1
  Ti  Ti13  1  0.72780308  0.65927897  0.45560616  1
  Ti  Ti14  1  0.27219692  0.34072103  0.54439384  1
  Ti  Ti15  1  0.70933462  0.38474132  0.41866924  1
  Ti  Ti16  1  0.29066538  0.61525868  0.58133076  1
  Ti  Ti17  1  0.22041091  0.51219245  0.44082182  1
  Ti  Ti18  1  0.77958909  0.48780755  0.55917818  1
  Ti  Ti19  1  0.55170585  0.75098430  0.10341169  1
  Ti  Ti20  1  0.44829415  0.24901570  0.89658831  1
  Ti  Ti21  1  0.43269741  0.83420887  0.86539483  1
  Ti  Ti22  1  0.56730259  0.16579113  0.13460517  1
  Ti  Ti23  1  0.52107343  0.90817401  0.04214687  1
  Ti  Ti24  1  0.47892657  0.09182599  0.95785313  1
  Ti  Ti25  1  0.99401693  0.79433253  0.98803386  1
  Ti  Ti26  1  0.00598307  0.20566747  0.01196614  1
  Ti  Ti27  1  0.09063579  0.87746596  0.18127159  1
  Ti  Ti28  1  0.90936421  0.12253404  0.81872841  1
  Ti  Ti29  1  0.03662455  0.04317950  0.07324909  1
  Ti  Ti30  1  0.96337545  0.95682050  0.92675091  1
  Ti  Ti31  1  0.17954204  0.79363648  0.35908408  1
  Ti  Ti32  1  0.82045796  0.20636352  0.64091592  1
  Ti  Ti33  1  0.65868564  0.93234140  0.31737129  1
  Ti  Ti34  1  0.34131436  0.06765860  0.68262871  1
  Ti  Ti35  1  0.70030544  0.10000240  0.40061087  1
  Ti  Ti36  1  0.29969456  0.89999760  0.59938913  1
  Ti  Ti37  1  0.21739616  0.98171170  0.43479231  1
  Ti  Ti38  1  0.78260384  0.01828830  0.56520769  1
  Ti  Ti39  1  0.13341678  0.06630794  0.26683357  1
  Ti  Ti40  1  0.86658322  0.93369206  0.73316643  1
  Ti  Ti41  1  0.26302016  0.13932064  0.52604033  1
  Ti  Ti42  1  0.73697984  0.86067936  0.47395967  1
  Ti  Ti43  1  0.18689938  0.25054842  0.37379877  1
  Ti  Ti44  1  0.81310062  0.74945158  0.62620123  1
  Se  Se45  1  0.74080549  0.24309271  0.48161098  1
  Se  Se46  1  0.25919451  0.75690729  0.51838902  1
  Se  Se47  1  0.63949997  0.18474676  0.27899994  1
  Se  Se48  1  0.36050003  0.81525324  0.72100006  1
  Se  Se49  1  0.58768436  0.99741910  0.17536873  1
  Se  Se50  1  0.41231564  0.00258090  0.82463127  1
  Se  Se51  1  0.62433915  0.78284720  0.24867829  1
  Se  Se52  1  0.37566085  0.21715280  0.75132171  1
  Se  Se53  1  0.17360609  0.63449403  0.34721217  1
  Se  Se54  1  0.82639391  0.36550597  0.65278783  1
  Se  Se55  1  0.15923699  0.41340285  0.31847397  1
  Se  Se56  1  0.84076301  0.58659715  0.68152603  1
  Se  Se57  1  0.02708792  0.64894936  0.05417585  1
  Se  Se58  1  0.97291208  0.35105064  0.94582415  1
  Se  Se59  1  0.92982298  0.71102977  0.85964596  1
  Se  Se60  1  0.07017702  0.28897023  0.14035404  1
