# generated using pymatgen
data_SiO2
_symmetry_space_group_name_H-M   'P 1'
_cell_length_a   7.27585428
_cell_length_b   7.22631337
_cell_length_c   24.99805923
_cell_angle_alpha   90.00000000
_cell_angle_beta   90.00000000
_cell_angle_gamma   119.98740912
_symmetry_Int_Tables_number   1
_chemical_formula_structural   SiO2
_chemical_formula_sum   'Si32 O64'
_cell_volume   1138.39451436
_cell_formula_units_Z   32
loop_
 _symmetry_equiv_pos_site_id
 _symmetry_equiv_pos_as_xyz
  1  'x, y, z'
loop_
 _atom_site_type_symbol
 _atom_site_label
 _atom_site_symmetry_multiplicity
 _atom_site_fract_x
 _atom_site_fract_y
 _atom_site_fract_z
 _atom_site_occupancy
  Si  Si0  1  0.25987054  0.99487527  0.29531934  1
  Si  Si1  1  0.25987054  0.49487527  0.20468066  1
  Si  Si2  1  0.74012946  0.00512473  0.70468066  1
  Si  Si3  1  0.74012946  0.50512473  0.79531934  1
  Si  Si4  1  0.15703283  0.02944141  0.17863886  1
  Si  Si5  1  0.15703283  0.52944141  0.32136114  1
  Si  Si6  1  0.84296717  0.97055859  0.82136114  1
  Si  Si7  1  0.84296717  0.47055859  0.67863886  1
  Si  Si8  1  0.30947441  0.41859304  0.43190508  1
  Si  Si9  1  0.30947441  0.91859304  0.06809492  1
  Si  Si10  1  0.69052559  0.58140696  0.56809492  1
  Si  Si11  1  0.69052559  0.08140696  0.93190508  1
  Si  Si12  1  0.69486823  0.91795861  0.20411348  1
  Si  Si13  1  0.69486823  0.41795861  0.29588652  1
  Si  Si14  1  0.30513177  0.08204139  0.79588652  1
  Si  Si15  1  0.30513177  0.58204139  0.70411348  1
  Si  Si16  1  0.66934033  0.06518263  0.42583679  1
  Si  Si17  1  0.66934033  0.56518263  0.07416321  1
  Si  Si18  1  0.33065967  0.93481737  0.57416321  1
  Si  Si19  1  0.33065967  0.43481737  0.92583679  1
  Si  Si20  1  0.78924680  0.05271310  0.54439642  1
  Si  Si21  1  0.78924680  0.55271310  0.95560358  1
  Si  Si22  1  0.21075320  0.94728690  0.45560358  1
  Si  Si23  1  0.21075320  0.44728690  0.04439642  1
  Si  Si24  1  0.79838364  0.88659443  0.32175902  1
  Si  Si25  1  0.79838364  0.38659443  0.17824098  1
  Si  Si26  1  0.20161636  0.11340557  0.67824098  1
  Si  Si27  1  0.20161636  0.61340557  0.82175902  1
  Si  Si28  1  0.22657969  0.46934867  0.54794462  1
  Si  Si29  1  0.22657969  0.96934867  0.95205538  1
  Si  Si30  1  0.77342031  0.53065133  0.45205538  1
  Si  Si31  1  0.77342031  0.03065133  0.04794462  1
  O  O32  1  0.89952168  0.89897802  0.18552003  1
  O  O33  1  0.89952168  0.39897802  0.31447997  1
  O  O34  1  0.10047832  0.10102198  0.81447997  1
  O  O35  1  0.10047832  0.60102198  0.68552003  1
  O  O36  1  0.25633587  0.96966639  0.23022247  1
  O  O37  1  0.25633587  0.46966639  0.26977753  1
  O  O38  1  0.74366413  0.03033361  0.76977753  1
  O  O39  1  0.74366413  0.53033361  0.73022247  1
  O  O40  1  0.70682404  0.12856875  0.17659345  1
  O  O41  1  0.70682404  0.62856875  0.32340655  1
  O  O42  1  0.29317596  0.87143125  0.82340655  1
  O  O43  1  0.29317596  0.37143125  0.67659345  1
  O  O44  1  0.73433006  0.97209453  0.37461264  1
  O  O45  1  0.73433006  0.47209453  0.12538736  1
  O  O46  1  0.26566994  0.02790547  0.62538736  1
  O  O47  1  0.26566994  0.52790547  0.87461264  1
  O  O48  1  0.05608543  0.01192644  0.31596878  1
  O  O49  1  0.05608543  0.51192644  0.18403122  1
  O  O50  1  0.94391457  0.98807356  0.68403122  1
  O  O51  1  0.94391457  0.48807356  0.81596878  1
  O  O52  1  0.78179027  0.03720809  0.47926712  1
  O  O53  1  0.78179027  0.53720809  0.02073288  1
  O  O54  1  0.21820973  0.96279191  0.52073288  1
  O  O55  1  0.21820973  0.46279191  0.97926712  1
  O  O56  1  0.21761228  0.49169392  0.48280980  1
  O  O57  1  0.21761228  0.99169392  0.01719020  1
  O  O58  1  0.78238772  0.50830608  0.51719020  1
  O  O59  1  0.78238772  0.00830608  0.98280980  1
  O  O60  1  0.56822695  0.55404453  0.43631343  1
  O  O61  1  0.56822695  0.05404453  0.06368657  1
  O  O62  1  0.43177305  0.44595547  0.56368657  1
  O  O63  1  0.43177305  0.94595547  0.93631343  1
  O  O64  1  0.74971158  0.32054335  0.42141146  1
  O  O65  1  0.74971158  0.82054335  0.07858854  1
  O  O66  1  0.25028842  0.67945665  0.57858854  1
  O  O67  1  0.25028842  0.17945665  0.92141146  1
  O  O68  1  0.47708228  0.20619841  0.31472298  1
  O  O69  1  0.47708228  0.70619841  0.18527702  1
  O  O70  1  0.52291772  0.79380159  0.68527702  1
  O  O71  1  0.52291772  0.29380159  0.81472298  1
  O  O72  1  0.24983174  0.78592749  0.32182892  1
  O  O73  1  0.24983174  0.28592749  0.17817108  1
  O  O74  1  0.75016826  0.21407251  0.67817108  1
  O  O75  1  0.75016826  0.71407251  0.82182892  1
  O  O76  1  0.69803602  0.93966709  0.26926550  1
  O  O77  1  0.69803602  0.43966709  0.23073450  1
  O  O78  1  0.30196398  0.06033291  0.73073450  1
  O  O79  1  0.30196398  0.56033291  0.76926550  1
  O  O80  1  0.00773579  0.25720833  0.56634897  1
  O  O81  1  0.00773579  0.75720833  0.93365103  1
  O  O82  1  0.99226421  0.74279167  0.43365103  1
  O  O83  1  0.99226421  0.24279167  0.06634897  1
  O  O84  1  0.22256960  0.16361069  0.43374893  1
  O  O85  1  0.22256960  0.66361069  0.06625107  1
  O  O86  1  0.77743040  0.83638931  0.56625107  1
  O  O87  1  0.77743040  0.33638931  0.93374893  1
  O  O88  1  0.22626828  0.46566803  0.37639055  1
  O  O89  1  0.22626828  0.96566803  0.12360945  1
  O  O90  1  0.77373172  0.53433197  0.62360945  1
  O  O91  1  0.77373172  0.03433197  0.87639055  1
  O  O92  1  0.41199609  0.93060067  0.43269363  1
  O  O93  1  0.41199609  0.43060067  0.06730637  1
  O  O94  1  0.58800391  0.06939933  0.56730637  1
  O  O95  1  0.58800391  0.56939933  0.93269363  1
