# generated using pymatgen
data_Dy2B3O8
_symmetry_space_group_name_H-M   'P 1'
_cell_length_a   4.38654184
_cell_length_b   8.94267328
_cell_length_c   12.93673904
_cell_angle_alpha   90.00000000
_cell_angle_beta   90.00000000
_cell_angle_gamma   90.00000000
_symmetry_Int_Tables_number   1
_chemical_formula_structural   Dy2B3O8
_chemical_formula_sum   'Dy8 B12 O32'
_cell_volume   507.47477291
_cell_formula_units_Z   4
loop_
 _symmetry_equiv_pos_site_id
 _symmetry_equiv_pos_as_xyz
  1  'x, y, z'
loop_
 _atom_site_type_symbol
 _atom_site_label
 _atom_site_symmetry_multiplicity
 _atom_site_fract_x
 _atom_site_fract_y
 _atom_site_fract_z
 _atom_site_occupancy
  Dy  Dy0  1  0.94932963  0.03868799  0.13919032  1
  Dy  Dy1  1  0.55067037  0.53868799  0.36080968  1
  Dy  Dy2  1  0.55067037  0.96131201  0.63919032  1
  Dy  Dy3  1  0.94932963  0.46131201  0.86080968  1
  Dy  Dy4  1  0.05067037  0.96131201  0.86080968  1
  Dy  Dy5  1  0.44932963  0.46131201  0.63919032  1
  Dy  Dy6  1  0.44932963  0.03868799  0.36080968  1
  Dy  Dy7  1  0.05067037  0.53868799  0.13919032  1
  B  B8  1  0.56484014  0.75000000  -0.00000000  1
  B  B9  1  0.93515986  0.25000000  0.50000000  1
  B  B10  1  0.43515986  0.25000000  0.00000000  1
  B  B11  1  0.06484014  0.75000000  0.50000000  1
  B  B12  1  0.97811404  0.80279695  0.30695879  1
  B  B13  1  0.52188596  0.30279695  0.19304121  1
  B  B14  1  0.52188596  0.19720305  0.80695879  1
  B  B15  1  0.97811404  0.69720305  0.69304121  1
  B  B16  1  0.02188596  0.19720305  0.69304121  1
  B  B17  1  0.47811404  0.69720305  0.80695879  1
  B  B18  1  0.47811404  0.80279695  0.19304121  1
  B  B19  1  0.02188596  0.30279695  0.30695879  1
  O  O20  1  0.96260914  0.96461335  0.31149812  1
  O  O21  1  0.53739086  0.46461335  0.18850188  1
  O  O22  1  0.53739086  0.03538665  0.81149812  1
  O  O23  1  0.96260914  0.53538665  0.68850188  1
  O  O24  1  0.03739086  0.03538665  0.68850188  1
  O  O25  1  0.46260914  0.53538665  0.81149812  1
  O  O26  1  0.46260914  0.96461335  0.18850188  1
  O  O27  1  0.03739086  0.46461335  0.31149812  1
  O  O28  1  0.79282505  0.74608264  0.21674025  1
  O  O29  1  0.70717495  0.24608264  0.28325975  1
  O  O30  1  0.70717495  0.25391736  0.71674025  1
  O  O31  1  0.79282505  0.75391736  0.78325975  1
  O  O32  1  0.20717495  0.25391736  0.78325975  1
  O  O33  1  0.29282505  0.75391736  0.71674025  1
  O  O34  1  0.29282505  0.74608264  0.28325975  1
  O  O35  1  0.20717495  0.24608264  0.21674025  1
  O  O36  1  0.36635578  0.76031622  0.90636802  1
  O  O37  1  0.13364422  0.26031622  0.59363198  1
  O  O38  1  0.13364422  0.23968378  0.40636802  1
  O  O39  1  0.36635578  0.73968378  0.09363198  1
  O  O40  1  0.63364422  0.23968378  0.09363198  1
  O  O41  1  0.86635578  0.73968378  0.40636802  1
  O  O42  1  0.86635578  0.76031622  0.59363198  1
  O  O43  1  0.63364422  0.26031622  0.90636802  1
  O  O44  1  0.77919838  0.62252104  0.99530432  1
  O  O45  1  0.72080162  0.12252104  0.50469568  1
  O  O46  1  0.72080162  0.37747896  0.49530432  1
  O  O47  1  0.77919838  0.87747896  0.00469568  1
  O  O48  1  0.22080162  0.37747896  0.00469568  1
  O  O49  1  0.27919838  0.87747896  0.49530432  1
  O  O50  1  0.27919838  0.62252104  0.50469568  1
  O  O51  1  0.22080162  0.12252104  0.99530432  1
