# generated using pymatgen
data_Dy2Zr2O7
_symmetry_space_group_name_H-M   'P 1'
_cell_length_a   7.32191143
_cell_length_b   7.32188141
_cell_length_c   12.62676749
_cell_angle_alpha   89.99997011
_cell_angle_beta   90.00011629
_cell_angle_gamma   90.00841529
_symmetry_Int_Tables_number   1
_chemical_formula_structural   Dy2Zr2O7
_chemical_formula_sum   'Dy8 Zr8 O28'
_cell_volume   676.92310880
_cell_formula_units_Z   4
loop_
 _symmetry_equiv_pos_site_id
 _symmetry_equiv_pos_as_xyz
  1  'x, y, z'
loop_
 _atom_site_type_symbol
 _atom_site_label
 _atom_site_symmetry_multiplicity
 _atom_site_fract_x
 _atom_site_fract_y
 _atom_site_fract_z
 _atom_site_occupancy
  Dy  Dy0  1  0.13773861  0.62677376  0.13537862  1
  Dy  Dy1  1  0.12693468  0.36224074  0.88535415  1
  Dy  Dy2  1  0.37322120  0.86225932  0.36462001  1
  Dy  Dy3  1  0.36225628  0.12692114  0.11464679  1
  Dy  Dy4  1  0.63776110  0.87307006  0.61464580  1
  Dy  Dy5  1  0.62679025  0.13773895  0.86461770  1
  Dy  Dy6  1  0.87307357  0.63774813  0.38535089  1
  Dy  Dy7  1  0.86226509  0.37322008  0.63538247  1
  Zr  Zr8  1  0.10139299  0.86996769  0.59529090  1
  Zr  Zr9  1  0.13003902  0.89860937  0.90470806  1
  Zr  Zr10  1  0.37001144  0.39874707  0.34537599  1
  Zr  Zr11  1  0.39874456  0.37003059  0.65462378  1
  Zr  Zr12  1  0.60125196  0.62996882  0.15462108  1
  Zr  Zr13  1  0.62998076  0.60125588  0.84537699  1
  Zr  Zr14  1  0.86997698  0.10138326  0.40470991  1
  Zr  Zr15  1  0.89862197  0.13001664  0.09529205  1
  O  O16  1  0.06935921  0.90694887  0.41364745  1
  O  O17  1  0.08464850  0.32748394  0.07391924  1
  O  O18  1  0.09305737  0.93063217  0.08635610  1
  O  O19  1  0.15420182  0.63686097  0.95618329  1
  O  O20  1  0.17235084  0.58459305  0.32407028  1
  O  O21  1  0.13696628  0.34666589  0.70609660  1
  O  O22  1  0.15704616  0.84294669  0.74999951  1
  O  O23  1  0.34275962  0.34281136  0.50000173  1
  O  O24  1  0.36313790  0.84579522  0.54381345  1
  O  O25  1  0.32750396  0.08464394  0.92608078  1
  O  O26  1  0.34663932  0.13696505  0.29390900  1
  O  O27  1  0.40662030  0.43078433  0.16367883  1
  O  O28  1  0.41542692  0.82764704  0.17592540  1
  O  O29  1  0.43079324  0.40662397  0.83631957  1
  O  O30  1  0.56921004  0.59336572  0.33632117  1
  O  O31  1  0.58457144  0.17234916  0.67591767  1
  O  O32  1  0.59337680  0.56921470  0.66368336  1
  O  O33  1  0.65336954  0.86303456  0.79390371  1
  O  O34  1  0.67251393  0.91534902  0.42608101  1
  O  O35  1  0.63687772  0.15419895  0.04381066  1
  O  O36  1  0.65718710  0.65723594  -0.00000324  1
  O  O37  1  0.84296837  0.15704143  0.25000165  1
  O  O38  1  0.86303198  0.65332415  0.20608886  1
  O  O39  1  0.82764260  0.41540723  0.82408350  1
  O  O40  1  0.84580596  0.36312939  0.45619047  1
  O  O41  1  0.90696101  0.06935744  0.58636228  1
  O  O42  1  0.91535807  0.67250291  0.57392020  1
  O  O43  1  0.93065158  0.09303542  0.91364229  1
