# generated using pymatgen
data_W6CCl15
_symmetry_space_group_name_H-M   'P 1'
_cell_length_a   10.50696890
_cell_length_b   12.17867681
_cell_length_c   17.53370036
_cell_angle_alpha   90.00000000
_cell_angle_beta   100.01253717
_cell_angle_gamma   90.00000000
_symmetry_Int_Tables_number   1
_chemical_formula_structural   W6CCl15
_chemical_formula_sum   'W24 C4 Cl60'
_cell_volume   2209.45837889
_cell_formula_units_Z   4
loop_
 _symmetry_equiv_pos_site_id
 _symmetry_equiv_pos_as_xyz
  1  'x, y, z'
loop_
 _atom_site_type_symbol
 _atom_site_label
 _atom_site_symmetry_multiplicity
 _atom_site_fract_x
 _atom_site_fract_y
 _atom_site_fract_z
 _atom_site_occupancy
  W  W0  1  0.58402301  0.82934598  0.02490819  1
  W  W1  1  0.91597699  0.32934598  0.47509181  1
  W  W2  1  0.41597699  0.17065402  0.97509181  1
  W  W3  1  0.08402301  0.67065402  0.52490819  1
  W  W4  1  0.51445311  0.96710183  0.91435062  1
  W  W5  1  0.98554689  0.46710183  0.58564938  1
  W  W6  1  0.48554689  0.03289817  0.08564938  1
  W  W7  1  0.01445311  0.53289817  0.41435062  1
  W  W8  1  0.43360411  0.74334195  0.89792579  1
  W  W9  1  0.06639589  0.24334195  0.60207421  1
  W  W10  1  0.56639589  0.25665805  0.10207421  1
  W  W11  1  0.93360411  0.75665805  0.39792579  1
  W  W12  1  0.81750066  0.74980025  0.96453515  1
  W  W13  1  0.68249934  0.24980025  0.53546485  1
  W  W14  1  0.18249934  0.25019975  0.03546485  1
  W  W15  1  0.31750066  0.75019975  0.46453515  1
  W  W16  1  0.74544736  0.87751538  0.83840089  1
  W  W17  1  0.75455264  0.37751538  0.66159911  1
  W  W18  1  0.25455264  0.12248462  0.16159911  1
  W  W19  1  0.24544736  0.62248462  0.33840089  1
  W  W20  1  0.65759652  0.67098420  0.83765900  1
  W  W21  1  0.84240348  0.17098420  0.66234100  1
  W  W22  1  0.34240348  0.32901580  0.16234100  1
  W  W23  1  0.15759652  0.82901580  0.33765900  1
  C  C24  1  0.62530526  0.81242161  0.90989859  1
  C  C25  1  0.87469474  0.31242161  0.59010141  1
  C  C26  1  0.37469474  0.18757839  0.09010141  1
  C  C27  1  0.12530526  0.68757839  0.40989859  1
  Cl  Cl28  1  0.70935838  0.65301483  0.05768524  1
  Cl  Cl29  1  0.79064162  0.15301483  0.44231476  1
  Cl  Cl30  1  0.29064162  0.34698517  0.94231476  1
  Cl  Cl31  1  0.20935838  0.84698517  0.55768524  1
  Cl  Cl32  1  0.81034783  0.89711602  0.05666230  1
  Cl  Cl33  1  0.68965217  0.39711602  0.44333770  1
  Cl  Cl34  1  0.18965217  0.10288398  0.94333770  1
  Cl  Cl35  1  0.31034783  0.60288398  0.55666230  1
  Cl  Cl36  1  0.73129434  0.04671551  0.91381346  1
  Cl  Cl37  1  0.76870566  0.54671551  0.58618654  1
  Cl  Cl38  1  0.26870566  0.95328449  0.08618654  1
  Cl  Cl39  1  0.23129434  0.45328449  0.41381346  1
  Cl  Cl40  1  0.55108194  0.95096654  0.76545649  1
  Cl  Cl41  1  0.94891806  0.45096654  0.73454351  1
  Cl  Cl42  1  0.44891806  0.04903346  0.23454351  1
  Cl  Cl43  1  0.05108194  0.54903346  0.26545649  1
  Cl  Cl44  1  0.45122637  0.71900599  0.76013114  1
  Cl  Cl45  1  0.04877363  0.21900599  0.73986886  1
  Cl  Cl46  1  0.54877363  0.28099401  0.23986886  1
  Cl  Cl47  1  0.95122637  0.78099401  0.26013114  1
  Cl  Cl48  1  0.53444231  0.56111074  0.91422627  1
  Cl  Cl49  1  0.96555769  0.06111074  0.58577373  1
  Cl  Cl50  1  0.46555769  0.43888926  0.08577373  1
  Cl  Cl51  1  0.03444231  0.93888926  0.41422627  1
  Cl  Cl52  1  0.29984318  0.90163738  0.86815376  1
  Cl  Cl53  1  0.20015682  0.40163738  0.63184624  1
  Cl  Cl54  1  0.70015682  0.09836262  0.13184624  1
  Cl  Cl55  1  0.79984318  0.59836262  0.36815376  1
  Cl  Cl56  1  0.38600717  0.73165321  0.02578108  1
  Cl  Cl57  1  0.11399283  0.23165321  0.47421892  1
  Cl  Cl58  1  0.61399283  0.26834679  0.97421892  1
  Cl  Cl59  1  0.88600717  0.76834679  0.52578108  1
  Cl  Cl60  1  0.96617992  0.84413228  0.89638933  1
  Cl  Cl61  1  0.53382008  0.34413228  0.60361067  1
  Cl  Cl62  1  0.03382008  0.15586772  0.10361067  1
  Cl  Cl63  1  0.46617992  0.65586772  0.39638933  1
  Cl  Cl64  1  0.77113103  0.74439589  0.74142415  1
  Cl  Cl65  1  0.72886897  0.24439589  0.75857585  1
  Cl  Cl66  1  0.22886897  0.25560411  0.25857585  1
  Cl  Cl67  1  0.27113103  0.75560411  0.24142415  1
  Cl  Cl68  1  0.85432456  0.58247442  0.89849265  1
  Cl  Cl69  1  0.64567544  0.08247442  0.60150735  1
  Cl  Cl70  1  0.14567544  0.41752558  0.10150735  1
  Cl  Cl71  1  0.35432456  0.91752558  0.39849265  1
  Cl  Cl72  1  0.42864184  0.14108281  0.84070212  1
  Cl  Cl73  1  0.07135816  0.64108281  0.65929788  1
  Cl  Cl74  1  0.57135816  0.85891719  0.15929788  1
  Cl  Cl75  1  0.92864184  0.35891719  0.34070212  1
  Cl  Cl76  1  0.23647475  0.64145916  0.85914309  1
  Cl  Cl77  1  0.26352525  0.14145916  0.64085691  1
  Cl  Cl78  1  0.76352525  0.35854084  0.14085691  1
  Cl  Cl79  1  0.73647475  0.85854084  0.35914309  1
  Cl  Cl80  1  0.01267916  0.69903765  0.05188635  1
  Cl  Cl81  1  0.48732084  0.19903765  0.44811365  1
  Cl  Cl82  1  0.98732084  0.30096235  0.94811365  1
  Cl  Cl83  1  0.51267916  0.80096235  0.55188635  1
  Cl  Cl84  1  0.62988801  0.49955309  0.75141883  1
  Cl  Cl85  1  0.87011199  0.99955309  0.74858117  1
  Cl  Cl86  1  0.37011199  0.50044691  0.24858117  1
  Cl  Cl87  1  0.12988801  0.00044691  0.25141883  1
