# generated using pymatgen
data_Cs2Fe2(MoO4)3
_symmetry_space_group_name_H-M   'P 1'
_cell_length_a   11.09349561
_cell_length_b   11.09349561
_cell_length_c   11.09349561
_cell_angle_alpha   90.00000000
_cell_angle_beta   90.00000000
_cell_angle_gamma   90.00000000
_symmetry_Int_Tables_number   1
_chemical_formula_structural   Cs2Fe2(MoO4)3
_chemical_formula_sum   'Cs8 Fe8 Mo12 O48'
_cell_volume   1365.22819088
_cell_formula_units_Z   4
loop_
 _symmetry_equiv_pos_site_id
 _symmetry_equiv_pos_as_xyz
  1  'x, y, z'
loop_
 _atom_site_type_symbol
 _atom_site_label
 _atom_site_symmetry_multiplicity
 _atom_site_fract_x
 _atom_site_fract_y
 _atom_site_fract_z
 _atom_site_occupancy
  Cs  Cs0  1  0.82061096  0.82061096  0.82061096  1
  Cs  Cs1  1  0.17938904  0.32061096  0.67938904  1
  Cs  Cs2  1  0.32061096  0.67938904  0.17938904  1
  Cs  Cs3  1  0.67938904  0.17938904  0.32061096  1
  Cs  Cs4  1  0.95725577  0.54274423  0.45725577  1
  Cs  Cs5  1  0.54274423  0.45725577  0.95725577  1
  Cs  Cs6  1  0.04274423  0.04274423  0.04274423  1
  Cs  Cs7  1  0.45725577  0.95725577  0.54274423  1
  Fe  Fe8  1  0.16288182  0.66288182  0.83711818  1
  Fe  Fe9  1  0.66288182  0.83711818  0.16288182  1
  Fe  Fe10  1  0.83711818  0.16288182  0.66288182  1
  Fe  Fe11  1  0.33711818  0.33711818  0.33711818  1
  Fe  Fe12  1  0.88778885  0.38778885  0.11221115  1
  Fe  Fe13  1  0.38778885  0.11221115  0.88778885  1
  Fe  Fe14  1  0.11221115  0.88778885  0.38778885  1
  Fe  Fe15  1  0.61221115  0.61221115  0.61221115  1
  Mo  Mo16  1  0.97350445  0.69972341  0.12295791  1
  Mo  Mo17  1  0.87704209  0.47350445  0.80027659  1
  Mo  Mo18  1  0.19972341  0.37704209  0.02649555  1
  Mo  Mo19  1  0.47350445  0.80027659  0.87704209  1
  Mo  Mo20  1  0.37704209  0.02649555  0.19972341  1
  Mo  Mo21  1  0.69972341  0.12295791  0.97350445  1
  Mo  Mo22  1  0.02649555  0.19972341  0.37704209  1
  Mo  Mo23  1  0.12295791  0.97350445  0.69972341  1
  Mo  Mo24  1  0.80027659  0.87704209  0.47350445  1
  Mo  Mo25  1  0.52649555  0.30027659  0.62295791  1
  Mo  Mo26  1  0.62295791  0.52649555  0.30027659  1
  Mo  Mo27  1  0.30027659  0.62295791  0.52649555  1
  O  O28  1  0.05395019  0.72339209  0.98332677  1
  O  O29  1  0.01667323  0.55395019  0.77660791  1
  O  O30  1  0.22339209  0.51667323  0.94604981  1
  O  O31  1  0.55395019  0.77660791  0.01667323  1
  O  O32  1  0.51667323  0.94604981  0.22339209  1
  O  O33  1  0.72339209  0.98332677  0.05395019  1
  O  O34  1  0.94604981  0.22339209  0.51667323  1
  O  O35  1  0.98332677  0.05395019  0.72339209  1
  O  O36  1  0.77660791  0.01667323  0.55395019  1
  O  O37  1  0.44604981  0.27660791  0.48332677  1
  O  O38  1  0.48332677  0.44604981  0.27660791  1
  O  O39  1  0.27660791  0.48332677  0.44604981  1
  O  O40  1  0.98221649  0.54504551  0.17172316  1
  O  O41  1  0.82827684  0.48221649  0.95495449  1
  O  O42  1  0.04504551  0.32827684  0.01778351  1
  O  O43  1  0.48221649  0.95495449  0.82827684  1
  O  O44  1  0.32827684  0.01778351  0.04504551  1
  O  O45  1  0.54504551  0.17172316  0.98221649  1
  O  O46  1  0.01778351  0.04504551  0.32827684  1
  O  O47  1  0.17172316  0.98221649  0.54504551  1
  O  O48  1  0.95495449  0.82827684  0.48221649  1
  O  O49  1  0.51778351  0.45495449  0.67172316  1
  O  O50  1  0.67172316  0.51778351  0.45495449  1
  O  O51  1  0.45495449  0.67172316  0.51778351  1
  O  O52  1  0.82031230  0.74941588  0.10373001  1
  O  O53  1  0.89626999  0.32031230  0.75058412  1
  O  O54  1  0.24941588  0.39626999  0.17968770  1
  O  O55  1  0.32031230  0.75058412  0.89626999  1
  O  O56  1  0.39626999  0.17968770  0.24941588  1
  O  O57  1  0.74941588  0.10373001  0.82031230  1
  O  O58  1  0.17968770  0.24941588  0.39626999  1
  O  O59  1  0.10373001  0.82031230  0.74941588  1
  O  O60  1  0.75058412  0.89626999  0.32031230  1
  O  O61  1  0.67968770  0.25058412  0.60373001  1
  O  O62  1  0.60373001  0.67968770  0.25058412  1
  O  O63  1  0.25058412  0.60373001  0.67968770  1
  O  O64  1  0.04817745  0.78901782  0.23578754  1
  O  O65  1  0.76421246  0.54817745  0.71098218  1
  O  O66  1  0.28901782  0.26421246  0.95182255  1
  O  O67  1  0.54817745  0.71098218  0.76421246  1
  O  O68  1  0.26421246  0.95182255  0.28901782  1
  O  O69  1  0.78901782  0.23578754  0.04817745  1
  O  O70  1  0.95182255  0.28901782  0.26421246  1
  O  O71  1  0.23578754  0.04817745  0.78901782  1
  O  O72  1  0.71098218  0.76421246  0.54817745  1
  O  O73  1  0.45182255  0.21098218  0.73578754  1
  O  O74  1  0.73578754  0.45182255  0.21098218  1
  O  O75  1  0.21098218  0.73578754  0.45182255  1
