# generated using pymatgen
data_MnPH15C3N(ClO)3
_symmetry_space_group_name_H-M   'P 1'
_cell_length_a   6.54307188
_cell_length_b   8.74554086
_cell_length_c   11.09060625
_cell_angle_alpha   90.00000000
_cell_angle_beta   90.00000000
_cell_angle_gamma   99.66336658
_symmetry_Int_Tables_number   1
_chemical_formula_structural   MnPH15C3N(ClO)3
_chemical_formula_sum   'Mn2 P2 H30 C6 N2 Cl6 O6'
_cell_volume   625.62962979
_cell_formula_units_Z   2
loop_
 _symmetry_equiv_pos_site_id
 _symmetry_equiv_pos_as_xyz
  1  'x, y, z'
loop_
 _atom_site_type_symbol
 _atom_site_label
 _atom_site_symmetry_multiplicity
 _atom_site_fract_x
 _atom_site_fract_y
 _atom_site_fract_z
 _atom_site_occupancy
  Mn  Mn0  1  0.00683235  0.86643926  0.99858212  1
  Mn  Mn1  1  0.99316765  0.13356074  0.49858212  1
  P  P2  1  0.26961383  0.24648172  0.00072824  1
  P  P3  1  0.73038617  0.75351828  0.50072824  1
  H  H4  1  0.02310349  0.47125360  0.12432188  1
  H  H5  1  0.97689651  0.52874640  0.62432188  1
  H  H6  1  0.12050291  0.45763617  0.26528541  1
  H  H7  1  0.87949709  0.54236383  0.76528541  1
  H  H8  1  0.99819891  0.29914725  0.19997190  1
  H  H9  1  0.00180109  0.70085275  0.69997190  1
  H  H10  1  0.63591109  0.88049877  0.86174113  1
  H  H11  1  0.36408891  0.11950123  0.36174113  1
  H  H12  1  0.80355080  0.00188797  0.79856937  1
  H  H13  1  0.19644920  0.99811203  0.29856937  1
  H  H14  1  0.60942348  0.85567763  0.12541937  1
  H  H15  1  0.39057652  0.14432237  0.62541937  1
  H  H16  1  0.77032750  0.98722334  0.18501352  1
  H  H17  1  0.22967250  0.01277666  0.68501352  1
  H  H18  1  0.21895864  0.29800780  0.79174496  1
  H  H19  1  0.78104136  0.70199220  0.29174496  1
  H  H20  1  0.37627784  0.45845055  0.86858463  1
  H  H21  1  0.62372216  0.54154945  0.36858463  1
  H  H22  1  0.10113867  0.42296374  0.88865820  1
  H  H23  1  0.89886133  0.57703626  0.38865820  1
  H  H24  1  0.54573530  0.11722588  0.06373937  1
  H  H25  1  0.45426470  0.88277412  0.56373937  1
  H  H26  1  0.63615063  0.29675940  0.98519780  1
  H  H27  1  0.36384937  0.70324060  0.48519780  1
  H  H28  1  0.52459393  0.12611411  0.90358108  1
  H  H29  1  0.47540607  0.87388589  0.40358108  1
  H  H30  1  0.38186757  0.32350733  0.20269954  1
  H  H31  1  0.61813243  0.67649267  0.70269954  1
  H  H32  1  0.39259570  0.48914183  0.10634592  1
  H  H33  1  0.60740430  0.51085817  0.60634592  1
  C  C34  1  0.30021204  0.37716004  0.13205679  1
  C  C35  1  0.69978796  0.62283996  0.63205679  1
  C  C36  1  0.23818962  0.36800231  0.87433691  1
  C  C37  1  0.76181038  0.63199769  0.37433691  1
  C  C38  1  0.51884069  0.19092198  0.98760867  1
  C  C39  1  0.48115931  0.80907802  0.48760867  1
  N  N40  1  0.09778236  0.40325979  0.18221746  1
  N  N41  1  0.90221764  0.59674021  0.68221746  1
  Cl  Cl42  1  0.25200866  0.81184253  0.16545651  1
  Cl  Cl43  1  0.74799134  0.18815747  0.66545651  1
  Cl  Cl44  1  0.83446657  0.57727684  0.98270639  1
  Cl  Cl45  1  0.16553343  0.42272316  0.48270639  1
  Cl  Cl46  1  0.25882318  0.83897626  0.81964964  1
  Cl  Cl47  1  0.74117682  0.16102374  0.31964964  1
  O  O48  1  0.08952870  0.11600738  0.02071814  1
  O  O49  1  0.91047130  0.88399262  0.52071814  1
  O  O50  1  0.78571378  0.90566712  0.84716981  1
  O  O51  1  0.21428622  0.09433288  0.34716981  1
  O  O52  1  0.75874999  0.89652280  0.13040725  1
  O  O53  1  0.24125001  0.10347720  0.63040725  1
