# generated using pymatgen
data_Mn(N2O5)2
_symmetry_space_group_name_H-M   'P 1'
_cell_length_a   9.66360706
_cell_length_b   10.51208976
_cell_length_c   16.22166856
_cell_angle_alpha   90.00000000
_cell_angle_beta   90.00000000
_cell_angle_gamma   90.00000000
_symmetry_Int_Tables_number   1
_chemical_formula_structural   Mn(N2O5)2
_chemical_formula_sum   'Mn8 N32 O80'
_cell_volume   1647.87341236
_cell_formula_units_Z   8
loop_
 _symmetry_equiv_pos_site_id
 _symmetry_equiv_pos_as_xyz
  1  'x, y, z'
loop_
 _atom_site_type_symbol
 _atom_site_label
 _atom_site_symmetry_multiplicity
 _atom_site_fract_x
 _atom_site_fract_y
 _atom_site_fract_z
 _atom_site_occupancy
  Mn  Mn0  1  0.13400532  0.93389327  0.96442567  1
  Mn  Mn1  1  0.86599468  0.43389327  0.03557433  1
  Mn  Mn2  1  0.36599468  0.43389327  0.96442567  1
  Mn  Mn3  1  0.63400532  0.93389327  0.03557433  1
  Mn  Mn4  1  0.85554289  0.75925289  0.53606817  1
  Mn  Mn5  1  0.14445711  0.25925289  0.46393183  1
  Mn  Mn6  1  0.64445711  0.25925289  0.53606817  1
  Mn  Mn7  1  0.35554289  0.75925289  0.46393183  1
  N  N8  1  0.72424373  0.74050708  0.78977558  1
  N  N9  1  0.27575627  0.24050708  0.21022442  1
  N  N10  1  0.77575627  0.24050708  0.78977558  1
  N  N11  1  0.22424373  0.74050708  0.21022442  1
  N  N12  1  0.69298568  0.59069057  0.29595659  1
  N  N13  1  0.30701432  0.09069057  0.70404341  1
  N  N14  1  0.80701432  0.09069057  0.29595659  1
  N  N15  1  0.19298568  0.59069057  0.70404341  1
  N  N16  1  0.91185536  0.95191710  0.11228716  1
  N  N17  1  0.08814464  0.45191710  0.88771284  1
  N  N18  1  0.58814464  0.45191710  0.11228716  1
  N  N19  1  0.41185536  0.95191710  0.88771284  1
  N  N20  1  0.24600948  0.69391188  0.00906377  1
  N  N21  1  0.75399052  0.19391188  0.99093623  1
  N  N22  1  0.25399052  0.19391188  0.00906377  1
  N  N23  1  0.74600948  0.69391188  0.99093623  1
  N  N24  1  0.93850082  0.93973064  0.84255974  1
  N  N25  1  0.06149918  0.43973064  0.15744026  1
  N  N26  1  0.56149918  0.43973064  0.84255974  1
  N  N27  1  0.43850082  0.93973064  0.15744026  1
  N  N28  1  0.07196898  0.75983914  0.38668765  1
  N  N29  1  0.92803102  0.25983914  0.61331235  1
  N  N30  1  0.42803102  0.25983914  0.38668765  1
  N  N31  1  0.57196898  0.75983914  0.61331235  1
  N  N32  1  0.73746565  0.02489260  0.47982573  1
  N  N33  1  0.26253435  0.52489260  0.52017427  1
  N  N34  1  0.76253435  0.52489260  0.47982573  1
  N  N35  1  0.23746565  0.02489260  0.52017427  1
  N  N36  1  0.03935854  0.84427123  0.65319854  1
  N  N37  1  0.96064146  0.34427123  0.34680146  1
  N  N38  1  0.46064146  0.34427123  0.65319854  1
  N  N39  1  0.53935854  0.84427123  0.34680146  1
  O  O40  1  0.93099153  0.93797238  0.03391672  1
  O  O41  1  0.06900847  0.43797238  0.96608328  1
  O  O42  1  0.56900847  0.43797238  0.03391672  1
  O  O43  1  0.43099153  0.93797238  0.96608328  1
  O  O44  1  0.28571641  0.95194893  0.86308773  1
  O  O45  1  0.71428359  0.45194893  0.13691227  1
  O  O46  1  0.21428359  0.45194893  0.86308773  1
  O  O47  1  0.78571641  0.95194893  0.13691227  1
  O  O48  1  0.00853224  0.96514319  0.16111915  1
  O  O49  1  0.99146776  0.46514319  0.83888085  1
  O  O50  1  0.49146776  0.46514319  0.16111915  1
  O  O51  1  0.50853224  0.96514319  0.83888085  1
  O  O52  1  0.19612209  0.78157118  0.05568850  1
  O  O53  1  0.80387791  0.28157118  0.94431150  1
  O  O54  1  0.30387791  0.28157118  0.05568850  1
  O  O55  1  0.69612209  0.78157118  0.94431150  1
  O  O56  1  0.19710713  0.09826535  0.04262630  1
  O  O57  1  0.80289287  0.59826535  0.95737370  1
  O  O58  1  0.30289287  0.59826535  0.04262630  1
  O  O59  1  0.69710713  0.09826535  0.95737370  1
  O  O60  1  0.23738673  0.70610110  0.93283833  1
  O  O61  1  0.76261327  0.20610110  0.06716167  1
  O  O62  1  0.26261327  0.20610110  0.93283833  1
  O  O63  1  0.73738673  0.70610110  0.06716167  1
  O  O64  1  0.98683338  0.83814486  0.87415899  1
  O  O65  1  0.01316662  0.33814486  0.12584101  1
  O  O66  1  0.51316662  0.33814486  0.87415899  1
  O  O67  1  0.48683338  0.83814486  0.12584101  1
  O  O68  1  0.98791187  0.04562103  0.86545968  1
  O  O69  1  0.01208813  0.54562103  0.13454032  1
  O  O70  1  0.51208813  0.54562103  0.86545968  1
  O  O71  1  0.48791187  0.04562103  0.13454032  1
  O  O72  1  0.84333369  0.93458361  0.78936370  1
  O  O73  1  0.15666631  0.43458361  0.21063630  1
  O  O74  1  0.65666631  0.43458361  0.78936370  1
  O  O75  1  0.34333369  0.93458361  0.21063630  1
  O  O76  1  0.05301381  0.74881908  0.46499057  1
  O  O77  1  0.94698619  0.24881908  0.53500943  1
  O  O78  1  0.44698619  0.24881908  0.46499057  1
  O  O79  1  0.55301381  0.74881908  0.53500943  1
  O  O80  1  0.69985842  0.76532981  0.63661537  1
  O  O81  1  0.30014158  0.26532981  0.36338463  1
  O  O82  1  0.80014158  0.26532981  0.63661537  1
  O  O83  1  0.19985842  0.76532981  0.36338463  1
  O  O84  1  0.97724723  0.76495945  0.33656849  1
  O  O85  1  0.02275277  0.26495945  0.66343151  1
  O  O86  1  0.52275277  0.26495945  0.33656849  1
  O  O87  1  0.47724723  0.76495945  0.66343151  1
  O  O88  1  0.79187322  0.92251037  0.45674790  1
  O  O89  1  0.20812678  0.42251037  0.54325210  1
  O  O90  1  0.70812678  0.42251037  0.45674790  1
  O  O91  1  0.29187322  0.92251037  0.54325210  1
  O  O92  1  0.76675090  0.62070981  0.43087942  1
  O  O93  1  0.23324910  0.12070981  0.56912058  1
  O  O94  1  0.73324910  0.12070981  0.43087942  1
  O  O95  1  0.26675090  0.62070981  0.56912058  1
  O  O96  1  0.81466703  0.54007215  0.55052438  1
  O  O97  1  0.18533297  0.04007215  0.44947562  1
  O  O98  1  0.68533297  0.04007215  0.55052438  1
  O  O99  1  0.31466703  0.54007215  0.44947562  1
  O  O100  1  0.97869086  0.91901963  0.60342493  1
  O  O101  1  0.02130914  0.41901963  0.39657507  1
  O  O102  1  0.52130914  0.41901963  0.60342493  1
  O  O103  1  0.47869086  0.91901963  0.39657507  1
  O  O104  1  0.00428193  0.72499710  0.64833541  1
  O  O105  1  0.99571807  0.22499710  0.35166459  1
  O  O106  1  0.49571807  0.22499710  0.64833541  1
  O  O107  1  0.50428193  0.72499710  0.35166459  1
  O  O108  1  0.12734250  0.87970153  0.70349031  1
  O  O109  1  0.87265750  0.37970153  0.29650969  1
  O  O110  1  0.37265750  0.37970153  0.70349031  1
  O  O111  1  0.62734250  0.87970153  0.29650969  1
  O  O112  1  0.70338906  0.15789882  0.79118094  1
  O  O113  1  0.29661094  0.65789882  0.20881906  1
  O  O114  1  0.79661094  0.65789882  0.79118094  1
  O  O115  1  0.20338906  0.15789882  0.20881906  1
  O  O116  1  0.75646550  0.65639420  0.25725276  1
  O  O117  1  0.24353450  0.15639420  0.74274724  1
  O  O118  1  0.74353450  0.15639420  0.25725276  1
  O  O119  1  0.25646550  0.65639420  0.74274724  1
