# generated using pymatgen
data_ThH4(C2O5)2
_symmetry_space_group_name_H-M   'P 1'
_cell_length_a   6.92665779
_cell_length_b   6.92665779
_cell_length_c   9.73524530
_cell_angle_alpha   90.14348941
_cell_angle_beta   90.14348941
_cell_angle_gamma   76.93880913
_symmetry_Int_Tables_number   1
_chemical_formula_structural   ThH4(C2O5)2
_chemical_formula_sum   'Th2 H8 C8 O20'
_cell_volume   454.99720784
_cell_formula_units_Z   2
loop_
 _symmetry_equiv_pos_site_id
 _symmetry_equiv_pos_as_xyz
  1  'x, y, z'
loop_
 _atom_site_type_symbol
 _atom_site_label
 _atom_site_symmetry_multiplicity
 _atom_site_fract_x
 _atom_site_fract_y
 _atom_site_fract_z
 _atom_site_occupancy
  Th  Th0  1  0.75327952  0.24672048  0.25000000  1
  Th  Th1  1  0.24672048  0.75327952  0.75000000  1
  H  H2  1  0.36261085  0.08468447  0.28802347  1
  H  H3  1  0.91531553  0.63738915  0.21197653  1
  H  H4  1  0.63738915  0.91531553  0.71197653  1
  H  H5  1  0.08468447  0.36261085  0.78802347  1
  H  H6  1  0.48431028  0.92140168  0.18432187  1
  H  H7  1  0.07859832  0.51568972  0.31567813  1
  H  H8  1  0.51568972  0.07859832  0.81567813  1
  H  H9  1  0.92140168  0.48431028  0.68432187  1
  C  C10  1  0.90427913  0.97209016  0.52473072  1
  C  C11  1  0.02790984  0.09572087  0.97526928  1
  C  C12  1  0.09572087  0.02790984  0.47526928  1
  C  C13  1  0.97209016  0.90427913  0.02473072  1
  C  C14  1  0.40399774  0.49570626  0.46197582  1
  C  C15  1  0.50429374  0.59600226  0.03802418  1
  C  C16  1  0.59600226  0.50429374  0.53802418  1
  C  C17  1  0.49570626  0.40399774  0.96197582  1
  O  O18  1  0.48718624  0.04151698  0.23700157  1
  O  O19  1  0.95848302  0.51281376  0.26299843  1
  O  O20  1  0.51281376  0.95848302  0.76299843  1
  O  O21  1  0.04151698  0.48718624  0.73700157  1
  O  O22  1  0.42255169  0.39886338  0.34979412  1
  O  O23  1  0.60113662  0.57744831  0.15020588  1
  O  O24  1  0.57744831  0.60113662  0.65020588  1
  O  O25  1  0.39886338  0.42255169  0.84979412  1
  O  O26  1  0.75684874  0.41495580  0.48469059  1
  O  O27  1  0.58504420  0.24315126  0.01530941  1
  O  O28  1  0.24315126  0.58504420  0.51530941  1
  O  O29  1  0.41495580  0.75684874  0.98469059  1
  O  O30  1  0.08714879  0.11449713  0.35894319  1
  O  O31  1  0.88550287  0.91285121  0.14105681  1
  O  O32  1  0.91285121  0.88550287  0.64105681  1
  O  O33  1  0.11449713  0.08714879  0.85894319  1
  O  O34  1  0.75527364  0.01627086  0.44772426  1
  O  O35  1  0.98372914  0.24472636  0.05227574  1
  O  O36  1  0.24472636  0.98372914  0.55227574  1
  O  O37  1  0.01627086  0.75527364  0.94772426  1
