# generated using pymatgen
data_CuAsPbO5
_symmetry_space_group_name_H-M   'P 1'
_cell_length_a   6.04941318
_cell_length_b   8.47307271
_cell_length_c   8.95857128
_cell_angle_alpha   90.00000000
_cell_angle_beta   90.00000000
_cell_angle_gamma   90.00000000
_symmetry_Int_Tables_number   1
_chemical_formula_structural   CuAsPbO5
_chemical_formula_sum   'Cu4 As4 Pb4 O20'
_cell_volume   459.19054276
_cell_formula_units_Z   4
loop_
 _symmetry_equiv_pos_site_id
 _symmetry_equiv_pos_as_xyz
  1  'x, y, z'
loop_
 _atom_site_type_symbol
 _atom_site_label
 _atom_site_symmetry_multiplicity
 _atom_site_fract_x
 _atom_site_fract_y
 _atom_site_fract_z
 _atom_site_occupancy
  Cu  Cu0  1  0.74715949  0.74226662  0.99504786  1
  Cu  Cu1  1  0.24715949  0.75773338  0.00495214  1
  Cu  Cu2  1  0.25284051  0.24226662  0.50495214  1
  Cu  Cu3  1  0.75284051  0.25773338  0.49504786  1
  As  As4  1  0.98833350  0.63179043  0.29436302  1
  As  As5  1  0.48833350  0.86820957  0.70563698  1
  As  As6  1  0.01166650  0.13179043  0.20563698  1
  As  As7  1  0.51166650  0.36820957  0.79436302  1
  Pb  Pb8  1  0.03900688  0.62465864  0.66313656  1
  Pb  Pb9  1  0.53900688  0.87534136  0.33686344  1
  Pb  Pb10  1  0.96099312  0.12465864  0.83686344  1
  Pb  Pb11  1  0.46099312  0.37534136  0.16313656  1
  O  O12  1  0.00524729  0.64740154  0.93737255  1
  O  O13  1  0.50524729  0.85259846  0.06262745  1
  O  O14  1  0.99475271  0.14740154  0.56262745  1
  O  O15  1  0.49475271  0.35259846  0.43737255  1
  O  O16  1  0.73879700  0.84905334  0.80572240  1
  O  O17  1  0.23879700  0.65094666  0.19427760  1
  O  O18  1  0.26120300  0.34905334  0.69427760  1
  O  O19  1  0.76120300  0.15094666  0.30572240  1
  O  O20  1  0.25188953  0.87170806  0.82052901  1
  O  O21  1  0.75188953  0.62829194  0.17947099  1
  O  O22  1  0.74811047  0.37170806  0.67947099  1
  O  O23  1  0.24811047  0.12829194  0.32052901  1
  O  O24  1  0.01028597  0.46339614  0.39700577  1
  O  O25  1  0.51028597  0.03660386  0.60299423  1
  O  O26  1  0.98971403  0.96339614  0.10299423  1
  O  O27  1  0.48971403  0.53660386  0.89700577  1
  O  O28  1  0.94553069  0.78825926  0.41319977  1
  O  O29  1  0.44553069  0.71174074  0.58680023  1
  O  O30  1  0.05446931  0.28825926  0.08680023  1
  O  O31  1  0.55446931  0.21174074  0.91319977  1
