# generated using pymatgen
data_TmCO4
_symmetry_space_group_name_H-M   'P 1'
_cell_length_a   7.83295327
_cell_length_b   9.46397882
_cell_length_c   9.46397882
_cell_angle_alpha   90.00000000
_cell_angle_beta   90.00000000
_cell_angle_gamma   90.00000000
_symmetry_Int_Tables_number   1
_chemical_formula_structural   TmCO4
_chemical_formula_sum   'Tm8 C8 O32'
_cell_volume   701.57330390
_cell_formula_units_Z   8
loop_
 _symmetry_equiv_pos_site_id
 _symmetry_equiv_pos_as_xyz
  1  'x, y, z'
loop_
 _atom_site_type_symbol
 _atom_site_label
 _atom_site_symmetry_multiplicity
 _atom_site_fract_x
 _atom_site_fract_y
 _atom_site_fract_z
 _atom_site_occupancy
  Tm  Tm0  1  0.25000000  0.02039616  0.97960384  1
  Tm  Tm1  1  0.25000000  0.47960384  0.97960384  1
  Tm  Tm2  1  0.25000000  0.02039616  0.52039616  1
  Tm  Tm3  1  0.25000000  0.47960384  0.52039616  1
  Tm  Tm4  1  0.75000000  0.97960384  0.02039616  1
  Tm  Tm5  1  0.75000000  0.52039616  0.02039616  1
  Tm  Tm6  1  0.75000000  0.97960384  0.47960384  1
  Tm  Tm7  1  0.75000000  0.52039616  0.47960384  1
  C  C8  1  0.40780845  0.75000000  0.99910398  1
  C  C9  1  0.40780845  0.75000000  0.50089602  1
  C  C10  1  0.90780845  0.99910398  0.75000000  1
  C  C11  1  0.90780845  0.50089602  0.75000000  1
  C  C12  1  0.59219155  0.25000000  0.00089602  1
  C  C13  1  0.59219155  0.25000000  0.49910398  1
  C  C14  1  0.09219155  0.00089602  0.25000000  1
  C  C15  1  0.09219155  0.49910398  0.25000000  1
  O  O16  1  0.29230575  0.00758127  0.75000000  1
  O  O17  1  0.29230575  0.49241873  0.75000000  1
  O  O18  1  0.79230575  0.75000000  0.00758127  1
  O  O19  1  0.79230575  0.75000000  0.49241873  1
  O  O20  1  0.70769425  0.99241873  0.25000000  1
  O  O21  1  0.70769425  0.50758127  0.25000000  1
  O  O22  1  0.20769425  0.25000000  0.99241873  1
  O  O23  1  0.20769425  0.25000000  0.50758127  1
  O  O24  1  0.24382804  0.75000000  0.98786841  1
  O  O25  1  0.24382804  0.75000000  0.51213159  1
  O  O26  1  0.74382804  0.98786841  0.75000000  1
  O  O27  1  0.74382804  0.51213159  0.75000000  1
  O  O28  1  0.75617196  0.25000000  0.01213159  1
  O  O29  1  0.75617196  0.25000000  0.48786841  1
  O  O30  1  0.25617196  0.01213159  0.25000000  1
  O  O31  1  0.25617196  0.48786841  0.25000000  1
  O  O32  1  0.51335375  0.13028784  0.99494624  1
  O  O33  1  0.51335375  0.36971216  0.99494624  1
  O  O34  1  0.51335375  0.13028784  0.50505376  1
  O  O35  1  0.51335375  0.36971216  0.50505376  1
  O  O36  1  0.01335375  0.99494624  0.13028784  1
  O  O37  1  0.01335375  0.50505376  0.13028784  1
  O  O38  1  0.01335375  0.99494624  0.36971216  1
  O  O39  1  0.01335375  0.50505376  0.36971216  1
  O  O40  1  0.48664625  0.86971216  0.00505376  1
  O  O41  1  0.48664625  0.63028784  0.00505376  1
  O  O42  1  0.48664625  0.86971216  0.49494624  1
  O  O43  1  0.48664625  0.63028784  0.49494624  1
  O  O44  1  0.98664625  0.00505376  0.86971216  1
  O  O45  1  0.98664625  0.49494624  0.86971216  1
  O  O46  1  0.98664625  0.00505376  0.63028784  1
  O  O47  1  0.98664625  0.49494624  0.63028784  1
