# generated using pymatgen
data_Cu4H6SO10
_symmetry_space_group_name_H-M   'P 1'
_cell_length_a   6.08870866
_cell_length_b   10.06153119
_cell_length_c   13.19531666
_cell_angle_alpha   90.00000000
_cell_angle_beta   101.41685862
_cell_angle_gamma   90.00000000
_symmetry_Int_Tables_number   1
_chemical_formula_structural   Cu4H6SO10
_chemical_formula_sum   'Cu16 H24 S4 O40'
_cell_volume   792.37275680
_cell_formula_units_Z   4
loop_
 _symmetry_equiv_pos_site_id
 _symmetry_equiv_pos_as_xyz
  1  'x, y, z'
loop_
 _atom_site_type_symbol
 _atom_site_label
 _atom_site_symmetry_multiplicity
 _atom_site_fract_x
 _atom_site_fract_y
 _atom_site_fract_z
 _atom_site_occupancy
  Cu  Cu0  1  0.72565801  0.00554931  0.20638775  1
  Cu  Cu1  1  0.77434199  0.50554931  0.29361225  1
  Cu  Cu2  1  0.27434199  0.99445069  0.79361225  1
  Cu  Cu3  1  0.22565801  0.49445069  0.70638775  1
  Cu  Cu4  1  0.22184262  0.01095590  0.19838131  1
  Cu  Cu5  1  0.27815738  0.51095590  0.30161869  1
  Cu  Cu6  1  0.77815738  0.98904410  0.80161869  1
  Cu  Cu7  1  0.72184262  0.48904410  0.69838131  1
  Cu  Cu8  1  0.55321920  0.23645103  0.37631857  1
  Cu  Cu9  1  0.94678080  0.73645103  0.12368143  1
  Cu  Cu10  1  0.44678080  0.76354897  0.62368143  1
  Cu  Cu11  1  0.05321920  0.26354897  0.87631857  1
  Cu  Cu12  1  0.05806561  0.23815859  0.37970719  1
  Cu  Cu13  1  0.44193439  0.73815859  0.12029281  1
  Cu  Cu14  1  0.94193439  0.76184141  0.62029281  1
  Cu  Cu15  1  0.55806561  0.26184141  0.87970719  1
  H  H16  1  0.84349629  0.38821342  0.47723887  1
  H  H17  1  0.65650371  0.88821342  0.02276113  1
  H  H18  1  0.15650371  0.61178658  0.52276113  1
  H  H19  1  0.34349629  0.11178658  0.97723887  1
  H  H20  1  0.36468802  0.37397801  0.49374694  1
  H  H21  1  0.13531198  0.87397801  0.00625306  1
  H  H22  1  0.63531198  0.62602199  0.50625306  1
  H  H23  1  0.86468802  0.12602199  0.99374694  1
  H  H24  1  0.81686233  0.04648027  0.39182989  1
  H  H25  1  0.68313767  0.54648027  0.10817011  1
  H  H26  1  0.18313767  0.95351973  0.60817011  1
  H  H27  1  0.31686233  0.45351973  0.89182989  1
  H  H28  1  0.30310883  0.04188254  0.39204925  1
  H  H29  1  0.19689117  0.54188254  0.10795075  1
  H  H30  1  0.69689117  0.95811746  0.60795075  1
  H  H31  1  0.80310883  0.45811746  0.89204925  1
  H  H32  1  0.49889891  0.90072955  0.32758240  1
  H  H33  1  0.00110109  0.40072955  0.17241760  1
  H  H34  1  0.50110109  0.09927045  0.67241760  1
  H  H35  1  0.99889891  0.59927045  0.82758240  1
  H  H36  1  0.94285820  0.18891449  0.15863034  1
  H  H37  1  0.55714180  0.68891449  0.34136966  1
  H  H38  1  0.05714180  0.81108551  0.84136966  1
  H  H39  1  0.44285820  0.31108551  0.65863034  1
  S  S40  1  0.42488066  0.30419258  0.11175783  1
  S  S41  1  0.07511934  0.80419258  0.38824217  1
  S  S42  1  0.57511934  0.69580742  0.88824217  1
  S  S43  1  0.92488066  0.19580742  0.61175783  1
  O  O44  1  0.81487372  0.36319509  0.40334782  1
  O  O45  1  0.68512628  0.86319509  0.09665218  1
  O  O46  1  0.18512628  0.63680491  0.59665218  1
  O  O47  1  0.31487372  0.13680491  0.90334782  1
  O  O48  1  0.32603364  0.35770956  0.41804811  1
  O  O49  1  0.17396636  0.85770956  0.08195189  1
  O  O50  1  0.67396636  0.64229044  0.58195189  1
  O  O51  1  0.82603364  0.14229044  0.91804811  1
  O  O52  1  0.78875547  0.11552259  0.33811771  1
  O  O53  1  0.71124453  0.61552259  0.16188229  1
  O  O54  1  0.21124453  0.88447741  0.66188229  1
  O  O55  1  0.28875547  0.38447741  0.83811771  1
  O  O56  1  0.28548956  0.11568349  0.34177163  1
  O  O57  1  0.21451044  0.61568349  0.15822837  1
  O  O58  1  0.71451044  0.88431651  0.65822837  1
  O  O59  1  0.78548956  0.38431651  0.84177163  1
  O  O60  1  0.48768416  0.90794828  0.25285694  1
  O  O61  1  0.01231584  0.40794828  0.24714306  1
  O  O62  1  0.51231584  0.09205172  0.74714306  1
  O  O63  1  0.98768416  0.59205172  0.75285694  1
  O  O64  1  0.94087044  0.09567293  0.13854445  1
  O  O65  1  0.55912956  0.59567293  0.36145555  1
  O  O66  1  0.05912956  0.90432707  0.86145555  1
  O  O67  1  0.44087044  0.40432707  0.63854445  1
  O  O68  1  0.47951238  0.35082438  0.22113979  1
  O  O69  1  0.02048762  0.85082438  0.27886021  1
  O  O70  1  0.52048762  0.64917562  0.77886021  1
  O  O71  1  0.97951238  0.14917562  0.72113979  1
  O  O72  1  0.41757133  0.15447453  0.11168763  1
  O  O73  1  0.08242867  0.65447453  0.38831237  1
  O  O74  1  0.58242867  0.84552547  0.88831237  1
  O  O75  1  0.91757133  0.34552547  0.61168763  1
  O  O76  1  0.20136187  0.35835103  0.06144733  1
  O  O77  1  0.29863813  0.85835103  0.43855267  1
  O  O78  1  0.79863813  0.64164897  0.93855267  1
  O  O79  1  0.70136187  0.14164897  0.56144733  1
  O  O80  1  0.60188605  0.34955783  0.05661850  1
  O  O81  1  0.89811395  0.84955783  0.44338150  1
  O  O82  1  0.39811395  0.65044217  0.94338150  1
  O  O83  1  0.10188605  0.15044217  0.55661850  1
