# generated using pymatgen
data_K3Be3B3P6O25
_symmetry_space_group_name_H-M   'P 1'
_cell_length_a   12.71849584
_cell_length_b   12.71849584
_cell_length_c   12.71849584
_cell_angle_alpha   90.00000000
_cell_angle_beta   90.00000000
_cell_angle_gamma   90.00000000
_symmetry_Int_Tables_number   1
_chemical_formula_structural   K3Be3B3P6O25
_chemical_formula_sum   'K12 Be12 B12 P24 O100'
_cell_volume   2057.34562229
_cell_formula_units_Z   4
loop_
 _symmetry_equiv_pos_site_id
 _symmetry_equiv_pos_as_xyz
  1  'x, y, z'
loop_
 _atom_site_type_symbol
 _atom_site_label
 _atom_site_symmetry_multiplicity
 _atom_site_fract_x
 _atom_site_fract_y
 _atom_site_fract_z
 _atom_site_occupancy
  K  K0  1  0.40021584  0.40021584  0.40021584  1
  K  K1  1  0.59978416  0.90021584  0.09978416  1
  K  K2  1  0.90021584  0.09978416  0.59978416  1
  K  K3  1  0.09978416  0.59978416  0.90021584  1
  K  K4  1  0.15049366  0.34950634  0.65049366  1
  K  K5  1  0.34950634  0.65049366  0.15049366  1
  K  K6  1  0.84950634  0.84950634  0.84950634  1
  K  K7  1  0.65049366  0.15049366  0.34950634  1
  K  K8  1  0.37498711  0.87498711  0.62501289  1
  K  K9  1  0.87498711  0.62501289  0.37498711  1
  K  K10  1  0.62501289  0.37498711  0.87498711  1
  K  K11  1  0.12501289  0.12501289  0.12501289  1
  Be  Be12  1  0.43359212  0.37516112  0.68322905  1
  Be  Be13  1  0.31677095  0.93359212  0.12483888  1
  Be  Be14  1  0.87516112  0.81677095  0.56640788  1
  Be  Be15  1  0.93359212  0.12483888  0.31677095  1
  Be  Be16  1  0.81677095  0.56640788  0.87516112  1
  Be  Be17  1  0.37516112  0.68322905  0.43359212  1
  Be  Be18  1  0.56640788  0.87516112  0.81677095  1
  Be  Be19  1  0.68322905  0.43359212  0.37516112  1
  Be  Be20  1  0.12483888  0.31677095  0.93359212  1
  Be  Be21  1  0.06640788  0.62483888  0.18322905  1
  Be  Be22  1  0.18322905  0.06640788  0.62483888  1
  Be  Be23  1  0.62483888  0.18322905  0.06640788  1
  B  B24  1  0.60897423  0.12509624  0.64056198  1
  B  B25  1  0.35943802  0.10897423  0.37490376  1
  B  B26  1  0.62509624  0.85943802  0.39102577  1
  B  B27  1  0.10897423  0.37490376  0.35943802  1
  B  B28  1  0.85943802  0.39102577  0.62509624  1
  B  B29  1  0.12509624  0.64056198  0.60897423  1
  B  B30  1  0.39102577  0.62509624  0.85943802  1
  B  B31  1  0.64056198  0.60897423  0.12509624  1
  B  B32  1  0.37490376  0.35943802  0.10897423  1
  B  B33  1  0.89102577  0.87490376  0.14056198  1
  B  B34  1  0.14056198  0.89102577  0.87490376  1
  B  B35  1  0.87490376  0.14056198  0.89102577  1
  P  P36  1  0.33828070  0.58961367  0.64343147  1
  P  P37  1  0.35656853  0.83828070  0.91038633  1
  P  P38  1  0.08961367  0.85656853  0.66171930  1
  P  P39  1  0.83828070  0.91038633  0.35656853  1
  P  P40  1  0.85656853  0.66171930  0.08961367  1
  P  P41  1  0.58961367  0.64343147  0.33828070  1
  P  P42  1  0.66171930  0.08961367  0.85656853  1
  P  P43  1  0.64343147  0.33828070  0.58961367  1
  P  P44  1  0.91038633  0.35656853  0.83828070  1
  P  P45  1  0.16171930  0.41038633  0.14343147  1
  P  P46  1  0.14343147  0.16171930  0.41038633  1
  P  P47  1  0.41038633  0.14343147  0.16171930  1
  P  P48  1  0.39341275  0.16046997  0.58799788  1
  P  P49  1  0.41200212  0.89341275  0.33953003  1
  P  P50  1  0.66046997  0.91200212  0.60658725  1
  P  P51  1  0.89341275  0.33953003  0.41200212  1
  P  P52  1  0.91200212  0.60658725  0.66046997  1
  P  P53  1  0.16046997  0.58799788  0.39341275  1
  P  P54  1  0.60658725  0.66046997  0.91200212  1
  P  P55  1  0.58799788  0.39341275  0.16046997  1
  P  P56  1  0.33953003  0.41200212  0.89341275  1
  P  P57  1  0.10658725  0.83953003  0.08799788  1
  P  P58  1  0.08799788  0.10658725  0.83953003  1
  P  P59  1  0.83953003  0.08799788  0.10658725  1
  O  O60  1  0.37833939  0.27249593  0.62830176  1
  O  O61  1  0.37169824  0.87833939  0.22750407  1
  O  O62  1  0.77249593  0.87169824  0.62166061  1
  O  O63  1  0.87833939  0.22750407  0.37169824  1
  O  O64  1  0.87169824  0.62166061  0.77249593  1
  O  O65  1  0.27249593  0.62830176  0.37833939  1
  O  O66  1  0.62166061  0.77249593  0.87169824  1
  O  O67  1  0.62830176  0.37833939  0.27249593  1
  O  O68  1  0.22750407  0.37169824  0.87833939  1
  O  O69  1  0.12166061  0.72750407  0.12830176  1
  O  O70  1  0.12830176  0.12166061  0.72750407  1
  O  O71  1  0.72750407  0.12830176  0.12166061  1
  O  O72  1  0.37983571  0.47834357  0.62774878  1
  O  O73  1  0.37225122  0.87983571  0.02165643  1
  O  O74  1  0.97834357  0.87225122  0.62016429  1
  O  O75  1  0.87983571  0.02165643  0.37225122  1
  O  O76  1  0.87225122  0.62016429  0.97834357  1
  O  O77  1  0.47834357  0.62774878  0.37983571  1
  O  O78  1  0.62016429  0.97834357  0.87225122  1
  O  O79  1  0.62774878  0.37983571  0.47834357  1
  O  O80  1  0.02165643  0.37225122  0.87983571  1
  O  O81  1  0.12016429  0.52165643  0.12774878  1
  O  O82  1  0.12774878  0.12016429  0.52165643  1
  O  O83  1  0.52165643  0.12774878  0.12016429  1
  O  O84  1  0.30767107  0.08528072  0.62145650  1
  O  O85  1  0.37854350  0.80767107  0.41471928  1
  O  O86  1  0.58528072  0.87854350  0.69232893  1
  O  O87  1  0.80767107  0.41471928  0.37854350  1
  O  O88  1  0.87854350  0.69232893  0.58528072  1
  O  O89  1  0.08528072  0.62145650  0.30767107  1
  O  O90  1  0.69232893  0.58528072  0.87854350  1
  O  O91  1  0.62145650  0.30767107  0.08528072  1
  O  O92  1  0.41471928  0.37854350  0.80767107  1
  O  O93  1  0.19232893  0.91471928  0.12145650  1
  O  O94  1  0.12145650  0.19232893  0.91471928  1
  O  O95  1  0.91471928  0.12145650  0.19232893  1
  O  O96  1  0.37153061  0.66596182  0.55832210  1
  O  O97  1  0.44167790  0.87153061  0.83403818  1
  O  O98  1  0.16596182  0.94167790  0.62846939  1
  O  O99  1  0.87153061  0.83403818  0.44167790  1
  O  O100  1  0.94167790  0.62846939  0.16596182  1
  O  O101  1  0.66596182  0.55832210  0.37153061  1
  O  O102  1  0.62846939  0.16596182  0.94167790  1
  O  O103  1  0.55832210  0.37153061  0.66596182  1
  O  O104  1  0.83403818  0.44167790  0.87153061  1
  O  O105  1  0.12846939  0.33403818  0.05832210  1
  O  O106  1  0.05832210  0.12846939  0.33403818  1
  O  O107  1  0.33403818  0.05832210  0.12846939  1
  O  O108  1  0.39908668  0.17262077  0.46427600  1
  O  O109  1  0.53572400  0.89908668  0.32737923  1
  O  O110  1  0.67262077  0.03572400  0.60091332  1
  O  O111  1  0.89908668  0.32737923  0.53572400  1
  O  O112  1  0.03572400  0.60091332  0.67262077  1
  O  O113  1  0.17262077  0.46427600  0.39908668  1
  O  O114  1  0.60091332  0.67262077  0.03572400  1
  O  O115  1  0.46427600  0.39908668  0.17262077  1
  O  O116  1  0.32737923  0.53572400  0.89908668  1
  O  O117  1  0.10091332  0.82737923  0.96427600  1
  O  O118  1  0.96427600  0.10091332  0.82737923  1
  O  O119  1  0.82737923  0.96427600  0.10091332  1
  O  O120  1  0.21454091  0.57665072  0.64779304  1
  O  O121  1  0.35220696  0.71454091  0.92334928  1
  O  O122  1  0.07665072  0.85220696  0.78545909  1
  O  O123  1  0.71454091  0.92334928  0.35220696  1
  O  O124  1  0.85220696  0.78545909  0.07665072  1
  O  O125  1  0.57665072  0.64779304  0.21454091  1
  O  O126  1  0.78545909  0.07665072  0.85220696  1
  O  O127  1  0.64779304  0.21454091  0.57665072  1
  O  O128  1  0.92334928  0.35220696  0.71454091  1
  O  O129  1  0.28545909  0.42334928  0.14779304  1
  O  O130  1  0.14779304  0.28545909  0.42334928  1
  O  O131  1  0.42334928  0.14779304  0.28545909  1
  O  O132  1  0.37257627  0.64470145  0.74738093  1
  O  O133  1  0.25261907  0.87257627  0.85529855  1
  O  O134  1  0.14470145  0.75261907  0.62742373  1
  O  O135  1  0.87257627  0.85529855  0.25261907  1
  O  O136  1  0.75261907  0.62742373  0.14470145  1
  O  O137  1  0.64470145  0.74738093  0.37257627  1
  O  O138  1  0.62742373  0.14470145  0.75261907  1
  O  O139  1  0.74738093  0.37257627  0.64470145  1
  O  O140  1  0.85529855  0.25261907  0.87257627  1
  O  O141  1  0.12742373  0.35529855  0.24738093  1
  O  O142  1  0.24738093  0.12742373  0.35529855  1
  O  O143  1  0.35529855  0.24738093  0.12742373  1
  O  O144  1  0.49686437  0.10509200  0.62339671  1
  O  O145  1  0.37660329  0.99686437  0.39490800  1
  O  O146  1  0.60509200  0.87660329  0.50313563  1
  O  O147  1  0.99686437  0.39490800  0.37660329  1
  O  O148  1  0.87660329  0.50313563  0.60509200  1
  O  O149  1  0.10509200  0.62339671  0.49686437  1
  O  O150  1  0.50313563  0.60509200  0.87660329  1
  O  O151  1  0.62339671  0.49686437  0.10509200  1
  O  O152  1  0.39490800  0.37660329  0.99686437  1
  O  O153  1  0.00313563  0.89490800  0.12339671  1
  O  O154  1  0.12339671  0.00313563  0.89490800  1
  O  O155  1  0.89490800  0.12339671  0.00313563  1
  O  O156  1  0.12369751  0.87630249  0.37630249  1
  O  O157  1  0.62369751  0.62369751  0.62369751  1
  O  O158  1  0.37630249  0.12369751  0.87630249  1
  O  O159  1  0.87630249  0.37630249  0.12369751  1
