# generated using pymatgen
data_Dy4Bi2S9
_symmetry_space_group_name_H-M   'P 1'
_cell_length_a   3.85027008
_cell_length_b   12.60386288
_cell_length_c   28.06605143
_cell_angle_alpha   90.00000000
_cell_angle_beta   90.00000000
_cell_angle_gamma   90.00000000
_symmetry_Int_Tables_number   1
_chemical_formula_structural   Dy4Bi2S9
_chemical_formula_sum   'Dy16 Bi8 S36'
_cell_volume   1361.99709393
_cell_formula_units_Z   4
loop_
 _symmetry_equiv_pos_site_id
 _symmetry_equiv_pos_as_xyz
  1  'x, y, z'
loop_
 _atom_site_type_symbol
 _atom_site_label
 _atom_site_symmetry_multiplicity
 _atom_site_fract_x
 _atom_site_fract_y
 _atom_site_fract_z
 _atom_site_occupancy
  Dy  Dy0  1  0.25000000  0.89157252  0.68853430  1
  Dy  Dy1  1  0.25000000  0.60842748  0.18853430  1
  Dy  Dy2  1  0.75000000  0.10842748  0.31146570  1
  Dy  Dy3  1  0.75000000  0.39157252  0.81146570  1
  Dy  Dy4  1  0.25000000  0.74132099  0.81776276  1
  Dy  Dy5  1  0.25000000  0.75867901  0.31776276  1
  Dy  Dy6  1  0.75000000  0.25867901  0.18223724  1
  Dy  Dy7  1  0.75000000  0.24132099  0.68223724  1
  Dy  Dy8  1  0.25000000  0.73994028  0.05763615  1
  Dy  Dy9  1  0.25000000  0.76005972  0.55763615  1
  Dy  Dy10  1  0.75000000  0.26005972  0.94236385  1
  Dy  Dy11  1  0.75000000  0.23994028  0.44236385  1
  Dy  Dy12  1  0.25000000  0.07372061  0.80431911  1
  Dy  Dy13  1  0.25000000  0.42627939  0.30431911  1
  Dy  Dy14  1  0.75000000  0.92627939  0.19568089  1
  Dy  Dy15  1  0.75000000  0.57372061  0.69568089  1
  Bi  Bi16  1  0.25000000  0.43287702  0.56127309  1
  Bi  Bi17  1  0.25000000  0.06712298  0.06127309  1
  Bi  Bi18  1  0.75000000  0.56712298  0.43872691  1
  Bi  Bi19  1  0.75000000  0.93287702  0.93872691  1
  Bi  Bi20  1  0.25000000  0.56481119  0.93323867  1
  Bi  Bi21  1  0.25000000  0.93518881  0.43323867  1
  Bi  Bi22  1  0.75000000  0.43518881  0.06676133  1
  Bi  Bi23  1  0.75000000  0.06481119  0.56676133  1
  S  S24  1  0.25000000  0.38358238  0.99281720  1
  S  S25  1  0.25000000  0.11641762  0.49281720  1
  S  S26  1  0.75000000  0.61641762  0.00718280  1
  S  S27  1  0.75000000  0.88358238  0.50718280  1
  S  S28  1  0.25000000  0.10660844  0.63941957  1
  S  S29  1  0.25000000  0.39339156  0.13941957  1
  S  S30  1  0.75000000  0.89339156  0.36058043  1
  S  S31  1  0.75000000  0.60660844  0.86058043  1
  S  S32  1  0.25000000  0.10738265  0.95745261  1
  S  S33  1  0.25000000  0.39261735  0.45745261  1
  S  S34  1  0.75000000  0.89261735  0.04254739  1
  S  S35  1  0.75000000  0.60738265  0.54254739  1
  S  S36  1  0.25000000  0.71095764  0.44186275  1
  S  S37  1  0.25000000  0.78904236  0.94186275  1
  S  S38  1  0.75000000  0.28904236  0.55813725  1
  S  S39  1  0.75000000  0.21095764  0.05813725  1
  S  S40  1  0.25000000  0.53621061  0.76899931  1
  S  S41  1  0.25000000  0.96378939  0.26899931  1
  S  S42  1  0.75000000  0.46378939  0.23100069  1
  S  S43  1  0.75000000  0.03621061  0.73100069  1
  S  S44  1  0.25000000  0.37566481  0.88330209  1
  S  S45  1  0.25000000  0.12433519  0.38330209  1
  S  S46  1  0.75000000  0.62433519  0.11669791  1
  S  S47  1  0.75000000  0.87566481  0.61669791  1
  S  S48  1  0.25000000  0.40765795  0.65930903  1
  S  S49  1  0.25000000  0.09234205  0.15930903  1
  S  S50  1  0.75000000  0.59234205  0.34069097  1
  S  S51  1  0.75000000  0.90765795  0.84069097  1
  S  S52  1  0.25000000  0.26790280  0.75554270  1
  S  S53  1  0.25000000  0.23209720  0.25554270  1
  S  S54  1  0.75000000  0.73209720  0.24445730  1
  S  S55  1  0.75000000  0.76790280  0.74445730  1
  S  S56  1  0.25000000  0.68178846  0.65000271  1
  S  S57  1  0.25000000  0.81821154  0.15000271  1
  S  S58  1  0.75000000  0.31821154  0.34999729  1
  S  S59  1  0.75000000  0.18178846  0.84999729  1
