# generated using pymatgen
data_LuMnSn2
_symmetry_space_group_name_H-M   'P 1'
_cell_length_a   8.96046364
_cell_length_b   10.25734993
_cell_length_c   11.27878987
_cell_angle_alpha   90.00000000
_cell_angle_beta   90.00000000
_cell_angle_gamma   90.00000000
_symmetry_Int_Tables_number   1
_chemical_formula_structural   LuMnSn2
_chemical_formula_sum   'Lu12 Mn12 Sn24'
_cell_volume   1036.64046931
_cell_formula_units_Z   12
loop_
 _symmetry_equiv_pos_site_id
 _symmetry_equiv_pos_as_xyz
  1  'x, y, z'
loop_
 _atom_site_type_symbol
 _atom_site_label
 _atom_site_symmetry_multiplicity
 _atom_site_fract_x
 _atom_site_fract_y
 _atom_site_fract_z
 _atom_site_occupancy
  Lu  Lu0  1  0.24043307  0.82851272  0.45234572  1
  Lu  Lu1  1  0.24043307  0.17148728  0.54765428  1
  Lu  Lu2  1  0.75956693  0.32851272  0.04765428  1
  Lu  Lu3  1  0.75956693  0.67148728  0.95234572  1
  Lu  Lu4  1  0.75956693  0.17148728  0.54765428  1
  Lu  Lu5  1  0.75956693  0.82851272  0.45234572  1
  Lu  Lu6  1  0.24043307  0.67148728  0.95234572  1
  Lu  Lu7  1  0.24043307  0.32851272  0.04765428  1
  Lu  Lu8  1  0.00000000  0.83471504  0.17902893  1
  Lu  Lu9  1  -0.00000000  0.16528496  0.82097107  1
  Lu  Lu10  1  0.00000000  0.33471504  0.32097107  1
  Lu  Lu11  1  -0.00000000  0.66528496  0.67902893  1
  Mn  Mn12  1  0.24919752  0.58860139  0.25092717  1
  Mn  Mn13  1  0.24919752  0.41139861  0.74907283  1
  Mn  Mn14  1  0.75080248  0.08860139  0.24907283  1
  Mn  Mn15  1  0.75080248  0.91139861  0.75092717  1
  Mn  Mn16  1  0.75080248  0.41139861  0.74907283  1
  Mn  Mn17  1  0.75080248  0.58860139  0.25092717  1
  Mn  Mn18  1  0.24919752  0.91139861  0.75092717  1
  Mn  Mn19  1  0.24919752  0.08860139  0.24907283  1
  Mn  Mn20  1  0.24404861  0.50000000  0.50000000  1
  Mn  Mn21  1  0.75595139  0.00000000  0.00000000  1
  Mn  Mn22  1  0.75595139  0.50000000  0.50000000  1
  Mn  Mn23  1  0.24404861  0.00000000  0.00000000  1
  Sn  Sn24  1  0.33665199  0.83776649  0.18128173  1
  Sn  Sn25  1  0.33665199  0.16223351  0.81871827  1
  Sn  Sn26  1  0.66334801  0.33776649  0.31871827  1
  Sn  Sn27  1  0.66334801  0.66223351  0.68128173  1
  Sn  Sn28  1  0.66334801  0.16223351  0.81871827  1
  Sn  Sn29  1  0.66334801  0.83776649  0.18128173  1
  Sn  Sn30  1  0.33665199  0.66223351  0.68128173  1
  Sn  Sn31  1  0.33665199  0.33776649  0.31871827  1
  Sn  Sn32  1  0.50000000  0.54223082  0.12362775  1
  Sn  Sn33  1  0.50000000  0.45776918  0.87637225  1
  Sn  Sn34  1  0.50000000  0.04223082  0.37637225  1
  Sn  Sn35  1  0.50000000  0.95776918  0.62362775  1
  Sn  Sn36  1  -0.00000000  0.54054601  0.12277134  1
  Sn  Sn37  1  0.00000000  0.45945399  0.87722866  1
  Sn  Sn38  1  0.00000000  0.04054601  0.37722866  1
  Sn  Sn39  1  -0.00000000  0.95945399  0.62277134  1
  Sn  Sn40  1  0.50000000  0.62825558  0.40573513  1
  Sn  Sn41  1  0.50000000  0.37174442  0.59426487  1
  Sn  Sn42  1  0.50000000  0.12825558  0.09426487  1
  Sn  Sn43  1  0.50000000  0.87174442  0.90573513  1
  Sn  Sn44  1  -0.00000000  0.62887941  0.39781113  1
  Sn  Sn45  1  -0.00000000  0.37112059  0.60218887  1
  Sn  Sn46  1  -0.00000000  0.12887941  0.10218887  1
  Sn  Sn47  1  0.00000000  0.87112059  0.89781113  1
