# generated using pymatgen
data_RbUC3O8
_symmetry_space_group_name_H-M   'P 1'
_cell_length_a   8.08913583
_cell_length_b   9.34172088
_cell_length_c   11.55654239
_cell_angle_alpha   90.00000000
_cell_angle_beta   105.45235013
_cell_angle_gamma   90.00000000
_symmetry_Int_Tables_number   1
_chemical_formula_structural   RbUC3O8
_chemical_formula_sum   'Rb4 U4 C12 O32'
_cell_volume   841.71961926
_cell_formula_units_Z   4
loop_
 _symmetry_equiv_pos_site_id
 _symmetry_equiv_pos_as_xyz
  1  'x, y, z'
loop_
 _atom_site_type_symbol
 _atom_site_label
 _atom_site_symmetry_multiplicity
 _atom_site_fract_x
 _atom_site_fract_y
 _atom_site_fract_z
 _atom_site_occupancy
  Rb  Rb0  1  0.11693554  0.08514532  0.67776867  1
  Rb  Rb1  1  0.61693554  0.41485468  0.17776867  1
  Rb  Rb2  1  0.88306446  0.91485468  0.32223133  1
  Rb  Rb3  1  0.38306446  0.58514532  0.82223133  1
  U  U4  1  0.26505239  0.31853044  0.39576509  1
  U  U5  1  0.76505239  0.18146956  0.89576509  1
  U  U6  1  0.73494761  0.68146956  0.60423491  1
  U  U7  1  0.23494761  0.81853044  0.10423491  1
  C  C8  1  0.60839311  0.19592215  0.58820491  1
  C  C9  1  0.10839311  0.30407785  0.08820491  1
  C  C10  1  0.39160689  0.80407785  0.41179509  1
  C  C11  1  0.89160689  0.69592215  0.91179509  1
  C  C12  1  0.66032777  0.19965480  0.46774498  1
  C  C13  1  0.16032777  0.30034520  0.96774498  1
  C  C14  1  0.33967223  0.80034520  0.53225502  1
  C  C15  1  0.83967223  0.69965480  0.03225502  1
  C  C16  1  0.94702765  0.51484091  0.43523542  1
  C  C17  1  0.44702765  0.98515909  0.93523542  1
  C  C18  1  0.05297235  0.48515909  0.56476458  1
  C  C19  1  0.55297235  0.01484091  0.06476458  1
  O  O20  1  0.15807922  0.14688333  0.38578391  1
  O  O21  1  0.65807922  0.35311667  0.88578391  1
  O  O22  1  0.84192078  0.85311667  0.61421609  1
  O  O23  1  0.34192078  0.64688333  0.11421609  1
  O  O24  1  0.35959583  0.49343874  0.40053597  1
  O  O25  1  0.85959583  0.00656126  0.90053597  1
  O  O26  1  0.64040417  0.50656126  0.59946403  1
  O  O27  1  0.14040417  0.99343874  0.09946403  1
  O  O28  1  0.45075716  0.21859719  0.57893379  1
  O  O29  1  0.95075716  0.28140281  0.07893379  1
  O  O30  1  0.54924284  0.78140281  0.42106621  1
  O  O31  1  0.04924284  0.71859719  0.92106621  1
  O  O32  1  0.53119709  0.23132377  0.37758429  1
  O  O33  1  0.03119709  0.26867623  0.87758429  1
  O  O34  1  0.46880291  0.76867623  0.62241571  1
  O  O35  1  0.96880291  0.73132377  0.12241571  1
  O  O36  1  0.72198169  0.16968794  0.68452445  1
  O  O37  1  0.22198169  0.33031206  0.18452445  1
  O  O38  1  0.27801831  0.83031206  0.31547555  1
  O  O39  1  0.77801831  0.66968794  0.81547555  1
  O  O40  1  0.80914193  0.17446471  0.46369367  1
  O  O41  1  0.30914193  0.32553529  0.96369367  1
  O  O42  1  0.19085807  0.82553529  0.53630633  1
  O  O43  1  0.69085807  0.67446471  0.03630633  1
  O  O44  1  0.99249565  0.44974021  0.35257547  1
  O  O45  1  0.49249565  0.05025979  0.85257547  1
  O  O46  1  0.00750435  0.55025979  0.64742453  1
  O  O47  1  0.50750435  0.94974021  0.14742453  1
  O  O48  1  0.82226764  0.60099471  0.42177845  1
  O  O49  1  0.32226764  0.89900529  0.92177845  1
  O  O50  1  0.17773236  0.39900529  0.57822155  1
  O  O51  1  0.67773236  0.10099471  0.07822155  1
