# generated using pymatgen
data_Cu4BiSe4I
_symmetry_space_group_name_H-M   'P 1'
_cell_length_a   4.14186317
_cell_length_b   9.75664041
_cell_length_c   23.18401407
_cell_angle_alpha   90.00000000
_cell_angle_beta   90.00000000
_cell_angle_gamma   90.00000000
_symmetry_Int_Tables_number   1
_chemical_formula_structural   Cu4BiSe4I
_chemical_formula_sum   'Cu16 Bi4 Se16 I4'
_cell_volume   936.88153205
_cell_formula_units_Z   4
loop_
 _symmetry_equiv_pos_site_id
 _symmetry_equiv_pos_as_xyz
  1  'x, y, z'
loop_
 _atom_site_type_symbol
 _atom_site_label
 _atom_site_symmetry_multiplicity
 _atom_site_fract_x
 _atom_site_fract_y
 _atom_site_fract_z
 _atom_site_occupancy
  Cu  Cu0  1  0.75000000  0.35312064  0.90722510  1
  Cu  Cu1  1  0.75000000  0.85312064  0.59277490  1
  Cu  Cu2  1  0.25000000  0.64687936  0.09277490  1
  Cu  Cu3  1  0.25000000  0.14687936  0.40722510  1
  Cu  Cu4  1  0.75000000  0.46156623  0.46938890  1
  Cu  Cu5  1  0.75000000  0.96156623  0.03061110  1
  Cu  Cu6  1  0.25000000  0.53843377  0.53061110  1
  Cu  Cu7  1  0.25000000  0.03843377  0.96938890  1
  Cu  Cu8  1  0.75000000  0.35784679  0.29513894  1
  Cu  Cu9  1  0.75000000  0.85784679  0.20486106  1
  Cu  Cu10  1  0.25000000  0.64215321  0.70486106  1
  Cu  Cu11  1  0.25000000  0.14215321  0.79513894  1
  Cu  Cu12  1  0.75000000  0.47451976  0.73830551  1
  Cu  Cu13  1  0.75000000  0.97451976  0.76169449  1
  Cu  Cu14  1  0.25000000  0.52548024  0.26169449  1
  Cu  Cu15  1  0.25000000  0.02548024  0.23830551  1
  Bi  Bi16  1  0.75000000  0.28264390  0.12418036  1
  Bi  Bi17  1  0.75000000  0.78264390  0.37581964  1
  Bi  Bi18  1  0.25000000  0.71735610  0.87581964  1
  Bi  Bi19  1  0.25000000  0.21735610  0.62418036  1
  Se  Se20  1  0.75000000  0.03724324  0.65889458  1
  Se  Se21  1  0.75000000  0.53724324  0.84110542  1
  Se  Se22  1  0.25000000  0.96275676  0.34110542  1
  Se  Se23  1  0.25000000  0.46275676  0.15889458  1
  Se  Se24  1  0.75000000  0.16211359  0.23035823  1
  Se  Se25  1  0.75000000  0.66211359  0.26964177  1
  Se  Se26  1  0.25000000  0.83788641  0.76964177  1
  Se  Se27  1  0.25000000  0.33788641  0.73035823  1
  Se  Se28  1  0.75000000  0.45816745  0.57851514  1
  Se  Se29  1  0.75000000  0.95816745  0.92148486  1
  Se  Se30  1  0.25000000  0.54183255  0.42148486  1
  Se  Se31  1  0.25000000  0.04183255  0.07851514  1
  Se  Se32  1  0.75000000  0.14332352  0.84553493  1
  Se  Se33  1  0.75000000  0.64332352  0.65446507  1
  Se  Se34  1  0.25000000  0.85667648  0.15446507  1
  Se  Se35  1  0.25000000  0.35667648  0.34553493  1
  I  I36  1  0.75000000  0.18419203  0.47699321  1
  I  I37  1  0.75000000  0.68419203  0.02300679  1
  I  I38  1  0.25000000  0.81580797  0.52300679  1
  I  I39  1  0.25000000  0.31580797  0.97699321  1
