# generated using pymatgen
data_Li3Fe5O12
_symmetry_space_group_name_H-M   'P 1'
_cell_length_a   5.35412085
_cell_length_b   5.01147290
_cell_length_c   7.37008223
_cell_angle_alpha   90.03685046
_cell_angle_beta   94.90410641
_cell_angle_gamma   90.53171308
_symmetry_Int_Tables_number   1
_chemical_formula_structural   Li3Fe5O12
_chemical_formula_sum   'Li3 Fe5 O12'
_cell_volume   197.02164543
_cell_formula_units_Z   1
loop_
 _symmetry_equiv_pos_site_id
 _symmetry_equiv_pos_as_xyz
  1  'x, y, z'
loop_
 _atom_site_type_symbol
 _atom_site_label
 _atom_site_symmetry_multiplicity
 _atom_site_fract_x
 _atom_site_fract_y
 _atom_site_fract_z
 _atom_site_occupancy
  Li  Li0  1  0.93980620  0.49994417  0.27993112  1
  Li  Li1  1  0.93661196  0.49859957  0.79155280  1
  Li  Li2  1  0.42725721  0.00007117  0.78449588  1
  Fe  Fe3  1  0.52041122  0.49174127  0.99058585  1
  Fe  Fe4  1  0.52158740  0.50166358  0.50355426  1
  Fe  Fe5  1  0.39905921  0.99807993  0.29328437  1
  Fe  Fe6  1  0.00440385  -0.00021638  0.98409863  1
  Fe  Fe7  1  0.99274519  0.01110082  0.50572067  1
  O  O8  1  0.83966728  0.67639809  0.04123735  1
  O  O9  1  0.84668855  0.34405223  0.54379609  1
  O  O10  1  0.69192186  0.81772964  0.40572531  1
  O  O11  1  0.72162094  0.19442242  0.91623100  1
  O  O12  1  0.53965058  0.34326896  0.24085034  1
  O  O13  1  0.52879100  0.62288634  0.74365150  1
  O  O14  1  0.34663544  0.82254864  0.05891649  1
  O  O15  1  0.34524318  0.17564873  0.53383860  1
  O  O16  1  0.22403037  0.70874651  0.41546054  1
  O  O17  1  0.22470962  0.29907895  0.91609458  1
  O  O18  1  0.05587893  0.11957793  0.23675393  1
  O  O19  1  0.03408001  0.87465742  0.74382170  1
