# generated using pymatgen
data_V2Cr3Sb3O16
_symmetry_space_group_name_H-M   'P 1'
_cell_length_a   6.08707784
_cell_length_b   6.11914487
_cell_length_c   9.06046678
_cell_angle_alpha   89.99345940
_cell_angle_beta   90.23867364
_cell_angle_gamma   120.17339100
_symmetry_Int_Tables_number   1
_chemical_formula_structural   V2Cr3Sb3O16
_chemical_formula_sum   'V2 Cr3 Sb3 O16'
_cell_volume   291.75239727
_cell_formula_units_Z   1
loop_
 _symmetry_equiv_pos_site_id
 _symmetry_equiv_pos_as_xyz
  1  'x, y, z'
loop_
 _atom_site_type_symbol
 _atom_site_label
 _atom_site_symmetry_multiplicity
 _atom_site_fract_x
 _atom_site_fract_y
 _atom_site_fract_z
 _atom_site_occupancy
  V  V0  1  0.30074194  0.65037705  0.47458272  1
  V  V1  1  0.65544992  0.32774979  -0.00004790  1
  Cr  Cr2  1  0.17416586  0.83793109  0.20531463  1
  Cr  Cr3  1  0.17415692  0.33628083  0.20531611  1
  Cr  Cr4  1  0.33988959  0.16993794  0.70905166  1
  Sb  Sb5  1  0.66652988  0.83326149  0.21165988  1
  Sb  Sb6  1  0.83623609  0.66643306  0.71197908  1
  Sb  Sb7  1  0.83621377  0.16979650  0.71199484  1
  O  O8  1  0.16292684  0.82651571  0.60226567  1
  O  O9  1  0.05132062  0.52567231  0.33998896  1
  O  O10  1  0.33932338  0.66970166  0.09877592  1
  O  O11  1  0.00298371  0.00149477  0.30936046  1
  O  O12  1  0.00392098  0.00193424  0.82065643  1
  O  O13  1  0.16290367  0.33643011  0.60228371  1
  O  O14  1  0.47319885  0.94928719  0.34523167  1
  O  O15  1  0.47317922  0.52389295  0.34525127  1
  O  O16  1  0.34828718  0.17418970  0.10080400  1
  O  O17  1  0.66476442  0.83240474  0.60204815  1
  O  O18  1  0.52833249  0.47526422  0.83997222  1
  O  O19  1  0.52833364  0.05302193  0.83999031  1
  O  O20  1  0.67100069  0.33553115  0.59358664  1
  O  O21  1  0.82320692  0.65312949  0.10044426  1
  O  O22  1  0.95972409  0.47984816  0.84478101  1
  O  O23  1  0.82320635  0.17011294  0.10042931  1
