# generated using pymatgen
data_Ce2Ge6Pt
_symmetry_space_group_name_H-M   'P 1'
_cell_length_a   4.14672173
_cell_length_b   4.17340806
_cell_length_c   11.25956233
_cell_angle_alpha   90.00000000
_cell_angle_beta   100.61112826
_cell_angle_gamma   90.00000000
_symmetry_Int_Tables_number   1
_chemical_formula_structural   Ce2Ge6Pt
_chemical_formula_sum   'Ce2 Ge6 Pt1'
_cell_volume   191.52541494
_cell_formula_units_Z   1
loop_
 _symmetry_equiv_pos_site_id
 _symmetry_equiv_pos_as_xyz
  1  'x, y, z'
loop_
 _atom_site_type_symbol
 _atom_site_label
 _atom_site_symmetry_multiplicity
 _atom_site_fract_x
 _atom_site_fract_y
 _atom_site_fract_z
 _atom_site_occupancy
  Ce  Ce0  1  0.77921032  0.50000000  0.55842065  1
  Ce  Ce1  1  0.11423106  0.50000000  0.22846212  1
  Ge  Ge2  1  0.49416961  0.50000000  0.98833921  1
  Ge  Ge3  1  0.38125546  0.50000000  0.76251091  1
  Ge  Ge4  1  0.99389778  -0.00000000  0.98779556  1
  Ge  Ge5  1  0.88109205  0.00000000  0.76218411  1
  Ge  Ge6  1  0.66896463  0.00000000  0.33792926  1
  Ge  Ge7  1  0.23608053  0.00000000  0.47216106  1
  Pt  Pt8  1  0.55809856  -0.00000000  0.11619712  1
