# generated using pymatgen
data_Ti6Co16Ge7
_symmetry_space_group_name_H-M   'P 1'
_cell_length_a   8.00055031
_cell_length_b   8.00055031
_cell_length_c   8.00055031
_cell_angle_alpha   60.00000000
_cell_angle_beta   60.00000000
_cell_angle_gamma   60.00000000
_symmetry_Int_Tables_number   1
_chemical_formula_structural   Ti6Co16Ge7
_chemical_formula_sum   'Ti6 Co16 Ge7'
_cell_volume   362.11339016
_cell_formula_units_Z   1
loop_
 _symmetry_equiv_pos_site_id
 _symmetry_equiv_pos_as_xyz
  1  'x, y, z'
loop_
 _atom_site_type_symbol
 _atom_site_label
 _atom_site_symmetry_multiplicity
 _atom_site_fract_x
 _atom_site_fract_y
 _atom_site_fract_z
 _atom_site_occupancy
  Ti  Ti0  1  0.69864502  0.69864502  0.30135498  1
  Ti  Ti1  1  0.30135498  0.30135498  0.69864502  1
  Ti  Ti2  1  0.69864502  0.30135498  0.69864502  1
  Ti  Ti3  1  0.30135498  0.69864502  0.30135498  1
  Ti  Ti4  1  0.30135498  0.69864502  0.69864502  1
  Ti  Ti5  1  0.69864502  0.30135498  0.30135498  1
  Co  Co6  1  0.66585784  0.66585784  0.66585784  1
  Co  Co7  1  0.33414216  0.33414216  0.33414216  1
  Co  Co8  1  0.00242647  0.66585784  0.66585784  1
  Co  Co9  1  0.66585784  0.00242647  0.66585784  1
  Co  Co10  1  0.99757353  0.33414216  0.33414216  1
  Co  Co11  1  0.33414216  0.99757353  0.33414216  1
  Co  Co12  1  0.66585784  0.66585784  0.00242647  1
  Co  Co13  1  0.33414216  0.33414216  0.99757353  1
  Co  Co14  1  0.88004749  0.88004749  0.88004749  1
  Co  Co15  1  0.11995251  0.11995251  0.11995251  1
  Co  Co16  1  0.35985754  0.88004749  0.88004749  1
  Co  Co17  1  0.88004749  0.35985754  0.88004749  1
  Co  Co18  1  0.64014246  0.11995251  0.11995251  1
  Co  Co19  1  0.11995251  0.64014246  0.11995251  1
  Co  Co20  1  0.88004749  0.88004749  0.35985754  1
  Co  Co21  1  0.11995251  0.11995251  0.64014246  1
  Ge  Ge22  1  -0.00000000  -0.00000000  0.50000000  1
  Ge  Ge23  1  0.50000000  0.50000000  0.00000000  1
  Ge  Ge24  1  -0.00000000  0.50000000  0.00000000  1
  Ge  Ge25  1  0.50000000  -0.00000000  0.50000000  1
  Ge  Ge26  1  0.50000000  -0.00000000  0.00000000  1
  Ge  Ge27  1  -0.00000000  0.50000000  0.50000000  1
  Ge  Ge28  1  -0.00000000  -0.00000000  0.00000000  1
