# generated using pymatgen
data_Y2U3S5O3
_symmetry_space_group_name_H-M   'P 1'
_cell_length_a   3.83711923
_cell_length_b   13.98063569
_cell_length_c   18.74778514
_cell_angle_alpha   90.00000000
_cell_angle_beta   90.00000000
_cell_angle_gamma   90.00000000
_symmetry_Int_Tables_number   1
_chemical_formula_structural   Y2U3S5O3
_chemical_formula_sum   'Y8 U12 S20 O12'
_cell_volume   1005.73179653
_cell_formula_units_Z   4
loop_
 _symmetry_equiv_pos_site_id
 _symmetry_equiv_pos_as_xyz
  1  'x, y, z'
loop_
 _atom_site_type_symbol
 _atom_site_label
 _atom_site_symmetry_multiplicity
 _atom_site_fract_x
 _atom_site_fract_y
 _atom_site_fract_z
 _atom_site_occupancy
  Y  Y0  1  0.75000000  0.61290174  0.16167142  1
  Y  Y1  1  0.25000000  0.38709826  0.83832858  1
  Y  Y2  1  0.25000000  0.88709826  0.66167142  1
  Y  Y3  1  0.75000000  0.11290174  0.33832858  1
  Y  Y4  1  0.75000000  0.60994704  0.54602891  1
  Y  Y5  1  0.25000000  0.39005296  0.45397109  1
  Y  Y6  1  0.25000000  0.89005296  0.04602891  1
  Y  Y7  1  0.75000000  0.10994704  0.95397109  1
  U  U8  1  0.75000000  0.60173099  0.93623617  1
  U  U9  1  0.25000000  0.39826901  0.06376383  1
  U  U10  1  0.25000000  0.89826901  0.43623617  1
  U  U11  1  0.75000000  0.10173099  0.56376383  1
  U  U12  1  0.75000000  0.84819650  0.27082001  1
  U  U13  1  0.25000000  0.15180350  0.72917999  1
  U  U14  1  0.25000000  0.65180350  0.77082001  1
  U  U15  1  0.75000000  0.34819650  0.22917999  1
  U  U16  1  0.75000000  0.85799661  0.84475167  1
  U  U17  1  0.25000000  0.14200339  0.15524833  1
  U  U18  1  0.25000000  0.64200339  0.34475167  1
  U  U19  1  0.75000000  0.35799661  0.65524833  1
  S  S20  1  0.75000000  0.78714495  0.98372905  1
  S  S21  1  0.25000000  0.21285505  0.01627095  1
  S  S22  1  0.25000000  0.71285505  0.48372905  1
  S  S23  1  0.75000000  0.28714495  0.51627095  1
  S  S24  1  0.75000000  0.90603825  0.55011792  1
  S  S25  1  0.25000000  0.09396175  0.44988208  1
  S  S26  1  0.25000000  0.59396175  0.05011792  1
  S  S27  1  0.75000000  0.40603825  0.94988208  1
  S  S28  1  0.75000000  0.72608465  0.66622529  1
  S  S29  1  0.25000000  0.27391535  0.33377471  1
  S  S30  1  0.25000000  0.77391535  0.16622529  1
  S  S31  1  0.75000000  0.22608465  0.83377471  1
  S  S32  1  0.75000000  0.99377489  0.73749797  1
  S  S33  1  0.25000000  0.00622511  0.26250203  1
  S  S34  1  0.25000000  0.50622511  0.23749797  1
  S  S35  1  0.75000000  0.49377489  0.76250203  1
  S  S36  1  0.75000000  0.51520566  0.41051061  1
  S  S37  1  0.25000000  0.48479434  0.58948939  1
  S  S38  1  0.25000000  0.98479434  0.91051061  1
  S  S39  1  0.75000000  0.01520566  0.08948939  1
  O  O40  1  0.75000000  0.67901263  0.28369410  1
  O  O41  1  0.25000000  0.32098737  0.71630590  1
  O  O42  1  0.25000000  0.82098737  0.78369410  1
  O  O43  1  0.75000000  0.17901263  0.21630590  1
  O  O44  1  0.75000000  0.69634964  0.83518794  1
  O  O45  1  0.25000000  0.30365036  0.16481206  1
  O  O46  1  0.25000000  0.80365036  0.33518794  1
  O  O47  1  0.75000000  0.19634964  0.66481206  1
  O  O48  1  0.75000000  0.93235358  0.37939151  1
  O  O49  1  0.25000000  0.06764642  0.62060849  1
  O  O50  1  0.25000000  0.56764642  0.87939151  1
  O  O51  1  0.75000000  0.43235358  0.12060849  1
