# generated using pymatgen
data_Yb3Sc2Al3O12
_symmetry_space_group_name_H-M   'P 1'
_cell_length_a   10.80385157
_cell_length_b   10.80385157
_cell_length_c   10.80385157
_cell_angle_alpha   109.47122063
_cell_angle_beta   109.47122063
_cell_angle_gamma   109.47122063
_symmetry_Int_Tables_number   1
_chemical_formula_structural   Yb3Sc2Al3O12
_chemical_formula_sum   'Yb12 Sc8 Al12 O48'
_cell_volume   970.76461053
_cell_formula_units_Z   4
loop_
 _symmetry_equiv_pos_site_id
 _symmetry_equiv_pos_as_xyz
  1  'x, y, z'
loop_
 _atom_site_type_symbol
 _atom_site_label
 _atom_site_symmetry_multiplicity
 _atom_site_fract_x
 _atom_site_fract_y
 _atom_site_fract_z
 _atom_site_occupancy
  Yb  Yb0  1  0.87500000  0.62500000  0.75000000  1
  Yb  Yb1  1  0.12500000  0.37500000  0.25000000  1
  Yb  Yb2  1  0.62500000  0.87500000  0.25000000  1
  Yb  Yb3  1  0.62500000  0.75000000  0.87500000  1
  Yb  Yb4  1  0.87500000  0.25000000  0.62500000  1
  Yb  Yb5  1  0.37500000  0.12500000  0.75000000  1
  Yb  Yb6  1  0.37500000  0.25000000  0.12500000  1
  Yb  Yb7  1  0.12500000  0.75000000  0.37500000  1
  Yb  Yb8  1  0.75000000  0.87500000  0.62500000  1
  Yb  Yb9  1  0.25000000  0.12500000  0.37500000  1
  Yb  Yb10  1  0.25000000  0.62500000  0.87500000  1
  Yb  Yb11  1  0.75000000  0.37500000  0.12500000  1
  Sc  Sc12  1  -0.00000000  -0.00000000  -0.00000000  1
  Sc  Sc13  1  0.50000000  -0.00000000  0.50000000  1
  Sc  Sc14  1  0.50000000  0.50000000  -0.00000000  1
  Sc  Sc15  1  -0.00000000  -0.00000000  0.50000000  1
  Sc  Sc16  1  -0.00000000  0.50000000  0.50000000  1
  Sc  Sc17  1  0.50000000  0.50000000  0.50000000  1
  Sc  Sc18  1  0.50000000  -0.00000000  -0.00000000  1
  Sc  Sc19  1  -0.00000000  0.50000000  -0.00000000  1
  Al  Al20  1  0.62500000  0.37500000  0.75000000  1
  Al  Al21  1  0.37500000  0.62500000  0.25000000  1
  Al  Al22  1  0.87500000  0.12500000  0.25000000  1
  Al  Al23  1  0.37500000  0.75000000  0.62500000  1
  Al  Al24  1  0.62500000  0.25000000  0.37500000  1
  Al  Al25  1  0.12500000  0.87500000  0.75000000  1
  Al  Al26  1  0.12500000  0.25000000  0.87500000  1
  Al  Al27  1  0.87500000  0.75000000  0.12500000  1
  Al  Al28  1  0.75000000  0.62500000  0.37500000  1
  Al  Al29  1  0.25000000  0.37500000  0.62500000  1
  Al  Al30  1  0.25000000  0.87500000  0.12500000  1
  Al  Al31  1  0.75000000  0.12500000  0.87500000  1
  O  O32  1  0.71112185  0.62283968  0.52212884  1
  O  O33  1  0.28887815  0.37716032  0.47787116  1
  O  O34  1  0.78887815  0.81100699  0.41171784  1
  O  O35  1  0.39928916  0.87716032  0.08828216  1
  O  O36  1  0.62283968  0.52212884  0.71112185  1
  O  O37  1  0.71112185  0.08828216  0.68899301  1
  O  O38  1  0.21112185  0.18899301  0.58828216  1
  O  O39  1  0.60071084  0.12283968  0.91171784  1
  O  O40  1  0.37716032  0.47787116  0.28887815  1
  O  O41  1  0.28887815  0.91171784  0.31100699  1
  O  O42  1  0.10071084  0.68899301  0.97787116  1
  O  O43  1  0.81100699  0.41171784  0.78887815  1
  O  O44  1  0.78887815  0.97787116  0.87716032  1
  O  O45  1  0.89928916  0.31100699  0.02212884  1
  O  O46  1  0.18899301  0.58828216  0.21112185  1
  O  O47  1  0.21112185  0.02212884  0.12283968  1
  O  O48  1  0.87716032  0.08828216  0.39928916  1
  O  O49  1  0.39928916  0.52212884  0.81100699  1
  O  O50  1  0.12283968  0.91171784  0.60071084  1
  O  O51  1  0.60071084  0.47787116  0.18899301  1
  O  O52  1  0.68899301  0.97787116  0.10071084  1
  O  O53  1  0.10071084  0.41171784  0.62283968  1
  O  O54  1  0.31100699  0.02212884  0.89928916  1
  O  O55  1  0.89928916  0.58828216  0.37716032  1
  O  O56  1  0.52212884  0.71112185  0.62283968  1
  O  O57  1  0.62283968  0.10071084  0.41171784  1
  O  O58  1  0.47787116  0.28887815  0.37716032  1
  O  O59  1  0.37716032  0.89928916  0.58828216  1
  O  O60  1  0.08828216  0.39928916  0.87716032  1
  O  O61  1  0.87716032  0.78887815  0.97787116  1
  O  O62  1  0.91171784  0.60071084  0.12283968  1
  O  O63  1  0.12283968  0.21112185  0.02212884  1
  O  O64  1  0.97787116  0.10071084  0.68899301  1
  O  O65  1  0.68899301  0.71112185  0.08828216  1
  O  O66  1  0.02212884  0.89928916  0.31100699  1
  O  O67  1  0.31100699  0.28887815  0.91171784  1
  O  O68  1  0.41171784  0.78887815  0.81100699  1
  O  O69  1  0.81100699  0.39928916  0.52212884  1
  O  O70  1  0.58828216  0.21112185  0.18899301  1
  O  O71  1  0.18899301  0.60071084  0.47787116  1
  O  O72  1  0.08828216  0.68899301  0.71112185  1
  O  O73  1  0.91171784  0.31100699  0.28887815  1
  O  O74  1  0.97787116  0.87716032  0.78887815  1
  O  O75  1  0.02212884  0.12283968  0.21112185  1
  O  O76  1  0.41171784  0.62283968  0.10071084  1
  O  O77  1  0.58828216  0.37716032  0.89928916  1
  O  O78  1  0.52212884  0.81100699  0.39928916  1
  O  O79  1  0.47787116  0.18899301  0.60071084  1
