# generated using pymatgen
data_MnTeO4
_symmetry_space_group_name_H-M   'P 1'
_cell_length_a   5.16515480
_cell_length_b   9.93631360
_cell_length_c   9.43070288
_cell_angle_alpha   18.34752023
_cell_angle_beta   34.43237479
_cell_angle_gamma   38.48082176
_symmetry_Int_Tables_number   1
_chemical_formula_structural   MnTeO4
_chemical_formula_sum   'Mn1 Te1 O4'
_cell_volume   86.14712218
_cell_formula_units_Z   1
loop_
 _symmetry_equiv_pos_site_id
 _symmetry_equiv_pos_as_xyz
  1  'x, y, z'
loop_
 _atom_site_type_symbol
 _atom_site_label
 _atom_site_symmetry_multiplicity
 _atom_site_fract_x
 _atom_site_fract_y
 _atom_site_fract_z
 _atom_site_occupancy
  Mn  Mn0  1  0.50013109  0.50001507  0.49983589  1
  Te  Te1  1  0.50009506  0.99999330  0.50003225  1
  O  O2  1  0.13099433  0.99997810  0.26627515  1
  O  O3  1  0.34682723  0.49994585  0.20025615  1
  O  O4  1  0.86918622  0.00001867  0.73354686  1
  O  O5  1  0.65276606  0.50005000  0.80005471  1
