# generated using pymatgen
data_TlV3CdCu4O13
_symmetry_space_group_name_H-M   'P 1'
_cell_length_a   6.37214347
_cell_length_b   8.47384071
_cell_length_c   10.95284114
_cell_angle_alpha   97.20164844
_cell_angle_beta   90.00000000
_cell_angle_gamma   90.00000000
_symmetry_Int_Tables_number   1
_chemical_formula_structural   TlV3CdCu4O13
_chemical_formula_sum   'Tl2 V6 Cd2 Cu8 O26'
_cell_volume   586.74978175
_cell_formula_units_Z   2
loop_
 _symmetry_equiv_pos_site_id
 _symmetry_equiv_pos_as_xyz
  1  'x, y, z'
loop_
 _atom_site_type_symbol
 _atom_site_label
 _atom_site_symmetry_multiplicity
 _atom_site_fract_x
 _atom_site_fract_y
 _atom_site_fract_z
 _atom_site_occupancy
  Tl  Tl0  1  0.75000000  0.51033211  0.89828561  1
  Tl  Tl1  1  0.25000000  0.48966789  0.10171439  1
  V  V2  1  0.75000000  0.13947753  0.00770297  1
  V  V3  1  0.25000000  0.86052247  0.99229703  1
  V  V4  1  0.75000000  0.46266063  0.29880377  1
  V  V5  1  0.25000000  0.53733937  0.70119623  1
  V  V6  1  0.75000000  0.17485182  0.62104762  1
  V  V7  1  0.25000000  0.82514818  0.37895238  1
  Cd  Cd8  1  0.75000000  0.80322833  0.13849036  1
  Cd  Cd9  1  0.25000000  0.19677167  0.86150964  1
  Cu  Cu10  1  0.00133957  0.88995938  0.71899600  1
  Cu  Cu11  1  0.99866043  0.11004062  0.28100400  1
  Cu  Cu12  1  0.50133957  0.11004062  0.28100400  1
  Cu  Cu13  1  0.49866043  0.88995938  0.71899600  1
  Cu  Cu14  1  0.75000000  0.85452391  0.44086230  1
  Cu  Cu15  1  0.25000000  0.14547609  0.55913770  1
  Cu  Cu16  1  0.75000000  0.59920042  0.60843707  1
  Cu  Cu17  1  0.25000000  0.40079958  0.39156293  1
  O  O18  1  0.75000000  0.37539514  0.61986267  1
  O  O19  1  0.25000000  0.62460486  0.38013733  1
  O  O20  1  0.75000000  0.08617777  0.46879494  1
  O  O21  1  0.25000000  0.91382223  0.53120506  1
  O  O22  1  0.75000000  0.61957383  0.42174705  1
  O  O23  1  0.25000000  0.38042617  0.57825295  1
  O  O24  1  0.00972259  0.88333985  0.30734852  1
  O  O25  1  0.99027741  0.11666015  0.69265148  1
  O  O26  1  0.50972259  0.11666015  0.69265148  1
  O  O27  1  0.49027741  0.88333985  0.30734852  1
  O  O28  1  0.75000000  0.84105007  0.62237407  1
  O  O29  1  0.25000000  0.15894993  0.37762593  1
  O  O30  1  0.75000000  0.97580148  0.90282597  1
  O  O31  1  0.25000000  0.02419852  0.09717403  1
  O  O32  1  0.75000000  0.07775212  0.17231352  1
  O  O33  1  0.25000000  0.92224788  0.82768648  1
  O  O34  1  0.96646813  0.25400290  0.98183273  1
  O  O35  1  0.03353187  0.74599710  0.01816727  1
  O  O36  1  0.46646813  0.74599710  0.01816727  1
  O  O37  1  0.53353187  0.25400290  0.98183273  1
  O  O38  1  0.75000000  0.54516119  0.16525471  1
  O  O39  1  0.25000000  0.45483881  0.83474529  1
  O  O40  1  0.47722958  0.65950723  0.70152241  1
  O  O41  1  0.52277042  0.34049277  0.29847759  1
  O  O42  1  0.97722958  0.34049277  0.29847759  1
  O  O43  1  0.02277042  0.65950723  0.70152241  1
