# generated using pymatgen
data_Zr9W4S
_symmetry_space_group_name_H-M   'P 1'
_cell_length_a   8.68615681
_cell_length_b   8.77559125
_cell_length_c   8.77559125
_cell_angle_alpha   120.00000459
_cell_angle_beta   90.00000000
_cell_angle_gamma   90.00000000
_symmetry_Int_Tables_number   1
_chemical_formula_structural   Zr9W4S
_chemical_formula_sum   'Zr18 W8 S2'
_cell_volume   579.31003254
_cell_formula_units_Z   2
loop_
 _symmetry_equiv_pos_site_id
 _symmetry_equiv_pos_as_xyz
  1  'x, y, z'
loop_
 _atom_site_type_symbol
 _atom_site_label
 _atom_site_symmetry_multiplicity
 _atom_site_fract_x
 _atom_site_fract_y
 _atom_site_fract_z
 _atom_site_occupancy
  Zr  Zr0  1  0.75000000  0.46092155  0.53907845  1
  Zr  Zr1  1  0.25000000  0.53907845  0.46092155  1
  Zr  Zr2  1  0.75000000  0.07815689  0.53907845  1
  Zr  Zr3  1  0.25000000  0.92184311  0.46092155  1
  Zr  Zr4  1  0.75000000  0.46092155  0.92184311  1
  Zr  Zr5  1  0.25000000  0.53907845  0.07815689  1
  Zr  Zr6  1  0.95027458  0.80313369  0.19686631  1
  Zr  Zr7  1  0.04972542  0.19686631  0.80313369  1
  Zr  Zr8  1  0.95027458  0.39373262  0.19686631  1
  Zr  Zr9  1  0.45027458  0.19686631  0.80313369  1
  Zr  Zr10  1  0.04972542  0.60626738  0.80313369  1
  Zr  Zr11  1  0.54972542  0.80313369  0.19686631  1
  Zr  Zr12  1  0.95027458  0.80313369  0.60626738  1
  Zr  Zr13  1  0.45027458  0.60626738  0.80313369  1
  Zr  Zr14  1  0.04972542  0.19686631  0.39373262  1
  Zr  Zr15  1  0.54972542  0.39373262  0.19686631  1
  Zr  Zr16  1  0.45027458  0.19686631  0.39373262  1
  Zr  Zr17  1  0.54972542  0.80313369  0.60626738  1
  W  W18  1  -0.00000000  -0.00000000  -0.00000000  1
  W  W19  1  0.50000000  -0.00000000  -0.00000000  1
  W  W20  1  0.75000000  0.10867798  0.89132202  1
  W  W21  1  0.25000000  0.89132202  0.10867798  1
  W  W22  1  0.75000000  0.78264404  0.89132202  1
  W  W23  1  0.25000000  0.21735596  0.10867798  1
  W  W24  1  0.75000000  0.10867798  0.21735596  1
  W  W25  1  0.25000000  0.89132202  0.78264404  1
  S  S26  1  0.75000000  0.66666700  0.33333300  1
  S  S27  1  0.25000000  0.33333300  0.66666700  1
