# generated using pymatgen
data_Pu(MoO4)2
_symmetry_space_group_name_H-M   'P 1'
_cell_length_a   9.70940494
_cell_length_b   10.20961078
_cell_length_c   14.53961167
_cell_angle_alpha   90.00000000
_cell_angle_beta   90.00000000
_cell_angle_gamma   90.00000000
_symmetry_Int_Tables_number   1
_chemical_formula_structural   Pu(MoO4)2
_chemical_formula_sum   'Pu8 Mo16 O64'
_cell_volume   1441.30073242
_cell_formula_units_Z   8
loop_
 _symmetry_equiv_pos_site_id
 _symmetry_equiv_pos_as_xyz
  1  'x, y, z'
loop_
 _atom_site_type_symbol
 _atom_site_label
 _atom_site_symmetry_multiplicity
 _atom_site_fract_x
 _atom_site_fract_y
 _atom_site_fract_z
 _atom_site_occupancy
  Pu  Pu0  1  0.72065107  0.52862728  0.88703194  1
  Pu  Pu1  1  0.27934893  0.47137272  0.11296806  1
  Pu  Pu2  1  0.77934893  0.02862728  0.11296806  1
  Pu  Pu3  1  0.27934893  0.97137272  0.38703194  1
  Pu  Pu4  1  0.22065107  0.97137272  0.88703194  1
  Pu  Pu5  1  0.72065107  0.02862728  0.61296806  1
  Pu  Pu6  1  0.22065107  0.47137272  0.61296806  1
  Pu  Pu7  1  0.77934893  0.52862728  0.38703194  1
  Mo  Mo8  1  0.99842825  0.77615979  0.55834722  1
  Mo  Mo9  1  0.00157175  0.22384021  0.44165278  1
  Mo  Mo10  1  0.50157175  0.27615979  0.44165278  1
  Mo  Mo11  1  0.00157175  0.72384021  0.05834722  1
  Mo  Mo12  1  0.49842825  0.72384021  0.55834722  1
  Mo  Mo13  1  0.99842825  0.27615979  0.94165278  1
  Mo  Mo14  1  0.49842825  0.22384021  0.94165278  1
  Mo  Mo15  1  0.50157175  0.77615979  0.05834722  1
  Mo  Mo16  1  0.81851289  0.89481132  0.84924375  1
  Mo  Mo17  1  0.18148711  0.10518868  0.15075625  1
  Mo  Mo18  1  0.68148711  0.39481132  0.15075625  1
  Mo  Mo19  1  0.18148711  0.60518868  0.34924375  1
  Mo  Mo20  1  0.31851289  0.60518868  0.84924375  1
  Mo  Mo21  1  0.81851289  0.39481132  0.65075625  1
  Mo  Mo22  1  0.31851289  0.10518868  0.65075625  1
  Mo  Mo23  1  0.68148711  0.89481132  0.34924375  1
  O  O24  1  0.61317677  0.82760629  0.62439431  1
  O  O25  1  0.38682323  0.17239371  0.37560569  1
  O  O26  1  0.88682323  0.32760629  0.37560569  1
  O  O27  1  0.38682323  0.67239371  0.12439431  1
  O  O28  1  0.11317677  0.67239371  0.62439431  1
  O  O29  1  0.61317677  0.32760629  0.87560569  1
  O  O30  1  0.11317677  0.17239371  0.87560569  1
  O  O31  1  0.88682323  0.82760629  0.12439431  1
  O  O32  1  0.76233216  0.93069209  0.96323793  1
  O  O33  1  0.23766784  0.06930791  0.03676207  1
  O  O34  1  0.73766784  0.43069209  0.03676207  1
  O  O35  1  0.23766784  0.56930791  0.46323793  1
  O  O36  1  0.26233216  0.56930791  0.96323793  1
  O  O37  1  0.76233216  0.43069209  0.53676207  1
  O  O38  1  0.26233216  0.06930791  0.53676207  1
  O  O39  1  0.73766784  0.93069209  0.46323793  1
  O  O40  1  0.88062481  0.66863158  0.50282199  1
  O  O41  1  0.11937519  0.33136842  0.49717801  1
  O  O42  1  0.61937519  0.16863158  0.49717801  1
  O  O43  1  0.11937519  0.83136842  0.00282199  1
  O  O44  1  0.38062481  0.83136842  0.50282199  1
  O  O45  1  0.88062481  0.16863158  0.99717801  1
  O  O46  1  0.38062481  0.33136842  0.99717801  1
  O  O47  1  0.61937519  0.66863158  0.00282199  1
  O  O48  1  0.77036670  0.72974368  0.82317131  1
  O  O49  1  0.22963330  0.27025632  0.17682869  1
  O  O50  1  0.72963330  0.22974368  0.17682869  1
  O  O51  1  0.22963330  0.77025632  0.32317131  1
  O  O52  1  0.27036670  0.77025632  0.82317131  1
  O  O53  1  0.77036670  0.22974368  0.67682869  1
  O  O54  1  0.27036670  0.27025632  0.67682869  1
  O  O55  1  0.72963330  0.72974368  0.32317131  1
  O  O56  1  0.90558087  0.89318154  0.63018520  1
  O  O57  1  0.09441913  0.10681846  0.36981480  1
  O  O58  1  0.59441913  0.39318154  0.36981480  1
  O  O59  1  0.09441913  0.60681846  0.13018520  1
  O  O60  1  0.40558087  0.60681846  0.63018520  1
  O  O61  1  0.90558087  0.39318154  0.86981480  1
  O  O62  1  0.40558087  0.10681846  0.86981480  1
  O  O63  1  0.59441913  0.89318154  0.13018520  1
  O  O64  1  0.73512136  0.50280514  0.73141109  1
  O  O65  1  0.26487864  0.49719486  0.26858891  1
  O  O66  1  0.76487864  0.00280514  0.26858891  1
  O  O67  1  0.26487864  0.99719486  0.23141109  1
  O  O68  1  0.23512136  0.99719486  0.73141109  1
  O  O69  1  0.73512136  0.00280514  0.76858891  1
  O  O70  1  0.23512136  0.49719486  0.76858891  1
  O  O71  1  0.76487864  0.50280514  0.23141109  1
  O  O72  1  0.90701765  0.63803520  0.97311903  1
  O  O73  1  0.09298235  0.36196480  0.02688097  1
  O  O74  1  0.59298235  0.13803520  0.02688097  1
  O  O75  1  0.09298235  0.86196480  0.47311903  1
  O  O76  1  0.40701765  0.86196480  0.97311903  1
  O  O77  1  0.90701765  0.13803520  0.52688097  1
  O  O78  1  0.40701765  0.36196480  0.52688097  1
  O  O79  1  0.59298235  0.63803520  0.47311903  1
  O  O80  1  0.00230170  0.91687870  0.84458902  1
  O  O81  1  0.99769830  0.08312130  0.15541098  1
  O  O82  1  0.49769830  0.41687870  0.15541098  1
  O  O83  1  0.99769830  0.58312130  0.34458902  1
  O  O84  1  0.50230170  0.58312130  0.84458902  1
  O  O85  1  0.00230170  0.41687870  0.65541098  1
  O  O86  1  0.50230170  0.08312130  0.65541098  1
  O  O87  1  0.49769830  0.91687870  0.34458902  1
