# generated using pymatgen
data_NdTl(WO4)2
_symmetry_space_group_name_H-M   'P 1'
_cell_length_a   5.29415686
_cell_length_b   8.32657270
_cell_length_c   19.04109974
_cell_angle_alpha   90.00000000
_cell_angle_beta   90.00000000
_cell_angle_gamma   90.00000000
_symmetry_Int_Tables_number   1
_chemical_formula_structural   NdTl(WO4)2
_chemical_formula_sum   'Nd4 Tl4 W8 O32'
_cell_volume   839.37322384
_cell_formula_units_Z   4
loop_
 _symmetry_equiv_pos_site_id
 _symmetry_equiv_pos_as_xyz
  1  'x, y, z'
loop_
 _atom_site_type_symbol
 _atom_site_label
 _atom_site_symmetry_multiplicity
 _atom_site_fract_x
 _atom_site_fract_y
 _atom_site_fract_z
 _atom_site_occupancy
  Nd  Nd0  1  -0.00000000  0.75000000  0.99307829  1
  Nd  Nd1  1  0.00000000  0.25000000  0.00692171  1
  Nd  Nd2  1  0.50000000  0.25000000  0.50692171  1
  Nd  Nd3  1  0.50000000  0.75000000  0.49307829  1
  Tl  Tl4  1  0.00000000  0.75000000  0.23045648  1
  Tl  Tl5  1  -0.00000000  0.25000000  0.76954352  1
  Tl  Tl6  1  0.50000000  0.25000000  0.26954352  1
  Tl  Tl7  1  0.50000000  0.75000000  0.73045648  1
  W  W8  1  0.97868179  0.98249465  0.60068855  1
  W  W9  1  0.02131821  0.01750535  0.39931145  1
  W  W10  1  0.52131821  0.48249465  0.89931145  1
  W  W11  1  0.02131821  0.51750535  0.60068855  1
  W  W12  1  0.47868179  0.51750535  0.10068855  1
  W  W13  1  0.97868179  0.48249465  0.39931145  1
  W  W14  1  0.47868179  0.01750535  0.89931145  1
  W  W15  1  0.52131821  0.98249465  0.10068855  1
  O  O16  1  0.89795861  0.52459337  0.68784956  1
  O  O17  1  0.10204139  0.47540663  0.31215044  1
  O  O18  1  0.60204139  0.02459337  0.81215044  1
  O  O19  1  0.10204139  0.97540663  0.68784956  1
  O  O20  1  0.39795861  0.97540663  0.18784956  1
  O  O21  1  0.89795861  0.02459337  0.31215044  1
  O  O22  1  0.39795861  0.47540663  0.81215044  1
  O  O23  1  0.60204139  0.52459337  0.18784956  1
  O  O24  1  0.72445749  0.65825180  0.90110942  1
  O  O25  1  0.27554251  0.34174820  0.09889058  1
  O  O26  1  0.77554251  0.15825180  0.59889058  1
  O  O27  1  0.27554251  0.84174820  0.90110942  1
  O  O28  1  0.22445749  0.84174820  0.40110942  1
  O  O29  1  0.72445749  0.15825180  0.09889058  1
  O  O30  1  0.22445749  0.34174820  0.59889058  1
  O  O31  1  0.77554251  0.65825180  0.40110942  1
  O  O32  1  0.74424173  0.99666088  0.96442609  1
  O  O33  1  0.25575827  0.00333912  0.03557391  1
  O  O34  1  0.75575827  0.49666088  0.53557391  1
  O  O35  1  0.25575827  0.50333912  0.96442609  1
  O  O36  1  0.24424173  0.50333912  0.46442609  1
  O  O37  1  0.74424173  0.49666088  0.03557391  1
  O  O38  1  0.24424173  0.00333912  0.53557391  1
  O  O39  1  0.75575827  0.99666088  0.46442609  1
  O  O40  1  0.76128555  0.81094308  0.59208651  1
  O  O41  1  0.23871445  0.18905692  0.40791349  1
  O  O42  1  0.73871445  0.31094308  0.90791349  1
  O  O43  1  0.23871445  0.68905692  0.59208651  1
  O  O44  1  0.26128555  0.68905692  0.09208651  1
  O  O45  1  0.76128555  0.31094308  0.40791349  1
  O  O46  1  0.26128555  0.18905692  0.90791349  1
  O  O47  1  0.73871445  0.81094308  0.09208651  1
