# generated using pymatgen
data_Rb2Fe2(SO4)3
_symmetry_space_group_name_H-M   'P 1'
_cell_length_a   10.26189660
_cell_length_b   10.26189660
_cell_length_c   10.26189660
_cell_angle_alpha   90.00000000
_cell_angle_beta   90.00000000
_cell_angle_gamma   90.00000000
_symmetry_Int_Tables_number   1
_chemical_formula_structural   Rb2Fe2(SO4)3
_chemical_formula_sum   'Rb8 Fe8 S12 O48'
_cell_volume   1080.64463832
_cell_formula_units_Z   4
loop_
 _symmetry_equiv_pos_site_id
 _symmetry_equiv_pos_as_xyz
  1  'x, y, z'
loop_
 _atom_site_type_symbol
 _atom_site_label
 _atom_site_symmetry_multiplicity
 _atom_site_fract_x
 _atom_site_fract_y
 _atom_site_fract_z
 _atom_site_occupancy
  Rb  Rb0  1  0.04816907  0.04816907  0.04816907  1
  Rb  Rb1  1  0.45183093  0.95183093  0.54816907  1
  Rb  Rb2  1  0.95183093  0.54816907  0.45183093  1
  Rb  Rb3  1  0.54816907  0.45183093  0.95183093  1
  Rb  Rb4  1  0.81661279  0.81661279  0.81661279  1
  Rb  Rb5  1  0.68338721  0.18338721  0.31661279  1
  Rb  Rb6  1  0.18338721  0.31661279  0.68338721  1
  Rb  Rb7  1  0.31661279  0.68338721  0.18338721  1
  Fe  Fe8  1  0.33520778  0.33520778  0.33520778  1
  Fe  Fe9  1  0.16479222  0.66479222  0.83520778  1
  Fe  Fe10  1  0.66479222  0.83520778  0.16479222  1
  Fe  Fe11  1  0.83520778  0.16479222  0.66479222  1
  Fe  Fe12  1  0.59872999  0.59872999  0.59872999  1
  Fe  Fe13  1  0.90127001  0.40127001  0.09872999  1
  Fe  Fe14  1  0.40127001  0.09872999  0.90127001  1
  Fe  Fe15  1  0.09872999  0.90127001  0.40127001  1
  S  S16  1  0.01810765  0.21590039  0.37580291  1
  S  S17  1  0.48189235  0.78409961  0.87580291  1
  S  S18  1  0.98189235  0.71590039  0.12419709  1
  S  S19  1  0.37580291  0.01810765  0.21590039  1
  S  S20  1  0.51810765  0.28409961  0.62419709  1
  S  S21  1  0.87580291  0.48189235  0.78409961  1
  S  S22  1  0.12419709  0.98189235  0.71590039  1
  S  S23  1  0.62419709  0.51810765  0.28409961  1
  S  S24  1  0.21590039  0.37580291  0.01810765  1
  S  S25  1  0.71590039  0.12419709  0.98189235  1
  S  S26  1  0.28409961  0.62419709  0.51810765  1
  S  S27  1  0.78409961  0.87580291  0.48189235  1
  O  O28  1  0.00922909  0.07812609  0.33008073  1
  O  O29  1  0.49077091  0.92187391  0.83008073  1
  O  O30  1  0.99077091  0.57812609  0.16991927  1
  O  O31  1  0.33008073  0.00922909  0.07812609  1
  O  O32  1  0.50922909  0.42187391  0.66991927  1
  O  O33  1  0.83008073  0.49077091  0.92187391  1
  O  O34  1  0.16991927  0.99077091  0.57812609  1
  O  O35  1  0.66991927  0.50922909  0.42187391  1
  O  O36  1  0.07812609  0.33008073  0.00922909  1
  O  O37  1  0.57812609  0.16991927  0.99077091  1
  O  O38  1  0.42187391  0.66991927  0.50922909  1
  O  O39  1  0.92187391  0.83008073  0.49077091  1
  O  O40  1  0.26542228  0.50162658  0.44226748  1
  O  O41  1  0.23457772  0.49837342  0.94226748  1
  O  O42  1  0.73457772  0.00162658  0.05773252  1
  O  O43  1  0.44226748  0.26542228  0.50162658  1
  O  O44  1  0.76542228  0.99837342  0.55773252  1
  O  O45  1  0.94226748  0.23457772  0.49837342  1
  O  O46  1  0.05773252  0.73457772  0.00162658  1
  O  O47  1  0.55773252  0.76542228  0.99837342  1
  O  O48  1  0.50162658  0.44226748  0.26542228  1
  O  O49  1  0.00162658  0.05773252  0.73457772  1
  O  O50  1  0.99837342  0.55773252  0.76542228  1
  O  O51  1  0.49837342  0.94226748  0.23457772  1
  O  O52  1  0.04089106  0.80231088  0.22455447  1
  O  O53  1  0.45910894  0.19768912  0.72455447  1
  O  O54  1  0.95910894  0.30231088  0.27544553  1
  O  O55  1  0.22455447  0.04089106  0.80231088  1
  O  O56  1  0.54089106  0.69768912  0.77544553  1
  O  O57  1  0.72455447  0.45910894  0.19768912  1
  O  O58  1  0.27544553  0.95910894  0.30231088  1
  O  O59  1  0.77544553  0.54089106  0.69768912  1
  O  O60  1  0.80231088  0.22455447  0.04089106  1
  O  O61  1  0.30231088  0.27544553  0.95910894  1
  O  O62  1  0.69768912  0.77544553  0.54089106  1
  O  O63  1  0.19768912  0.72455447  0.45910894  1
  O  O64  1  0.15544075  0.25273427  0.40210087  1
  O  O65  1  0.34455925  0.74726573  0.90210087  1
  O  O66  1  0.84455925  0.75273427  0.09789913  1
  O  O67  1  0.40210087  0.15544075  0.25273427  1
  O  O68  1  0.65544075  0.24726573  0.59789913  1
  O  O69  1  0.90210087  0.34455925  0.74726573  1
  O  O70  1  0.09789913  0.84455925  0.75273427  1
  O  O71  1  0.59789913  0.65544075  0.24726573  1
  O  O72  1  0.25273427  0.40210087  0.15544075  1
  O  O73  1  0.75273427  0.09789913  0.84455925  1
  O  O74  1  0.24726573  0.59789913  0.65544075  1
  O  O75  1  0.74726573  0.90210087  0.34455925  1
