# generated using pymatgen
data_Pr11O20
_symmetry_space_group_name_H-M   'P 1'
_cell_length_a   7.03556145
_cell_length_b   6.89669624
_cell_length_c   10.75777158
_cell_angle_alpha   92.55314666
_cell_angle_beta   94.57586026
_cell_angle_gamma   98.71803343
_symmetry_Int_Tables_number   1
_chemical_formula_structural   Pr11O20
_chemical_formula_sum   'Pr11 O20'
_cell_volume   513.46401838
_cell_formula_units_Z   1
loop_
 _symmetry_equiv_pos_site_id
 _symmetry_equiv_pos_as_xyz
  1  'x, y, z'
loop_
 _atom_site_type_symbol
 _atom_site_label
 _atom_site_symmetry_multiplicity
 _atom_site_fract_x
 _atom_site_fract_y
 _atom_site_fract_z
 _atom_site_occupancy
  Pr  Pr0  1  0.88845434  0.81698354  0.63334680  1
  Pr  Pr1  1  0.11154566  0.18301646  0.36665320  1
  Pr  Pr2  1  0.85642239  0.63389276  0.27702983  1
  Pr  Pr3  1  0.14357761  0.36610724  0.72297017  1
  Pr  Pr4  1  0.36258106  0.72828640  0.47718010  1
  Pr  Pr5  1  0.63741894  0.27171360  0.52281990  1
  Pr  Pr6  1  0.73299133  0.47093951  0.92200565  1
  Pr  Pr7  1  0.26700867  0.52906049  0.07799435  1
  Pr  Pr8  1  0.00000000  0.00000000  -0.00000000  1
  Pr  Pr9  1  0.44728031  0.87288790  0.82645223  1
  Pr  Pr10  1  0.55271969  0.12711210  0.17354777  1
  O  O11  1  0.82137722  0.45967714  0.70278399  1
  O  O12  1  0.17862278  0.54032286  0.29721601  1
  O  O13  1  0.57376931  0.95925492  0.62862730  1
  O  O14  1  0.42623069  0.04074508  0.37137270  1
  O  O15  1  0.77545089  0.79789121  0.84222936  1
  O  O16  1  0.22454911  0.20210879  0.15777064  1
  O  O17  1  0.67492101  0.62854970  0.46142385  1
  O  O18  1  0.32507899  0.37145030  0.53857615  1
  O  O19  1  0.84129054  0.96464367  0.20194776  1
  O  O20  1  0.15870946  0.03535633  0.79805224  1
  O  O21  1  0.94467234  0.14961445  0.56419831  1
  O  O22  1  0.05532766  0.85038555  0.43580169  1
  O  O23  1  0.66196028  0.12538215  0.96153763  1
  O  O24  1  0.33803972  0.87461785  0.03846237  1
  O  O25  1  0.96644099  0.66709092  0.06840374  1
  O  O26  1  0.03355901  0.33290908  0.93159626  1
  O  O27  1  0.40612616  0.53155641  0.87279004  1
  O  O28  1  0.59387384  0.46844359  0.12720996  1
  O  O29  1  0.20206384  0.70664873  0.66712465  1
  O  O30  1  0.79793616  0.29335127  0.33287535  1
