# generated using pymatgen
data_SnSb2H24C8(SCl)2
_symmetry_space_group_name_H-M   'P 1'
_cell_length_a   9.48426628
_cell_length_b   10.29394711
_cell_length_c   10.56562636
_cell_angle_alpha   90.00000000
_cell_angle_beta   98.97077814
_cell_angle_gamma   90.00000000
_symmetry_Int_Tables_number   1
_chemical_formula_structural   SnSb2H24C8(SCl)2
_chemical_formula_sum   'Sn2 Sb4 H48 C16 S4 Cl4'
_cell_volume   1018.91010726
_cell_formula_units_Z   2
loop_
 _symmetry_equiv_pos_site_id
 _symmetry_equiv_pos_as_xyz
  1  'x, y, z'
loop_
 _atom_site_type_symbol
 _atom_site_label
 _atom_site_symmetry_multiplicity
 _atom_site_fract_x
 _atom_site_fract_y
 _atom_site_fract_z
 _atom_site_occupancy
  Sn  Sn0  1  0.00000000  0.00000000  0.00000000  1
  Sn  Sn1  1  0.50000000  0.50000000  0.50000000  1
  Sb  Sb2  1  0.20143481  0.65200491  0.94546328  1
  Sb  Sb3  1  0.29856519  0.15200491  0.55453672  1
  Sb  Sb4  1  0.70143481  0.84799509  0.44546328  1
  Sb  Sb5  1  0.79856519  0.34799509  0.05453672  1
  H  H6  1  0.02388919  0.70204833  0.72628293  1
  H  H7  1  0.05923632  0.19736910  0.65543019  1
  H  H8  1  0.04196935  0.26502854  0.49564485  1
  H  H9  1  0.02771602  0.44828052  0.20524771  1
  H  H10  1  0.12268679  0.55353041  0.70963888  1
  H  H11  1  0.14568869  0.34914748  0.62870119  1
  H  H12  1  0.17868583  0.91548372  0.54402280  1
  H  H13  1  0.16027520  0.98202714  0.38383525  1
  H  H14  1  0.21546067  0.53904569  0.48168982  1
  H  H15  1  0.32131417  0.41548372  0.95597720  1
  H  H16  1  0.17147827  0.41309739  0.04082326  1
  H  H17  1  0.20085123  0.18496797  0.06459776  1
  H  H18  1  0.23359119  0.05183975  0.17579167  1
  H  H19  1  0.26640881  0.55183975  0.32420833  1
  H  H20  1  0.35431131  0.84914748  0.87129881  1
  H  H21  1  0.29914877  0.68496897  0.43540224  1
  H  H22  1  0.32852173  0.91309739  0.45917674  1
  H  H23  1  0.37731321  0.05353041  0.79036112  1
  H  H24  1  0.28453933  0.03904569  0.01831018  1
  H  H25  1  0.45803065  0.76502854  0.00435515  1
  H  H26  1  0.44076368  0.69736910  0.84456981  1
  H  H27  1  0.33972480  0.48202714  0.11616475  1
  H  H28  1  0.47611081  0.20204833  0.77371707  1
  H  H29  1  0.52771602  0.05171948  0.70524771  1
  H  H30  1  0.47228398  0.94828052  0.29475229  1
  H  H31  1  0.52388919  0.79795167  0.22628293  1
  H  H32  1  0.66027520  0.51797286  0.88383525  1
  H  H33  1  0.55923632  0.30263090  0.15543019  1
  H  H34  1  0.54196935  0.23497146  0.99564485  1
  H  H35  1  0.71546067  0.96095431  0.98168982  1
  H  H36  1  0.62268679  0.94646959  0.20963888  1
  H  H37  1  0.67147827  0.08690261  0.54082326  1
  H  H38  1  0.70085123  0.31503203  0.56459776  1
  H  H39  1  0.64568869  0.15085252  0.12870119  1
  H  H40  1  0.73359119  0.44816025  0.67579167  1
  H  H41  1  0.76640881  0.94816025  0.82420833  1
  H  H42  1  0.79914877  0.81503103  0.93540224  1
  H  H43  1  0.82852173  0.58690261  0.95917674  1
  H  H44  1  0.67868583  0.58451628  0.04402280  1
  H  H45  1  0.78453933  0.46095431  0.51831018  1
  H  H46  1  0.83972480  0.01797286  0.61616475  1
  H  H47  1  0.82131417  0.08451628  0.45597720  1
  H  H48  1  0.85431131  0.65085252  0.37129881  1
  H  H49  1  0.87731321  0.44646959  0.29036112  1
  H  H50  1  0.97228398  0.55171948  0.79475229  1
  H  H51  1  0.95803065  0.73497146  0.50435515  1
  H  H52  1  0.94076368  0.80263090  0.34456981  1
  H  H53  1  0.97611081  0.29795167  0.27371707  1
  C  C54  1  0.06111007  0.60951014  0.77045902  1
  C  C55  1  0.11117394  0.25440246  0.58821154  1
  C  C56  1  0.23279280  0.96661188  0.47424572  1
  C  C57  1  0.20744687  0.07923923  0.07469300  1
  C  C58  1  0.29255313  0.57923923  0.42530700  1
  C  C59  1  0.38882606  0.75440246  0.91178846  1
  C  C60  1  0.26720720  0.46661188  0.02575428  1
  C  C61  1  0.43888993  0.10951014  0.72954098  1
  C  C62  1  0.56111007  0.89048986  0.27045902  1
  C  C63  1  0.73279280  0.53338812  0.97424572  1
  C  C64  1  0.61117394  0.24559754  0.08821154  1
  C  C65  1  0.70744687  0.42076077  0.57469300  1
  C  C66  1  0.79255313  0.92076077  0.92530700  1
  C  C67  1  0.76720720  0.03338812  0.52575428  1
  C  C68  1  0.88882606  0.74559754  0.41178846  1
  C  C69  1  0.93888993  0.39048986  0.22954098  1
  S  S70  1  0.08735130  0.75601138  0.09775259  1
  S  S71  1  0.41264870  0.25601138  0.40224741  1
  S  S72  1  0.58735130  0.74398862  0.59775259  1
  S  S73  1  0.91264870  0.24398862  0.90224741  1
  Cl  Cl74  1  0.08720544  0.95451909  0.77866849  1
  Cl  Cl75  1  0.41279456  0.45451909  0.72133151  1
  Cl  Cl76  1  0.58720544  0.54548091  0.27866849  1
  Cl  Cl77  1  0.91279456  0.04548091  0.22133151  1
