# generated using pymatgen
data_Na4Ca4Ti4Si4O22F3
_symmetry_space_group_name_H-M   'P 1'
_cell_length_a   7.24305682
_cell_length_b   7.24305682
_cell_length_c   20.56257613
_cell_angle_alpha   84.91607493
_cell_angle_beta   84.91607493
_cell_angle_gamma   90.00018942
_symmetry_Int_Tables_number   1
_chemical_formula_structural   Na4Ca4Ti4Si4O22F3
_chemical_formula_sum   'Na8 Ca8 Ti8 Si8 O44 F6'
_cell_volume   1070.24669535
_cell_formula_units_Z   2
loop_
 _symmetry_equiv_pos_site_id
 _symmetry_equiv_pos_as_xyz
  1  'x, y, z'
loop_
 _atom_site_type_symbol
 _atom_site_label
 _atom_site_symmetry_multiplicity
 _atom_site_fract_x
 _atom_site_fract_y
 _atom_site_fract_z
 _atom_site_occupancy
  Na  Na0  1  0.55409195  0.67449408  0.80378696  1
  Na  Na1  1  0.44590805  0.32550592  0.19621304  1
  Na  Na2  1  0.32550592  0.44590805  0.69621304  1
  Na  Na3  1  0.67449408  0.55409195  0.30378696  1
  Na  Na4  1  0.32539327  0.95543934  0.69602494  1
  Na  Na5  1  0.67460673  0.04456066  0.30397506  1
  Na  Na6  1  0.04456066  0.67460673  0.80397506  1
  Na  Na7  1  0.95543934  0.32539327  0.19602494  1
  Ca  Ca8  1  0.76646507  0.89695500  0.93307249  1
  Ca  Ca9  1  0.23353493  0.10304500  0.06692751  1
  Ca  Ca10  1  0.10304500  0.23353493  0.56692751  1
  Ca  Ca11  1  0.89695500  0.76646507  0.43307249  1
  Ca  Ca12  1  0.76726458  0.38693819  0.93045493  1
  Ca  Ca13  1  0.23273542  0.61306181  0.06954507  1
  Ca  Ca14  1  0.61306181  0.23273542  0.56954507  1
  Ca  Ca15  1  0.38693819  0.76726458  0.43045493  1
  Ti  Ti16  1  0.54833435  0.16978800  0.81490926  1
  Ti  Ti17  1  0.45166565  0.83021200  0.18509074  1
  Ti  Ti18  1  0.83021200  0.45166565  0.68509074  1
  Ti  Ti19  1  0.16978800  0.54833435  0.31490926  1
  Ti  Ti20  1  0.83017929  0.95557843  0.68491533  1
  Ti  Ti21  1  0.16982071  0.04442157  0.31508467  1
  Ti  Ti22  1  0.04442157  0.16982071  0.81508467  1
  Ti  Ti23  1  0.95557843  0.83017929  0.18491533  1
  Si  Si24  1  0.57664381  0.72888991  0.58426609  1
  Si  Si25  1  0.42335619  0.27111009  0.41573391  1
  Si  Si26  1  0.27111009  0.42335619  0.91573391  1
  Si  Si27  1  0.72888991  0.57664381  0.08426609  1
  Si  Si28  1  0.27127132  0.86862254  0.91605040  1
  Si  Si29  1  0.72872868  0.13137746  0.08394960  1
  Si  Si30  1  0.13137746  0.72872868  0.58394960  1
  Si  Si31  1  0.86862254  0.27127132  0.41605040  1
  O  O32  1  0.47099194  0.95632707  0.88271797  1
  O  O33  1  0.52900806  0.04367293  0.11728203  1
  O  O34  1  0.04367293  0.52900806  0.61728203  1
  O  O35  1  0.95632707  0.47099194  0.38271797  1
  O  O36  1  0.25201658  0.87564107  0.99473623  1
  O  O37  1  0.74798342  0.12435893  0.00526377  1
  O  O38  1  0.12435893  0.74798342  0.50526377  1
  O  O39  1  0.87564107  0.25201658  0.49473623  1
  O  O40  1  0.47091213  0.35245414  0.88241382  1
  O  O41  1  0.52908787  0.64754586  0.11758618  1
  O  O42  1  0.64754586  0.52908787  0.61758618  1
  O  O43  1  0.35245414  0.47091213  0.38241382  1
  O  O44  1  0.99797706  0.00202294  0.75000000  1
  O  O45  1  0.00202294  0.99797706  0.25000000  1
  O  O46  1  0.78704699  0.16111012  0.85232542  1
  O  O47  1  0.21295301  0.83888988  0.14767458  1
  O  O48  1  0.83888988  0.21295301  0.64767458  1
  O  O49  1  0.16111012  0.78704699  0.35232542  1
  O  O50  1  0.37629666  0.25164377  0.49471638  1
  O  O51  1  0.62370334  0.74835623  0.50528362  1
  O  O52  1  0.74835623  0.62370334  0.00528362  1
  O  O53  1  0.25164377  0.37629666  0.99471638  1
  O  O54  1  0.62812644  0.37187356  0.75000000  1
  O  O55  1  0.37187356  0.62812644  0.25000000  1
  O  O56  1  0.34911407  0.72454169  0.60310027  1
  O  O57  1  0.65088593  0.27545831  0.39689973  1
  O  O58  1  0.27545831  0.65088593  0.89689973  1
  O  O59  1  0.72454169  0.34911407  0.10310027  1
  O  O60  1  0.62804247  0.00201174  0.74989339  1
  O  O61  1  0.37195753  0.99798826  0.25010661  1
  O  O62  1  0.99798826  0.37195753  0.75010661  1
  O  O63  1  0.00201174  0.62804247  0.24989339  1
  O  O64  1  0.30384024  0.17750269  0.78590141  1
  O  O65  1  0.69615976  0.82249731  0.21409859  1
  O  O66  1  0.82249731  0.69615976  0.71409859  1
  O  O67  1  0.17750269  0.30384024  0.28590141  1
  O  O68  1  0.64777576  0.91194656  0.61744569  1
  O  O69  1  0.35222424  0.08805344  0.38255431  1
  O  O70  1  0.08805344  0.35222424  0.88255431  1
  O  O71  1  0.91194656  0.64777576  0.11744569  1
  O  O72  1  0.08771709  0.95659186  0.88296090  1
  O  O73  1  0.91228291  0.04340814  0.11703910  1
  O  O74  1  0.04340814  0.91228291  0.61703910  1
  O  O75  1  0.95659186  0.08771709  0.38296090  1
  F  F76  1  0.31276068  0.68723932  0.75000000  1
  F  F77  1  0.68723932  0.31276068  0.25000000  1
  F  F78  1  0.34065213  0.21742666  0.63068974  1
  F  F79  1  0.65934787  0.78257334  0.36931026  1
  F  F80  1  0.78257334  0.65934787  0.86931026  1
  F  F81  1  0.21742666  0.34065213  0.13068974  1
