# generated using pymatgen
data_RbH(CO2)2
_symmetry_space_group_name_H-M   'P 1'
_cell_length_a   4.32249442
_cell_length_b   7.72093006
_cell_length_c   13.84507306
_cell_angle_alpha   90.00000000
_cell_angle_beta   90.00000000
_cell_angle_gamma   101.39201651
_symmetry_Int_Tables_number   1
_chemical_formula_structural   RbH(CO2)2
_chemical_formula_sum   'Rb4 H4 C8 O16'
_cell_volume   452.95779855
_cell_formula_units_Z   4
loop_
 _symmetry_equiv_pos_site_id
 _symmetry_equiv_pos_as_xyz
  1  'x, y, z'
loop_
 _atom_site_type_symbol
 _atom_site_label
 _atom_site_symmetry_multiplicity
 _atom_site_fract_x
 _atom_site_fract_y
 _atom_site_fract_z
 _atom_site_occupancy
  Rb  Rb0  1  0.78805343  0.73905567  0.56563605  1
  Rb  Rb1  1  0.21194657  0.26094433  0.43436395  1
  Rb  Rb2  1  0.21194657  0.76094433  0.06563605  1
  Rb  Rb3  1  0.78805343  0.23905567  0.93436395  1
  H  H4  1  0.13586601  0.98809322  0.77105834  1
  H  H5  1  0.86413399  0.01190678  0.22894166  1
  H  H6  1  0.86413399  0.51190678  0.27105834  1
  H  H7  1  0.13586601  0.48809322  0.72894166  1
  C  C8  1  0.69876965  0.78982204  0.84081613  1
  C  C9  1  0.30123035  0.21017796  0.15918387  1
  C  C10  1  0.30123035  0.71017796  0.34081613  1
  C  C11  1  0.69876965  0.28982204  0.65918387  1
  C  C12  1  0.42182220  0.62857641  0.82385011  1
  C  C13  1  0.57817780  0.37142359  0.17614989  1
  C  C14  1  0.57817780  0.87142359  0.32385011  1
  C  C15  1  0.42182220  0.12857641  0.67614989  1
  O  O16  1  0.86384539  0.84621850  0.76672795  1
  O  O17  1  0.13615461  0.15378150  0.23327205  1
  O  O18  1  0.13615461  0.65378150  0.26672795  1
  O  O19  1  0.86384539  0.34621850  0.73327205  1
  O  O20  1  0.73613501  0.84835612  0.92534424  1
  O  O21  1  0.26386499  0.15164388  0.07465576  1
  O  O22  1  0.26386499  0.65164388  0.42534424  1
  O  O23  1  0.73613501  0.34835612  0.57465576  1
  O  O24  1  0.33906353  0.59437148  0.73296222  1
  O  O25  1  0.66093647  0.40562852  0.26703778  1
  O  O26  1  0.66093647  0.90562852  0.23296222  1
  O  O27  1  0.33906353  0.09437148  0.76703778  1
  O  O28  1  0.70331044  0.95574647  0.39415552  1
  O  O29  1  0.29668956  0.04425353  0.60584448  1
  O  O30  1  0.29668956  0.54425353  0.89415552  1
  O  O31  1  0.70331044  0.45574647  0.10584448  1
