# generated using pymatgen
data_PuVO3
_symmetry_space_group_name_H-M   'P 1'
_cell_length_a   5.44020600
_cell_length_b   5.76125135
_cell_length_c   7.76938898
_cell_angle_alpha   90.00000000
_cell_angle_beta   90.00000000
_cell_angle_gamma   90.00000000
_symmetry_Int_Tables_number   1
_chemical_formula_structural   PuVO3
_chemical_formula_sum   'Pu4 V4 O12'
_cell_volume   243.51125181
_cell_formula_units_Z   4
loop_
 _symmetry_equiv_pos_site_id
 _symmetry_equiv_pos_as_xyz
  1  'x, y, z'
loop_
 _atom_site_type_symbol
 _atom_site_label
 _atom_site_symmetry_multiplicity
 _atom_site_fract_x
 _atom_site_fract_y
 _atom_site_fract_z
 _atom_site_occupancy
  Pu  Pu0  1  0.01845622  0.43258701  0.25000000  1
  Pu  Pu1  1  0.98154378  0.56741299  0.75000000  1
  Pu  Pu2  1  0.51845622  0.06741299  0.75000000  1
  Pu  Pu3  1  0.48154378  0.93258701  0.25000000  1
  V  V4  1  -0.00000000  -0.00000000  0.00000000  1
  V  V5  1  0.50000000  0.50000000  0.00000000  1
  V  V6  1  -0.00000000  -0.00000000  0.50000000  1
  V  V7  1  0.50000000  0.50000000  0.50000000  1
  O  O8  1  0.30895476  0.19510849  0.05694235  1
  O  O9  1  0.69104524  0.80489151  0.94305765  1
  O  O10  1  0.80895476  0.30489151  0.94305765  1
  O  O11  1  0.69104524  0.80489151  0.55694235  1
  O  O12  1  0.19104524  0.69510849  0.05694235  1
  O  O13  1  0.30895476  0.19510849  0.44305765  1
  O  O14  1  0.19104524  0.69510849  0.44305765  1
  O  O15  1  0.80895476  0.30489151  0.55694235  1
  O  O16  1  0.61493066  0.54172870  0.25000000  1
  O  O17  1  0.38506934  0.45827130  0.75000000  1
  O  O18  1  0.11493066  0.95827130  0.75000000  1
  O  O19  1  0.88506934  0.04172870  0.25000000  1
