# generated using pymatgen
data_Nd(Ga2Fe)4
_symmetry_space_group_name_H-M   'P 1'
_cell_length_a   5.08426878
_cell_length_b   6.71183778
_cell_length_c   6.71183778
_cell_angle_alpha   81.75220835
_cell_angle_beta   67.74348550
_cell_angle_gamma   67.74348550
_symmetry_Int_Tables_number   1
_chemical_formula_structural   Nd(Ga2Fe)4
_chemical_formula_sum   'Nd1 Ga8 Fe4'
_cell_volume   196.18321779
_cell_formula_units_Z   1
loop_
 _symmetry_equiv_pos_site_id
 _symmetry_equiv_pos_as_xyz
  1  'x, y, z'
loop_
 _atom_site_type_symbol
 _atom_site_label
 _atom_site_symmetry_multiplicity
 _atom_site_fract_x
 _atom_site_fract_y
 _atom_site_fract_z
 _atom_site_occupancy
  Nd  Nd0  1  -0.00000000  0.00000000  0.00000000  1
  Ga  Ga1  1  0.34055454  0.65944546  0.65944546  1
  Ga  Ga2  1  0.65944546  0.34055454  0.34055454  1
  Ga  Ga3  1  0.00000000  0.34055454  0.65944546  1
  Ga  Ga4  1  -0.00000000  0.65944546  0.34055454  1
  Ga  Ga5  1  0.27620592  0.22379408  0.22379408  1
  Ga  Ga6  1  0.72379408  0.77620592  0.77620592  1
  Ga  Ga7  1  0.50000000  0.77620592  0.22379408  1
  Ga  Ga8  1  0.50000000  0.22379408  0.77620592  1
  Fe  Fe9  1  0.50000000  0.00000000  0.50000000  1
  Fe  Fe10  1  -0.00000000  0.00000000  0.50000000  1
  Fe  Fe11  1  -0.00000000  0.50000000  0.00000000  1
  Fe  Fe12  1  0.50000000  0.50000000  0.00000000  1
