# generated using pymatgen
data_P3Pb5O12
_symmetry_space_group_name_H-M   'P 1'
_cell_length_a   7.41161273
_cell_length_b   9.95804606
_cell_length_c   9.95804606
_cell_angle_alpha   119.99999461
_cell_angle_beta   90.00000000
_cell_angle_gamma   90.00000000
_symmetry_Int_Tables_number   1
_chemical_formula_structural   P3Pb5O12
_chemical_formula_sum   'P6 Pb10 O24'
_cell_volume   636.49007395
_cell_formula_units_Z   2
loop_
 _symmetry_equiv_pos_site_id
 _symmetry_equiv_pos_as_xyz
  1  'x, y, z'
loop_
 _atom_site_type_symbol
 _atom_site_label
 _atom_site_symmetry_multiplicity
 _atom_site_fract_x
 _atom_site_fract_y
 _atom_site_fract_z
 _atom_site_occupancy
  P  P0  1  0.75000000  0.60042117  0.62573100  1
  P  P1  1  0.25000000  0.39957883  0.37426900  1
  P  P2  1  0.75000000  0.02530983  0.39957883  1
  P  P3  1  0.25000000  0.97469017  0.60042117  1
  P  P4  1  0.75000000  0.37426900  0.97469017  1
  P  P5  1  0.25000000  0.62573100  0.02530983  1
  Pb  Pb6  1  0.75000000  0.75910387  -0.00223111  1
  Pb  Pb7  1  0.25000000  0.24089613  0.00223111  1
  Pb  Pb8  1  0.75000000  0.23866502  0.24089613  1
  Pb  Pb9  1  0.25000000  0.76133498  0.75910387  1
  Pb  Pb10  1  0.75000000  0.00223111  0.76133498  1
  Pb  Pb11  1  0.25000000  -0.00223111  0.23866502  1
  Pb  Pb12  1  0.99919126  0.66666700  0.33333300  1
  Pb  Pb13  1  0.00080874  0.33333300  0.66666700  1
  Pb  Pb14  1  0.49919126  0.33333300  0.66666700  1
  Pb  Pb15  1  0.50080874  0.66666700  0.33333300  1
  O  O16  1  0.91939778  0.65145565  0.73341579  1
  O  O17  1  0.08060222  0.34854435  0.26658421  1
  O  O18  1  0.91939778  0.08196014  0.34854435  1
  O  O19  1  0.41939778  0.34854435  0.26658421  1
  O  O20  1  0.08060222  0.91803986  0.65145565  1
  O  O21  1  0.58060222  0.65145565  0.73341579  1
  O  O22  1  0.91939778  0.26658421  0.91803986  1
  O  O23  1  0.41939778  0.91803986  0.65145565  1
  O  O24  1  0.08060222  0.73341579  0.08196014  1
  O  O25  1  0.58060222  0.08196014  0.34854435  1
  O  O26  1  0.41939778  0.73341579  0.08196014  1
  O  O27  1  0.58060222  0.26658421  0.91803986  1
  O  O28  1  0.75000000  0.84614526  0.32657420  1
  O  O29  1  0.25000000  0.15385474  0.67342580  1
  O  O30  1  0.75000000  0.48042894  0.15385474  1
  O  O31  1  0.25000000  0.51957106  0.84614526  1
  O  O32  1  0.75000000  0.67342580  0.51957106  1
  O  O33  1  0.25000000  0.32657420  0.48042894  1
  O  O34  1  0.75000000  0.41914637  0.52719186  1
  O  O35  1  0.25000000  0.58085363  0.47280814  1
  O  O36  1  0.75000000  0.10804549  0.58085363  1
  O  O37  1  0.25000000  0.89195451  0.41914637  1
  O  O38  1  0.75000000  0.47280814  0.89195451  1
  O  O39  1  0.25000000  0.52719186  0.10804549  1
