# generated using pymatgen
data_KLiLu2(MoO4)4
_symmetry_space_group_name_H-M   'P 1'
_cell_length_a   5.20962799
_cell_length_b   6.82711083
_cell_length_c   19.50346475
_cell_angle_alpha   88.79504735
_cell_angle_beta   86.84049101
_cell_angle_gamma   67.57090694
_symmetry_Int_Tables_number   1
_chemical_formula_structural   KLiLu2(MoO4)4
_chemical_formula_sum   'K2 Li2 Lu4 Mo8 O32'
_cell_volume   640.22462092
_cell_formula_units_Z   2
loop_
 _symmetry_equiv_pos_site_id
 _symmetry_equiv_pos_as_xyz
  1  'x, y, z'
loop_
 _atom_site_type_symbol
 _atom_site_label
 _atom_site_symmetry_multiplicity
 _atom_site_fract_x
 _atom_site_fract_y
 _atom_site_fract_z
 _atom_site_occupancy
  K  K0  1  0.46911010  0.06177980  0.75000000  1
  K  K1  1  0.53088990  0.93822020  0.25000000  1
  Li  Li2  1  0.18632607  0.62734786  0.75000000  1
  Li  Li3  1  0.81367393  0.37265214  0.25000000  1
  Lu  Lu4  1  0.35187546  0.29552895  0.96754836  1
  Lu  Lu5  1  0.64812454  0.70447105  0.03245164  1
  Lu  Lu6  1  0.35259560  0.29552895  0.53245164  1
  Lu  Lu7  1  0.64740440  0.70447105  0.46754836  1
  Mo  Mo8  1  0.08202310  0.87570264  0.90910800  1
  Mo  Mo9  1  0.91797690  0.12429736  0.09089200  1
  Mo  Mo10  1  0.04227426  0.87570264  0.59089200  1
  Mo  Mo11  1  0.95772574  0.12429736  0.40910800  1
  Mo  Mo12  1  0.76860646  0.48377453  0.85316061  1
  Mo  Mo13  1  0.23139354  0.51622547  0.14683939  1
  Mo  Mo14  1  0.74761901  0.48377453  0.64683939  1
  Mo  Mo15  1  0.25238099  0.51622547  0.35316061  1
  O  O16  1  0.34020326  0.65750556  0.95899841  1
  O  O17  1  0.65979674  0.34249444  0.04100159  1
  O  O18  1  0.00229118  0.65750556  0.54100159  1
  O  O19  1  0.99770882  0.34249444  0.45899841  1
  O  O20  1  0.50816366  0.72288021  0.82718523  1
  O  O21  1  0.49183634  0.27711979  0.17281477  1
  O  O22  1  0.76895613  0.72288021  0.67281477  1
  O  O23  1  0.23104387  0.27711979  0.32718523  1
  O  O24  1  0.28280610  0.96104441  0.53616818  1
  O  O25  1  0.71719390  0.03895559  0.46383182  1
  O  O26  1  0.75614950  0.96104441  0.96383182  1
  O  O27  1  0.24385050  0.03895559  0.03616818  1
  O  O28  1  0.55691899  0.51974323  0.56529181  1
  O  O29  1  0.44308101  0.48025677  0.43470819  1
  O  O30  1  0.92333778  0.51974323  0.93470819  1
  O  O31  1  0.07666222  0.48025677  0.06529181  1
  O  O32  1  0.20128473  0.81831256  0.67054002  1
  O  O33  1  0.79871527  0.18168744  0.32945998  1
  O  O34  1  0.98040270  0.81831256  0.82945998  1
  O  O35  1  0.01959730  0.18168744  0.17054002  1
  O  O36  1  0.28374056  0.90428300  0.39935488  1
  O  O37  1  0.71625944  0.09571700  0.60064512  1
  O  O38  1  0.81197644  0.90428300  0.10064512  1
  O  O39  1  0.18802356  0.09571700  0.89935488  1
  O  O40  1  0.59420674  0.30045070  0.86995414  1
  O  O41  1  0.40579326  0.69954930  0.13004586  1
  O  O42  1  0.10534255  0.30045070  0.63004586  1
  O  O43  1  0.89465745  0.69954930  0.36995414  1
  O  O44  1  0.56616953  0.40485937  0.71400991  1
  O  O45  1  0.43383047  0.59514063  0.28599009  1
  O  O46  1  0.02897110  0.40485937  0.78599009  1
  O  O47  1  0.97102890  0.59514063  0.21400991  1
