# generated using pymatgen
data_Mn4Al9
_symmetry_space_group_name_H-M   'P 1'
_cell_length_a   12.35831585
_cell_length_b   14.64334213
_cell_length_c   12.45517961
_cell_angle_alpha   90.00000000
_cell_angle_beta   90.00000000
_cell_angle_gamma   90.00000000
_symmetry_Int_Tables_number   1
_chemical_formula_structural   Mn4Al9
_chemical_formula_sum   'Mn48 Al108'
_cell_volume   2253.97707565
_cell_formula_units_Z   12
loop_
 _symmetry_equiv_pos_site_id
 _symmetry_equiv_pos_as_xyz
  1  'x, y, z'
loop_
 _atom_site_type_symbol
 _atom_site_label
 _atom_site_symmetry_multiplicity
 _atom_site_fract_x
 _atom_site_fract_y
 _atom_site_fract_z
 _atom_site_occupancy
  Mn  Mn0  1  0.93693718  0.87406454  0.84038639  1
  Mn  Mn1  1  0.06306282  0.12593546  0.15961361  1
  Mn  Mn2  1  0.06306282  0.62593546  0.34038639  1
  Mn  Mn3  1  0.43693718  0.12593546  0.15961361  1
  Mn  Mn4  1  0.93693718  0.37406454  0.65961361  1
  Mn  Mn5  1  0.56306282  0.87406454  0.84038639  1
  Mn  Mn6  1  0.56306282  0.37406454  0.65961361  1
  Mn  Mn7  1  0.43693718  0.62593546  0.34038639  1
  Mn  Mn8  1  0.75000000  0.66663244  0.65429212  1
  Mn  Mn9  1  0.25000000  0.33336756  0.34570788  1
  Mn  Mn10  1  0.25000000  0.83336756  0.15429212  1
  Mn  Mn11  1  0.75000000  0.16663244  0.84570788  1
  Mn  Mn12  1  0.75000000  0.45711402  0.35284273  1
  Mn  Mn13  1  0.25000000  0.54288598  0.64715727  1
  Mn  Mn14  1  0.25000000  0.04288598  0.85284273  1
  Mn  Mn15  1  0.75000000  0.95711402  0.14715727  1
  Mn  Mn16  1  0.75000000  0.77729839  0.47907757  1
  Mn  Mn17  1  0.25000000  0.22270161  0.52092243  1
  Mn  Mn18  1  0.25000000  0.72270161  0.97907757  1
  Mn  Mn19  1  0.75000000  0.27729839  0.02092243  1
  Mn  Mn20  1  0.75000000  0.94591048  0.75411751  1
  Mn  Mn21  1  0.25000000  0.05408952  0.24588249  1
  Mn  Mn22  1  0.25000000  0.55408952  0.25411751  1
  Mn  Mn23  1  0.75000000  0.44591048  0.74588249  1
  Mn  Mn24  1  0.75000000  0.94538132  0.54357759  1
  Mn  Mn25  1  0.25000000  0.05461868  0.45642241  1
  Mn  Mn26  1  0.25000000  0.55461868  0.04357759  1
  Mn  Mn27  1  0.75000000  0.44538132  0.95642241  1
  Mn  Mn28  1  0.75000000  0.76636163  0.82707395  1
  Mn  Mn29  1  0.25000000  0.23363837  0.17292605  1
  Mn  Mn30  1  0.25000000  0.73363837  0.32707395  1
  Mn  Mn31  1  0.75000000  0.26636163  0.67292605  1
  Mn  Mn32  1  0.44205460  0.82308311  0.65048015  1
  Mn  Mn33  1  0.55794540  0.17691689  0.34951985  1
  Mn  Mn34  1  0.55794540  0.67691689  0.15048015  1
  Mn  Mn35  1  0.94205460  0.17691689  0.34951985  1
  Mn  Mn36  1  0.44205460  0.32308311  0.84951985  1
  Mn  Mn37  1  0.05794540  0.82308311  0.65048015  1
  Mn  Mn38  1  0.05794540  0.32308311  0.84951985  1
  Mn  Mn39  1  0.94205460  0.67691689  0.15048015  1
  Mn  Mn40  1  0.93889760  0.68334724  0.54030562  1
  Mn  Mn41  1  0.06110240  0.31665276  0.45969438  1
  Mn  Mn42  1  0.06110240  0.81665276  0.04030562  1
  Mn  Mn43  1  0.43889760  0.31665276  0.45969438  1
  Mn  Mn44  1  0.93889760  0.18334724  0.95969438  1
  Mn  Mn45  1  0.56110240  0.68334724  0.54030562  1
  Mn  Mn46  1  0.56110240  0.18334724  0.95969438  1
  Mn  Mn47  1  0.43889760  0.81665276  0.04030562  1
  Al  Al48  1  0.85118404  0.81781717  0.65420649  1
  Al  Al49  1  0.14881596  0.18218283  0.34579351  1
  Al  Al50  1  0.14881596  0.68218283  0.15420649  1
  Al  Al51  1  0.35118404  0.18218283  0.34579351  1
  Al  Al52  1  0.85118404  0.31781717  0.84579351  1
  Al  Al53  1  0.64881596  0.81781717  0.65420649  1
  Al  Al54  1  0.64881596  0.31781717  0.84579351  1
  Al  Al55  1  0.35118404  0.68218283  0.15420649  1
  Al  Al56  1  0.75000000  0.90426660  0.33721065  1
  Al  Al57  1  0.25000000  0.09573340  0.66278935  1
  Al  Al58  1  0.25000000  0.59573340  0.83721065  1
  Al  Al59  1  0.75000000  0.40426660  0.16278935  1
  Al  Al60  1  0.93308170  0.97860808  0.65433234  1
  Al  Al61  1  0.06691830  0.02139192  0.34566766  1
  Al  Al62  1  0.06691830  0.52139192  0.15433234  1
  Al  Al63  1  0.43308170  0.02139192  0.34566766  1
  Al  Al64  1  0.93308170  0.47860808  0.84566766  1
  Al  Al65  1  0.56691830  0.97860808  0.65433234  1
  Al  Al66  1  0.56691830  0.47860808  0.84566766  1
  Al  Al67  1  0.43308170  0.52139192  0.15433234  1
  Al  Al68  1  0.93208596  0.69425503  0.76595005  1
  Al  Al69  1  0.06791404  0.30574497  0.23404995  1
  Al  Al70  1  0.06791404  0.80574497  0.26595005  1
  Al  Al71  1  0.43208596  0.30574497  0.23404995  1
  Al  Al72  1  0.93208596  0.19425503  0.73404995  1
  Al  Al73  1  0.56791404  0.69425503  0.76595005  1
  Al  Al74  1  0.56791404  0.19425503  0.73404995  1
  Al  Al75  1  0.43208596  0.80574497  0.26595005  1
  Al  Al76  1  0.37787202  0.66434594  0.66284271  1
  Al  Al77  1  0.62212798  0.33565406  0.33715729  1
  Al  Al78  1  0.62212798  0.83565406  0.16284271  1
  Al  Al79  1  0.87787202  0.33565406  0.33715729  1
  Al  Al80  1  0.37787202  0.16434594  0.83715729  1
  Al  Al81  1  0.12212798  0.66434594  0.66284271  1
  Al  Al82  1  0.12212798  0.16434594  0.83715729  1
  Al  Al83  1  0.87787202  0.83565406  0.16284271  1
  Al  Al84  1  0.37172881  0.94818436  0.54111279  1
  Al  Al85  1  0.62827119  0.05181564  0.45888721  1
  Al  Al86  1  0.62827119  0.55181564  0.04111279  1
  Al  Al87  1  0.87172881  0.05181564  0.45888721  1
  Al  Al88  1  0.37172881  0.44818436  0.95888721  1
  Al  Al89  1  0.12827119  0.94818436  0.54111279  1
  Al  Al90  1  0.12827119  0.44818436  0.95888721  1
  Al  Al91  1  0.87172881  0.55181564  0.04111279  1
  Al  Al92  1  0.37767342  0.94922493  0.76325482  1
  Al  Al93  1  0.62232658  0.05077507  0.23674518  1
  Al  Al94  1  0.62232658  0.55077507  0.26325482  1
  Al  Al95  1  0.87767342  0.05077507  0.23674518  1
  Al  Al96  1  0.37767342  0.44922493  0.73674518  1
  Al  Al97  1  0.12232658  0.94922493  0.76325482  1
  Al  Al98  1  0.12232658  0.44922493  0.73674518  1
  Al  Al99  1  0.87767342  0.55077507  0.26325482  1
  Al  Al100  1  0.93459366  0.86646470  0.46998711  1
  Al  Al101  1  0.06540634  0.13353530  0.53001289  1
  Al  Al102  1  0.06540634  0.63353530  0.96998711  1
  Al  Al103  1  0.43459366  0.13353530  0.53001289  1
  Al  Al104  1  0.93459366  0.36646470  0.03001289  1
  Al  Al105  1  0.56540634  0.86646470  0.46998711  1
  Al  Al106  1  0.56540634  0.36646470  0.03001289  1
  Al  Al107  1  0.43459366  0.63353530  0.96998711  1
  Al  Al108  1  0.75000000  0.89742463  0.95279885  1
  Al  Al109  1  0.25000000  0.10257537  0.04720115  1
  Al  Al110  1  0.25000000  0.60257537  0.45279885  1
  Al  Al111  1  0.75000000  0.39742463  0.54720115  1
  Al  Al112  1  0.91902924  0.47850112  0.44951605  1
  Al  Al113  1  0.08097076  0.52149888  0.55048395  1
  Al  Al114  1  0.08097076  0.02149888  0.94951605  1
  Al  Al115  1  0.41902924  0.52149888  0.55048395  1
  Al  Al116  1  0.91902924  0.97850112  0.05048395  1
  Al  Al117  1  0.58097076  0.47850112  0.44951605  1
  Al  Al118  1  0.58097076  0.97850112  0.05048395  1
  Al  Al119  1  0.41902924  0.02149888  0.94951605  1
  Al  Al120  1  0.38185875  0.77745704  0.84294433  1
  Al  Al121  1  0.61814125  0.22254296  0.15705567  1
  Al  Al122  1  0.61814125  0.72254296  0.34294433  1
  Al  Al123  1  0.88185875  0.22254296  0.15705567  1
  Al  Al124  1  0.38185875  0.27745704  0.65705567  1
  Al  Al125  1  0.11814125  0.77745704  0.84294433  1
  Al  Al126  1  0.11814125  0.27745704  0.65705567  1
  Al  Al127  1  0.88185875  0.72254296  0.34294433  1
  Al  Al128  1  0.75000000  0.68198369  0.15529742  1
  Al  Al129  1  0.25000000  0.31801631  0.84470258  1
  Al  Al130  1  0.25000000  0.81801631  0.65529742  1
  Al  Al131  1  0.75000000  0.18198369  0.34470258  1
  Al  Al132  1  0.87972419  0.74079944  0.97270231  1
  Al  Al133  1  0.12027581  0.25920056  0.02729769  1
  Al  Al134  1  0.12027581  0.75920056  0.47270231  1
  Al  Al135  1  0.37972419  0.25920056  0.02729769  1
  Al  Al136  1  0.87972419  0.24079944  0.52729769  1
  Al  Al137  1  0.62027581  0.74079944  0.97270231  1
  Al  Al138  1  0.62027581  0.24079944  0.52729769  1
  Al  Al139  1  0.37972419  0.75920056  0.47270231  1
  Al  Al140  1  0.75000000  0.59782046  0.85012472  1
  Al  Al141  1  0.25000000  0.40217954  0.14987528  1
  Al  Al142  1  0.25000000  0.90217954  0.35012472  1
  Al  Al143  1  0.75000000  0.09782046  0.64987528  1
  Al  Al144  1  0.75000000  0.60380437  0.46363587  1
  Al  Al145  1  0.25000000  0.39619563  0.53636413  1
  Al  Al146  1  0.25000000  0.89619563  0.96363587  1
  Al  Al147  1  0.75000000  0.10380437  0.03636413  1
  Al  Al148  1  0.88268771  0.54132881  0.64757613  1
  Al  Al149  1  0.11731229  0.45867119  0.35242387  1
  Al  Al150  1  0.11731229  0.95867119  0.14757613  1
  Al  Al151  1  0.38268771  0.45867119  0.35242387  1
  Al  Al152  1  0.88268771  0.04132881  0.85242387  1
  Al  Al153  1  0.61731229  0.54132881  0.64757613  1
  Al  Al154  1  0.61731229  0.04132881  0.85242387  1
  Al  Al155  1  0.38268771  0.95867119  0.14757613  1
