# generated using pymatgen
data_Na2Ca5TiSi4(O8F)2
_symmetry_space_group_name_H-M   'P 1'
_cell_length_a   5.77571729
_cell_length_b   7.45322643
_cell_length_c   9.80296488
_cell_angle_alpha   78.81468275
_cell_angle_beta   78.21955549
_cell_angle_gamma   90.08339934
_symmetry_Int_Tables_number   1
_chemical_formula_structural   Na2Ca5TiSi4(O8F)2
_chemical_formula_sum   'Na2 Ca5 Ti1 Si4 O16 F2'
_cell_volume   404.88935313
_cell_formula_units_Z   1
loop_
 _symmetry_equiv_pos_site_id
 _symmetry_equiv_pos_as_xyz
  1  'x, y, z'
loop_
 _atom_site_type_symbol
 _atom_site_label
 _atom_site_symmetry_multiplicity
 _atom_site_fract_x
 _atom_site_fract_y
 _atom_site_fract_z
 _atom_site_occupancy
  Na  Na0  1  0.43971217  0.41135987  0.38063415  1
  Na  Na1  1  0.93767977  0.16966932  0.38424527  1
  Ca  Ca2  1  0.15406085  0.57726912  0.74792331  1
  Ca  Ca3  1  0.43656044  0.90879385  0.39067997  1
  Ca  Ca4  1  0.72405795  0.75838940  0.01752758  1
  Ca  Ca5  1  0.71882000  0.26000343  0.02203863  1
  Ca  Ca6  1  0.15254457  0.07637405  0.74713052  1
  Ti  Ti7  1  0.95523294  0.65757476  0.39861943  1
  Si  Si8  1  0.68117311  0.31590511  0.67074055  1
  Si  Si9  1  0.18423548  0.45194093  0.10837810  1
  Si  Si10  1  0.18510361  0.02048908  0.09915096  1
  Si  Si11  1  0.68894445  0.88453082  0.66370909  1
  O  O12  1  0.00788800  0.52266629  0.00132930  1
  O  O13  1  0.87112709  0.81335159  0.76714436  1
  O  O14  1  0.41093980  0.82836996  0.72432291  1
  O  O15  1  0.46379619  0.99977159  0.03338362  1
  O  O16  1  0.15263673  0.22424214  0.14451807  1
  O  O17  1  0.11192626  0.88171808  0.25726452  1
  O  O18  1  0.46380708  0.50812760  0.04921812  1
  O  O19  1  0.76379721  0.83589729  0.50377528  1
  O  O20  1  0.40512243  0.32929928  0.74447685  1
  O  O21  1  0.00285347  0.00662529  0.99543812  1
  O  O22  1  0.70108432  0.72098753  0.26859771  1
  O  O23  1  0.18917779  0.64760205  0.49521881  1
  O  O24  1  0.10205333  0.49871282  0.26877657  1
  O  O25  1  0.86842706  0.33265320  0.77183085  1
  O  O26  1  0.74755585  0.45454839  0.51277711  1
  O  O27  1  0.72185859  0.11234465  0.62604415  1
  F  F28  1  0.63367201  0.17781875  0.26707134  1
  F  F29  1  0.24335145  0.12576376  0.50193476  1
