# generated using pymatgen
data_KCaCl3
_symmetry_space_group_name_H-M   'P 1'
_cell_length_a   7.62848554
_cell_length_b   7.62848554
_cell_length_c   7.62848554
_cell_angle_alpha   89.95978452
_cell_angle_beta   120.02322113
_cell_angle_gamma   120.02322113
_symmetry_Int_Tables_number   1
_chemical_formula_structural   KCaCl3
_chemical_formula_sum   'K2 Ca2 Cl6'
_cell_volume   313.79600442
_cell_formula_units_Z   2
loop_
 _symmetry_equiv_pos_site_id
 _symmetry_equiv_pos_as_xyz
  1  'x, y, z'
loop_
 _atom_site_type_symbol
 _atom_site_label
 _atom_site_symmetry_multiplicity
 _atom_site_fract_x
 _atom_site_fract_y
 _atom_site_fract_z
 _atom_site_occupancy
  K  K0  1  0.00000000  0.75000000  0.75000000  1
  K  K1  1  0.00000000  0.25000000  0.25000000  1
  Ca  Ca2  1  0.50000000  -0.00000000  0.50000000  1
  Ca  Ca3  1  0.50000000  0.50000000  0.00000000  1
  Cl  Cl4  1  0.00011544  0.75005772  0.25005772  1
  Cl  Cl5  1  -0.00011544  0.24994228  0.74994228  1
  Cl  Cl6  1  0.50000000  0.74994228  0.75005772  1
  Cl  Cl7  1  0.50000000  0.25005772  0.24994228  1
  Cl  Cl8  1  0.50000000  0.75000000  0.25000000  1
  Cl  Cl9  1  0.50000000  0.25000000  0.75000000  1
