# generated using pymatgen
data_H17RuN6ClO3
_symmetry_space_group_name_H-M   'P 1'
_cell_length_a   7.41655230
_cell_length_b   7.62874696
_cell_length_c   10.91010253
_cell_angle_alpha   110.46398153
_cell_angle_beta   90.00000000
_cell_angle_gamma   90.00000000
_symmetry_Int_Tables_number   1
_chemical_formula_structural   H17RuN6ClO3
_chemical_formula_sum   'H34 Ru2 N12 Cl2 O6'
_cell_volume   578.32732119
_cell_formula_units_Z   2
loop_
 _symmetry_equiv_pos_site_id
 _symmetry_equiv_pos_as_xyz
  1  'x, y, z'
loop_
 _atom_site_type_symbol
 _atom_site_label
 _atom_site_symmetry_multiplicity
 _atom_site_fract_x
 _atom_site_fract_y
 _atom_site_fract_z
 _atom_site_occupancy
  H  H0  1  0.16508872  0.44615395  0.26141810  1
  H  H1  1  0.66508872  0.55384605  0.73858190  1
  H  H2  1  0.66508872  0.18473584  0.73858190  1
  H  H3  1  0.16508872  0.81526416  0.26141810  1
  H  H4  1  0.28085500  0.27080505  0.15752135  1
  H  H5  1  0.78085500  0.72919495  0.84247865  1
  H  H6  1  0.78085500  0.11328370  0.84247865  1
  H  H7  1  0.28085500  0.88671630  0.15752135  1
  H  H8  1  0.21009809  0.66499386  0.67754867  1
  H  H9  1  0.71009809  0.33500614  0.32245133  1
  H  H10  1  0.71009809  0.98744518  0.32245133  1
  H  H11  1  0.21009809  0.01255482  0.67754867  1
  H  H12  1  0.35041348  0.55311157  0.74356291  1
  H  H13  1  0.85041348  0.44688843  0.25643709  1
  H  H14  1  0.85041348  0.80954866  0.25643709  1
  H  H15  1  0.35041348  0.19045134  0.74356291  1
  H  H16  1  0.30549710  0.31976063  0.31663121  1
  H  H17  1  0.80549710  0.68023937  0.68336879  1
  H  H18  1  0.80549710  0.00312942  0.68336879  1
  H  H19  1  0.30549710  0.99687058  0.31663121  1
  H  H20  1  0.45055303  0.64426975  0.50637129  1
  H  H21  1  0.95055303  0.35573025  0.49362871  1
  H  H22  1  0.95055303  0.13789846  0.49362871  1
  H  H23  1  0.45055303  0.86210154  0.50637129  1
  H  H24  1  0.14281732  0.24319247  0.48638495  1
  H  H25  1  0.64281732  0.75680753  0.51361505  1
  H  H26  1  0.22346576  0.72758297  0.83799651  1
  H  H27  1  0.72346576  0.27241703  0.16200349  1
  H  H28  1  0.72346576  0.88958646  0.16200349  1
  H  H29  1  0.22346576  0.11041354  0.83799651  1
  H  H30  1  0.00904255  0.41782420  0.04585853  1
  H  H31  1  0.50904255  0.58217580  0.95414147  1
  H  H32  1  0.50904255  0.37196567  0.95414147  1
  H  H33  1  0.00904255  0.62803433  0.04585853  1
  Ru  Ru34  1  0.00443641  0.12037352  0.24074705  1
  Ru  Ru35  1  0.50443641  0.87962648  0.75925295  1
  N  N36  1  0.29838343  0.68163045  0.75331747  1
  N  N37  1  0.79838343  0.31836955  0.24668253  1
  N  N38  1  0.79838343  0.92831298  0.24668253  1
  N  N39  1  0.29838343  0.07168702  0.75331747  1
  N  N40  1  0.21290244  0.31379883  0.24482006  1
  N  N41  1  0.71290244  0.68620117  0.75517994  1
  N  N42  1  0.71290244  0.06897877  0.75517994  1
  N  N43  1  0.21290244  0.93102123  0.24482006  1
  N  N44  1  0.01107048  0.22745372  0.45490743  1
  N  N45  1  0.51107048  0.77254628  0.54509257  1
  N  N46  1  0.00538543  0.02614995  0.05229991  1
  N  N47  1  0.50538543  0.97385005  0.94770009  1
  Cl  Cl48  1  0.48382186  0.24577274  0.49154548  1
  Cl  Cl49  1  0.98382186  0.75422726  0.50845452  1
  O  O50  1  0.50718421  0.15168354  0.01563700  1
  O  O51  1  0.00718421  0.84831646  0.98436300  1
  O  O52  1  0.00718421  0.13604654  0.98436300  1
  O  O53  1  0.50718421  0.86395346  0.01563700  1
  O  O54  1  0.01270087  0.55085851  0.10171702  1
  O  O55  1  0.51270087  0.44914149  0.89828298  1
