# generated using pymatgen
data_Cr3Sn2Sb3O16
_symmetry_space_group_name_H-M   'P 1'
_cell_length_a   6.12977395
_cell_length_b   6.15508561
_cell_length_c   9.47758798
_cell_angle_alpha   90.00054620
_cell_angle_beta   90.05062351
_cell_angle_gamma   120.13685603
_symmetry_Int_Tables_number   1
_chemical_formula_structural   Cr3Sn2Sb3O16
_chemical_formula_sum   'Cr3 Sn2 Sb3 O16'
_cell_volume   309.24751335
_cell_formula_units_Z   1
loop_
 _symmetry_equiv_pos_site_id
 _symmetry_equiv_pos_as_xyz
  1  'x, y, z'
loop_
 _atom_site_type_symbol
 _atom_site_label
 _atom_site_symmetry_multiplicity
 _atom_site_fract_x
 _atom_site_fract_y
 _atom_site_fract_z
 _atom_site_occupancy
  Cr  Cr0  1  0.16998293  0.83209064  0.21037858  1
  Cr  Cr1  1  0.17000251  0.33790151  0.21037594  1
  Cr  Cr2  1  0.34183840  0.17093393  0.71141560  1
  Sn  Sn3  1  0.31273735  0.65638519  0.47944508  1
  Sn  Sn4  1  0.65073830  0.32537570  0.00615733  1
  Sb  Sb5  1  0.66784172  0.83393869  0.21229198  1
  Sb  Sb6  1  0.83562663  0.17009642  0.71400431  1
  Sb  Sb7  1  0.83562149  0.66554408  0.71400475  1
  O  O8  1  0.15961461  0.83202320  0.60637060  1
  O  O9  1  0.03711552  0.51855706  0.32964335  1
  O  O10  1  0.34287944  0.67144608  0.10554805  1
  O  O11  1  0.99782025  0.99892248  0.30918923  1
  O  O12  1  0.00224942  0.00113322  0.81467147  1
  O  O13  1  0.15962053  0.32761795  0.60637190  1
  O  O14  1  0.48338804  0.96197141  0.33851891  1
  O  O15  1  0.48339546  0.52145027  0.33851582  1
  O  O16  1  0.31931202  0.15965256  0.10215184  1
  O  O17  1  0.66983853  0.83492577  0.60508384  1
  O  O18  1  0.52681436  0.48068321  0.83267318  1
  O  O19  1  0.52681660  0.04614762  0.83267079  1
  O  O20  1  0.67335937  0.33668531  0.60054770  1
  O  O21  1  0.83366205  0.67320731  0.09866132  1
  O  O22  1  0.96605217  0.48303777  0.83837388  1
  O  O23  1  0.83367228  0.16047264  0.09865556  1
