# generated using pymatgen
data_K2CoH2(SO5)2
_symmetry_space_group_name_H-M   'P 1'
_cell_length_a   5.27281609
_cell_length_b   6.61286283
_cell_length_c   7.40968831
_cell_angle_alpha   107.57907210
_cell_angle_beta   96.30717907
_cell_angle_gamma   104.04707459
_symmetry_Int_Tables_number   1
_chemical_formula_structural   K2CoH2(SO5)2
_chemical_formula_sum   'K2 Co1 H2 S2 O10'
_cell_volume   234.20022977
_cell_formula_units_Z   1
loop_
 _symmetry_equiv_pos_site_id
 _symmetry_equiv_pos_as_xyz
  1  'x, y, z'
loop_
 _atom_site_type_symbol
 _atom_site_label
 _atom_site_symmetry_multiplicity
 _atom_site_fract_x
 _atom_site_fract_y
 _atom_site_fract_z
 _atom_site_occupancy
  K  K0  1  0.29741405  0.67748620  0.27348794  1
  K  K1  1  0.70258595  0.32251380  0.72651206  1
  Co  Co2  1  0.00000000  0.00000000  -0.00000000  1
  H  H3  1  0.89774959  0.03888893  0.29841868  1
  H  H4  1  0.10225041  0.96111107  0.70158132  1
  S  S5  1  0.64705933  0.28869895  0.21714639  1
  S  S6  1  0.35294067  0.71130105  0.78285361  1
  O  O7  1  0.02627609  0.96976947  0.23124716  1
  O  O8  1  0.97372391  0.03023053  0.76875284  1
  O  O9  1  0.85498599  0.25381188  0.08659388  1
  O  O10  1  0.14501401  0.74618812  0.91340612  1
  O  O11  1  0.26037872  0.47769826  0.65893444  1
  O  O12  1  0.73962128  0.52230174  0.34106556  1
  O  O13  1  0.38896632  0.24443124  0.08550518  1
  O  O14  1  0.61103368  0.75556876  0.91449482  1
  O  O15  1  0.63230572  0.13526645  0.32841986  1
  O  O16  1  0.36769428  0.86473355  0.67158014  1
