# generated using pymatgen
data_K2TbNb5O15
_symmetry_space_group_name_H-M   'P 1'
_cell_length_a   3.95556736
_cell_length_b   12.75753408
_cell_length_c   12.75753408
_cell_angle_alpha   90.00000000
_cell_angle_beta   90.00000000
_cell_angle_gamma   90.00000000
_symmetry_Int_Tables_number   1
_chemical_formula_structural   K2TbNb5O15
_chemical_formula_sum   'K4 Tb2 Nb10 O30'
_cell_volume   643.78708329
_cell_formula_units_Z   2
loop_
 _symmetry_equiv_pos_site_id
 _symmetry_equiv_pos_as_xyz
  1  'x, y, z'
loop_
 _atom_site_type_symbol
 _atom_site_label
 _atom_site_symmetry_multiplicity
 _atom_site_fract_x
 _atom_site_fract_y
 _atom_site_fract_z
 _atom_site_occupancy
  K  K0  1  0.50000000  0.17001898  0.67001898  1
  K  K1  1  0.50000000  0.82998102  0.32998102  1
  K  K2  1  0.50000000  0.32998102  0.17001898  1
  K  K3  1  0.50000000  0.67001898  0.82998102  1
  Tb  Tb4  1  0.50000000  -0.00000000  0.00000000  1
  Tb  Tb5  1  0.50000000  0.50000000  0.50000000  1
  Nb  Nb6  1  -0.00000000  -0.00000000  0.50000000  1
  Nb  Nb7  1  -0.00000000  0.50000000  0.00000000  1
  Nb  Nb8  1  0.00000000  0.07647090  0.21207511  1
  Nb  Nb9  1  -0.00000000  0.92352910  0.78792489  1
  Nb  Nb10  1  -0.00000000  0.78792489  0.07647090  1
  Nb  Nb11  1  -0.00000000  0.42352910  0.71207511  1
  Nb  Nb12  1  0.00000000  0.21207511  0.92352910  1
  Nb  Nb13  1  0.00000000  0.57647090  0.28792489  1
  Nb  Nb14  1  0.00000000  0.71207511  0.57647090  1
  Nb  Nb15  1  -0.00000000  0.28792489  0.42352910  1
  O  O16  1  0.50000000  0.07848188  0.18578599  1
  O  O17  1  0.50000000  0.92151812  0.81421401  1
  O  O18  1  0.50000000  0.81421401  0.07848188  1
  O  O19  1  0.50000000  0.42151812  0.68578599  1
  O  O20  1  0.50000000  0.18578599  0.92151812  1
  O  O21  1  0.50000000  0.57848188  0.31421401  1
  O  O22  1  0.50000000  0.68578599  0.57848188  1
  O  O23  1  0.50000000  0.31421401  0.42151812  1
  O  O24  1  0.00000000  0.71718721  0.21718721  1
  O  O25  1  -0.00000000  0.28281279  0.78281279  1
  O  O26  1  -0.00000000  0.78281279  0.71718721  1
  O  O27  1  0.00000000  0.21718721  0.28281279  1
  O  O28  1  0.50000000  -0.00000000  0.50000000  1
  O  O29  1  0.50000000  0.50000000  0.00000000  1
  O  O30  1  -0.00000000  0.13084754  0.05794156  1
  O  O31  1  0.00000000  0.86915246  0.94205844  1
  O  O32  1  0.00000000  0.94205844  0.13084754  1
  O  O33  1  0.00000000  0.36915246  0.55794156  1
  O  O34  1  -0.00000000  0.05794156  0.86915246  1
  O  O35  1  -0.00000000  0.63084754  0.44205844  1
  O  O36  1  -0.00000000  0.55794156  0.63084754  1
  O  O37  1  0.00000000  0.44205844  0.36915246  1
  O  O38  1  -0.00000000  0.99958493  0.34211214  1
  O  O39  1  0.00000000  0.00041507  0.65788786  1
  O  O40  1  -0.00000000  0.65788786  0.99958493  1
  O  O41  1  0.00000000  0.50041507  0.84211214  1
  O  O42  1  0.00000000  0.34211214  0.00041507  1
  O  O43  1  -0.00000000  0.49958493  0.15788786  1
  O  O44  1  0.00000000  0.84211214  0.49958493  1
  O  O45  1  -0.00000000  0.15788786  0.50041507  1
