# generated using pymatgen
data_DyCrO5
_symmetry_space_group_name_H-M   'P 1'
_cell_length_a   8.25035662
_cell_length_b   8.31540465
_cell_length_c   11.57089927
_cell_angle_alpha   90.00000000
_cell_angle_beta   90.00000000
_cell_angle_gamma   90.46052448
_symmetry_Int_Tables_number   1
_chemical_formula_structural   DyCrO5
_chemical_formula_sum   'Dy8 Cr8 O40'
_cell_volume   793.79652452
_cell_formula_units_Z   8
loop_
 _symmetry_equiv_pos_site_id
 _symmetry_equiv_pos_as_xyz
  1  'x, y, z'
loop_
 _atom_site_type_symbol
 _atom_site_label
 _atom_site_symmetry_multiplicity
 _atom_site_fract_x
 _atom_site_fract_y
 _atom_site_fract_z
 _atom_site_occupancy
  Dy  Dy0  1  0.86554675  0.66690484  0.56169000  1
  Dy  Dy1  1  0.13445325  0.33309516  0.43831000  1
  Dy  Dy2  1  0.63445325  0.83309516  0.06169000  1
  Dy  Dy3  1  0.36554675  0.16690484  0.93831000  1
  Dy  Dy4  1  0.06845644  0.82191887  0.07814432  1
  Dy  Dy5  1  0.93154356  0.17808113  0.92185568  1
  Dy  Dy6  1  0.43154356  0.67808113  0.57814432  1
  Dy  Dy7  1  0.56845644  0.32191887  0.42185568  1
  Cr  Cr8  1  0.13922881  0.00174978  0.67173401  1
  Cr  Cr9  1  0.86077119  0.99825022  0.32826599  1
  Cr  Cr10  1  0.36077119  0.49825022  0.17173401  1
  Cr  Cr11  1  0.63922881  0.50174978  0.82826599  1
  Cr  Cr12  1  0.36120880  0.95473858  0.31064698  1
  Cr  Cr13  1  0.63879120  0.04526142  0.68935302  1
  Cr  Cr14  1  0.13879120  0.54526142  0.81064698  1
  Cr  Cr15  1  0.86120880  0.45473858  0.18935302  1
  O  O16  1  0.31001586  0.91753232  0.63026519  1
  O  O17  1  0.68998414  0.08246768  0.36973481  1
  O  O18  1  0.18998414  0.58246768  0.13026519  1
  O  O19  1  0.81001586  0.41753232  0.86973481  1
  O  O20  1  0.16174958  0.59588970  0.51600488  1
  O  O21  1  0.83825042  0.40411030  0.48399512  1
  O  O22  1  0.33825042  0.90411030  0.01600488  1
  O  O23  1  0.66174958  0.09588970  0.98399512  1
  O  O24  1  0.65707778  0.56744697  0.68971836  1
  O  O25  1  0.34292222  0.43255303  0.31028164  1
  O  O26  1  0.84292222  0.93255303  0.18971836  1
  O  O27  1  0.15707778  0.06744697  0.81028164  1
  O  O28  1  0.42584202  0.81509962  0.40166884  1
  O  O29  1  0.57415798  0.18490038  0.59833116  1
  O  O30  1  0.07415798  0.68490038  0.90166884  1
  O  O31  1  0.92584202  0.31509962  0.09833116  1
  O  O32  1  0.90325826  0.84479558  0.41494729  1
  O  O33  1  0.09674174  0.15520442  0.58505271  1
  O  O34  1  0.59674174  0.65520442  0.91494729  1
  O  O35  1  0.40325826  0.34479558  0.08505271  1
  O  O36  1  0.99768100  0.86187570  0.66504392  1
  O  O37  1  0.00231900  0.13812430  0.33495608  1
  O  O38  1  0.50231900  0.63812430  0.16504392  1
  O  O39  1  0.49768100  0.36187570  0.83495608  1
  O  O40  1  0.18621181  0.89291659  0.25827420  1
  O  O41  1  0.81378819  0.10708341  0.74172580  1
  O  O42  1  0.31378819  0.60708341  0.75827420  1
  O  O43  1  0.68621181  0.39291659  0.24172580  1
  O  O44  1  0.48384858  0.97751300  0.19508468  1
  O  O45  1  0.51615142  0.02248700  0.80491532  1
  O  O46  1  0.01615142  0.52248700  0.69508468  1
  O  O47  1  0.98384858  0.47751300  0.30491532  1
  O  O48  1  0.64449814  0.57975607  0.45966321  1
  O  O49  1  0.35550186  0.42024393  0.54033679  1
  O  O50  1  0.85550186  0.92024393  0.95966321  1
  O  O51  1  0.14449814  0.07975607  0.04033679  1
  O  O52  1  0.84203474  0.63258797  0.11906776  1
  O  O53  1  0.15796526  0.36741203  0.88093224  1
  O  O54  1  0.65796526  0.86741203  0.61906776  1
  O  O55  1  0.34203474  0.13258797  0.38093224  1
