# generated using pymatgen
data_ZrVCuS4
_symmetry_space_group_name_H-M   'P 1'
_cell_length_a   7.19493544
_cell_length_b   7.22405908
_cell_length_c   7.24942343
_cell_angle_alpha   90.00000000
_cell_angle_beta   59.74916600
_cell_angle_gamma   120.13399061
_symmetry_Int_Tables_number   1
_chemical_formula_structural   ZrVCuS4
_chemical_formula_sum   'Zr2 V2 Cu2 S8'
_cell_volume   264.88071291
_cell_formula_units_Z   2
loop_
 _symmetry_equiv_pos_site_id
 _symmetry_equiv_pos_as_xyz
  1  'x, y, z'
loop_
 _atom_site_type_symbol
 _atom_site_label
 _atom_site_symmetry_multiplicity
 _atom_site_fract_x
 _atom_site_fract_y
 _atom_site_fract_z
 _atom_site_occupancy
  Zr  Zr0  1  -0.00000000  -0.00000000  0.50000000  1
  Zr  Zr1  1  -0.00000000  -0.00000000  0.00000000  1
  V  V2  1  0.50000000  0.50000000  0.00000000  1
  V  V3  1  0.50000000  -0.00000000  0.00000000  1
  Cu  Cu4  1  0.74020030  0.37010015  0.37989985  1
  Cu  Cu5  1  0.25979970  0.62989985  0.62010015  1
  S  S6  1  0.01660606  0.75707635  0.24169697  1
  S  S7  1  0.01660606  0.25952971  0.24169697  1
  S  S8  1  0.50668970  0.25334485  0.76660724  1
  S  S9  1  0.50668970  0.25334485  0.22670306  1
  S  S10  1  0.98339394  0.24292365  0.75830303  1
  S  S11  1  0.98339394  0.74047029  0.75830303  1
  S  S12  1  0.49331030  0.74665515  0.23339276  1
  S  S13  1  0.49331030  0.74665515  0.77329694  1
