# generated using pymatgen
data_AlSNCl3
_symmetry_space_group_name_H-M   'P 1'
_cell_length_a   7.39832235
_cell_length_b   9.27979502
_cell_length_c   10.02673448
_cell_angle_alpha   90.00000000
_cell_angle_beta   90.00000000
_cell_angle_gamma   110.98473535
_symmetry_Int_Tables_number   1
_chemical_formula_structural   AlSNCl3
_chemical_formula_sum   'Al4 S4 N4 Cl12'
_cell_volume   642.72809165
_cell_formula_units_Z   4
loop_
 _symmetry_equiv_pos_site_id
 _symmetry_equiv_pos_as_xyz
  1  'x, y, z'
loop_
 _atom_site_type_symbol
 _atom_site_label
 _atom_site_symmetry_multiplicity
 _atom_site_fract_x
 _atom_site_fract_y
 _atom_site_fract_z
 _atom_site_occupancy
  Al  Al0  1  0.10423002  0.83585500  0.13013886  1
  Al  Al1  1  0.89576998  0.16414500  0.86986114  1
  Al  Al2  1  0.39576998  0.66414500  0.63013886  1
  Al  Al3  1  0.60423002  0.33585500  0.36986114  1
  S  S4  1  0.52951482  0.88259291  0.03346934  1
  S  S5  1  0.47048518  0.11740709  0.96653066  1
  S  S6  1  0.97048518  0.61740709  0.53346934  1
  S  S7  1  0.02951482  0.38259291  0.46653066  1
  N  N8  1  0.35184826  0.95176126  0.04401277  1
  N  N9  1  0.64815174  0.04823874  0.95598723  1
  N  N10  1  0.14815174  0.54823874  0.54401277  1
  N  N11  1  0.85184826  0.45176126  0.45598723  1
  Cl  Cl12  1  0.38610610  0.29137754  0.52047526  1
  Cl  Cl13  1  0.61389390  0.70862246  0.47952474  1
  Cl  Cl14  1  0.11389390  0.20862246  0.02047526  1
  Cl  Cl15  1  0.88610610  0.79137754  0.97952474  1
  Cl  Cl16  1  0.06621827  0.94831175  0.30494771  1
  Cl  Cl17  1  0.93378173  0.05168825  0.69505229  1
  Cl  Cl18  1  0.43378173  0.55168825  0.80494771  1
  Cl  Cl19  1  0.56621827  0.44831175  0.19505229  1
  Cl  Cl20  1  0.18194238  0.63792504  0.17086066  1
  Cl  Cl21  1  0.81805762  0.36207496  0.82913934  1
  Cl  Cl22  1  0.31805762  0.86207496  0.67086066  1
  Cl  Cl23  1  0.68194238  0.13792504  0.32913934  1
