# generated using pymatgen
data_Eu3Ta5O15
_symmetry_space_group_name_H-M   'P 1'
_cell_length_a   3.97455336
_cell_length_b   12.58328039
_cell_length_c   12.58328039
_cell_angle_alpha   90.00000000
_cell_angle_beta   90.00000000
_cell_angle_gamma   90.00000000
_symmetry_Int_Tables_number   1
_chemical_formula_structural   Eu3Ta5O15
_chemical_formula_sum   'Eu6 Ta10 O30'
_cell_volume   629.32658735
_cell_formula_units_Z   2
loop_
 _symmetry_equiv_pos_site_id
 _symmetry_equiv_pos_as_xyz
  1  'x, y, z'
loop_
 _atom_site_type_symbol
 _atom_site_label
 _atom_site_symmetry_multiplicity
 _atom_site_fract_x
 _atom_site_fract_y
 _atom_site_fract_z
 _atom_site_occupancy
  Eu  Eu0  1  0.50000000  0.66250603  0.16250603  1
  Eu  Eu1  1  0.50000000  0.33749397  0.83749397  1
  Eu  Eu2  1  0.50000000  0.83749397  0.66250603  1
  Eu  Eu3  1  0.50000000  0.16250603  0.33749397  1
  Eu  Eu4  1  0.50000000  -0.00000000  -0.00000000  1
  Eu  Eu5  1  0.50000000  0.50000000  0.50000000  1
  Ta  Ta6  1  -0.00000000  0.20994550  0.07956317  1
  Ta  Ta7  1  0.00000000  0.79005450  0.92043683  1
  Ta  Ta8  1  0.00000000  0.92043683  0.20994550  1
  Ta  Ta9  1  -0.00000000  0.29005450  0.57956317  1
  Ta  Ta10  1  -0.00000000  0.07956317  0.79005450  1
  Ta  Ta11  1  0.00000000  0.70994550  0.42043683  1
  Ta  Ta12  1  0.00000000  0.57956317  0.70994550  1
  Ta  Ta13  1  -0.00000000  0.42043683  0.29005450  1
  Ta  Ta14  1  -0.00000000  -0.00000000  0.50000000  1
  Ta  Ta15  1  -0.00000000  0.50000000  -0.00000000  1
  O  O16  1  -0.00000000  0.22873044  0.72873044  1
  O  O17  1  0.00000000  0.77126956  0.27126956  1
  O  O18  1  -0.00000000  0.27126956  0.22873044  1
  O  O19  1  0.00000000  0.72873044  0.77126956  1
  O  O20  1  -0.00000000  0.00971070  0.34109961  1
  O  O21  1  0.00000000  0.99028930  0.65890039  1
  O  O22  1  0.00000000  0.65890039  0.00971070  1
  O  O23  1  -0.00000000  0.49028930  0.84109961  1
  O  O24  1  -0.00000000  0.34109961  0.99028930  1
  O  O25  1  0.00000000  0.50971070  0.15890039  1
  O  O26  1  0.00000000  0.84109961  0.50971070  1
  O  O27  1  -0.00000000  0.15890039  0.49028930  1
  O  O28  1  0.50000000  0.20573268  0.08006438  1
  O  O29  1  0.50000000  0.79426732  0.91993562  1
  O  O30  1  0.50000000  0.91993562  0.20573268  1
  O  O31  1  0.50000000  0.29426732  0.58006438  1
  O  O32  1  0.50000000  0.08006438  0.79426732  1
  O  O33  1  0.50000000  0.70573268  0.41993562  1
  O  O34  1  0.50000000  0.58006438  0.70573268  1
  O  O35  1  0.50000000  0.41993562  0.29426732  1
  O  O36  1  0.00000000  0.06283116  0.13538404  1
  O  O37  1  -0.00000000  0.93716884  0.86461596  1
  O  O38  1  0.00000000  0.86461596  0.06283116  1
  O  O39  1  0.00000000  0.43716884  0.63538404  1
  O  O40  1  -0.00000000  0.13538404  0.93716884  1
  O  O41  1  -0.00000000  0.56283116  0.36461596  1
  O  O42  1  0.00000000  0.63538404  0.56283116  1
  O  O43  1  -0.00000000  0.36461596  0.43716884  1
  O  O44  1  0.50000000  -0.00000000  0.50000000  1
  O  O45  1  0.50000000  0.50000000  -0.00000000  1
