# generated using pymatgen
data_EuUO3
_symmetry_space_group_name_H-M   'P 1'
_cell_length_a   5.94366650
_cell_length_b   6.17415481
_cell_length_c   8.54896700
_cell_angle_alpha   90.00000000
_cell_angle_beta   90.00000000
_cell_angle_gamma   90.00000000
_symmetry_Int_Tables_number   1
_chemical_formula_structural   EuUO3
_chemical_formula_sum   'Eu4 U4 O12'
_cell_volume   313.72244317
_cell_formula_units_Z   4
loop_
 _symmetry_equiv_pos_site_id
 _symmetry_equiv_pos_as_xyz
  1  'x, y, z'
loop_
 _atom_site_type_symbol
 _atom_site_label
 _atom_site_symmetry_multiplicity
 _atom_site_fract_x
 _atom_site_fract_y
 _atom_site_fract_z
 _atom_site_occupancy
  Eu  Eu0  1  0.01107027  0.45127970  0.25000000  1
  Eu  Eu1  1  0.98892973  0.54872030  0.75000000  1
  Eu  Eu2  1  0.51107027  0.04872030  0.75000000  1
  Eu  Eu3  1  0.48892973  0.95127970  0.25000000  1
  U  U4  1  0.00000000  0.00000000  0.00000000  1
  U  U5  1  0.50000000  0.50000000  0.00000000  1
  U  U6  1  0.00000000  -0.00000000  0.50000000  1
  U  U7  1  0.50000000  0.50000000  0.50000000  1
  O  O8  1  0.30395612  0.19419253  0.05981125  1
  O  O9  1  0.69604388  0.80580747  0.94018875  1
  O  O10  1  0.80395612  0.30580747  0.94018875  1
  O  O11  1  0.69604388  0.80580747  0.55981125  1
  O  O12  1  0.19604388  0.69419253  0.05981125  1
  O  O13  1  0.30395612  0.19419253  0.44018875  1
  O  O14  1  0.19604388  0.69419253  0.44018875  1
  O  O15  1  0.80395612  0.30580747  0.55981125  1
  O  O16  1  0.61287851  0.54744898  0.25000000  1
  O  O17  1  0.38712149  0.45255102  0.75000000  1
  O  O18  1  0.11287851  0.95255102  0.75000000  1
  O  O19  1  0.88712149  0.04744898  0.25000000  1
