# generated using pymatgen
data_Co7(MoO4)6
_symmetry_space_group_name_H-M   'P 1'
_cell_length_a   7.05927527
_cell_length_b   8.24961406
_cell_length_c   10.14925212
_cell_angle_alpha   103.42726798
_cell_angle_beta   105.39059331
_cell_angle_gamma   101.51039481
_symmetry_Int_Tables_number   1
_chemical_formula_structural   Co7(MoO4)6
_chemical_formula_sum   'Co7 Mo6 O24'
_cell_volume   532.35255361
_cell_formula_units_Z   1
loop_
 _symmetry_equiv_pos_site_id
 _symmetry_equiv_pos_as_xyz
  1  'x, y, z'
loop_
 _atom_site_type_symbol
 _atom_site_label
 _atom_site_symmetry_multiplicity
 _atom_site_fract_x
 _atom_site_fract_y
 _atom_site_fract_z
 _atom_site_occupancy
  Co  Co0  1  0.04581100  0.19871121  0.01069487  1
  Co  Co1  1  0.95418900  0.80128879  0.98930513  1
  Co  Co2  1  0.27669220  0.27795661  0.78352432  1
  Co  Co3  1  0.72330780  0.72204339  0.21647568  1
  Co  Co4  1  0.61252849  0.03901121  0.39228930  1
  Co  Co5  1  0.38747151  0.96098879  0.60771070  1
  Co  Co6  1  -0.00000000  0.50000000  0.50000000  1
  Mo  Mo7  1  0.09875686  0.09521181  0.33686733  1
  Mo  Mo8  1  0.90124314  0.90478819  0.66313267  1
  Mo  Mo9  1  0.22533920  0.64658083  0.27359494  1
  Mo  Mo10  1  0.77466080  0.35341917  0.72640506  1
  Mo  Mo11  1  0.59605920  0.27717889  0.12151770  1
  Mo  Mo12  1  0.40394080  0.72282111  0.87848230  1
  O  O13  1  0.01406714  0.71073854  0.17235378  1
  O  O14  1  0.98593286  0.28926146  0.82764622  1
  O  O15  1  0.06360560  0.04410949  0.14126903  1
  O  O16  1  0.93639440  0.95589051  0.85873097  1
  O  O17  1  0.10947061  0.31293485  0.43562542  1
  O  O18  1  0.89052939  0.68706515  0.56437458  1
  O  O19  1  0.14515397  0.04124579  0.65130210  1
  O  O20  1  0.85484603  0.95875421  0.34869790  1
  O  O21  1  0.18620847  0.42377020  0.19167142  1
  O  O22  1  0.81379153  0.57622980  0.80832858  1
  O  O23  1  0.22346443  0.68066801  0.45769104  1
  O  O24  1  0.77653557  0.31933199  0.54230896  1
  O  O25  1  0.33562254  0.03161183  0.42183756  1
  O  O26  1  0.66437746  0.96838817  0.57816244  1
  O  O27  1  0.35396888  0.26930310  0.98903857  1
  O  O28  1  0.64603112  0.73069690  0.01096143  1
  O  O29  1  0.53099950  0.24148820  0.73457876  1
  O  O30  1  0.46900050  0.75851180  0.26542124  1
  O  O31  1  0.55437185  0.12759821  0.21841000  1
  O  O32  1  0.44562815  0.87240179  0.78159000  1
  O  O33  1  0.71867637  0.49154612  0.24967478  1
  O  O34  1  0.28132363  0.50845388  0.75032522  1
  O  O35  1  0.76936918  0.22793668  0.03083712  1
  O  O36  1  0.23063082  0.77206332  0.96916288  1
