# generated using pymatgen
data_Cs2YbCl5
_symmetry_space_group_name_H-M   'P 1'
_cell_length_a   7.30530139
_cell_length_b   9.93933252
_cell_length_c   15.53897770
_cell_angle_alpha   90.00000000
_cell_angle_beta   90.00000000
_cell_angle_gamma   90.00000000
_symmetry_Int_Tables_number   1
_chemical_formula_structural   Cs2YbCl5
_chemical_formula_sum   'Cs8 Yb4 Cl20'
_cell_volume   1128.28236872
_cell_formula_units_Z   4
loop_
 _symmetry_equiv_pos_site_id
 _symmetry_equiv_pos_as_xyz
  1  'x, y, z'
loop_
 _atom_site_type_symbol
 _atom_site_label
 _atom_site_symmetry_multiplicity
 _atom_site_fract_x
 _atom_site_fract_y
 _atom_site_fract_z
 _atom_site_occupancy
  Cs  Cs0  1  0.75000000  0.83465905  0.58384537  1
  Cs  Cs1  1  0.25000000  0.16534095  0.41615463  1
  Cs  Cs2  1  0.25000000  0.66534095  0.08384537  1
  Cs  Cs3  1  0.75000000  0.33465905  0.91615463  1
  Cs  Cs4  1  0.75000000  0.52518875  0.28903605  1
  Cs  Cs5  1  0.25000000  0.47481125  0.71096395  1
  Cs  Cs6  1  0.25000000  0.97481125  0.78903605  1
  Cs  Cs7  1  0.75000000  0.02518875  0.21096395  1
  Yb  Yb8  1  0.75000000  0.82488247  0.93750071  1
  Yb  Yb9  1  0.25000000  0.17511753  0.06249929  1
  Yb  Yb10  1  0.25000000  0.67511753  0.43750071  1
  Yb  Yb11  1  0.75000000  0.32488247  0.56249929  1
  Cl  Cl12  1  0.75000000  0.99296308  0.80019424  1
  Cl  Cl13  1  0.25000000  0.00703692  0.19980576  1
  Cl  Cl14  1  0.25000000  0.50703692  0.30019424  1
  Cl  Cl15  1  0.75000000  0.49296308  0.69980576  1
  Cl  Cl16  1  0.48878851  0.66017440  0.87539320  1
  Cl  Cl17  1  0.51121149  0.33982560  0.12460680  1
  Cl  Cl18  1  0.51121149  0.83982560  0.37539320  1
  Cl  Cl19  1  -0.01121149  0.33982560  0.12460680  1
  Cl  Cl20  1  0.48878851  0.16017440  0.62460680  1
  Cl  Cl21  1  0.01121149  0.66017440  0.87539320  1
  Cl  Cl22  1  0.01121149  0.16017440  0.62460680  1
  Cl  Cl23  1  -0.01121149  0.83982560  0.37539320  1
  Cl  Cl24  1  0.75000000  0.71678799  0.09462965  1
  Cl  Cl25  1  0.25000000  0.28321201  0.90537035  1
  Cl  Cl26  1  0.25000000  0.78321201  0.59462965  1
  Cl  Cl27  1  0.75000000  0.21678799  0.40537035  1
  Cl  Cl28  1  0.00000000  0.00000000  0.00000000  1
  Cl  Cl29  1  0.00000000  0.50000000  0.50000000  1
  Cl  Cl30  1  0.50000000  0.00000000  0.00000000  1
  Cl  Cl31  1  0.50000000  0.50000000  0.50000000  1
