# generated using pymatgen
data_Fe7O3F13
_symmetry_space_group_name_H-M   'P 1'
_cell_length_a   6.16752738
_cell_length_b   6.31633573
_cell_length_c   10.63792952
_cell_angle_alpha   107.64283298
_cell_angle_beta   106.93372719
_cell_angle_gamma   59.53276412
_symmetry_Int_Tables_number   1
_chemical_formula_structural   Fe7O3F13
_chemical_formula_sum   'Fe7 O3 F13'
_cell_volume   335.58031952
_cell_formula_units_Z   1
loop_
 _symmetry_equiv_pos_site_id
 _symmetry_equiv_pos_as_xyz
  1  'x, y, z'
loop_
 _atom_site_type_symbol
 _atom_site_label
 _atom_site_symmetry_multiplicity
 _atom_site_fract_x
 _atom_site_fract_y
 _atom_site_fract_z
 _atom_site_occupancy
  Fe  Fe0  1  0.76363243  0.76584416  0.26347757  1
  Fe  Fe1  1  0.01372984  0.51078376  0.99459707  1
  Fe  Fe2  1  0.76857311  0.73940709  0.75133233  1
  Fe  Fe3  1  0.72773560  0.26578447  0.74793481  1
  Fe  Fe4  1  0.26188740  0.26339111  0.25927326  1
  Fe  Fe5  1  0.47456523  0.00248766  0.49476210  1
  Fe  Fe6  1  0.32019284  0.78984196  0.92778032  1
  O  O7  1  0.64343052  0.59184984  0.87063080  1
  O  O8  1  0.58761865  0.09226635  0.36523442  1
  O  O9  1  0.11424019  0.64929951  0.88507199  1
  F  F10  1  0.85698679  0.83926939  0.13130756  1
  F  F11  1  0.90046522  0.40846036  0.14820325  1
  F  F12  1  0.82801954  0.92045323  0.62283666  1
  F  F13  1  0.86535232  0.37628005  0.65473595  1
  F  F14  1  0.62601775  0.67255903  0.37309954  1
  F  F15  1  0.39005921  0.89121538  0.12672773  1
  F  F16  1  0.42210894  0.87084166  0.61557738  1
  F  F17  1  0.34239848  0.34476161  0.12483747  1
  F  F18  1  0.65346433  0.10890277  0.84917383  1
  F  F19  1  0.11120206  0.60521270  0.36182433  1
  F  F20  1  0.41043602  0.32857979  0.61886575  1
  F  F21  1  0.15034256  0.14043742  0.37090814  1
  F  F22  1  0.09809499  0.12471772  0.87593574  1
