# generated using pymatgen
data_Er2NiRuO6
_symmetry_space_group_name_H-M   'P 1'
_cell_length_a   5.27467340
_cell_length_b   5.69122926
_cell_length_c   7.65846341
_cell_angle_alpha   90.00000000
_cell_angle_beta   89.52000648
_cell_angle_gamma   90.00000000
_symmetry_Int_Tables_number   1
_chemical_formula_structural   Er2NiRuO6
_chemical_formula_sum   'Er4 Ni2 Ru2 O12'
_cell_volume   229.89422242
_cell_formula_units_Z   2
loop_
 _symmetry_equiv_pos_site_id
 _symmetry_equiv_pos_as_xyz
  1  'x, y, z'
loop_
 _atom_site_type_symbol
 _atom_site_label
 _atom_site_symmetry_multiplicity
 _atom_site_fract_x
 _atom_site_fract_y
 _atom_site_fract_z
 _atom_site_occupancy
  Er  Er0  1  0.02535353  0.42294506  0.25336830  1
  Er  Er1  1  0.97464647  0.57705494  0.74663170  1
  Er  Er2  1  0.47464647  0.92294506  0.24663170  1
  Er  Er3  1  0.52535353  0.07705494  0.75336830  1
  Ni  Ni4  1  -0.00000000  -0.00000000  0.50000000  1
  Ni  Ni5  1  0.50000000  0.50000000  0.00000000  1
  Ru  Ru6  1  -0.00000000  -0.00000000  0.00000000  1
  Ru  Ru7  1  0.50000000  0.50000000  0.50000000  1
  O  O8  1  0.87119307  0.04964603  0.24679988  1
  O  O9  1  0.12880693  0.95035397  0.75320012  1
  O  O10  1  0.62880693  0.54964603  0.25320012  1
  O  O11  1  0.37119307  0.45035397  0.74679988  1
  O  O12  1  0.18188436  0.69795599  0.06832777  1
  O  O13  1  0.81811564  0.30204401  0.93167223  1
  O  O14  1  0.31811564  0.19795599  0.43167223  1
  O  O15  1  0.68188436  0.80204401  0.56832777  1
  O  O16  1  0.31185552  0.18804511  0.05872757  1
  O  O17  1  0.68814448  0.81195489  0.94127243  1
  O  O18  1  0.18814448  0.68804511  0.44127243  1
  O  O19  1  0.81185552  0.31195489  0.55872757  1
