# generated using pymatgen
data_BaNd2Cu(MoO4)4
_symmetry_space_group_name_H-M   'P 1'
_cell_length_a   5.38931403
_cell_length_b   7.01593535
_cell_length_c   19.62201901
_cell_angle_alpha   89.29294908
_cell_angle_beta   88.15880911
_cell_angle_gamma   67.41356994
_symmetry_Int_Tables_number   1
_chemical_formula_structural   BaNd2Cu(MoO4)4
_chemical_formula_sum   'Ba2 Nd4 Cu2 Mo8 O32'
_cell_volume   684.67093086
_cell_formula_units_Z   2
loop_
 _symmetry_equiv_pos_site_id
 _symmetry_equiv_pos_as_xyz
  1  'x, y, z'
loop_
 _atom_site_type_symbol
 _atom_site_label
 _atom_site_symmetry_multiplicity
 _atom_site_fract_x
 _atom_site_fract_y
 _atom_site_fract_z
 _atom_site_occupancy
  Ba  Ba0  1  0.47532758  0.04934484  0.75000000  1
  Ba  Ba1  1  0.52467242  0.95065516  0.25000000  1
  Nd  Nd2  1  0.35316939  0.28722464  0.53263299  1
  Nd  Nd3  1  0.64683061  0.71277536  0.46736701  1
  Nd  Nd4  1  0.35960597  0.28722464  0.96736701  1
  Nd  Nd5  1  0.64039403  0.71277536  0.03263299  1
  Cu  Cu6  1  0.18758017  0.62483966  0.75000000  1
  Cu  Cu7  1  0.81241983  0.37516034  0.25000000  1
  Mo  Mo8  1  0.07211374  0.87746243  0.90478586  1
  Mo  Mo9  1  0.92788626  0.12253757  0.09521414  1
  Mo  Mo10  1  0.05042384  0.87746243  0.59521414  1
  Mo  Mo11  1  0.94957616  0.12253757  0.40478586  1
  Mo  Mo12  1  0.77172237  0.47087094  0.84915864  1
  Mo  Mo13  1  0.22827763  0.52912906  0.15084136  1
  Mo  Mo14  1  0.75740668  0.47087094  0.65084136  1
  Mo  Mo15  1  0.24259332  0.52912906  0.34915864  1
  O  O16  1  0.61523079  0.28548237  0.86215082  1
  O  O17  1  0.38476921  0.71451763  0.13784918  1
  O  O18  1  0.09928684  0.28548237  0.63784918  1
  O  O19  1  0.90071316  0.71451763  0.36215082  1
  O  O20  1  0.32339636  0.66010377  0.95495630  1
  O  O21  1  0.67660364  0.33989623  0.04504370  1
  O  O22  1  0.01649988  0.66010377  0.54504370  1
  O  O23  1  0.98350012  0.33989623  0.45495630  1
  O  O24  1  0.28178102  0.95554414  0.53765448  1
  O  O25  1  0.71821898  0.04445586  0.46234552  1
  O  O26  1  0.76267484  0.95554414  0.96234552  1
  O  O27  1  0.23732516  0.04445586  0.03765448  1
  O  O28  1  0.20517739  0.83327875  0.67909799  1
  O  O29  1  0.79482261  0.16672125  0.32090201  1
  O  O30  1  0.96154385  0.83327875  0.82090201  1
  O  O31  1  0.03845615  0.16672125  0.17909799  1
  O  O32  1  0.57687307  0.51727851  0.57028415  1
  O  O33  1  0.42312693  0.48272149  0.42971585  1
  O  O34  1  0.90584843  0.51727851  0.92971585  1
  O  O35  1  0.09415157  0.48272149  0.07028415  1
  O  O36  1  0.55635956  0.40345643  0.71498515  1
  O  O37  1  0.44364044  0.59654357  0.28501485  1
  O  O38  1  0.04018401  0.40345643  0.78501485  1
  O  O39  1  0.95981599  0.59654357  0.21498515  1
  O  O40  1  0.51203505  0.70225360  0.82221301  1
  O  O41  1  0.48796495  0.29774640  0.17778699  1
  O  O42  1  0.78571135  0.70225360  0.67778699  1
  O  O43  1  0.21428865  0.29774640  0.32221301  1
  O  O44  1  0.28233932  0.91465199  0.39066554  1
  O  O45  1  0.71766068  0.08534801  0.60933446  1
  O  O46  1  0.80300869  0.91465199  0.10933446  1
  O  O47  1  0.19699131  0.08534801  0.89066554  1
