# generated using pymatgen
data_ZrInCuS4
_symmetry_space_group_name_H-M   'P 1'
_cell_length_a   7.50562086
_cell_length_b   7.50562086
_cell_length_c   7.50562086
_cell_angle_alpha   91.38844667
_cell_angle_beta   59.74229698
_cell_angle_gamma   121.35509332
_symmetry_Int_Tables_number   1
_chemical_formula_structural   ZrInCuS4
_chemical_formula_sum   'Zr2 In2 Cu2 S8'
_cell_volume   295.20874068
_cell_formula_units_Z   2
loop_
 _symmetry_equiv_pos_site_id
 _symmetry_equiv_pos_as_xyz
  1  'x, y, z'
loop_
 _atom_site_type_symbol
 _atom_site_label
 _atom_site_symmetry_multiplicity
 _atom_site_fract_x
 _atom_site_fract_y
 _atom_site_fract_z
 _atom_site_occupancy
  Zr  Zr0  1  0.25000000  0.87500000  0.37500000  1
  Zr  Zr1  1  0.75000000  0.37500000  0.37500000  1
  In  In2  1  0.75000000  0.37500000  0.87500000  1
  In  In3  1  0.25000000  0.37500000  0.37500000  1
  Cu  Cu4  1  0.50000000  0.75084096  0.74915904  1
  Cu  Cu5  1  -0.00000000  0.99915904  0.00084096  1
  S  S6  1  0.25862308  0.12009632  0.62128060  1
  S  S7  1  0.74137692  0.12009632  0.13852675  1
  S  S8  1  0.74723405  0.61523487  0.13199918  1
  S  S9  1  0.25276595  0.12076677  0.13199918  1
  S  S10  1  0.24137692  0.62990368  0.12871940  1
  S  S11  1  0.75862308  0.62990368  0.61147325  1
  S  S12  1  0.75276595  0.13476513  0.61800082  1
  S  S13  1  0.24723405  0.62923323  0.61800082  1
