# generated using pymatgen
data_YMg(CoNi)2
_symmetry_space_group_name_H-M   'P 1'
_cell_length_a   4.92921806
_cell_length_b   4.92921806
_cell_length_c   4.92921806
_cell_angle_alpha   90.51667604
_cell_angle_beta   60.19939440
_cell_angle_gamma   120.79943822
_symmetry_Int_Tables_number   1
_chemical_formula_structural   YMg(CoNi)2
_chemical_formula_sum   'Y1 Mg1 Co2 Ni2'
_cell_volume   84.29160314
_cell_formula_units_Z   1
loop_
 _symmetry_equiv_pos_site_id
 _symmetry_equiv_pos_as_xyz
  1  'x, y, z'
loop_
 _atom_site_type_symbol
 _atom_site_label
 _atom_site_symmetry_multiplicity
 _atom_site_fract_x
 _atom_site_fract_y
 _atom_site_fract_z
 _atom_site_occupancy
  Y  Y0  1  -0.00000000  0.99892452  0.00107548  1
  Mg  Mg1  1  0.50000000  0.75148862  0.74851138  1
  Co  Co2  1  0.25013055  0.87412039  0.37601016  1
  Co  Co3  1  0.74986945  0.37385929  0.37601016  1
  Ni  Ni4  1  0.75240154  0.37580359  0.87179487  1
  Ni  Ni5  1  0.24759846  0.37580359  0.37659795  1
