# generated using pymatgen
data_Mn3Co2Te3O16
_symmetry_space_group_name_H-M   'P 1'
_cell_length_a   6.16833532
_cell_length_b   6.07518442
_cell_length_c   9.20050337
_cell_angle_alpha   90.00637902
_cell_angle_beta   90.65745577
_cell_angle_gamma   119.79645584
_symmetry_Int_Tables_number   1
_chemical_formula_structural   Mn3Co2Te3O16
_chemical_formula_sum   'Mn3 Co2 Te3 O16'
_cell_volume   299.17026838
_cell_formula_units_Z   1
loop_
 _symmetry_equiv_pos_site_id
 _symmetry_equiv_pos_as_xyz
  1  'x, y, z'
loop_
 _atom_site_type_symbol
 _atom_site_label
 _atom_site_symmetry_multiplicity
 _atom_site_fract_x
 _atom_site_fract_y
 _atom_site_fract_z
 _atom_site_occupancy
  Mn  Mn0  1  0.66384598  0.83199624  0.21345854  1
  Mn  Mn1  1  0.82868753  0.66391753  0.71058975  1
  Mn  Mn2  1  0.82876805  0.16447128  0.71072566  1
  Co  Co3  1  0.34985661  0.67452516  0.51500743  1
  Co  Co4  1  0.69173176  0.34595873  0.98200424  1
  Te  Te5  1  0.16551431  0.83065281  0.21264698  1
  Te  Te6  1  0.16548683  0.33473299  0.21253599  1
  Te  Te7  1  0.33244115  0.16615862  0.71303450  1
  O  O8  1  0.16746827  0.84471623  0.60392288  1
  O  O9  1  0.03545186  0.51692283  0.33598291  1
  O  O10  1  0.29255742  0.64635833  0.08734243  1
  O  O11  1  0.03201332  0.01588856  0.32909727  1
  O  O12  1  0.01214748  0.00167528  0.81927243  1
  O  O13  1  0.17112717  0.32281960  0.60449838  1
  O  O14  1  0.46457881  0.95619200  0.32562916  1
  O  O15  1  0.46483849  0.50918977  0.32535939  1
  O  O16  1  0.31831686  0.15965680  0.09943559  1
  O  O17  1  0.68620373  0.84279438  0.60802512  1
  O  O18  1  0.51849026  0.47808320  0.83454454  1
  O  O19  1  0.51264292  0.04017012  0.83500637  1
  O  O20  1  0.64717204  0.32866321  0.59768374  1
  O  O21  1  0.85163862  0.68103876  0.10929562  1
  O  O22  1  0.94758261  0.47440112  0.82158888  1
  O  O23  1  0.85143894  0.16921645  0.10903419  1
