# generated using pymatgen
data_ZrU4O10
_symmetry_space_group_name_H-M   'P 1'
_cell_length_a   3.80430265
_cell_length_b   3.80430265
_cell_length_c   15.61194873
_cell_angle_alpha   96.99827857
_cell_angle_beta   83.00172143
_cell_angle_gamma   119.99999988
_symmetry_Int_Tables_number   1
_chemical_formula_structural   ZrU4O10
_chemical_formula_sum   'Zr1 U4 O10'
_cell_volume   193.72993557
_cell_formula_units_Z   1
loop_
 _symmetry_equiv_pos_site_id
 _symmetry_equiv_pos_as_xyz
  1  'x, y, z'
loop_
 _atom_site_type_symbol
 _atom_site_label
 _atom_site_symmetry_multiplicity
 _atom_site_fract_x
 _atom_site_fract_y
 _atom_site_fract_z
 _atom_site_occupancy
  Zr  Zr0  1  0.00000000  0.00000000  0.00000000  1
  U  U1  1  0.60139094  0.39860906  0.19582718  1
  U  U2  1  0.20042900  0.79957100  0.39871300  1
  U  U3  1  0.79957100  0.20042900  0.60128700  1
  U  U4  1  0.39860906  0.60139094  0.80417282  1
  O  O5  1  0.04789009  0.95210991  0.85632972  1
  O  O6  1  0.85018294  0.14981706  0.44945119  1
  O  O7  1  0.44930294  0.55069706  0.65209119  1
  O  O8  1  0.65180650  0.34819350  0.04458050  1
  O  O9  1  0.25119333  0.74880667  0.24642002  1
  O  O10  1  0.34819350  0.65180650  0.95541950  1
  O  O11  1  0.14981706  0.85018294  0.55054881  1
  O  O12  1  0.74880667  0.25119333  0.75357998  1
  O  O13  1  0.95210991  0.04789009  0.14367028  1
  O  O14  1  0.55069706  0.44930294  0.34790881  1
