# generated using pymatgen
data_VCrC
_symmetry_space_group_name_H-M   'P 1'
_cell_length_a   4.43924859
_cell_length_b   4.93743703
_cell_length_c   5.66959701
_cell_angle_alpha   90.00000000
_cell_angle_beta   90.00000000
_cell_angle_gamma   90.00000000
_symmetry_Int_Tables_number   1
_chemical_formula_structural   VCrC
_chemical_formula_sum   'V4 Cr4 C4'
_cell_volume   124.26912088
_cell_formula_units_Z   4
loop_
 _symmetry_equiv_pos_site_id
 _symmetry_equiv_pos_as_xyz
  1  'x, y, z'
loop_
 _atom_site_type_symbol
 _atom_site_label
 _atom_site_symmetry_multiplicity
 _atom_site_fract_x
 _atom_site_fract_y
 _atom_site_fract_z
 _atom_site_occupancy
  V  V0  1  0.26606263  0.57433435  0.88899649  1
  V  V1  1  0.23393737  0.07433435  0.61100351  1
  V  V2  1  0.76606263  0.42566565  0.61100351  1
  V  V3  1  0.73393737  0.92566565  0.88899649  1
  Cr  Cr4  1  0.74936306  0.42218552  0.12056426  1
  Cr  Cr5  1  0.75063694  0.92218552  0.37943574  1
  Cr  Cr6  1  0.24936306  0.57781448  0.37943574  1
  Cr  Cr7  1  0.25063694  0.07781448  0.12056426  1
  C  C8  1  -0.00000000  0.75000000  0.13334210  1
  C  C9  1  0.50000000  0.25000000  0.36665790  1
  C  C10  1  -0.00000000  0.25000000  0.87816465  1
  C  C11  1  0.50000000  0.75000000  0.62183535  1
