# generated using pymatgen
data_U2TeSeS2
_symmetry_space_group_name_H-M   'P 1'
_cell_length_a   3.80534245
_cell_length_b   6.77791304
_cell_length_c   11.09880355
_cell_angle_alpha   90.00000000
_cell_angle_beta   90.00000000
_cell_angle_gamma   90.00000000
_symmetry_Int_Tables_number   1
_chemical_formula_structural   U2TeSeS2
_chemical_formula_sum   'U4 Te2 Se2 S4'
_cell_volume   286.26345120
_cell_formula_units_Z   2
loop_
 _symmetry_equiv_pos_site_id
 _symmetry_equiv_pos_as_xyz
  1  'x, y, z'
loop_
 _atom_site_type_symbol
 _atom_site_label
 _atom_site_symmetry_multiplicity
 _atom_site_fract_x
 _atom_site_fract_y
 _atom_site_fract_z
 _atom_site_occupancy
  U  U0  1  0.75000000  0.18350316  0.66962993  1
  U  U1  1  0.75000000  0.68350316  0.83037007  1
  U  U2  1  0.25000000  0.79446812  0.34512352  1
  U  U3  1  0.25000000  0.29446812  0.15487648  1
  Te  Te4  1  0.25000000  0.24642739  0.45888649  1
  Te  Te5  1  0.25000000  0.74642739  0.04111351  1
  Se  Se6  1  0.75000000  0.78656087  0.53855679  1
  Se  Se7  1  0.75000000  0.28656087  0.96144321  1
  S  S8  1  0.75000000  0.02859266  0.23893195  1
  S  S9  1  0.75000000  0.52859266  0.26106805  1
  S  S10  1  0.25000000  0.96044780  0.76901801  1
  S  S11  1  0.25000000  0.46044780  0.73098199  1
