# generated using pymatgen
data_Zr37Mo15P4
_symmetry_space_group_name_H-M   'P 1'
_cell_length_a   8.75578695
_cell_length_b   8.75589502
_cell_length_c   17.55079189
_cell_angle_alpha   90.00000000
_cell_angle_beta   90.00009465
_cell_angle_gamma   59.99959482
_symmetry_Int_Tables_number   1
_chemical_formula_structural   Zr37Mo15P4
_chemical_formula_sum   'Zr37 Mo15 P4'
_cell_volume   1165.25588855
_cell_formula_units_Z   1
loop_
 _symmetry_equiv_pos_site_id
 _symmetry_equiv_pos_as_xyz
  1  'x, y, z'
loop_
 _atom_site_type_symbol
 _atom_site_label
 _atom_site_symmetry_multiplicity
 _atom_site_fract_x
 _atom_site_fract_y
 _atom_site_fract_z
 _atom_site_occupancy
  Zr  Zr0  1  0.53680437  0.92639699  0.37513921  1
  Zr  Zr1  1  0.53641717  0.92716823  0.87498721  1
  Zr  Zr2  1  0.92638491  0.53680755  0.37513910  1
  Zr  Zr3  1  0.92715745  0.53642127  0.87498737  1
  Zr  Zr4  1  0.53680437  0.53679865  0.37513921  1
  Zr  Zr5  1  0.53641717  0.53641460  0.87498721  1
  Zr  Zr6  1  0.46319563  0.07360301  0.12486079  1
  Zr  Zr7  1  0.46358283  0.07283177  0.62501279  1
  Zr  Zr8  1  0.07361509  0.46319245  0.12486090  1
  Zr  Zr9  1  0.07284255  0.46357873  0.62501263  1
  Zr  Zr10  1  0.46319563  0.46320135  0.12486079  1
  Zr  Zr11  1  0.46358283  0.46358540  0.62501279  1
  Zr  Zr12  1  0.20050816  0.59898424  0.27416128  1
  Zr  Zr13  1  0.19835298  0.60329814  0.77389262  1
  Zr  Zr14  1  0.59899515  0.20050242  0.27415610  1
  Zr  Zr15  1  0.60330849  0.19834575  0.77388665  1
  Zr  Zr16  1  0.20050816  0.20050760  0.27416128  1
  Zr  Zr17  1  0.19835298  0.19834888  0.77389262  1
  Zr  Zr18  1  0.79949184  0.40101576  0.22583872  1
  Zr  Zr19  1  0.80164702  0.39670186  0.72610738  1
  Zr  Zr20  1  0.40100485  0.79949758  0.22584390  1
  Zr  Zr21  1  0.39669151  0.80165425  0.72611335  1
  Zr  Zr22  1  0.79949184  0.79949240  0.22583872  1
  Zr  Zr23  1  0.80164702  0.80165112  0.72610738  1
  Zr  Zr24  1  0.80165931  0.39667966  0.02387523  1
  Zr  Zr25  1  0.80172883  0.39653892  0.52450279  1
  Zr  Zr26  1  0.39666565  0.80166717  0.02386909  1
  Zr  Zr27  1  0.39652836  0.80173582  0.52449737  1
  Zr  Zr28  1  0.80165931  0.80166103  0.02387523  1
  Zr  Zr29  1  0.80172883  0.80173225  0.52450279  1
  Zr  Zr30  1  0.19834069  0.60332034  0.47612477  1
  Zr  Zr31  1  0.19827117  0.60346108  0.97549721  1
  Zr  Zr32  1  0.60333435  0.19833283  0.47613091  1
  Zr  Zr33  1  0.60347164  0.19826418  0.97550263  1
  Zr  Zr34  1  0.19834069  0.19833897  0.47612477  1
  Zr  Zr35  1  0.19827117  0.19826775  0.97549721  1
  Zr  Zr36  1  -0.00000000  0.00000000  0.25000000  1
  Mo  Mo37  1  0.88940224  0.22120735  0.37751263  1
  Mo  Mo38  1  0.89141256  0.21718867  0.87490723  1
  Mo  Mo39  1  0.22120796  0.88939602  0.37751116  1
  Mo  Mo40  1  0.21719025  0.89140487  0.87490641  1
  Mo  Mo41  1  0.88940224  0.88939041  0.37751263  1
  Mo  Mo42  1  0.89141256  0.89139878  0.87490723  1
  Mo  Mo43  1  0.11059776  0.77879265  0.12248737  1
  Mo  Mo44  1  0.10858744  0.78281133  0.62509277  1
  Mo  Mo45  1  0.77879204  0.11060398  0.12248884  1
  Mo  Mo46  1  0.78280975  0.10859513  0.62509359  1
  Mo  Mo47  1  0.11059776  0.11060959  0.12248737  1
  Mo  Mo48  1  0.10858744  0.10860122  0.62509277  1
  Mo  Mo49  1  -0.00000000  0.00000000  0.75000000  1
  Mo  Mo50  1  0.00000034  -0.00000017  0.99893456  1
  Mo  Mo51  1  -0.00000034  0.00000017  0.50106544  1
  P  P52  1  0.33336317  0.33331841  0.37579817  1
  P  P53  1  0.33335805  0.33332097  0.87504422  1
  P  P54  1  0.66663683  0.66668159  0.12420183  1
  P  P55  1  0.66664195  0.66667903  0.62495578  1
