# generated using pymatgen
data_Ti4Pd
_symmetry_space_group_name_H-M   'P 1'
_cell_length_a   2.98921081
_cell_length_b   2.98921081
_cell_length_c   9.64440245
_cell_angle_alpha   81.04425201
_cell_angle_beta   81.04425201
_cell_angle_gamma   89.74108412
_symmetry_Int_Tables_number   1
_chemical_formula_structural   Ti4Pd
_chemical_formula_sum   'Ti4 Pd1'
_cell_volume   84.07087977
_cell_formula_units_Z   1
loop_
 _symmetry_equiv_pos_site_id
 _symmetry_equiv_pos_as_xyz
  1  'x, y, z'
loop_
 _atom_site_type_symbol
 _atom_site_label
 _atom_site_symmetry_multiplicity
 _atom_site_fract_x
 _atom_site_fract_y
 _atom_site_fract_z
 _atom_site_occupancy
  Ti  Ti0  1  0.40452820  0.40452820  0.19094361  1
  Ti  Ti1  1  0.80480752  0.80480752  0.39038496  1
  Ti  Ti2  1  0.19519248  0.19519248  0.60961504  1
  Ti  Ti3  1  0.59547180  0.59547180  0.80905639  1
  Pd  Pd4  1  -0.00000000  0.00000000  -0.00000000  1
