# generated using pymatgen
data_Li4Nb(FeO4)3
_symmetry_space_group_name_H-M   'P 1'
_cell_length_a   5.02317309
_cell_length_b   4.94401175
_cell_length_c   8.25158368
_cell_angle_alpha   90.00000000
_cell_angle_beta   90.00000000
_cell_angle_gamma   89.00064829
_symmetry_Int_Tables_number   1
_chemical_formula_structural   Li4Nb(FeO4)3
_chemical_formula_sum   'Li4 Nb1 Fe3 O12'
_cell_volume   204.89383032
_cell_formula_units_Z   1
loop_
 _symmetry_equiv_pos_site_id
 _symmetry_equiv_pos_as_xyz
  1  'x, y, z'
loop_
 _atom_site_type_symbol
 _atom_site_label
 _atom_site_symmetry_multiplicity
 _atom_site_fract_x
 _atom_site_fract_y
 _atom_site_fract_z
 _atom_site_occupancy
  Li  Li0  1  0.00000000  0.00000000  0.70365916  1
  Li  Li1  1  0.00000000  0.50000000  0.80513068  1
  Li  Li2  1  0.50000000  0.00000000  0.32664817  1
  Li  Li3  1  0.50000000  0.50000000  0.20533390  1
  Nb  Nb4  1  0.00000000  0.00000000  0.10823898  1
  Fe  Fe5  1  0.00000000  0.50000000  0.42099847  1
  Fe  Fe6  1  0.50000000  0.00000000  0.90708762  1
  Fe  Fe7  1  0.50000000  0.50000000  0.60560439  1
  O  O8  1  0.14618597  0.25967603  0.26213406  1
  O  O9  1  0.18195841  0.30577047  0.58880072  1
  O  O10  1  0.18187758  0.19274993  0.91501620  1
  O  O11  1  0.31663816  0.69556722  0.43255898  1
  O  O12  1  0.33922867  0.79354702  0.07957712  1
  O  O13  1  0.34623581  0.75375531  0.75110273  1
  O  O14  1  0.65376419  0.24624469  0.75110273  1
  O  O15  1  0.66077133  0.20645298  0.07957712  1
  O  O16  1  0.68336184  0.30443278  0.43255898  1
  O  O17  1  0.81812242  0.80725007  0.91501620  1
  O  O18  1  0.81804159  0.69422953  0.58880072  1
  O  O19  1  0.85381403  0.74032397  0.26213406  1
