# generated using pymatgen
data_YbCe2CuSe5
_symmetry_space_group_name_H-M   'P 1'
_cell_length_a   4.11895009
_cell_length_b   12.25698658
_cell_length_c   17.30658509
_cell_angle_alpha   90.00000000
_cell_angle_beta   90.00000000
_cell_angle_gamma   90.00000000
_symmetry_Int_Tables_number   1
_chemical_formula_structural   YbCe2CuSe5
_chemical_formula_sum   'Yb4 Ce8 Cu4 Se20'
_cell_volume   873.73880070
_cell_formula_units_Z   4
loop_
 _symmetry_equiv_pos_site_id
 _symmetry_equiv_pos_as_xyz
  1  'x, y, z'
loop_
 _atom_site_type_symbol
 _atom_site_label
 _atom_site_symmetry_multiplicity
 _atom_site_fract_x
 _atom_site_fract_y
 _atom_site_fract_z
 _atom_site_occupancy
  Yb  Yb0  1  0.75000000  0.69263830  0.13382759  1
  Yb  Yb1  1  0.75000000  0.19263830  0.36617241  1
  Yb  Yb2  1  0.25000000  0.30736170  0.86617241  1
  Yb  Yb3  1  0.25000000  0.80736170  0.63382759  1
  Ce  Ce4  1  0.75000000  0.63004322  0.89912550  1
  Ce  Ce5  1  0.75000000  0.13004322  0.60087450  1
  Ce  Ce6  1  0.25000000  0.36995678  0.10087450  1
  Ce  Ce7  1  0.25000000  0.86995678  0.39912550  1
  Ce  Ce8  1  0.25000000  0.52963960  0.32019224  1
  Ce  Ce9  1  0.25000000  0.02963960  0.17980776  1
  Ce  Ce10  1  0.75000000  0.47036040  0.67980776  1
  Ce  Ce11  1  0.75000000  0.97036040  0.82019224  1
  Cu  Cu12  1  0.25000000  0.92063618  0.00187179  1
  Cu  Cu13  1  0.25000000  0.42063618  0.49812821  1
  Cu  Cu14  1  0.75000000  0.07936382  0.99812821  1
  Cu  Cu15  1  0.75000000  0.57936382  0.50187179  1
  Se  Se16  1  0.25000000  0.76282075  0.23781158  1
  Se  Se17  1  0.25000000  0.26282075  0.26218842  1
  Se  Se18  1  0.75000000  0.23717925  0.76218842  1
  Se  Se19  1  0.75000000  0.73717925  0.73781158  1
  Se  Se20  1  0.75000000  0.48202447  0.19904937  1
  Se  Se21  1  0.75000000  0.98202447  0.30095063  1
  Se  Se22  1  0.25000000  0.51797553  0.80095063  1
  Se  Se23  1  0.25000000  0.01797553  0.69904937  1
  Se  Se24  1  0.75000000  0.68690504  0.38708361  1
  Se  Se25  1  0.75000000  0.18690504  0.11291639  1
  Se  Se26  1  0.25000000  0.31309496  0.61291639  1
  Se  Se27  1  0.25000000  0.81309496  0.88708361  1
  Se  Se28  1  0.25000000  0.61036751  0.02587802  1
  Se  Se29  1  0.25000000  0.11036751  0.47412198  1
  Se  Se30  1  0.75000000  0.38963249  0.97412198  1
  Se  Se31  1  0.75000000  0.88963249  0.52587802  1
  Se  Se32  1  0.75000000  0.91043401  0.08092718  1
  Se  Se33  1  0.75000000  0.41043401  0.41907282  1
  Se  Se34  1  0.25000000  0.08956599  0.91907282  1
  Se  Se35  1  0.25000000  0.58956599  0.58092718  1
