# generated using pymatgen
data_TiCoCuS4
_symmetry_space_group_name_H-M   'P 1'
_cell_length_a   6.91166562
_cell_length_b   7.01794844
_cell_length_c   6.81024047
_cell_angle_alpha   90.00000000
_cell_angle_beta   60.48425247
_cell_angle_gamma   120.50999445
_symmetry_Int_Tables_number   1
_chemical_formula_structural   TiCoCuS4
_chemical_formula_sum   'Ti2 Co2 Cu2 S8'
_cell_volume   233.47402953
_cell_formula_units_Z   2
loop_
 _symmetry_equiv_pos_site_id
 _symmetry_equiv_pos_as_xyz
  1  'x, y, z'
loop_
 _atom_site_type_symbol
 _atom_site_label
 _atom_site_symmetry_multiplicity
 _atom_site_fract_x
 _atom_site_fract_y
 _atom_site_fract_z
 _atom_site_occupancy
  Ti  Ti0  1  -0.00000000  -0.00000000  0.50000000  1
  Ti  Ti1  1  -0.00000000  -0.00000000  0.00000000  1
  Co  Co2  1  0.50000000  0.50000000  0.00000000  1
  Co  Co3  1  0.50000000  -0.00000000  0.00000000  1
  Cu  Cu4  1  0.74946276  0.37473138  0.37526862  1
  Cu  Cu5  1  0.25053724  0.62526862  0.62473138  1
  S  S6  1  0.02666712  0.76943923  0.23666644  1
  S  S7  1  0.02666712  0.25722789  0.23666644  1
  S  S8  1  0.49517811  0.24758906  0.78041206  1
  S  S9  1  0.49517811  0.24758906  0.22440982  1
  S  S10  1  0.97333288  0.23056077  0.76333356  1
  S  S11  1  0.97333288  0.74277211  0.76333356  1
  S  S12  1  0.50482189  0.75241094  0.21958794  1
  S  S13  1  0.50482189  0.75241094  0.77559018  1
