# generated using pymatgen
data_Y(MnAl)6
_symmetry_space_group_name_H-M   'P 1'
_cell_length_a   4.94270408
_cell_length_b   6.63079387
_cell_length_c   6.63079387
_cell_angle_alpha   98.80581327
_cell_angle_beta   111.88274685
_cell_angle_gamma   68.11725315
_symmetry_Int_Tables_number   1
_chemical_formula_structural   Y(MnAl)6
_chemical_formula_sum   'Y1 Mn6 Al6'
_cell_volume   187.10465386
_cell_formula_units_Z   1
loop_
 _symmetry_equiv_pos_site_id
 _symmetry_equiv_pos_as_xyz
  1  'x, y, z'
loop_
 _atom_site_type_symbol
 _atom_site_label
 _atom_site_symmetry_multiplicity
 _atom_site_fract_x
 _atom_site_fract_y
 _atom_site_fract_z
 _atom_site_occupancy
  Y  Y0  1  0.00000000  -0.00000000  -0.00000000  1
  Mn  Mn1  1  0.50000000  -0.00000000  0.50000000  1
  Mn  Mn2  1  0.00000000  -0.00000000  0.50000000  1
  Mn  Mn3  1  0.50000000  0.50000000  -0.00000000  1
  Mn  Mn4  1  0.00000000  0.50000000  -0.00000000  1
  Mn  Mn5  1  0.50000000  0.76211895  0.76211895  1
  Mn  Mn6  1  0.50000000  0.23788105  0.23788105  1
  Al  Al7  1  0.65348491  0.34651509  0.65348491  1
  Al  Al8  1  0.34651509  0.65348491  0.34651509  1
  Al  Al9  1  -0.00000000  0.33814766  0.33814766  1
  Al  Al10  1  0.00000000  0.66185234  0.66185234  1
  Al  Al11  1  0.69687121  0.80312879  0.19687121  1
  Al  Al12  1  0.30312879  0.19687121  0.80312879  1
