# generated using pymatgen
data_SrNdMn2O5
_symmetry_space_group_name_H-M   'P 1'
_cell_length_a   5.48978263
_cell_length_b   5.68244058
_cell_length_c   9.01430676
_cell_angle_alpha   71.63767943
_cell_angle_beta   72.28196404
_cell_angle_gamma   90.03107405
_symmetry_Int_Tables_number   1
_chemical_formula_structural   SrNdMn2O5
_chemical_formula_sum   'Sr2 Nd2 Mn4 O10'
_cell_volume   252.77717915
_cell_formula_units_Z   2
loop_
 _symmetry_equiv_pos_site_id
 _symmetry_equiv_pos_as_xyz
  1  'x, y, z'
loop_
 _atom_site_type_symbol
 _atom_site_label
 _atom_site_symmetry_multiplicity
 _atom_site_fract_x
 _atom_site_fract_y
 _atom_site_fract_z
 _atom_site_occupancy
  Sr  Sr0  1  0.88347441  0.37272339  0.22466687  1
  Sr  Sr1  1  0.60814128  0.09739025  0.77533313  1
  Nd  Nd2  1  0.11279663  0.63265319  0.78513867  1
  Nd  Nd3  1  0.39793530  0.91779186  0.21486133  1
  Mn  Mn4  1  0.50165188  0.50090662  0.00001608  1
  Mn  Mn5  1  0.00166796  0.00092270  0.99998392  1
  Mn  Mn6  1  0.70579458  0.69351286  0.50000000  1
  Mn  Mn7  1  0.20446008  0.31288782  0.50000000  1
  O  O8  1  0.30799488  0.67647885  0.50000000  1
  O  O9  1  0.83077336  0.35598154  0.50000000  1
  O  O10  1  0.38338027  0.29505936  0.26788189  1
  O  O11  1  0.62719402  0.66668352  0.73838421  1
  O  O12  1  0.15126215  0.06294124  0.73211811  1
  O  O13  1  0.86557823  0.90506774  0.26161579  1
  O  O14  1  0.76394242  0.26104584  0.97813723  1
  O  O15  1  0.74021987  0.74646851  0.01583315  1
  O  O16  1  0.24207965  0.73918306  0.02186277  1
  O  O17  1  0.25605302  0.26230166  0.98416685  1
