# generated using pymatgen
data_ThURe4
_symmetry_space_group_name_H-M   'P 1'
_cell_length_a   5.45030639
_cell_length_b   5.47165203
_cell_length_c   8.86893705
_cell_angle_alpha   90.00000000
_cell_angle_beta   90.16870790
_cell_angle_gamma   59.87036133
_symmetry_Int_Tables_number   1
_chemical_formula_structural   ThURe4
_chemical_formula_sum   'Th2 U2 Re8'
_cell_volume   228.75482420
_cell_formula_units_Z   2
loop_
 _symmetry_equiv_pos_site_id
 _symmetry_equiv_pos_as_xyz
  1  'x, y, z'
loop_
 _atom_site_type_symbol
 _atom_site_label
 _atom_site_symmetry_multiplicity
 _atom_site_fract_x
 _atom_site_fract_y
 _atom_site_fract_z
 _atom_site_occupancy
  Th  Th0  1  0.33342780  0.33328610  0.56683877  1
  Th  Th1  1  0.66657220  0.66671390  0.43316123  1
  U  U2  1  0.66657277  0.66671361  0.06130261  1
  U  U3  1  0.33342723  0.33328639  0.93869739  1
  Re  Re4  1  -0.00000000  -0.00000000  0.50000000  1
  Re  Re5  1  -0.00000000  -0.00000000  0.00000000  1
  Re  Re6  1  0.82966954  0.34084374  0.75491231  1
  Re  Re7  1  0.34101530  0.82949235  0.75491021  1
  Re  Re8  1  0.82966954  0.82948672  0.75491231  1
  Re  Re9  1  0.17033046  0.65915626  0.24508769  1
  Re  Re10  1  0.65898470  0.17050765  0.24508979  1
  Re  Re11  1  0.17033046  0.17051328  0.24508769  1
