# generated using pymatgen
data_TiAlCu
_symmetry_space_group_name_H-M   'P 1'
_cell_length_a   4.99549064
_cell_length_b   5.08824842
_cell_length_c   8.09140958
_cell_angle_alpha   90.00000000
_cell_angle_beta   90.00000000
_cell_angle_gamma   120.62261055
_symmetry_Int_Tables_number   1
_chemical_formula_structural   TiAlCu
_chemical_formula_sum   'Ti4 Al4 Cu4'
_cell_volume   176.98735822
_cell_formula_units_Z   4
loop_
 _symmetry_equiv_pos_site_id
 _symmetry_equiv_pos_as_xyz
  1  'x, y, z'
loop_
 _atom_site_type_symbol
 _atom_site_label
 _atom_site_symmetry_multiplicity
 _atom_site_fract_x
 _atom_site_fract_y
 _atom_site_fract_z
 _atom_site_occupancy
  Ti  Ti0  1  0.66822246  0.33410879  0.55745492  1
  Ti  Ti1  1  0.32691681  0.66344744  0.43099661  1
  Ti  Ti2  1  0.32691681  0.66344744  0.06900339  1
  Ti  Ti3  1  0.66822246  0.33410879  0.94254508  1
  Al  Al4  1  0.98817005  0.99408277  0.48865932  1
  Al  Al5  1  0.98817005  0.99408277  0.01134068  1
  Al  Al6  1  0.18289512  0.34811817  0.75000000  1
  Al  Al7  1  0.18289822  0.83477137  0.75000000  1
  Cu  Cu8  1  0.67140134  0.83569088  0.75000000  1
  Cu  Cu9  1  0.82692274  0.65189081  0.25000000  1
  Cu  Cu10  1  0.82691677  0.17506490  0.25000000  1
  Cu  Cu11  1  0.34234718  0.17118588  0.25000000  1
