# generated using pymatgen
data_Li(CoO2)2
_symmetry_space_group_name_H-M   'P 1'
_cell_length_a   5.70109462
_cell_length_b   5.70218061
_cell_length_c   8.09621661
_cell_angle_alpha   90.00019783
_cell_angle_beta   90.01617382
_cell_angle_gamma   90.00129871
_symmetry_Int_Tables_number   1
_chemical_formula_structural   Li(CoO2)2
_chemical_formula_sum   'Li4 Co8 O16'
_cell_volume   263.19723307
_cell_formula_units_Z   4
loop_
 _symmetry_equiv_pos_site_id
 _symmetry_equiv_pos_as_xyz
  1  'x, y, z'
loop_
 _atom_site_type_symbol
 _atom_site_label
 _atom_site_symmetry_multiplicity
 _atom_site_fract_x
 _atom_site_fract_y
 _atom_site_fract_z
 _atom_site_occupancy
  Li  Li0  1  0.00001589  0.24182855  0.00001564  1
  Li  Li1  1  0.99998883  0.75816542  0.49999610  1
  Li  Li2  1  0.24181216  0.99992816  0.24999216  1
  Li  Li3  1  0.75818998  0.99990121  0.74999649  1
  Co  Co4  1  0.24500642  0.50000820  0.24997571  1
  Co  Co5  1  0.25523236  0.25526076  0.62501291  1
  Co  Co6  1  0.25520183  0.74480813  0.87503181  1
  Co  Co7  1  0.50001294  0.24492147  -0.00000483  1
  Co  Co8  1  0.50000240  0.75503977  0.50002061  1
  Co  Co9  1  0.74476180  0.25522530  0.37497925  1
  Co  Co10  1  0.74476246  0.74481071  0.12497417  1
  Co  Co11  1  0.75499323  0.49999604  0.75000992  1
  O  O12  1  0.01357636  0.26654540  0.26048118  1
  O  O13  1  0.01360109  0.73341808  0.23950161  1
  O  O14  1  0.26668269  0.01356923  0.98945492  1
  O  O15  1  0.26656809  0.98647820  0.51049265  1
  O  O16  1  0.26435726  0.48752595  0.01520855  1
  O  O17  1  0.26431697  0.51244183  0.48480703  1
  O  O18  1  0.48752117  0.26439840  0.23476665  1
  O  O19  1  0.48751555  0.73565796  0.26515997  1
  O  O20  1  0.51238005  0.26436978  0.76522589  1
  O  O21  1  0.51249520  0.73569074  0.73485026  1
  O  O22  1  0.73567695  0.51250283  0.51518428  1
  O  O23  1  0.73563093  0.48757146  0.98479819  1
  O  O24  1  0.73335139  0.01356700  0.01055175  1
  O  O25  1  0.73346005  0.98641467  0.48950384  1
  O  O26  1  0.98648726  0.26653978  0.73950728  1
  O  O27  1  0.98639868  0.73341498  0.76050600  1
