# generated using pymatgen
data_Ta2O5
_symmetry_space_group_name_H-M   'P 1'
_cell_length_a   3.86888869
_cell_length_b   3.83412658
_cell_length_c   21.21964450
_cell_angle_alpha   84.83366760
_cell_angle_beta   92.31014983
_cell_angle_gamma   89.98918271
_symmetry_Int_Tables_number   1
_chemical_formula_structural   Ta2O5
_chemical_formula_sum   'Ta6 O15'
_cell_volume   313.23231377
_cell_formula_units_Z   3
loop_
 _symmetry_equiv_pos_site_id
 _symmetry_equiv_pos_as_xyz
  1  'x, y, z'
loop_
 _atom_site_type_symbol
 _atom_site_label
 _atom_site_symmetry_multiplicity
 _atom_site_fract_x
 _atom_site_fract_y
 _atom_site_fract_z
 _atom_site_occupancy
  Ta  Ta0  1  0.90768434  0.69574012  0.59756477  1
  Ta  Ta1  1  0.08008925  0.29284482  0.40249785  1
  Ta  Ta2  1  0.97535114  0.04914019  0.90945288  1
  Ta  Ta3  1  0.00991522  0.95804936  0.09049293  1
  Ta  Ta4  1  0.95812547  0.61695990  0.77827412  1
  Ta  Ta5  1  0.03076973  0.39563038  0.22175797  1
  O  O6  1  0.45391635  0.63773919  0.78114057  1
  O  O7  1  0.53301225  0.41738760  0.21905309  1
  O  O8  1  0.90583957  0.20720397  0.57724605  1
  O  O9  1  0.08164996  0.78322818  0.42269581  1
  O  O10  1  0.97254813  0.57100547  0.88370553  1
  O  O11  1  0.01380959  0.45427086  0.11615220  1
  O  O12  1  0.95830343  0.11109869  0.80392782  1
  O  O13  1  0.02765813  0.91487278  0.19601242  1
  O  O14  1  0.92778766  0.64938270  0.68762643  1
  O  O15  1  0.05897141  0.33858548  0.31254036  1
  O  O16  1  0.47686476  0.07837912  0.90793720  1
  O  O17  1  0.50952892  0.98423577  0.09181459  1
  O  O18  1  0.99387215  0.97854010  0.99985044  1
  O  O19  1  0.40542643  0.70588223  0.58214644  1
  O  O20  1  0.58287613  0.28590309  0.41811051  1
