# generated using pymatgen
data_Ta2InBiO8
_symmetry_space_group_name_H-M   'P 1'
_cell_length_a   5.42895704
_cell_length_b   7.66851163
_cell_length_c   7.92009265
_cell_angle_alpha   78.67895684
_cell_angle_beta   89.08437889
_cell_angle_gamma   88.47438951
_symmetry_Int_Tables_number   1
_chemical_formula_structural   Ta2InBiO8
_chemical_formula_sum   'Ta4 In2 Bi2 O16'
_cell_volume   323.17973094
_cell_formula_units_Z   2
loop_
 _symmetry_equiv_pos_site_id
 _symmetry_equiv_pos_as_xyz
  1  'x, y, z'
loop_
 _atom_site_type_symbol
 _atom_site_label
 _atom_site_symmetry_multiplicity
 _atom_site_fract_x
 _atom_site_fract_y
 _atom_site_fract_z
 _atom_site_occupancy
  Ta  Ta0  1  0.75706000  0.80722768  0.32819135  1
  Ta  Ta1  1  0.24294000  0.19277232  0.67180865  1
  Ta  Ta2  1  0.23852672  0.68806435  0.65299565  1
  Ta  Ta3  1  0.76147328  0.31193565  0.34700435  1
  In  In4  1  0.23871739  0.61711312  0.11554256  1
  In  In5  1  0.76128261  0.38288688  0.88445744  1
  Bi  Bi6  1  0.72447959  0.87324445  0.85220496  1
  Bi  Bi7  1  0.27552041  0.12675555  0.14779504  1
  O  O8  1  0.06641974  0.19760582  0.45576910  1
  O  O9  1  0.93358026  0.80239418  0.54423090  1
  O  O10  1  0.47453136  0.38821497  0.18127373  1
  O  O11  1  0.52546864  0.61178503  0.81872627  1
  O  O12  1  0.67484172  0.06135615  0.29970619  1
  O  O13  1  0.32515828  0.93864385  0.70029381  1
  O  O14  1  0.55633922  0.28104110  0.54737569  1
  O  O15  1  0.44366078  0.71895890  0.45262431  1
  O  O16  1  0.54593397  0.80020142  0.11058987  1
  O  O17  1  0.45406603  0.19979858  0.88941013  1
  O  O18  1  0.97180206  0.33705184  0.11337509  1
  O  O19  1  0.02819794  0.66294816  0.88662491  1
  O  O20  1  0.03663933  0.84974764  0.16835948  1
  O  O21  1  0.96336067  0.15025236  0.83164052  1
  O  O22  1  0.86437848  0.54879105  0.33839186  1
  O  O23  1  0.13562152  0.45120895  0.66160814  1
