# generated using pymatgen
data_Sr4CeSm3Nb2(CuO5)4
_symmetry_space_group_name_H-M   'P 1'
_cell_length_a   3.93858952
_cell_length_b   3.93858952
_cell_length_c   29.08571254
_cell_angle_alpha   90.00000000
_cell_angle_beta   90.00000000
_cell_angle_gamma   90.00000000
_symmetry_Int_Tables_number   1
_chemical_formula_structural   Sr4CeSm3Nb2(CuO5)4
_chemical_formula_sum   'Sr4 Ce1 Sm3 Nb2 Cu4 O20'
_cell_volume   451.19174950
_cell_formula_units_Z   1
loop_
 _symmetry_equiv_pos_site_id
 _symmetry_equiv_pos_as_xyz
  1  'x, y, z'
loop_
 _atom_site_type_symbol
 _atom_site_label
 _atom_site_symmetry_multiplicity
 _atom_site_fract_x
 _atom_site_fract_y
 _atom_site_fract_z
 _atom_site_occupancy
  Sr  Sr0  1  0.00000000  -0.00000000  0.42180146  1
  Sr  Sr1  1  0.50000000  0.50000000  0.91569239  1
  Sr  Sr2  1  0.50000000  0.50000000  0.07991099  1
  Sr  Sr3  1  -0.00000000  -0.00000000  0.58517613  1
  Ce  Ce4  1  -0.00000000  0.00000000  0.29358144  1
  Sm  Sm5  1  0.50000000  0.50000000  0.79155984  1
  Sm  Sm6  1  0.50000000  0.50000000  0.20553085  1
  Sm  Sm7  1  -0.00000000  0.00000000  0.70867610  1
  Nb  Nb8  1  0.00000000  -0.00000000  0.99952060  1
  Nb  Nb9  1  0.50000000  0.50000000  0.50043089  1
  Cu  Cu10  1  0.50000000  0.50000000  0.35623937  1
  Cu  Cu11  1  0.00000000  -0.00000000  0.85696477  1
  Cu  Cu12  1  -0.00000000  0.00000000  0.14307339  1
  Cu  Cu13  1  0.50000000  0.50000000  0.64393722  1
  O  O14  1  -0.00000000  0.50000000  0.25200462  1
  O  O15  1  0.50000000  -0.00000000  0.74998741  1
  O  O16  1  0.50000000  -0.00000000  0.25200462  1
  O  O17  1  0.00000000  0.50000000  0.74998741  1
  O  O18  1  -0.00000000  0.50000000  0.34800641  1
  O  O19  1  0.50000000  -0.00000000  0.85378102  1
  O  O20  1  0.50000000  -0.00000000  0.34800641  1
  O  O21  1  0.00000000  0.50000000  0.85378102  1
  O  O22  1  0.50000000  -0.00000000  0.15072360  1
  O  O23  1  -0.00000000  0.50000000  0.64598268  1
  O  O24  1  0.00000000  0.50000000  0.15072360  1
  O  O25  1  0.50000000  0.00000000  0.64598268  1
  O  O26  1  0.50000000  -0.00000000  0.00091521  1
  O  O27  1  0.00000000  0.50000000  0.49814008  1
  O  O28  1  0.50000000  -0.00000000  0.49814008  1
  O  O29  1  0.00000000  0.50000000  0.00091521  1
  O  O30  1  0.50000000  0.50000000  0.43045628  1
  O  O31  1  0.00000000  0.00000000  0.93183654  1
  O  O32  1  0.00000000  0.00000000  0.06895116  1
  O  O33  1  0.50000000  0.50000000  0.56757853  1
