# generated using pymatgen
data_SrFe12O19
_symmetry_space_group_name_H-M   'P 1'
_cell_length_a   6.01109995
_cell_length_b   6.01109995
_cell_length_c   23.35606206
_cell_angle_alpha   90.00000000
_cell_angle_beta   90.00000000
_cell_angle_gamma   119.98072946
_symmetry_Int_Tables_number   1
_chemical_formula_structural   SrFe12O19
_chemical_formula_sum   'Sr2 Fe24 O38'
_cell_volume   731.00853917
_cell_formula_units_Z   2
loop_
 _symmetry_equiv_pos_site_id
 _symmetry_equiv_pos_as_xyz
  1  'x, y, z'
loop_
 _atom_site_type_symbol
 _atom_site_label
 _atom_site_symmetry_multiplicity
 _atom_site_fract_x
 _atom_site_fract_y
 _atom_site_fract_z
 _atom_site_occupancy
  Sr  Sr0  1  0.33562968  0.66437032  0.74939815  1
  Sr  Sr1  1  0.66437032  0.33562968  0.24939815  1
  Fe  Fe2  1  0.66700853  0.33299147  0.52835706  1
  Fe  Fe3  1  0.33376326  0.66623674  0.47207614  1
  Fe  Fe4  1  0.33299147  0.66700853  0.02835706  1
  Fe  Fe5  1  0.66623674  0.33376326  0.97207614  1
  Fe  Fe6  1  0.99915658  0.00084342  0.50001215  1
  Fe  Fe7  1  0.00084342  0.99915658  0.00001215  1
  Fe  Fe8  1  0.66695359  0.33304641  0.69099402  1
  Fe  Fe9  1  0.33349635  0.66650365  0.30881892  1
  Fe  Fe10  1  0.33304641  0.66695359  0.19099402  1
  Fe  Fe11  1  0.66650365  0.33349635  0.80881892  1
  Fe  Fe12  1  0.83107065  0.66314703  0.39125314  1
  Fe  Fe13  1  0.83136928  0.16863072  0.38959729  1
  Fe  Fe14  1  0.33685297  0.16892935  0.39125314  1
  Fe  Fe15  1  0.16879773  0.33506429  0.60964813  1
  Fe  Fe16  1  0.16854203  0.83145797  0.60973744  1
  Fe  Fe17  1  0.66493571  0.83120227  0.60964813  1
  Fe  Fe18  1  0.16892935  0.33685297  0.89125314  1
  Fe  Fe19  1  0.16863072  0.83136928  0.88959729  1
  Fe  Fe20  1  0.66314703  0.83107065  0.89125314  1
  Fe  Fe21  1  0.83120227  0.66493571  0.10964813  1
  Fe  Fe22  1  0.83145797  0.16854203  0.10973744  1
  Fe  Fe23  1  0.33506429  0.16879773  0.10964813  1
  Fe  Fe24  1  -0.00017461  0.00017461  0.75207952  1
  Fe  Fe25  1  0.00017461  -0.00017461  0.25207952  1
  O  O26  1  0.33334653  0.66665347  0.55538581  1
  O  O27  1  0.66751186  0.33248814  0.44507981  1
  O  O28  1  0.66665347  0.33334653  0.05538581  1
  O  O29  1  0.33248814  0.66751186  0.94507981  1
  O  O30  1  0.00125367  -0.00125367  0.65211703  1
  O  O31  1  -0.00015555  0.00015555  0.34779510  1
  O  O32  1  -0.00125367  0.00125367  0.15211703  1
  O  O33  1  0.00015555  -0.00015555  0.84779510  1
  O  O34  1  0.81616527  0.63537843  0.75035877  1
  O  O35  1  0.81694035  0.18305965  0.74975153  1
  O  O36  1  0.36462157  0.18383473  0.75035877  1
  O  O37  1  0.18383473  0.36462157  0.25035877  1
  O  O38  1  0.18305965  0.81694035  0.24975153  1
  O  O39  1  0.63537843  0.81616527  0.25035877  1
  O  O40  1  0.84516831  0.68994017  0.55306240  1
  O  O41  1  0.84506943  0.15493057  0.55311905  1
  O  O42  1  0.31005983  0.15483169  0.55306240  1
  O  O43  1  0.15363344  0.31004453  0.44690901  1
  O  O44  1  0.15516210  0.84483790  0.44745968  1
  O  O45  1  0.68995547  0.84636656  0.44690901  1
  O  O46  1  0.15483169  0.31005983  0.05306240  1
  O  O47  1  0.15493057  0.84506943  0.05311905  1
  O  O48  1  0.68994017  0.84516831  0.05306240  1
  O  O49  1  0.84636656  0.68995547  0.94690901  1
  O  O50  1  0.84483790  0.15516210  0.94745968  1
  O  O51  1  0.31004453  0.15363344  0.94690901  1
  O  O52  1  0.49461181  0.98804793  0.65154602  1
  O  O53  1  0.49517781  0.50482219  0.65171986  1
  O  O54  1  0.01195207  0.50538819  0.65154602  1
  O  O55  1  0.50537201  0.01281461  0.34827379  1
  O  O56  1  0.50465617  0.49534383  0.34929895  1
  O  O57  1  0.98718539  0.49462799  0.34827379  1
  O  O58  1  0.50538819  0.01195207  0.15154602  1
  O  O59  1  0.50482219  0.49517781  0.15171986  1
  O  O60  1  0.98804793  0.49461181  0.15154602  1
  O  O61  1  0.49462799  0.98718539  0.84827379  1
  O  O62  1  0.49534383  0.50465617  0.84929895  1
  O  O63  1  0.01281461  0.50537201  0.84827379  1
