# generated using pymatgen
data_Li10Ti3Co3(NiO8)2
_symmetry_space_group_name_H-M   'P 1'
_cell_length_a   5.98635123
_cell_length_b   6.02472231
_cell_length_c   9.89517381
_cell_angle_alpha   91.12539505
_cell_angle_beta   90.78206031
_cell_angle_gamma   59.75963636
_symmetry_Int_Tables_number   1
_chemical_formula_structural   Li10Ti3Co3(NiO8)2
_chemical_formula_sum   'Li10 Ti3 Co3 Ni2 O16'
_cell_volume   308.25377505
_cell_formula_units_Z   1
loop_
 _symmetry_equiv_pos_site_id
 _symmetry_equiv_pos_as_xyz
  1  'x, y, z'
loop_
 _atom_site_type_symbol
 _atom_site_label
 _atom_site_symmetry_multiplicity
 _atom_site_fract_x
 _atom_site_fract_y
 _atom_site_fract_z
 _atom_site_occupancy
  Li  Li0  1  0.32574811  0.36434373  0.78205022  1
  Li  Li1  1  0.60819084  0.17488392  0.54502822  1
  Li  Li2  1  0.18977376  0.20855154  0.55533360  1
  Li  Li3  1  0.17483583  0.61667480  0.54839381  1
  Li  Li4  1  0.66887462  0.67167600  0.28197777  1
  Li  Li5  1  0.37098002  0.80622796  0.07610579  1
  Li  Li6  1  0.78827772  0.40924818  0.06337321  1
  Li  Li7  1  0.82109327  0.81649658  0.07800373  1
  Li  Li8  1  0.00867549  0.01375721  0.47751537  1
  Li  Li9  1  0.99303575  0.02670315  0.98407324  1
  Ti  Ti10  1  0.17819831  0.18419901  0.28576496  1
  Ti  Ti11  1  0.82177751  0.35447495  0.77521826  1
  Ti  Ti12  1  0.34018274  0.85876507  0.79113757  1
  Co  Co13  1  0.66895999  0.17745683  0.28640548  1
  Co  Co14  1  0.17272558  0.67135512  0.28859573  1
  Co  Co15  1  0.82903269  0.85305763  0.78698356  1
  Ni  Ni16  1  0.34121793  0.34367434  0.03554847  1
  Ni  Ni17  1  0.67077943  0.68283639  0.52348589  1
  O  O18  1  0.16030133  0.17910128  0.89471889  1
  O  O19  1  0.48585050  0.02244296  0.16269868  1
  O  O20  1  0.67346140  0.20225692  0.89740286  1
  O  O21  1  0.32717809  0.33267535  0.41090925  1
  O  O22  1  0.01865318  0.48822952  0.16358050  1
  O  O23  1  0.49354325  0.49664281  0.16603584  1
  O  O24  1  0.86147900  0.34012909  0.40406860  1
  O  O25  1  0.17216730  0.70537699  0.89849018  1
  O  O26  1  0.50675298  0.52419391  0.66879295  1
  O  O27  1  0.65204553  0.67454088  0.89990203  1
  O  O28  1  0.33509967  0.86703760  0.40233167  1
  O  O29  1  0.97995353  0.51428299  0.67278004  1
  O  O30  1  0.49524015  0.99723105  0.67117100  1
  O  O31  1  0.84318802  0.84877760  0.41732844  1
  O  O32  1  0.00828453  0.03271011  0.67134755  1
  O  O33  1  0.01595691  0.01671051  0.16847264  1
