# generated using pymatgen
data_SmTiFe11C
_symmetry_space_group_name_H-M   'P 1'
_cell_length_a   4.89482075
_cell_length_b   6.51559456
_cell_length_c   6.51559456
_cell_angle_alpha   97.73667083
_cell_angle_beta   112.06285368
_cell_angle_gamma   67.93714632
_symmetry_Int_Tables_number   1
_chemical_formula_structural   SmTiFe11C
_chemical_formula_sum   'Sm1 Ti1 Fe11 C1'
_cell_volume   178.47553917
_cell_formula_units_Z   1
loop_
 _symmetry_equiv_pos_site_id
 _symmetry_equiv_pos_as_xyz
  1  'x, y, z'
loop_
 _atom_site_type_symbol
 _atom_site_label
 _atom_site_symmetry_multiplicity
 _atom_site_fract_x
 _atom_site_fract_y
 _atom_site_fract_z
 _atom_site_occupancy
  Sm  Sm0  1  0.00745753  0.99254247  0.00745753  1
  Ti  Ti1  1  0.63339130  0.36660870  0.63339130  1
  Fe  Fe2  1  0.72526422  0.77473578  0.22526422  1
  Fe  Fe3  1  0.27669262  0.22330738  0.77669262  1
  Fe  Fe4  1  0.49789764  0.78156527  0.77736055  1
  Fe  Fe5  1  0.49789764  0.22263945  0.21843473  1
  Fe  Fe6  1  0.49999722  0.99784609  0.49895916  1
  Fe  Fe7  1  0.00111585  0.99784609  0.49895916  1
  Fe  Fe8  1  0.49999722  0.50104084  0.00215391  1
  Fe  Fe9  1  0.00111585  0.50104084  0.00215391  1
  Fe  Fe10  1  0.35738633  0.64261367  0.35738633  1
  Fe  Fe11  1  0.00020513  0.35909696  0.35950722  1
  Fe  Fe12  1  0.00020513  0.64049278  0.64090304  1
  C  C13  1  0.50137633  0.99862367  0.00137633  1
