# generated using pymatgen
data_SmThUS5
_symmetry_space_group_name_H-M   'P 1'
_cell_length_a   7.45381691
_cell_length_b   8.01012702
_cell_length_c   12.01452130
_cell_angle_alpha   90.00000000
_cell_angle_beta   90.00000000
_cell_angle_gamma   90.00000000
_symmetry_Int_Tables_number   1
_chemical_formula_structural   SmThUS5
_chemical_formula_sum   'Sm4 Th4 U4 S20'
_cell_volume   717.33925183
_cell_formula_units_Z   4
loop_
 _symmetry_equiv_pos_site_id
 _symmetry_equiv_pos_as_xyz
  1  'x, y, z'
loop_
 _atom_site_type_symbol
 _atom_site_label
 _atom_site_symmetry_multiplicity
 _atom_site_fract_x
 _atom_site_fract_y
 _atom_site_fract_z
 _atom_site_occupancy
  Sm  Sm0  1  0.97921511  0.00249488  0.18154889  1
  Sm  Sm1  1  0.52078489  0.49750512  0.68154889  1
  Sm  Sm2  1  0.02078489  0.50249488  0.81845111  1
  Sm  Sm3  1  0.47921511  0.99750512  0.31845111  1
  Th  Th4  1  0.02394524  0.00148961  0.82426728  1
  Th  Th5  1  0.47605476  0.49851039  0.32426728  1
  Th  Th6  1  0.97605476  0.50148961  0.17573272  1
  Th  Th7  1  0.52394524  0.99851039  0.67573272  1
  U  U8  1  0.42942326  0.74834173  0.00554063  1
  U  U9  1  0.07057674  0.75165827  0.50554063  1
  U  U10  1  0.57057674  0.24834173  0.99445937  1
  U  U11  1  0.92942326  0.25165827  0.49445937  1
  S  S12  1  0.66468866  0.53910627  0.90163066  1
  S  S13  1  0.83531134  0.96089373  0.40163066  1
  S  S14  1  0.33531134  0.03910627  0.09836934  1
  S  S15  1  0.16468866  0.46089373  0.59836934  1
  S  S16  1  0.33614191  0.45789869  0.10175065  1
  S  S17  1  0.16385809  0.04210131  0.60175065  1
  S  S18  1  0.66385809  0.95789869  0.89824935  1
  S  S19  1  0.83614191  0.54210131  0.39824935  1
  S  S20  1  0.30166229  0.75298028  0.78450539  1
  S  S21  1  0.19833771  0.74701972  0.28450539  1
  S  S22  1  0.69833771  0.25298028  0.21549461  1
  S  S23  1  0.80166229  0.24701972  0.71549461  1
  S  S24  1  0.67149671  0.74448745  0.18661805  1
  S  S25  1  0.82850329  0.75551255  0.68661805  1
  S  S26  1  0.32850329  0.24448745  0.81338195  1
  S  S27  1  0.17149671  0.25551255  0.31338195  1
  S  S28  1  0.04004008  0.75067983  0.00022572  1
  S  S29  1  0.45995992  0.74932017  0.50022572  1
  S  S30  1  0.95995992  0.25067983  0.99977428  1
  S  S31  1  0.54004008  0.24932017  0.49977428  1
