# generated using pymatgen
data_Sn2GeTe3
_symmetry_space_group_name_H-M   'P 1'
_cell_length_a   4.38501748
_cell_length_b   14.33412754
_cell_length_c   12.28864887
_cell_angle_alpha   90.25505170
_cell_angle_beta   90.00000000
_cell_angle_gamma   90.00000000
_symmetry_Int_Tables_number   1
_chemical_formula_structural   Sn2GeTe3
_chemical_formula_sum   'Sn8 Ge4 Te12'
_cell_volume   772.40028515
_cell_formula_units_Z   4
loop_
 _symmetry_equiv_pos_site_id
 _symmetry_equiv_pos_as_xyz
  1  'x, y, z'
loop_
 _atom_site_type_symbol
 _atom_site_label
 _atom_site_symmetry_multiplicity
 _atom_site_fract_x
 _atom_site_fract_y
 _atom_site_fract_z
 _atom_site_occupancy
  Sn  Sn0  1  0.25000000  0.36458879  0.11667067  1
  Sn  Sn1  1  0.25000000  0.70019600  0.11686760  1
  Sn  Sn2  1  0.75000000  0.19801494  0.38558309  1
  Sn  Sn3  1  0.75000000  0.53260892  0.38601595  1
  Sn  Sn4  1  0.75000000  0.86648118  0.38335545  1
  Sn  Sn5  1  0.75000000  0.29994952  0.88274662  1
  Sn  Sn6  1  0.75000000  0.63404309  0.88269502  1
  Sn  Sn7  1  0.75000000  0.96759429  0.88366799  1
  Ge  Ge8  1  0.25000000  0.12774316  0.62672850  1
  Ge  Ge9  1  0.25000000  0.46083877  0.62653214  1
  Ge  Ge10  1  0.25000000  0.79436169  0.62627392  1
  Ge  Ge11  1  0.25000000  0.03613717  0.12868049  1
  Te  Te12  1  0.25000000  0.15989760  0.85011297  1
  Te  Te13  1  0.25000000  0.49396692  0.84940983  1
  Te  Te14  1  0.25000000  0.82757556  0.84939511  1
  Te  Te15  1  0.25000000  0.33863586  0.35789542  1
  Te  Te16  1  0.25000000  0.67331675  0.35887436  1
  Te  Te17  1  0.25000000  0.00799099  0.35259822  1
  Te  Te18  1  0.75000000  0.16252883  0.13973984  1
  Te  Te19  1  0.75000000  0.50509171  0.14003541  1
  Te  Te20  1  0.75000000  0.84182280  0.13827273  1
  Te  Te21  1  0.75000000  0.33553921  0.63972936  1
  Te  Te22  1  0.75000000  0.66884392  0.63935151  1
  Te  Te23  1  0.75000000  0.00223233  0.63876778  1
