# generated using pymatgen
data_SmZnAgP2
_symmetry_space_group_name_H-M   'P 1'
_cell_length_a   4.15202070
_cell_length_b   4.15202279
_cell_length_c   6.72944516
_cell_angle_alpha   89.99991926
_cell_angle_beta   89.99979455
_cell_angle_gamma   60.00103356
_symmetry_Int_Tables_number   1
_chemical_formula_structural   SmZnAgP2
_chemical_formula_sum   'Sm1 Zn1 Ag1 P2'
_cell_volume   100.46936376
_cell_formula_units_Z   1
loop_
 _symmetry_equiv_pos_site_id
 _symmetry_equiv_pos_as_xyz
  1  'x, y, z'
loop_
 _atom_site_type_symbol
 _atom_site_label
 _atom_site_symmetry_multiplicity
 _atom_site_fract_x
 _atom_site_fract_y
 _atom_site_fract_z
 _atom_site_occupancy
  Sm  Sm0  1  0.99999852  0.99999834  0.01385002  1
  Zn  Zn1  1  0.33332334  0.33332357  0.62769607  1
  Ag  Ag2  1  0.66667408  0.66667389  0.36376362  1
  P  P3  1  0.66666616  0.66666622  0.75168619  1
  P  P4  1  0.33333789  0.33333798  0.24300410  1
