# generated using pymatgen
data_Sr5CeNd3Cu4PbO18
_symmetry_space_group_name_H-M   'P 1'
_cell_length_a   5.47898638
_cell_length_b   5.47620924
_cell_length_c   15.42108485
_cell_angle_alpha   90.00000000
_cell_angle_beta   79.76732925
_cell_angle_gamma   90.00000000
_symmetry_Int_Tables_number   1
_chemical_formula_structural   Sr5CeNd3Cu4PbO18
_chemical_formula_sum   'Sr5 Ce1 Nd3 Cu4 Pb1 O18'
_cell_volume   455.33598440
_cell_formula_units_Z   1
loop_
 _symmetry_equiv_pos_site_id
 _symmetry_equiv_pos_as_xyz
  1  'x, y, z'
loop_
 _atom_site_type_symbol
 _atom_site_label
 _atom_site_symmetry_multiplicity
 _atom_site_fract_x
 _atom_site_fract_y
 _atom_site_fract_z
 _atom_site_occupancy
  Sr  Sr0  1  0.08782851  0.50000000  0.82434299  1
  Sr  Sr1  1  0.58781968  -0.00000000  0.82436064  1
  Sr  Sr2  1  0.41203180  -0.00000000  0.17593641  1
  Sr  Sr3  1  0.91274032  0.50000000  0.17451935  1
  Sr  Sr4  1  0.99996818  0.00000000  0.00006364  1
  Ce  Ce5  1  0.29086216  -0.00000000  0.41827567  1
  Nd  Nd6  1  0.70685731  0.00000000  0.58628538  1
  Nd  Nd7  1  0.20686522  0.50000000  0.58626957  1
  Nd  Nd8  1  0.79388079  0.50000000  0.41223843  1
  Cu  Cu9  1  0.14220565  -0.00000000  0.71558870  1
  Cu  Cu10  1  0.64590385  0.50000000  0.70819230  1
  Cu  Cu11  1  0.35342375  0.50000000  0.29315251  1
  Cu  Cu12  1  0.85711542  0.00000000  0.28576915  1
  Pb  Pb13  1  0.50001314  0.50000000  -0.00002627  1
  O  O14  1  0.07667055  0.00000000  0.84665890  1
  O  O15  1  0.57006413  0.50000000  0.85987175  1
  O  O16  1  0.42985753  0.50000000  0.14028493  1
  O  O17  1  0.92328921  -0.00000000  0.15342159  1
  O  O18  1  0.89728266  0.25334305  0.69885236  1
  O  O19  1  0.40386498  0.74665695  0.69885236  1
  O  O20  1  0.40386498  0.25334305  0.69885236  1
  O  O21  1  0.89728266  0.74665695  0.69885236  1
  O  O22  1  0.59278793  0.25063965  0.30257078  1
  O  O23  1  0.10464129  0.74936035  0.30257078  1
  O  O24  1  0.10464129  0.25063965  0.30257078  1
  O  O25  1  0.59278793  0.74936035  0.30257078  1
  O  O26  1  0.00682139  0.24445808  0.49716564  1
  O  O27  1  0.49601297  0.75554192  0.49716564  1
  O  O28  1  0.49601297  0.24445808  0.49716564  1
  O  O29  1  0.00682139  0.75554192  0.49716564  1
  O  O30  1  0.49998025  -0.00000000  0.00003950  1
  O  O31  1  0.99980013  0.50000000  0.00039975  1
