# generated using pymatgen
data_Sr4CeMn4CoO15
_symmetry_space_group_name_H-M   'P 1'
_cell_length_a   5.50515686
_cell_length_b   6.70989655
_cell_length_c   8.65869542
_cell_angle_alpha   104.88524630
_cell_angle_beta   108.53582777
_cell_angle_gamma   90.00000000
_symmetry_Int_Tables_number   1
_chemical_formula_structural   Sr4CeMn4CoO15
_chemical_formula_sum   'Sr4 Ce1 Mn4 Co1 O15'
_cell_volume   291.90928604
_cell_formula_units_Z   1
loop_
 _symmetry_equiv_pos_site_id
 _symmetry_equiv_pos_as_xyz
  1  'x, y, z'
loop_
 _atom_site_type_symbol
 _atom_site_label
 _atom_site_symmetry_multiplicity
 _atom_site_fract_x
 _atom_site_fract_y
 _atom_site_fract_z
 _atom_site_occupancy
  Sr  Sr0  1  0.40134224  0.09916716  0.80268448  1
  Sr  Sr1  1  -0.00036668  0.50139873  -0.00073336  1
  Sr  Sr2  1  0.60010055  0.89967727  0.20020109  1
  Sr  Sr3  1  0.19880138  0.30057981  0.39760275  1
  Ce  Ce4  1  0.80231885  0.70578832  0.60463771  1
  Mn  Mn5  1  0.59986014  0.39838956  0.19972027  1
  Mn  Mn6  1  0.19940031  0.80011391  0.39880062  1
  Mn  Mn7  1  0.79957850  0.19953462  0.59915700  1
  Mn  Mn8  1  0.39998085  0.60025812  0.79996169  1
  Co  Co9  1  0.00094200  0.00505701  0.00188400  1
  O  O10  1  0.29989845  0.69834574  0.59979690  1
  O  O11  1  0.09948698  0.88878885  0.19897396  1
  O  O12  1  0.70240335  0.30859881  0.40480670  1
  O  O13  1  0.89448634  0.08678907  0.78897268  1
  O  O14  1  0.50293361  0.51350436  0.00586721  1
  O  O15  1  0.60645720  0.41300277  0.69709131  1
  O  O16  1  0.41855050  0.59898033  0.31716383  1
  O  O17  1  0.99458344  0.98500322  0.50389297  1
  O  O18  1  0.18182287  0.79989502  0.88114712  1
  O  O19  1  0.79753157  0.20012301  0.09953792  1
  O  O20  1  0.69932426  0.79989502  0.88114712  1
  O  O21  1  0.50930953  0.98500322  0.50389297  1
  O  O22  1  0.09063411  0.41300277  0.69709131  1
  O  O23  1  0.30200635  0.20012301  0.09953792  1
  O  O24  1  0.89861333  0.59898033  0.31716383  1
