# generated using pymatgen
data_NdThUS5
_symmetry_space_group_name_H-M   'P 1'
_cell_length_a   7.47918876
_cell_length_b   8.03242547
_cell_length_c   12.05289751
_cell_angle_alpha   90.00000000
_cell_angle_beta   90.00000000
_cell_angle_gamma   90.00000000
_symmetry_Int_Tables_number   1
_chemical_formula_structural   NdThUS5
_chemical_formula_sum   'Nd4 Th4 U4 S20'
_cell_volume   724.09018769
_cell_formula_units_Z   4
loop_
 _symmetry_equiv_pos_site_id
 _symmetry_equiv_pos_as_xyz
  1  'x, y, z'
loop_
 _atom_site_type_symbol
 _atom_site_label
 _atom_site_symmetry_multiplicity
 _atom_site_fract_x
 _atom_site_fract_y
 _atom_site_fract_z
 _atom_site_occupancy
  Nd  Nd0  1  0.97774584  0.00196936  0.18107370  1
  Nd  Nd1  1  0.52225416  0.49803064  0.68107370  1
  Nd  Nd2  1  0.02225416  0.50196936  0.81892630  1
  Nd  Nd3  1  0.47774584  0.99803064  0.31892630  1
  Th  Th4  1  0.02356798  0.00112015  0.82450498  1
  Th  Th5  1  0.47643202  0.49887985  0.32450498  1
  Th  Th6  1  0.97643202  0.50112015  0.17549502  1
  Th  Th7  1  0.52356798  0.99887985  0.67549502  1
  U  U8  1  0.43038413  0.74806941  0.00530018  1
  U  U9  1  0.06961587  0.75193059  0.50530018  1
  U  U10  1  0.56961587  0.24806941  0.99469982  1
  U  U11  1  0.93038413  0.25193059  0.49469982  1
  S  S12  1  0.66360066  0.53815221  0.90262358  1
  S  S13  1  0.83639934  0.96184779  0.40262358  1
  S  S14  1  0.33639934  0.03815221  0.09737642  1
  S  S15  1  0.16360066  0.46184779  0.59737642  1
  S  S16  1  0.33615981  0.45898581  0.10176972  1
  S  S17  1  0.16384019  0.04101419  0.60176972  1
  S  S18  1  0.66384019  0.95898581  0.89823028  1
  S  S19  1  0.83615981  0.54101419  0.39823028  1
  S  S20  1  0.30251386  0.75623164  0.78509872  1
  S  S21  1  0.19748614  0.74376836  0.28509872  1
  S  S22  1  0.69748614  0.25623164  0.21490128  1
  S  S23  1  0.80251386  0.24376836  0.71490128  1
  S  S24  1  0.67097586  0.74167391  0.18654030  1
  S  S25  1  0.82902414  0.75832609  0.68654030  1
  S  S26  1  0.32902414  0.24167391  0.81345970  1
  S  S27  1  0.17097586  0.25832609  0.31345970  1
  S  S28  1  0.04088489  0.75065736  0.00036421  1
  S  S29  1  0.45911511  0.74934264  0.50036421  1
  S  S30  1  0.95911511  0.25065736  0.99963579  1
  S  S31  1  0.54088489  0.24934264  0.49963579  1
