# generated using pymatgen
data_NbAlFe
_symmetry_space_group_name_H-M   'P 1'
_cell_length_a   4.93317429
_cell_length_b   4.93652317
_cell_length_c   8.15953236
_cell_angle_alpha   90.00000000
_cell_angle_beta   90.00000000
_cell_angle_gamma   60.78674305
_symmetry_Int_Tables_number   1
_chemical_formula_structural   NbAlFe
_chemical_formula_sum   'Nb4 Al4 Fe4'
_cell_volume   173.43318934
_cell_formula_units_Z   4
loop_
 _symmetry_equiv_pos_site_id
 _symmetry_equiv_pos_as_xyz
  1  'x, y, z'
loop_
 _atom_site_type_symbol
 _atom_site_label
 _atom_site_symmetry_multiplicity
 _atom_site_fract_x
 _atom_site_fract_y
 _atom_site_fract_z
 _atom_site_occupancy
  Nb  Nb0  1  0.33507611  0.33501999  0.55401214  1
  Nb  Nb1  1  0.66646476  0.66666774  0.43060787  1
  Nb  Nb2  1  0.66646476  0.66666774  0.06939213  1
  Nb  Nb3  1  0.33507611  0.33501999  0.94598786  1
  Al  Al4  1  0.99350061  0.99295161  0.49169744  1
  Al  Al5  1  0.99350061  0.99295161  0.00830256  1
  Al  Al6  1  0.83370268  0.34659825  0.75000000  1
  Al  Al7  1  0.34541975  0.83336253  0.75000000  1
  Fe  Fe8  1  0.83501130  0.83645458  0.75000000  1
  Fe  Fe9  1  0.17243271  0.65276920  0.25000000  1
  Fe  Fe10  1  0.65231617  0.17194963  0.25000000  1
  Fe  Fe11  1  0.17103445  0.16958713  0.25000000  1
