# generated using pymatgen
data_Li4Nb3Cu3(SnO8)2
_symmetry_space_group_name_H-M   'P 1'
_cell_length_a   6.22416002
_cell_length_b   6.08652669
_cell_length_c   10.00304950
_cell_angle_alpha   90.00623501
_cell_angle_beta   87.37918340
_cell_angle_gamma   119.27639901
_symmetry_Int_Tables_number   1
_chemical_formula_structural   Li4Nb3Cu3(SnO8)2
_chemical_formula_sum   'Li4 Nb3 Cu3 Sn2 O16'
_cell_volume   330.09417704
_cell_formula_units_Z   1
loop_
 _symmetry_equiv_pos_site_id
 _symmetry_equiv_pos_as_xyz
  1  'x, y, z'
loop_
 _atom_site_type_symbol
 _atom_site_label
 _atom_site_symmetry_multiplicity
 _atom_site_fract_x
 _atom_site_fract_y
 _atom_site_fract_z
 _atom_site_occupancy
  Li  Li0  1  0.33949412  0.66979483  0.91328227  1
  Li  Li1  1  0.00351349  0.00186722  0.99754651  1
  Li  Li2  1  0.04594714  0.02287402  0.47831470  1
  Li  Li3  1  0.68632735  0.34319655  0.38709339  1
  Nb  Nb4  1  0.66050015  0.83025909  0.21936049  1
  Nb  Nb5  1  0.82029392  0.65812211  0.71295758  1
  Nb  Nb6  1  0.82016073  0.16232427  0.71273612  1
  Cu  Cu7  1  0.17100304  0.82879928  0.20849212  1
  Cu  Cu8  1  0.17106809  0.34224581  0.20851034  1
  Cu  Cu9  1  0.35327606  0.17646968  0.71758437  1
  Sn  Sn10  1  0.30350142  0.65174340  0.47784199  1
  Sn  Sn11  1  0.63475094  0.31731687  0.00063060  1
  O  O12  1  0.14269848  0.82147973  0.59614262  1
  O  O13  1  0.04493643  0.52249471  0.33347883  1
  O  O14  1  0.34731859  0.67373090  0.11161189  1
  O  O15  1  0.99864624  0.99927647  0.29547921  1
  O  O16  1  0.97951727  0.98985705  0.80846169  1
  O  O17  1  0.14270735  0.32122033  0.59617037  1
  O  O18  1  0.52068381  0.97529118  0.35806072  1
  O  O19  1  0.52045478  0.54518727  0.35797377  1
  O  O20  1  0.29805913  0.14901599  0.09469578  1
  O  O21  1  0.66606542  0.83303442  0.61012690  1
  O  O22  1  0.53730465  0.50049193  0.84665216  1
  O  O23  1  0.53738631  0.03679955  0.84667109  1
  O  O24  1  0.71100151  0.35556368  0.59697870  1
  O  O25  1  0.79376368  0.65525671  0.09455214  1
  O  O26  1  0.95581170  0.47797088  0.83179248  1
  O  O27  1  0.79381021  0.13861708  0.09464019  1
