# generated using pymatgen
data_Pr2Mn4Co13
_symmetry_space_group_name_H-M   'P 1'
_cell_length_a   6.42017196
_cell_length_b   6.42017196
_cell_length_c   6.42017230
_cell_angle_alpha   82.88037811
_cell_angle_beta   82.88037811
_cell_angle_gamma   82.88037159
_symmetry_Int_Tables_number   1
_chemical_formula_structural   Pr2Mn4Co13
_chemical_formula_sum   'Pr2 Mn4 Co13'
_cell_volume   258.97632822
_cell_formula_units_Z   1
loop_
 _symmetry_equiv_pos_site_id
 _symmetry_equiv_pos_as_xyz
  1  'x, y, z'
loop_
 _atom_site_type_symbol
 _atom_site_label
 _atom_site_symmetry_multiplicity
 _atom_site_fract_x
 _atom_site_fract_y
 _atom_site_fract_z
 _atom_site_occupancy
  Pr  Pr0  1  0.65907894  0.65907894  0.65907894  1
  Pr  Pr1  1  0.34234693  0.34234693  0.34234693  1
  Mn  Mn2  1  0.99566021  0.99566021  0.50692175  1
  Mn  Mn3  1  0.99566021  0.50692175  0.99566021  1
  Mn  Mn4  1  0.50692175  0.99566021  0.99566021  1
  Mn  Mn5  1  0.09404756  0.09404756  0.09404756  1
  Co  Co6  1  0.28427677  0.71523116  -0.00017043  1
  Co  Co7  1  0.71523116  -0.00017043  0.28427677  1
  Co  Co8  1  -0.00017043  0.28427677  0.71523116  1
  Co  Co9  1  0.28427677  -0.00017043  0.71523116  1
  Co  Co10  1  -0.00017043  0.71523116  0.28427677  1
  Co  Co11  1  0.71523116  0.28427677  -0.00017043  1
  Co  Co12  1  0.34237756  0.34237756  0.84275382  1
  Co  Co13  1  0.34237756  0.84275382  0.34237756  1
  Co  Co14  1  0.84275382  0.34237756  0.34237756  1
  Co  Co15  1  0.65792836  0.65792836  0.16099459  1
  Co  Co16  1  0.65792836  0.16099459  0.65792836  1
  Co  Co17  1  0.16099459  0.65792836  0.65792836  1
  Co  Co18  1  0.90324913  0.90324913  0.90324913  1
