# generated using pymatgen
data_NdIn7Cu5
_symmetry_space_group_name_H-M   'P 1'
_cell_length_a   5.63302362
_cell_length_b   7.25941525
_cell_length_c   7.25941525
_cell_angle_alpha   98.54750132
_cell_angle_beta   112.82889712
_cell_angle_gamma   67.17110288
_symmetry_Int_Tables_number   1
_chemical_formula_structural   NdIn7Cu5
_chemical_formula_sum   'Nd1 In7 Cu5'
_cell_volume   252.16940754
_cell_formula_units_Z   1
loop_
 _symmetry_equiv_pos_site_id
 _symmetry_equiv_pos_as_xyz
  1  'x, y, z'
loop_
 _atom_site_type_symbol
 _atom_site_label
 _atom_site_symmetry_multiplicity
 _atom_site_fract_x
 _atom_site_fract_y
 _atom_site_fract_z
 _atom_site_occupancy
  Nd  Nd0  1  0.99980894  0.00019106  0.99980894  1
  In  In1  1  0.65537609  0.34462391  0.65537609  1
  In  In2  1  0.33666781  0.66333219  0.33666781  1
  In  In3  1  0.98751515  0.35410610  0.32913639  1
  In  In4  1  0.98751515  0.67086361  0.64589390  1
  In  In5  1  0.27249367  0.22750633  0.77249367  1
  In  In6  1  0.51264817  0.78644383  0.81174018  1
  In  In7  1  0.51264817  0.18825982  0.21355617  1
  Cu  Cu8  1  0.49672342  0.99033393  0.49439612  1
  Cu  Cu9  1  0.00733877  0.99033393  0.49439612  1
  Cu  Cu10  1  0.49672342  0.50560388  0.00966607  1
  Cu  Cu11  1  0.00733877  0.50560388  0.00966607  1
  Cu  Cu12  1  0.72720247  0.77279753  0.22720247  1
