# generated using pymatgen
data_MgFe4NiO8
_symmetry_space_group_name_H-M   'P 1'
_cell_length_a   6.03470869
_cell_length_b   6.01971211
_cell_length_c   6.03470869
_cell_angle_alpha   90.00000000
_cell_angle_beta   60.00000000
_cell_angle_gamma   120.08244404
_symmetry_Int_Tables_number   1
_chemical_formula_structural   MgFe4NiO8
_chemical_formula_sum   'Mg1 Fe4 Ni1 O8'
_cell_volume   154.82141332
_cell_formula_units_Z   1
loop_
 _symmetry_equiv_pos_site_id
 _symmetry_equiv_pos_as_xyz
  1  'x, y, z'
loop_
 _atom_site_type_symbol
 _atom_site_label
 _atom_site_symmetry_multiplicity
 _atom_site_fract_x
 _atom_site_fract_y
 _atom_site_fract_z
 _atom_site_occupancy
  Mg  Mg0  1  0.74745833  0.87118749  0.87627084  1
  Fe  Fe1  1  0.49628613  0.50410171  0.50185694  1
  Fe  Fe2  1  0.00595864  0.50410171  0.99218442  1
  Fe  Fe3  1  0.00595864  0.50410171  0.50185694  1
  Fe  Fe4  1  0.25349076  0.13023613  0.12325462  1
  Ni  Ni5  1  0.49746192  0.99619288  0.50126904  1
  O  O6  1  0.98568683  0.72853025  0.25715658  1
  O  O7  1  0.99289592  0.26211187  0.25355204  1
  O  O8  1  0.51566391  0.26211187  0.73078405  1
  O  O9  1  0.51566391  0.26211187  0.25355204  1
  O  O10  1  0.01844180  0.27766270  0.74077910  1
  O  O11  1  0.01081586  0.73251661  0.74459207  1
  O  O12  1  0.47710867  0.73251661  0.27829926  1
  O  O13  1  0.47710867  0.73251661  0.74459207  1
