# generated using pymatgen
data_Nd4Sc3Fe25B2
_symmetry_space_group_name_H-M   'P 1'
_cell_length_a   8.90199272
_cell_length_b   8.90199272
_cell_length_c   12.24742127
_cell_angle_alpha   90.00000000
_cell_angle_beta   90.00000000
_cell_angle_gamma   89.79540050
_symmetry_Int_Tables_number   1
_chemical_formula_structural   Nd4Sc3Fe25B2
_chemical_formula_sum   'Nd8 Sc6 Fe50 B4'
_cell_volume   970.54652037
_cell_formula_units_Z   2
loop_
 _symmetry_equiv_pos_site_id
 _symmetry_equiv_pos_as_xyz
  1  'x, y, z'
loop_
 _atom_site_type_symbol
 _atom_site_label
 _atom_site_symmetry_multiplicity
 _atom_site_fract_x
 _atom_site_fract_y
 _atom_site_fract_z
 _atom_site_occupancy
  Nd  Nd0  1  0.23717106  0.76282894  0.49915746  1
  Nd  Nd1  1  0.76282894  0.23717106  0.49915746  1
  Nd  Nd2  1  0.26484479  0.26484479  0.00603298  1
  Nd  Nd3  1  0.73515521  0.73515521  0.00603298  1
  Nd  Nd4  1  0.64333775  0.64333775  0.49263242  1
  Nd  Nd5  1  0.35666225  0.35666225  0.49263242  1
  Nd  Nd6  1  0.85658193  0.14341807  0.00120190  1
  Nd  Nd7  1  0.14341807  0.85658193  0.00120190  1
  Sc  Sc8  1  0.18314552  0.81685448  0.25430850  1
  Sc  Sc9  1  0.81685448  0.18314552  0.25430850  1
  Sc  Sc10  1  0.31783967  0.31783967  0.75377153  1
  Sc  Sc11  1  0.68216033  0.68216033  0.75377153  1
  Sc  Sc12  1  0.81762350  0.18237650  0.74594095  1
  Sc  Sc13  1  0.18237650  0.81762350  0.74594095  1
  Fe  Fe14  1  0.40331315  0.59668685  0.29274997  1
  Fe  Fe15  1  0.59668685  0.40331315  0.29274997  1
  Fe  Fe16  1  0.10168870  0.10168870  0.79382711  1
  Fe  Fe17  1  0.89831130  0.89831130  0.79382711  1
  Fe  Fe18  1  0.60188184  0.39811816  0.70706343  1
  Fe  Fe19  1  0.39811816  0.60188184  0.70706343  1
  Fe  Fe20  1  0.89561498  0.89561498  0.20719608  1
  Fe  Fe21  1  0.10438502  0.10438502  0.20719608  1
  Fe  Fe22  1  0.14061082  0.53020114  0.32392991  1
  Fe  Fe23  1  0.85938918  0.46979886  0.32392991  1
  Fe  Fe24  1  0.36515896  0.03475793  0.82519600  1
  Fe  Fe25  1  0.63484104  0.96524207  0.82519600  1
  Fe  Fe26  1  0.86542557  0.46528848  0.67382632  1
  Fe  Fe27  1  0.13457443  0.53471152  0.67382632  1
  Fe  Fe28  1  0.63532380  0.96146710  0.17710400  1
  Fe  Fe29  1  0.36467620  0.03853290  0.17710400  1
  Fe  Fe30  1  0.53020114  0.14061082  0.32392991  1
  Fe  Fe31  1  0.46979886  0.85938918  0.32392991  1
  Fe  Fe32  1  0.03475793  0.36515896  0.82519600  1
  Fe  Fe33  1  0.96524207  0.63484104  0.82519600  1
  Fe  Fe34  1  0.46528848  0.86542557  0.67382632  1
  Fe  Fe35  1  0.53471152  0.13457443  0.67382632  1
  Fe  Fe36  1  0.96146710  0.63532380  0.17710400  1
  Fe  Fe37  1  0.03853290  0.36467620  0.17710400  1
  Fe  Fe38  1  0.93134498  0.72422335  0.37369747  1
  Fe  Fe39  1  0.06865502  0.27577665  0.37369747  1
  Fe  Fe40  1  0.56543586  0.22491371  0.87639681  1
  Fe  Fe41  1  0.43456414  0.77508629  0.87639681  1
  Fe  Fe42  1  0.06598537  0.27518080  0.62377719  1
  Fe  Fe43  1  0.93401463  0.72481920  0.62377719  1
  Fe  Fe44  1  0.43796937  0.77405675  0.12642306  1
  Fe  Fe45  1  0.56203063  0.22594325  0.12642306  1
  Fe  Fe46  1  0.72422335  0.93134498  0.37369747  1
  Fe  Fe47  1  0.27577665  0.06865502  0.37369747  1
  Fe  Fe48  1  0.22491371  0.56543586  0.87639681  1
  Fe  Fe49  1  0.77508629  0.43456414  0.87639681  1
  Fe  Fe50  1  0.27518080  0.06598537  0.62377719  1
  Fe  Fe51  1  0.72481920  0.93401463  0.62377719  1
  Fe  Fe52  1  0.77405675  0.43796937  0.12642306  1
  Fe  Fe53  1  0.22594325  0.56203063  0.12642306  1
  Fe  Fe54  1  -0.00000000  0.50000000  0.49769436  1
  Fe  Fe55  1  0.50000000  0.00000000  0.00130138  1
  Fe  Fe56  1  0.50000000  0.00000000  0.49769436  1
  Fe  Fe57  1  -0.00000000  0.50000000  0.00130138  1
  Fe  Fe58  1  0.68399131  0.68399131  0.24549087  1
  Fe  Fe59  1  0.31600869  0.31600869  0.24549087  1
  Fe  Fe60  1  0.50000000  0.50000000  0.11220103  1
  Fe  Fe61  1  -0.00000000  0.00000000  0.61200826  1
  Fe  Fe62  1  0.50000000  0.50000000  0.88916729  1
  Fe  Fe63  1  -0.00000000  0.00000000  0.38735740  1
  B  B64  1  0.87580437  0.87580437  0.49951393  1
  B  B65  1  0.12419563  0.12419563  0.49951393  1
  B  B66  1  0.62536872  0.37463128  0.00104860  1
  B  B67  1  0.37463128  0.62536872  0.00104860  1
