# generated using pymatgen
data_NaCa2Ta3O10
_symmetry_space_group_name_H-M   'P 1'
_cell_length_a   3.94639402
_cell_length_b   3.94639402
_cell_length_c   14.95346538
_cell_angle_alpha   82.41737114
_cell_angle_beta   82.41737114
_cell_angle_gamma   90.00000000
_symmetry_Int_Tables_number   1
_chemical_formula_structural   NaCa2Ta3O10
_chemical_formula_sum   'Na1 Ca2 Ta3 O10'
_cell_volume   228.79463570
_cell_formula_units_Z   1
loop_
 _symmetry_equiv_pos_site_id
 _symmetry_equiv_pos_as_xyz
  1  'x, y, z'
loop_
 _atom_site_type_symbol
 _atom_site_label
 _atom_site_symmetry_multiplicity
 _atom_site_fract_x
 _atom_site_fract_y
 _atom_site_fract_z
 _atom_site_occupancy
  Na  Na0  1  0.75000000  0.25000000  0.50000000  1
  Ca  Ca1  1  0.42175595  0.42175595  0.15648809  1
  Ca  Ca2  1  0.57824405  0.57824405  0.84351191  1
  Ta  Ta3  1  0.14557804  0.14557804  0.70884393  1
  Ta  Ta4  1  0.85442196  0.85442196  0.29115607  1
  Ta  Ta5  1  -0.00000000  -0.00000000  0.00000000  1
  O  O6  1  0.20680241  0.20680241  0.58639517  1
  O  O7  1  0.79319759  0.79319759  0.41360483  1
  O  O8  1  0.06708091  0.06708091  0.86583817  1
  O  O9  1  0.93291909  0.93291909  0.13416183  1
  O  O10  1  0.63177779  0.13177779  0.73644442  1
  O  O11  1  0.13107927  0.63107927  0.73784145  1
  O  O12  1  0.36892073  0.86892073  0.26215855  1
  O  O13  1  0.86822221  0.36822221  0.26355558  1
  O  O14  1  0.50004810  0.00004810  0.99990380  1
  O  O15  1  0.99995190  0.49995190  0.00009620  1
