# generated using pymatgen
data_Mo2RuSe4
_symmetry_space_group_name_H-M   'P 1'
_cell_length_a   6.75043019
_cell_length_b   6.76142432
_cell_length_c   6.73517109
_cell_angle_alpha   92.99855617
_cell_angle_beta   93.72270242
_cell_angle_gamma   92.98532873
_symmetry_Int_Tables_number   1
_chemical_formula_structural   Mo2RuSe4
_chemical_formula_sum   'Mo4 Ru2 Se8'
_cell_volume   305.86648374
_cell_formula_units_Z   2
loop_
 _symmetry_equiv_pos_site_id
 _symmetry_equiv_pos_as_xyz
  1  'x, y, z'
loop_
 _atom_site_type_symbol
 _atom_site_label
 _atom_site_symmetry_multiplicity
 _atom_site_fract_x
 _atom_site_fract_y
 _atom_site_fract_z
 _atom_site_occupancy
  Mo  Mo0  1  0.58631717  0.45177996  0.76781946  1
  Mo  Mo1  1  0.54776467  0.23388956  0.41537693  1
  Mo  Mo2  1  0.23553063  0.41059024  0.54553711  1
  Mo  Mo3  1  0.41361588  0.54491306  0.23461410  1
  Ru  Ru4  1  0.45252691  0.76666999  0.58526779  1
  Ru  Ru5  1  0.76940805  0.58869785  0.45358225  1
  Se  Se6  1  0.78084879  0.78411010  0.77656058  1
  Se  Se7  1  0.21269441  0.21394776  0.21075490  1
  Se  Se8  1  0.26671242  0.62918826  0.86938492  1
  Se  Se9  1  0.62489270  0.86955072  0.27602342  1
  Se  Se10  1  0.87486551  0.27607851  0.62512492  1
  Se  Se11  1  0.73532801  0.37095271  0.13132005  1
  Se  Se12  1  0.37174168  0.12234017  0.73720507  1
  Se  Se13  1  0.12775317  0.73729110  0.37142852  1
