# generated using pymatgen
data_Nb12PbSe16
_symmetry_space_group_name_H-M   'P 1'
_cell_length_a   7.08173469
_cell_length_b   10.66414664
_cell_length_c   10.05810056
_cell_angle_alpha   118.15960542
_cell_angle_beta   90.00831501
_cell_angle_gamma   70.63550029
_symmetry_Int_Tables_number   1
_chemical_formula_structural   Nb12PbSe16
_chemical_formula_sum   'Nb12 Pb1 Se16'
_cell_volume   620.54026831
_cell_formula_units_Z   1
loop_
 _symmetry_equiv_pos_site_id
 _symmetry_equiv_pos_as_xyz
  1  'x, y, z'
loop_
 _atom_site_type_symbol
 _atom_site_label
 _atom_site_symmetry_multiplicity
 _atom_site_fract_x
 _atom_site_fract_y
 _atom_site_fract_z
 _atom_site_occupancy
  Nb  Nb0  1  0.17867561  0.89329946  0.38034832  1
  Nb  Nb1  1  0.67871234  0.89290440  0.37983080  1
  Nb  Nb2  1  0.38090941  0.48719832  0.10681032  1
  Nb  Nb3  1  0.88299862  0.48713600  0.10967011  1
  Nb  Nb4  1  0.31718485  0.62070749  0.51357715  1
  Nb  Nb5  1  0.81419861  0.61866111  0.51247791  1
  Nb  Nb6  1  0.82128766  0.10709560  0.62016920  1
  Nb  Nb7  1  0.32132439  0.10670054  0.61965168  1
  Nb  Nb8  1  0.61700138  0.51286400  0.89032989  1
  Nb  Nb9  1  0.11909059  0.51280168  0.89318968  1
  Nb  Nb10  1  0.68580139  0.38133889  0.48752209  1
  Nb  Nb11  1  0.18281515  0.37929251  0.48642285  1
  Pb  Pb12  1  0.75000000  -0.00000000  -0.00000000  1
  Se  Se13  1  0.76263220  0.72153480  0.05730529  1
  Se  Se14  1  0.26492014  0.72046427  0.05825524  1
  Se  Se15  1  0.95602821  0.33816538  0.27870579  1
  Se  Se16  1  0.45497627  0.33594394  0.27853734  1
  Se  Se17  1  0.65202784  0.94231088  0.66412054  1
  Se  Se18  1  0.15476260  0.94069170  0.66134727  1
  Se  Se19  1  0.23507986  0.27953573  0.94174476  1
  Se  Se20  1  0.73736780  0.27846520  0.94269471  1
  Se  Se21  1  0.04502373  0.66405606  0.72146266  1
  Se  Se22  1  0.54397179  0.66183462  0.72129421  1
  Se  Se23  1  0.34523740  0.05930830  0.33865273  1
  Se  Se24  1  0.84797216  0.05768912  0.33587946  1
  Se  Se25  1  0.95852047  0.33380781  0.66779539  1
  Se  Se26  1  0.45784897  0.33358405  0.66635973  1
  Se  Se27  1  0.04215103  0.66641595  0.33364027  1
  Se  Se28  1  0.54147953  0.66619219  0.33220461  1
