# generated using pymatgen
data_MnCo4Cu10(SnS4)5
_symmetry_space_group_name_H-M   'P 1'
_cell_length_a   5.40467637
_cell_length_b   5.40467637
_cell_length_c   27.36862139
_cell_angle_alpha   84.33346338
_cell_angle_beta   84.33346338
_cell_angle_gamma   90.00000000
_symmetry_Int_Tables_number   1
_chemical_formula_structural   MnCo4Cu10(SnS4)5
_chemical_formula_sum   'Mn1 Co4 Cu10 Sn5 S20'
_cell_volume   791.61937574
_cell_formula_units_Z   1
loop_
 _symmetry_equiv_pos_site_id
 _symmetry_equiv_pos_as_xyz
  1  'x, y, z'
loop_
 _atom_site_type_symbol
 _atom_site_label
 _atom_site_symmetry_multiplicity
 _atom_site_fract_x
 _atom_site_fract_y
 _atom_site_fract_z
 _atom_site_occupancy
  Mn  Mn0  1  0.45000000  0.95000000  0.10000000  1
  Co  Co1  1  0.84999935  0.34999935  0.30000129  1
  Co  Co2  1  0.25000005  0.75000005  0.49999990  1
  Co  Co3  1  0.64999995  0.14999995  0.70000010  1
  Co  Co4  1  0.05000065  0.55000065  0.89999871  1
  Cu  Cu5  1  0.95000000  0.45000000  0.10000000  1
  Cu  Cu6  1  0.34995746  0.84995746  0.30008508  1
  Cu  Cu7  1  0.74999786  0.24999786  0.50000429  1
  Cu  Cu8  1  0.15000214  0.65000214  0.69999571  1
  Cu  Cu9  1  0.55004254  0.05004254  0.89991492  1
  Cu  Cu10  1  0.00028088  0.00028088  0.99943825  1
  Cu  Cu11  1  0.39971912  0.39971912  0.20056175  1
  Cu  Cu12  1  0.80000234  0.80000234  0.39999533  1
  Cu  Cu13  1  0.20000000  0.20000000  0.60000000  1
  Cu  Cu14  1  0.59999766  0.59999766  0.80000467  1
  Sn  Sn15  1  0.50048817  0.50048817  0.99902365  1
  Sn  Sn16  1  0.89951183  0.89951183  0.20097635  1
  Sn  Sn17  1  0.29998878  0.29998878  0.40002244  1
  Sn  Sn18  1  0.70000000  0.70000000  0.60000000  1
  Sn  Sn19  1  0.10001122  0.10001122  0.79997756  1
  S  S20  1  0.18302620  0.19521032  0.14871538  1
  S  S21  1  0.59438819  0.58664792  0.34652953  1
  S  S22  1  0.99447096  0.98678096  0.54651792  1
  S  S23  1  0.39448413  0.38679338  0.74650918  1
  S  S24  1  0.79356131  0.78703099  0.94630634  1
  S  S25  1  0.66825842  0.65607430  0.14871538  1
  S  S26  1  0.05908227  0.06682254  0.34652953  1
  S  S27  1  0.45901112  0.46670112  0.54651792  1
  S  S28  1  0.85900669  0.86669744  0.74650918  1
  S  S29  1  0.26013236  0.26666267  0.94630634  1
  S  S30  1  0.20478968  0.73174158  0.05128462  1
  S  S31  1  0.61296901  0.13986764  0.25369366  1
  S  S32  1  0.01320662  0.54099331  0.45349082  1
  S  S33  1  0.41321904  0.94098888  0.65348208  1
  S  S34  1  0.81335208  0.34091773  0.85347047  1
  S  S35  1  0.74392570  0.21697380  0.05128462  1
  S  S36  1  0.13333733  0.60643869  0.25369366  1
  S  S37  1  0.53330256  0.00551587  0.45349082  1
  S  S38  1  0.93329888  0.40552904  0.65348208  1
  S  S39  1  0.33317746  0.80561181  0.85347047  1
