# generated using pymatgen
data_LuZnFeO4
_symmetry_space_group_name_H-M   'P 1'
_cell_length_a   3.42880536
_cell_length_b   3.42880502
_cell_length_c   8.83175158
_cell_angle_alpha   78.80678826
_cell_angle_beta   101.19321299
_cell_angle_gamma   120.00000750
_symmetry_Int_Tables_number   1
_chemical_formula_structural   LuZnFeO4
_chemical_formula_sum   'Lu1 Zn1 Fe1 O4'
_cell_volume   87.63335509
_cell_formula_units_Z   1
loop_
 _symmetry_equiv_pos_site_id
 _symmetry_equiv_pos_as_xyz
  1  'x, y, z'
loop_
 _atom_site_type_symbol
 _atom_site_label
 _atom_site_symmetry_multiplicity
 _atom_site_fract_x
 _atom_site_fract_y
 _atom_site_fract_z
 _atom_site_occupancy
  Lu  Lu0  1  0.99696467  0.00303533  0.99089400  1
  Zn  Zn1  1  0.78075663  0.21924337  0.34226990  1
  Fe  Fe2  1  0.21334952  0.78665048  0.64004855  1
  O  O3  1  0.87999099  0.12000901  0.63997297  1
  O  O4  1  0.13497009  0.86502991  0.40491026  1
  O  O5  1  0.70378818  0.29621182  0.11136454  1
  O  O6  1  0.29017993  0.70982007  0.87053979  1
