# generated using pymatgen
data_Mn45Si11C8
_symmetry_space_group_name_H-M   'P 1'
_cell_length_a   6.35140085
_cell_length_b   6.37354257
_cell_length_c   19.42548259
_cell_angle_alpha   94.80344226
_cell_angle_beta   98.75063992
_cell_angle_gamma   59.65352541
_symmetry_Int_Tables_number   1
_chemical_formula_structural   Mn45Si11C8
_chemical_formula_sum   'Mn45 Si11 C8'
_cell_volume   670.69792599
_cell_formula_units_Z   1
loop_
 _symmetry_equiv_pos_site_id
 _symmetry_equiv_pos_as_xyz
  1  'x, y, z'
loop_
 _atom_site_type_symbol
 _atom_site_label
 _atom_site_symmetry_multiplicity
 _atom_site_fract_x
 _atom_site_fract_y
 _atom_site_fract_z
 _atom_site_occupancy
  Mn  Mn0  1  0.94376699  0.00649166  0.06505472  1
  Mn  Mn1  1  0.44774690  0.00718162  0.56638176  1
  Mn  Mn2  1  0.51040769  0.08077237  0.02333783  1
  Mn  Mn3  1  0.01225934  0.07893884  0.52422826  1
  Mn  Mn4  1  0.40849565  0.80076277  0.09738940  1
  Mn  Mn5  1  0.90419260  0.79792669  0.59875359  1
  Mn  Mn6  1  0.51527560  0.16050208  0.35377988  1
  Mn  Mn7  1  0.01270397  0.16233335  0.85281580  1
  Mn  Mn8  1  0.08255734  0.23525160  0.31250677  1
  Mn  Mn9  1  0.57900531  0.23522166  0.81155853  1
  Mn  Mn10  1  0.97363724  0.96581325  0.38955906  1
  Mn  Mn11  1  0.47430677  0.96645956  0.88937867  1
  Mn  Mn12  1  0.81236378  0.00178015  0.26105587  1
  Mn  Mn13  1  0.31338965  0.00445528  0.75992031  1
  Mn  Mn14  1  0.84727344  0.63398346  0.07556035  1
  Mn  Mn15  1  0.34631390  0.63464716  0.57554802  1
  Mn  Mn16  1  0.17989761  0.60740181  0.30204363  1
  Mn  Mn17  1  0.67973802  0.60712908  0.80231213  1
  Mn  Mn18  1  0.21277334  0.23923970  0.11613359  1
  Mn  Mn19  1  0.71151070  0.23696960  0.61760698  1
  Mn  Mn20  1  0.16331513  0.68487401  0.17369643  1
  Mn  Mn21  1  0.66154489  0.68877759  0.67394513  1
  Mn  Mn22  1  0.38006209  0.72307026  0.46553131  1
  Mn  Mn23  1  0.87891088  0.72201683  0.96451355  1
  Mn  Mn24  1  0.73040085  0.82940400  0.45983142  1
  Mn  Mn25  1  0.23115616  0.82918972  0.95918695  1
  Mn  Mn26  1  0.79698165  0.41400552  0.41845518  1
  Mn  Mn27  1  0.29788931  0.41469698  0.91805792  1
  Mn  Mn28  1  0.86254990  0.55676724  0.20393411  1
  Mn  Mn29  1  0.36141811  0.55586819  0.70361148  1
  Mn  Mn30  1  0.57076765  0.36485117  0.14848695  1
  Mn  Mn31  1  0.08029423  0.35540258  0.64853028  1
  Mn  Mn32  1  0.14749859  0.52136634  0.41303591  1
  Mn  Mn33  1  0.64592112  0.52052994  0.91198710  1
  Mn  Mn34  1  0.62291337  0.42891806  0.02499455  1
  Mn  Mn35  1  0.11953355  0.43117000  0.52564478  1
  Mn  Mn36  1  0.45487793  0.87697180  0.22919137  1
  Mn  Mn37  1  0.94301633  0.88818790  0.72924446  1
  Mn  Mn38  1  0.40434232  0.81273337  0.35260103  1
  Mn  Mn39  1  0.90677466  0.81097390  0.85231112  1
  Mn  Mn40  1  0.61845676  0.43992526  0.28058848  1
  Mn  Mn41  1  0.12249089  0.44185301  0.78005071  1
  Mn  Mn42  1  0.01237023  0.12159474  0.18873733  1
  Mn  Mn43  1  0.55167129  0.27809223  0.48730658  1
  Mn  Mn44  1  0.05295141  0.27908406  0.98675731  1
  Si  Si45  1  0.79114610  0.70480225  0.32876719  1
  Si  Si46  1  0.28947587  0.71014289  0.82729293  1
  Si  Si47  1  0.26378847  0.12189275  0.43950773  1
  Si  Si48  1  0.76368489  0.12127104  0.93834579  1
  Si  Si49  1  0.34383677  0.28147634  0.23053658  1
  Si  Si50  1  0.85278626  0.28576833  0.73014830  1
  Si  Si51  1  0.23524750  0.53679835  0.04882336  1
  Si  Si52  1  0.73635449  0.53179163  0.55023272  1
  Si  Si53  1  0.68156541  0.96118074  0.14660331  1
  Si  Si54  1  0.17069240  0.95808176  0.64717602  1
  Si  Si55  1  0.51151755  0.12242824  0.68928940  1
  C  C56  1  0.58022795  0.74270102  0.99457865  1
  C  C57  1  0.07923417  0.74335005  0.49527384  1
  C  C58  1  0.17079091  0.88939793  0.26660204  1
  C  C59  1  0.67047764  0.88857669  0.76764918  1
  C  C60  1  0.85463289  0.35277510  0.11170139  1
  C  C61  1  0.35382153  0.35459521  0.61037352  1
  C  C62  1  0.44867659  0.49736736  0.38331206  1
  C  C63  1  0.94911744  0.49681596  0.88262941  1
