# generated using pymatgen
data_Cr3Sb3(TeO8)2
_symmetry_space_group_name_H-M   'P 1'
_cell_length_a   6.15411400
_cell_length_b   6.19042684
_cell_length_c   9.96441414
_cell_angle_alpha   90.00291913
_cell_angle_beta   89.98198162
_cell_angle_gamma   120.19884845
_symmetry_Int_Tables_number   1
_chemical_formula_structural   Cr3Sb3(TeO8)2
_chemical_formula_sum   'Cr3 Sb3 Te2 O16'
_cell_volume   328.09137097
_cell_formula_units_Z   1
loop_
 _symmetry_equiv_pos_site_id
 _symmetry_equiv_pos_as_xyz
  1  'x, y, z'
loop_
 _atom_site_type_symbol
 _atom_site_label
 _atom_site_symmetry_multiplicity
 _atom_site_fract_x
 _atom_site_fract_y
 _atom_site_fract_z
 _atom_site_occupancy
  Cr  Cr0  1  0.16881838  0.83206356  0.21148801  1
  Cr  Cr1  1  0.16881591  0.33672096  0.21145577  1
  Cr  Cr2  1  0.33843611  0.16923445  0.71091111  1
  Sb  Sb3  1  0.66974922  0.83488073  0.21276429  1
  Sb  Sb4  1  0.83846810  0.16956724  0.71401389  1
  Sb  Sb5  1  0.83846414  0.66892872  0.71401281  1
  Te  Te6  1  0.30963151  0.65482789  0.47262144  1
  Te  Te7  1  0.64260289  0.32130408  0.00090873  1
  O  O8  1  0.15135102  0.84204430  0.60606730  1
  O  O9  1  0.04224133  0.52112231  0.33127682  1
  O  O10  1  0.33950918  0.66975861  0.11352116  1
  O  O11  1  0.00229512  0.00116234  0.30580692  1
  O  O12  1  0.00560141  0.00283192  0.81693098  1
  O  O13  1  0.15137116  0.30934915  0.60607532  1
  O  O14  1  0.47838208  0.95607070  0.33392415  1
  O  O15  1  0.47837461  0.52233669  0.33392997  1
  O  O16  1  0.32625259  0.16312660  0.10497674  1
  O  O17  1  0.68691677  0.84345190  0.61140660  1
  O  O18  1  0.52489256  0.48226173  0.82694062  1
  O  O19  1  0.52486917  0.04264128  0.82692278  1
  O  O20  1  0.67189362  0.33593919  0.60713600  1
  O  O21  1  0.83191195  0.67358394  0.10900052  1
  O  O22  1  0.97723626  0.48865475  0.82463405  1
  O  O23  1  0.83191491  0.15833595  0.10899501  1
