# generated using pymatgen
data_LiTi4O8
_symmetry_space_group_name_H-M   'P 1'
_cell_length_a   3.82730115
_cell_length_b   6.49341916
_cell_length_c   6.60498935
_cell_angle_alpha   107.04892523
_cell_angle_beta   73.15832548
_cell_angle_gamma   90.00000000
_symmetry_Int_Tables_number   1
_chemical_formula_structural   LiTi4O8
_chemical_formula_sum   'Li1 Ti4 O8'
_cell_volume   149.55570050
_cell_formula_units_Z   1
loop_
 _symmetry_equiv_pos_site_id
 _symmetry_equiv_pos_as_xyz
  1  'x, y, z'
loop_
 _atom_site_type_symbol
 _atom_site_label
 _atom_site_symmetry_multiplicity
 _atom_site_fract_x
 _atom_site_fract_y
 _atom_site_fract_z
 _atom_site_occupancy
  Li  Li0  1  0.32443864  -0.00000000  -0.00000000  1
  Ti  Ti1  1  0.30444929  0.29257951  0.40610561  1
  Ti  Ti2  1  0.71055489  0.70742049  0.59389439  1
  Ti  Ti3  1  0.41043581  0.68913323  0.20228727  1
  Ti  Ti4  1  0.61272308  0.31086677  0.79771273  1
  O  O5  1  0.13404771  0.31183591  0.73130553  1
  O  O6  1  0.86535324  0.68816409  0.26869447  1
  O  O7  1  0.35483860  0.00140189  0.28191388  1
  O  O8  1  0.63675248  0.99859811  0.71808612  1
  O  O9  1  0.23903319  0.65143069  0.52724747  1
  O  O10  1  0.76628067  0.34856931  0.47275253  1
  O  O11  1  0.43047830  0.34374413  0.11013580  1
  O  O12  1  0.54061409  0.65625587  0.88986420  1
