# generated using pymatgen
data_Li(NiO2)3
_symmetry_space_group_name_H-M   'P 1'
_cell_length_a   4.86253366
_cell_length_b   4.86253366
_cell_length_c   5.14601014
_cell_angle_alpha   80.23543471
_cell_angle_beta   99.76456529
_cell_angle_gamma   61.27434397
_symmetry_Int_Tables_number   1
_chemical_formula_structural   Li(NiO2)3
_chemical_formula_sum   'Li1 Ni3 O6'
_cell_volume   100.61672059
_cell_formula_units_Z   1
loop_
 _symmetry_equiv_pos_site_id
 _symmetry_equiv_pos_as_xyz
  1  'x, y, z'
loop_
 _atom_site_type_symbol
 _atom_site_label
 _atom_site_symmetry_multiplicity
 _atom_site_fract_x
 _atom_site_fract_y
 _atom_site_fract_z
 _atom_site_occupancy
  Li  Li0  1  0.16666700  0.16666700  0.50000000  1
  Ni  Ni1  1  0.66666700  0.66666700  0.00000000  1
  Ni  Ni2  1  0.33250922  0.33250922  0.00000000  1
  Ni  Ni3  1  0.00082378  0.00082378  0.00000000  1
  O  O4  1  0.74341488  0.25866988  0.19908062  1
  O  O5  1  0.37512533  0.95820867  0.21240163  1
  O  O6  1  0.07466312  0.58991812  0.19908062  1
  O  O7  1  0.95820867  0.37512533  0.78759837  1
  O  O8  1  0.58991812  0.07466312  0.80091938  1
  O  O9  1  0.25866988  0.74341488  0.80091938  1
