# generated using pymatgen
data_LiLa4CuO8
_symmetry_space_group_name_H-M   'P 1'
_cell_length_a   3.81620030
_cell_length_b   7.03221070
_cell_length_c   7.56149625
_cell_angle_alpha   105.56751414
_cell_angle_beta   90.00000000
_cell_angle_gamma   74.25614385
_symmetry_Int_Tables_number   1
_chemical_formula_structural   LiLa4CuO8
_chemical_formula_sum   'Li1 La4 Cu1 O8'
_cell_volume   187.56383919
_cell_formula_units_Z   1
loop_
 _symmetry_equiv_pos_site_id
 _symmetry_equiv_pos_as_xyz
  1  'x, y, z'
loop_
 _atom_site_type_symbol
 _atom_site_label
 _atom_site_symmetry_multiplicity
 _atom_site_fract_x
 _atom_site_fract_y
 _atom_site_fract_z
 _atom_site_occupancy
  Li  Li0  1  0.00000000  -0.00000000  0.00000000  1
  La  La1  1  0.36150693  0.27698615  0.30979706  1
  La  La2  1  0.36429024  0.27141952  0.82681467  1
  La  La3  1  0.63849307  0.72301385  0.69020294  1
  La  La4  1  0.63570976  0.72858048  0.17318533  1
  Cu  Cu5  1  0.00000000  -0.00000000  0.50000000  1
  O  O6  1  0.99893302  0.00213395  0.25932436  1
  O  O7  1  0.00106698  0.99786605  0.74067564  1
  O  O8  1  0.50000000  -0.00000000  0.00000000  1
  O  O9  1  0.50000000  -0.00000000  0.50000000  1
  O  O10  1  0.18063318  0.63873364  0.40845330  1
  O  O11  1  0.18162713  0.63674573  0.91010182  1
  O  O12  1  0.81936682  0.36126636  0.59154670  1
  O  O13  1  0.81837287  0.36325427  0.08989818  1
