# generated using pymatgen
data_Nb17O42F
_symmetry_space_group_name_H-M   'P 1'
_cell_length_a   3.85732711
_cell_length_b   21.70968425
_cell_length_c   23.83512296
_cell_angle_alpha   116.84651946
_cell_angle_beta   90.00000000
_cell_angle_gamma   90.00000000
_symmetry_Int_Tables_number   1
_chemical_formula_structural   Nb17O42F
_chemical_formula_sum   'Nb34 O84 F2'
_cell_volume   1780.85704700
_cell_formula_units_Z   2
loop_
 _symmetry_equiv_pos_site_id
 _symmetry_equiv_pos_as_xyz
  1  'x, y, z'
loop_
 _atom_site_type_symbol
 _atom_site_label
 _atom_site_symmetry_multiplicity
 _atom_site_fract_x
 _atom_site_fract_y
 _atom_site_fract_z
 _atom_site_occupancy
  Nb  Nb0  1  0.99998740  0.47670908  0.41255397  1
  Nb  Nb1  1  0.99998740  0.52329092  0.58744603  1
  Nb  Nb2  1  0.00000959  0.66984042  0.45155174  1
  Nb  Nb3  1  0.00000959  0.33015958  0.54844826  1
  Nb  Nb4  1  0.99997578  0.55647820  0.07657843  1
  Nb  Nb5  1  0.99997578  0.44352180  0.92342157  1
  Nb  Nb6  1  0.99911772  0.22442205  0.18854212  1
  Nb  Nb7  1  0.99911772  0.77557795  0.81145788  1
  Nb  Nb8  1  0.99982122  0.35450580  0.02895705  1
  Nb  Nb9  1  0.99982122  0.64549420  0.97104295  1
  Nb  Nb10  1  0.50002137  0.94224836  0.32048230  1
  Nb  Nb11  1  0.50002137  0.05775164  0.67951770  1
  Nb  Nb12  1  0.49994448  0.69906709  0.10502401  1
  Nb  Nb13  1  0.49994448  0.30093291  0.89497599  1
  Nb  Nb14  1  0.49535411  0.08332193  0.16833268  1
  Nb  Nb15  1  0.49535411  0.91667807  0.83166732  1
  Nb  Nb16  1  0.50000182  0.80894148  0.47033385  1
  Nb  Nb17  1  0.50000182  0.19105852  0.52966615  1
  Nb  Nb18  1  0.50001035  0.75102962  0.28957215  1
  Nb  Nb19  1  0.50001035  0.24897038  0.71042785  1
  Nb  Nb20  1  0.50038678  0.89200397  0.13518059  1
  Nb  Nb21  1  0.50038678  0.10799603  0.86481941  1
  Nb  Nb22  1  0.00000499  0.61079474  0.26555195  1
  Nb  Nb23  1  0.00000499  0.38920526  0.73444805  1
  Nb  Nb24  1  0.50005034  0.13414747  0.34994195  1
  Nb  Nb25  1  0.50005034  0.86585253  0.65005805  1
  Nb  Nb26  1  0.00001009  0.27703017  0.36749475  1
  Nb  Nb27  1  0.00001009  0.72296983  0.63250525  1
  Nb  Nb28  1  0.00002465  0.42151134  0.23337853  1
  Nb  Nb29  1  0.00002465  0.57848866  0.76662147  1
  Nb  Nb30  1  0.00798439  0.16091098  0.00309313  1
  Nb  Nb31  1  0.00798439  0.83908902  0.99690687  1
  Nb  Nb32  1  0.49997831  0.00000000  0.50000000  1
  Nb  Nb33  1  0.76657945  0.00000000  -0.00000000  1
  O  O34  1  0.49999061  0.71720822  0.18602692  1
  O  O35  1  0.49999061  0.28279178  0.81397308  1
  O  O36  1  0.99980385  0.31427601  0.20063199  1
  O  O37  1  0.99980385  0.68572399  0.79936801  1
  O  O38  1  0.50000255  0.89879213  0.48141655  1
  O  O39  1  0.50000255  0.10120787  0.51858345  1
  O  O40  1  0.50001411  0.46793577  0.40615960  1
  O  O41  1  0.50001411  0.53206423  0.59384040  1
  O  O42  1  0.00001695  0.36784577  0.38581721  1
  O  O43  1  0.00001695  0.63215423  0.61418279  1
  O  O44  1  0.00002008  0.50000000  0.50000000  1
  O  O45  1  0.49998269  0.41273729  0.21543378  1
  O  O46  1  0.49998269  0.58726271  0.78456622  1
  O  O47  1  0.49999060  0.97214458  0.40727162  1
  O  O48  1  0.49999060  0.02785542  0.59272838  1
  O  O49  1  0.50003742  0.16711092  0.44061056  1
  O  O50  1  0.50003742  0.83288908  0.55938944  1
  O  O51  1  0.00000269  0.51466710  0.23634205  1
  O  O52  1  0.00000269  0.48533290  0.76365795  1
  O  O53  1  0.99658950  0.10685706  0.16279265  1
  O  O54  1  0.99658950  0.89314294  0.83720735  1
  O  O55  1  0.99992985  0.93732924  0.30889973  1
  O  O56  1  0.99992985  0.06267076  0.69110027  1
  O  O57  1  0.50002238  0.77310077  0.37398268  1
  O  O58  1  0.50002238  0.22689923  0.62601732  1
  O  O59  1  0.50000847  0.63484898  0.25838989  1
  O  O60  1  0.50000847  0.36515102  0.74161011  1
  O  O61  1  0.00102265  0.87610109  0.10788301  1
  O  O62  1  0.00102265  0.12389891  0.89211699  1
  O  O63  1  0.99876388  0.26562676  0.01499132  1
  O  O64  1  0.99876388  0.73437324  0.98500868  1
  O  O65  1  0.48730073  0.05256787  0.06675229  1
  O  O66  1  0.48730073  0.94743213  0.93324771  1
  O  O67  1  0.49998749  0.83960704  0.29596903  1
  O  O68  1  0.49998749  0.16039296  0.70403097  1
  O  O69  1  0.00002185  0.29855482  0.46161214  1
  O  O70  1  0.00002185  0.70144518  0.53838786  1
  O  O71  1  0.50138135  0.98657225  0.14284133  1
  O  O72  1  0.50138135  0.01342775  0.85715867  1
  O  O73  1  0.50000966  0.69363428  0.44694858  1
  O  O74  1  0.50000966  0.30636572  0.55305142  1
  O  O75  1  0.00389918  0.93698552  0.02289618  1
  O  O76  1  0.00389918  0.06301448  0.97710382  1
  O  O77  1  0.00000846  0.72044299  0.27485844  1
  O  O78  1  0.00000846  0.27955701  0.72514156  1
  O  O79  1  0.00128560  0.19134090  0.08750927  1
  O  O80  1  0.00128560  0.80865910  0.91249073  1
  O  O81  1  0.49965794  0.91346297  0.21673371  1
  O  O82  1  0.49965794  0.08653703  0.78326629  1
  O  O83  1  0.00001440  0.44771043  0.31669811  1
  O  O84  1  0.00001440  0.55228957  0.68330189  1
  O  O85  1  0.00000882  0.63813068  0.34967355  1
  O  O86  1  0.00000882  0.36186932  0.65032645  1
  O  O87  1  0.99999450  0.57573126  0.15743171  1
  O  O88  1  0.99999450  0.42426874  0.84256829  1
  O  O89  1  0.49996708  0.58333235  0.07301749  1
  O  O90  1  0.49996708  0.41666765  0.92698251  1
  O  O91  1  0.49999751  0.24922138  0.36501852  1
  O  O92  1  0.49999751  0.75077862  0.63498148  1
  O  O93  1  0.49966809  0.35517522  0.01048558  1
  O  O94  1  0.49966809  0.64482478  0.98951442  1
  O  O95  1  0.00001782  0.78034305  0.46248244  1
  O  O96  1  0.00001782  0.21965695  0.53751756  1
  O  O97  1  0.00000858  0.57494094  0.42896744  1
  O  O98  1  0.00000858  0.42505906  0.57103256  1
  O  O99  1  0.49869914  0.19343482  0.17584648  1
  O  O100  1  0.49869914  0.80656518  0.82415352  1
  O  O101  1  0.49863123  0.11160882  0.25373819  1
  O  O102  1  0.49863123  0.88839118  0.74626181  1
  O  O103  1  0.50243172  0.84192427  0.02081222  1
  O  O104  1  0.50243172  0.15807573  0.97918778  1
  O  O105  1  0.99987633  0.15982644  0.35036201  1
  O  O106  1  0.99987633  0.84017356  0.64963799  1
  O  O107  1  0.99991926  0.66782715  0.07436829  1
  O  O108  1  0.99991926  0.33217285  0.92563171  1
  O  O109  1  0.99986574  0.24208807  0.27422769  1
  O  O110  1  0.99986574  0.75791193  0.72577231  1
  O  O111  1  0.00000230  0.00000000  0.50000000  1
  O  O112  1  0.50000182  0.04167116  0.32904614  1
  O  O113  1  0.50000182  0.95832884  0.67095386  1
  O  O114  1  0.50029771  0.78424384  0.10782255  1
  O  O115  1  0.50029771  0.21575616  0.89217745  1
  O  O116  1  0.99982797  0.45947228  0.03220720  1
  O  O117  1  0.99982797  0.54052772  0.96779280  1
  F  F118  1  0.00004667  0.39547077  0.11951296  1
  F  F119  1  0.00004667  0.60452923  0.88048704  1
