# generated using pymatgen
data_La2GaNiO6
_symmetry_space_group_name_H-M   'P 1'
_cell_length_a   5.48185902
_cell_length_b   5.48185902
_cell_length_c   5.48185910
_cell_angle_alpha   61.11933817
_cell_angle_beta   61.11933817
_cell_angle_gamma   61.11933573
_symmetry_Int_Tables_number   1
_chemical_formula_structural   La2GaNiO6
_chemical_formula_sum   'La2 Ga1 Ni1 O6'
_cell_volume   119.41915987
_cell_formula_units_Z   1
loop_
 _symmetry_equiv_pos_site_id
 _symmetry_equiv_pos_as_xyz
  1  'x, y, z'
loop_
 _atom_site_type_symbol
 _atom_site_label
 _atom_site_symmetry_multiplicity
 _atom_site_fract_x
 _atom_site_fract_y
 _atom_site_fract_z
 _atom_site_occupancy
  La  La0  1  0.24951609  0.24951609  0.24951609  1
  La  La1  1  0.75048391  0.75048391  0.75048391  1
  Ga  Ga2  1  0.50000000  0.50000000  0.50000000  1
  Ni  Ni3  1  0.00000000  -0.00000000  -0.00000000  1
  O  O4  1  0.81204872  0.68679182  0.24995486  1
  O  O5  1  0.68679182  0.24995486  0.81204872  1
  O  O6  1  0.24995486  0.81204872  0.68679182  1
  O  O7  1  0.31320818  0.75004514  0.18795128  1
  O  O8  1  0.75004514  0.18795128  0.31320818  1
  O  O9  1  0.18795128  0.31320818  0.75004514  1
