# generated using pymatgen
data_KLaNb2O7
_symmetry_space_group_name_H-M   'P 1'
_cell_length_a   3.93270167
_cell_length_b   3.94579954
_cell_length_c   11.35639851
_cell_angle_alpha   79.99548016
_cell_angle_beta   90.00000000
_cell_angle_gamma   90.00000000
_symmetry_Int_Tables_number   1
_chemical_formula_structural   KLaNb2O7
_chemical_formula_sum   'K1 La1 Nb2 O7'
_cell_volume   173.54498211
_cell_formula_units_Z   1
loop_
 _symmetry_equiv_pos_site_id
 _symmetry_equiv_pos_as_xyz
  1  'x, y, z'
loop_
 _atom_site_type_symbol
 _atom_site_label
 _atom_site_symmetry_multiplicity
 _atom_site_fract_x
 _atom_site_fract_y
 _atom_site_fract_z
 _atom_site_occupancy
  K  K0  1  0.00000000  0.23417956  0.53164089  1
  La  La1  1  -0.00000000  0.99897343  0.00205314  1
  Nb  Nb2  1  0.50000000  0.39660081  0.20679839  1
  Nb  Nb3  1  0.50000000  0.60223905  0.79552190  1
  O  O4  1  0.50000000  0.08439388  0.83121224  1
  O  O5  1  0.50000000  0.91698103  0.16603793  1
  O  O6  1  -0.00000000  0.41723421  0.16553158  1
  O  O7  1  -0.00000000  0.58362019  0.83275962  1
  O  O8  1  0.50000000  0.31631763  0.36736474  1
  O  O9  1  0.50000000  0.68359772  0.63280456  1
  O  O10  1  0.50000000  0.50066248  0.99867503  1
