# generated using pymatgen
data_HoCuGe
_symmetry_space_group_name_H-M   'P 1'
_cell_length_a   3.66802236
_cell_length_b   4.21205329
_cell_length_c   4.21169166
_cell_angle_alpha   119.99923902
_cell_angle_beta   90.00000000
_cell_angle_gamma   90.00000000
_symmetry_Int_Tables_number   1
_chemical_formula_structural   HoCuGe
_chemical_formula_sum   'Ho1 Cu1 Ge1'
_cell_volume   56.35291200
_cell_formula_units_Z   1
loop_
 _symmetry_equiv_pos_site_id
 _symmetry_equiv_pos_as_xyz
  1  'x, y, z'
loop_
 _atom_site_type_symbol
 _atom_site_label
 _atom_site_symmetry_multiplicity
 _atom_site_fract_x
 _atom_site_fract_y
 _atom_site_fract_z
 _atom_site_occupancy
  Ho  Ho0  1  0.00000000  0.00010288  0.00008425  1
  Cu  Cu1  1  0.50000000  0.33325185  0.66663674  1
  Ge  Ge2  1  0.50000000  0.66654526  0.33327901  1
