# generated using pymatgen
data_La3Nd(GaO3)4
_symmetry_space_group_name_H-M   'P 1'
_cell_length_a   5.50980613
_cell_length_b   5.50980613
_cell_length_c   9.62773656
_cell_angle_alpha   73.83671847
_cell_angle_beta   90.88902678
_cell_angle_gamma   60.89187207
_symmetry_Int_Tables_number   1
_chemical_formula_structural   La3Nd(GaO3)4
_chemical_formula_sum   'La3 Nd1 Ga4 O12'
_cell_volume   241.27076191
_cell_formula_units_Z   1
loop_
 _symmetry_equiv_pos_site_id
 _symmetry_equiv_pos_as_xyz
  1  'x, y, z'
loop_
 _atom_site_type_symbol
 _atom_site_label
 _atom_site_symmetry_multiplicity
 _atom_site_fract_x
 _atom_site_fract_y
 _atom_site_fract_z
 _atom_site_occupancy
  La  La0  1  0.87591882  0.24908118  0.62500000  1
  La  La1  1  0.12457580  0.75052740  0.37398475  1
  La  La2  1  0.62548785  0.74940896  0.87601525  1
  Nd  Nd3  1  0.37396591  0.25103409  0.12500000  1
  Ga  Ga4  1  0.74987457  0.50068753  0.24946363  1
  Ga  Ga5  1  0.25032286  0.49937885  0.75060261  1
  Ga  Ga6  1  0.99984884  0.99958905  0.00053637  1
  Ga  Ga7  1  0.50001854  0.00027975  0.49939739  1
  O  O8  1  0.94959916  0.67540084  0.12500000  1
  O  O9  1  0.44302774  0.68197226  0.62500000  1
  O  O10  1  0.08976401  0.25057573  0.40928556  1
  O  O11  1  0.58885826  0.24933809  0.91213770  1
  O  O12  1  0.58852421  0.82327944  0.33786230  1
  O  O13  1  0.09013870  0.81952155  0.84071444  1
  O  O14  1  0.40933859  0.75029469  0.09126102  1
  O  O15  1  0.90836296  0.74968892  0.59101999  1
  O  O16  1  0.90844429  0.18192244  0.15873898  1
  O  O17  1  0.40929109  0.18265703  0.65898001  1
  O  O18  1  0.55544710  0.31814939  0.37265992  1
  O  O19  1  0.05919069  0.31721282  0.87734008  1
