# generated using pymatgen
data_La8Ti2Ga2O19
_symmetry_space_group_name_H-M   'P 1'
_cell_length_a   3.95674117
_cell_length_b   11.18501791
_cell_length_c   11.40566080
_cell_angle_alpha   89.90973398
_cell_angle_beta   90.00000000
_cell_angle_gamma   90.00000000
_symmetry_Int_Tables_number   1
_chemical_formula_structural   La8Ti2Ga2O19
_chemical_formula_sum   'La8 Ti2 Ga2 O19'
_cell_volume   504.77081682
_cell_formula_units_Z   1
loop_
 _symmetry_equiv_pos_site_id
 _symmetry_equiv_pos_as_xyz
  1  'x, y, z'
loop_
 _atom_site_type_symbol
 _atom_site_label
 _atom_site_symmetry_multiplicity
 _atom_site_fract_x
 _atom_site_fract_y
 _atom_site_fract_z
 _atom_site_occupancy
  La  La0  1  0.25000000  0.62122752  0.41684998  1
  La  La1  1  0.25000000  0.13344325  0.06389134  1
  La  La2  1  0.75000000  0.36477957  0.56152814  1
  La  La3  1  0.75000000  0.86215198  0.94188195  1
  La  La4  1  0.75000000  0.90006699  0.27983494  1
  La  La5  1  0.75000000  0.40539262  0.21068460  1
  La  La6  1  0.25000000  0.09828530  0.71796653  1
  La  La7  1  0.25000000  0.58308214  0.79649941  1
  Ti  Ti8  1  0.25000000  0.19416773  0.37188981  1
  Ti  Ti9  1  0.75000000  0.30515135  0.87316776  1
  Ga  Ga10  1  0.25000000  0.69297585  0.12580233  1
  Ga  Ga11  1  0.75000000  0.81636846  0.62693321  1
  O  O12  1  0.75000000  0.76490558  0.47926318  1
  O  O13  1  0.75000000  0.26980698  0.03425563  1
  O  O14  1  0.25000000  0.23395087  0.53726125  1
  O  O15  1  0.25000000  0.72201141  0.95704087  1
  O  O16  1  0.75000000  0.50388998  0.39770174  1
  O  O17  1  0.75000000  0.00841901  0.10070936  1
  O  O18  1  0.25000000  0.50477831  0.60275414  1
  O  O19  1  0.25000000  0.99404394  0.90005310  1
  O  O20  1  0.25000000  0.78153272  0.27715944  1
  O  O21  1  0.25000000  0.28085337  0.22918676  1
  O  O22  1  0.75000000  0.21793344  0.73104233  1
  O  O23  1  0.75000000  0.71467948  0.75095693  1
  O  O24  1  0.25000000  0.53642735  0.18593516  1
  O  O25  1  0.25000000  0.04026753  0.32554308  1
  O  O26  1  0.75000000  0.46182179  0.82971595  1
  O  O27  1  0.75000000  0.96778125  0.67500071  1
  O  O28  1  0.75000000  0.74497984  0.12195383  1
  O  O29  1  0.75000000  0.23753533  0.37869535  1
  O  O30  1  0.25000000  0.26868905  0.87564120  1
