# generated using pymatgen
data_La2Mn17C2
_symmetry_space_group_name_H-M   'P 1'
_cell_length_a   6.53140772
_cell_length_b   6.48650048
_cell_length_c   6.53140772
_cell_angle_alpha   83.69612357
_cell_angle_beta   84.61100058
_cell_angle_gamma   83.69612357
_symmetry_Int_Tables_number   1
_chemical_formula_structural   La2Mn17C2
_chemical_formula_sum   'La2 Mn17 C2'
_cell_volume   272.43329765
_cell_formula_units_Z   1
loop_
 _symmetry_equiv_pos_site_id
 _symmetry_equiv_pos_as_xyz
  1  'x, y, z'
loop_
 _atom_site_type_symbol
 _atom_site_label
 _atom_site_symmetry_multiplicity
 _atom_site_fract_x
 _atom_site_fract_y
 _atom_site_fract_z
 _atom_site_occupancy
  La  La0  1  0.63861538  0.66072869  0.63861538  1
  La  La1  1  0.36138462  0.33927131  0.36138462  1
  Mn  Mn2  1  0.90651338  0.90567781  0.90651338  1
  Mn  Mn3  1  0.09348662  0.09432219  0.09348662  1
  Mn  Mn4  1  0.73583912  -0.00000000  0.26416088  1
  Mn  Mn5  1  0.99215047  0.28130953  0.71828470  1
  Mn  Mn6  1  0.28171530  0.71869047  0.00784953  1
  Mn  Mn7  1  0.00784953  0.71869047  0.28171530  1
  Mn  Mn8  1  0.71828470  0.28130953  0.99215047  1
  Mn  Mn9  1  0.26416088  0.00000000  0.73583912  1
  Mn  Mn10  1  0.33409122  0.33643708  0.87213754  1
  Mn  Mn11  1  0.34131984  0.87086614  0.34131984  1
  Mn  Mn12  1  0.87213754  0.33643708  0.33409122  1
  Mn  Mn13  1  0.66590878  0.66356292  0.12786246  1
  Mn  Mn14  1  0.65868016  0.12913386  0.65868016  1
  Mn  Mn15  1  0.12786246  0.66356292  0.66590878  1
  Mn  Mn16  1  -0.00000000  0.50000000  -0.00000000  1
  Mn  Mn17  1  0.50000000  0.00000000  -0.00000000  1
  Mn  Mn18  1  -0.00000000  0.00000000  0.50000000  1
  C  C19  1  -0.00000000  0.50000000  0.50000000  1
  C  C20  1  0.50000000  0.50000000  -0.00000000  1
