# generated using pymatgen
data_Ge3P6H42N12O25
_symmetry_space_group_name_H-M   'P 1'
_cell_length_a   9.46396851
_cell_length_b   9.46396851
_cell_length_c   10.50799909
_cell_angle_alpha   99.45406070
_cell_angle_beta   99.45406070
_cell_angle_gamma   109.93393602
_symmetry_Int_Tables_number   1
_chemical_formula_structural   Ge3P6H42N12O25
_chemical_formula_sum   'Ge3 P6 H42 N12 O25'
_cell_volume   847.78426502
_cell_formula_units_Z   1
loop_
 _symmetry_equiv_pos_site_id
 _symmetry_equiv_pos_as_xyz
  1  'x, y, z'
loop_
 _atom_site_type_symbol
 _atom_site_label
 _atom_site_symmetry_multiplicity
 _atom_site_fract_x
 _atom_site_fract_y
 _atom_site_fract_z
 _atom_site_occupancy
  Ge  Ge0  1  0.00000000  0.00000000  -0.00000000  1
  Ge  Ge1  1  0.33340499  0.66659501  -0.00000000  1
  Ge  Ge2  1  0.66659501  0.33340499  -0.00000000  1
  P  P3  1  0.21304349  0.87963708  0.19528324  1
  P  P4  1  0.54619655  0.54619655  0.19526591  1
  P  P5  1  0.87963708  0.21304349  0.19528324  1
  P  P6  1  0.45380345  0.45380345  0.80473409  1
  P  P7  1  0.78695651  0.12036292  0.80471676  1
  P  P8  1  0.12036292  0.78695651  0.80471676  1
  H  H9  1  0.16052531  0.27085435  0.35957896  1
  H  H10  1  0.49433062  0.93804451  0.35939620  1
  H  H11  1  0.82765583  0.60514631  0.35940525  1
  H  H12  1  0.27085435  0.16052531  0.35957896  1
  H  H13  1  0.60514631  0.82765583  0.35940525  1
  H  H14  1  0.93804451  0.49433062  0.35939620  1
  H  H15  1  0.50566938  0.06195549  0.64060380  1
  H  H16  1  0.83947469  0.72914565  0.64042104  1
  H  H17  1  0.17234417  0.39485369  0.64059475  1
  H  H18  1  0.39485369  0.17234417  0.64059475  1
  H  H19  1  0.72914565  0.83947469  0.64042104  1
  H  H20  1  0.06195549  0.50566938  0.64060380  1
  H  H21  1  0.23651364  0.45917298  0.12158140  1
  H  H22  1  0.56996895  0.12594156  0.12155588  1
  H  H23  1  0.90327671  0.79265267  0.12173859  1
  H  H24  1  0.45917298  0.23651364  0.12158140  1
  H  H25  1  0.79265267  0.90327671  0.12173859  1
  H  H26  1  0.12594156  0.56996895  0.12155588  1
  H  H27  1  0.43003105  0.87405844  0.87844412  1
  H  H28  1  0.76348636  0.54082702  0.87841860  1
  H  H29  1  0.09672329  0.20734733  0.87826141  1
  H  H30  1  0.20734733  0.09672329  0.87826141  1
  H  H31  1  0.54082702  0.76348636  0.87841860  1
  H  H32  1  0.87405844  0.43003105  0.87844412  1
  H  H33  1  0.33018516  0.33018516  0.31239001  1
  H  H34  1  0.66416344  0.99705319  0.31259937  1
  H  H35  1  0.99705319  0.66416344  0.31259937  1
  H  H36  1  0.33583656  0.00294681  0.68740063  1
  H  H37  1  0.66981484  0.66981484  0.68760999  1
  H  H38  1  0.00294681  0.33583656  0.68740063  1
  H  H39  1  0.42887976  0.09556325  0.98712669  1
  H  H40  1  0.76232954  0.76232954  0.98720178  1
  H  H41  1  0.09556325  0.42887976  0.98712669  1
  H  H42  1  0.23767046  0.23767046  0.01279822  1
  H  H43  1  0.57112024  0.90443675  0.01287331  1
  H  H44  1  0.90443675  0.57112024  0.01287331  1
  H  H45  1  0.32750883  0.32750883  0.47755027  1
  H  H46  1  0.66220150  0.99453140  0.47736716  1
  H  H47  1  0.99453140  0.66220150  0.47736716  1
  H  H48  1  0.33779850  0.00546860  0.52263284  1
  H  H49  1  0.67249117  0.67249117  0.52244973  1
  H  H50  1  0.00546860  0.33779850  0.52263284  1
  N  N51  1  0.51142663  0.17815003  0.06504276  1
  N  N52  1  0.84483371  0.84483371  0.06512954  1
  N  N53  1  0.17815003  0.51142663  0.06504276  1
  N  N54  1  0.15516629  0.15516629  0.93487046  1
  N  N55  1  0.48857337  0.82184997  0.93495724  1
  N  N56  1  0.82184997  0.48857337  0.93495724  1
  N  N57  1  0.27323203  0.27323203  0.37848978  1
  N  N58  1  0.60696542  0.94013594  0.37849049  1
  N  N59  1  0.94013594  0.60696542  0.37849049  1
  N  N60  1  0.39303458  0.05986406  0.62150951  1
  N  N61  1  0.72676797  0.72676797  0.62151022  1
  N  N62  1  0.05986406  0.39303458  0.62150951  1
  O  O63  1  0.33211813  0.83542490  0.12551164  1
  O  O64  1  0.66534827  0.50215701  0.12582960  1
  O  O65  1  0.99879349  0.16881641  0.12574773  1
  O  O66  1  0.16881641  0.99879349  0.12574773  1
  O  O67  1  0.50215701  0.66534827  0.12582960  1
  O  O68  1  0.83542490  0.33211813  0.12551164  1
  O  O69  1  0.33465173  0.49784299  0.87417040  1
  O  O70  1  0.66788187  0.16457510  0.87448836  1
  O  O71  1  0.00120651  0.83118359  0.87425227  1
  O  O72  1  0.49784299  0.33465173  0.87417040  1
  O  O73  1  0.83118359  0.00120651  0.87425227  1
  O  O74  1  0.16457510  0.66788187  0.87448836  1
  O  O75  1  0.30151232  0.96735242  0.33840464  1
  O  O76  1  0.63353202  0.63353202  0.33894700  1
  O  O77  1  0.96735242  0.30151232  0.33840464  1
  O  O78  1  0.36646798  0.36646798  0.66105300  1
  O  O79  1  0.69848768  0.03264758  0.66159536  1
  O  O80  1  0.03264758  0.69848768  0.66159536  1
  O  O81  1  0.40073611  0.40073611  0.18234413  1
  O  O82  1  0.73413421  0.06774306  0.18226663  1
  O  O83  1  0.06774306  0.73413421  0.18226663  1
  O  O84  1  0.26586579  0.93225694  0.81773337  1
  O  O85  1  0.59926389  0.59926389  0.81765587  1
  O  O86  1  0.93225694  0.26586579  0.81773337  1
  O  O87  1  0.00000000  0.00000000  0.50000000  1
