# generated using pymatgen
data_Li4Cr2Fe3Co3O16
_symmetry_space_group_name_H-M   'P 1'
_cell_length_a   5.75376507
_cell_length_b   5.76340752
_cell_length_c   9.38121619
_cell_angle_alpha   90.15028065
_cell_angle_beta   90.31017258
_cell_angle_gamma   119.91711792
_symmetry_Int_Tables_number   1
_chemical_formula_structural   Li4Cr2Fe3Co3O16
_chemical_formula_sum   'Li4 Cr2 Fe3 Co3 O16'
_cell_volume   269.63035479
_cell_formula_units_Z   1
loop_
 _symmetry_equiv_pos_site_id
 _symmetry_equiv_pos_as_xyz
  1  'x, y, z'
loop_
 _atom_site_type_symbol
 _atom_site_label
 _atom_site_symmetry_multiplicity
 _atom_site_fract_x
 _atom_site_fract_y
 _atom_site_fract_z
 _atom_site_occupancy
  Li  Li0  1  0.33416701  0.66760316  0.89513410  1
  Li  Li1  1  0.00570569  0.00291509  0.99825434  1
  Li  Li2  1  0.01135936  0.00586138  0.49533864  1
  Li  Li3  1  0.66602137  0.33107092  0.39215509  1
  Cr  Cr4  1  0.32544241  0.66312173  0.48789326  1
  Cr  Cr5  1  0.66341425  0.33431441  0.98853010  1
  Fe  Fe6  1  0.65944194  0.82911897  0.21504169  1
  Fe  Fe7  1  0.83212183  0.66238774  0.71442499  1
  Fe  Fe8  1  0.83223159  0.17029769  0.71440015  1
  Co  Co9  1  0.16868068  0.82914532  0.21303007  1
  Co  Co10  1  0.16871852  0.33807196  0.21167520  1
  Co  Co11  1  0.34012515  0.17039677  0.71494032  1
  O  O12  1  0.16020166  0.83770890  0.60260501  1
  O  O13  1  0.03759476  0.51686590  0.33164092  1
  O  O14  1  0.31892157  0.65688284  0.10611179  1
  O  O15  1  0.01337452  0.00800012  0.30799179  1
  O  O16  1  0.00513676  0.00287674  0.80957272  1
  O  O17  1  0.16018287  0.32267253  0.60272013  1
  O  O18  1  0.47188384  0.96170496  0.33959577  1
  O  O19  1  0.46802358  0.50445889  0.33915417  1
  O  O20  1  0.32707536  0.16606714  0.10645116  1
  O  O21  1  0.67951306  0.83968037  0.59962530  1
  O  O22  1  0.51712439  0.48058753  0.83666666  1
  O  O23  1  0.51828783  0.03883247  0.83721369  1
  O  O24  1  0.66466526  0.33273364  0.60998529  1
  O  O25  1  0.84311191  0.67401366  0.09815633  1
  O  O26  1  0.96123064  0.48095075  0.83863048  1
  O  O27  1  0.84624318  0.17195944  0.10090284  1
