# generated using pymatgen
data_GdFeNi4
_symmetry_space_group_name_H-M   'P 1'
_cell_length_a   3.95266889
_cell_length_b   4.95294136
_cell_length_c   4.91986709
_cell_angle_alpha   120.10465626
_cell_angle_beta   90.00000000
_cell_angle_gamma   90.00000000
_symmetry_Int_Tables_number   1
_chemical_formula_structural   GdFeNi4
_chemical_formula_sum   'Gd1 Fe1 Ni4'
_cell_volume   83.32563976
_cell_formula_units_Z   1
loop_
 _symmetry_equiv_pos_site_id
 _symmetry_equiv_pos_as_xyz
  1  'x, y, z'
loop_
 _atom_site_type_symbol
 _atom_site_label
 _atom_site_symmetry_multiplicity
 _atom_site_fract_x
 _atom_site_fract_y
 _atom_site_fract_z
 _atom_site_occupancy
  Gd  Gd0  1  -0.00000000  0.99978066  0.99976220  1
  Fe  Fe1  1  -0.00000000  0.33334592  0.66707850  1
  Ni  Ni2  1  -0.00000000  0.66664013  0.33312663  1
  Ni  Ni3  1  0.50000000  0.50020164  0.00040131  1
  Ni  Ni4  1  0.50000000  0.50013932  0.49978647  1
  Ni  Ni5  1  0.50000000  -0.00020767  0.49984489  1
