# generated using pymatgen
data_Fe2NiP
_symmetry_space_group_name_H-M   'P 1'
_cell_length_a   4.42377460
_cell_length_b   6.74702671
_cell_length_c   6.74702671
_cell_angle_alpha   96.16969057
_cell_angle_beta   109.13720383
_cell_angle_gamma   70.86279617
_symmetry_Int_Tables_number   1
_chemical_formula_structural   Fe2NiP
_chemical_formula_sum   'Fe8 Ni4 P4'
_cell_volume   179.73762576
_cell_formula_units_Z   4
loop_
 _symmetry_equiv_pos_site_id
 _symmetry_equiv_pos_as_xyz
  1  'x, y, z'
loop_
 _atom_site_type_symbol
 _atom_site_label
 _atom_site_symmetry_multiplicity
 _atom_site_fract_x
 _atom_site_fract_y
 _atom_site_fract_z
 _atom_site_occupancy
  Fe  Fe0  1  0.69277120  0.18566556  0.02897252  1
  Fe  Fe1  1  0.84946424  0.81433444  0.97102748  1
  Fe  Fe2  1  0.33620132  0.97102748  0.18566556  1
  Fe  Fe3  1  0.12156324  0.02897252  0.81433444  1
  Fe  Fe4  1  0.07805360  0.38809076  0.04824529  1
  Fe  Fe5  1  0.41789907  0.61190924  0.95175471  1
  Fe  Fe6  1  0.97019169  0.95175471  0.38809076  1
  Fe  Fe7  1  0.53385564  0.04824529  0.61190924  1
  Ni  Ni8  1  0.65730690  0.39641934  0.66888806  1
  Ni  Ni9  1  0.38483818  0.60358066  0.33111194  1
  Ni  Ni10  1  0.01158116  0.33111194  0.39641934  1
  Ni  Ni11  1  0.94627376  0.66888806  0.60358066  1
  P  P12  1  0.22725314  0.33651617  0.75625912  1
  P  P13  1  0.80751019  0.66348383  0.24374088  1
  P  P14  1  0.52900598  0.24374088  0.33651617  1
  P  P15  1  0.43623070  0.75625912  0.66348383  1
