# generated using pymatgen
data_HfTiC2
_symmetry_space_group_name_H-M   'P 1'
_cell_length_a   3.19375417
_cell_length_b   3.19375416
_cell_length_c   5.47955182
_cell_angle_alpha   73.05673483
_cell_angle_beta   90.00000000
_cell_angle_gamma   119.99999993
_symmetry_Int_Tables_number   1
_chemical_formula_structural   HfTiC2
_chemical_formula_sum   'Hf1 Ti1 C2'
_cell_volume   45.58083087
_cell_formula_units_Z   1
loop_
 _symmetry_equiv_pos_site_id
 _symmetry_equiv_pos_as_xyz
  1  'x, y, z'
loop_
 _atom_site_type_symbol
 _atom_site_label
 _atom_site_symmetry_multiplicity
 _atom_site_fract_x
 _atom_site_fract_y
 _atom_site_fract_z
 _atom_site_occupancy
  Hf  Hf0  1  0.25000000  0.50000000  0.25000000  1
  Ti  Ti1  1  0.75000000  0.50000000  0.75000000  1
  C  C2  1  0.00408749  0.00817498  0.98773753  1
  C  C3  1  0.49591251  0.99182502  0.51226247  1
