# generated using pymatgen
data_In2AgSe3I
_symmetry_space_group_name_H-M   'P 1'
_cell_length_a   8.32755904
_cell_length_b   8.32755904
_cell_length_c   8.26931437
_cell_angle_alpha   90.00000000
_cell_angle_beta   59.76672907
_cell_angle_gamma   120.00000000
_symmetry_Int_Tables_number   1
_chemical_formula_structural   In2AgSe3I
_chemical_formula_sum   'In4 Ag2 Se6 I2'
_cell_volume   404.06351673
_cell_formula_units_Z   2
loop_
 _symmetry_equiv_pos_site_id
 _symmetry_equiv_pos_as_xyz
  1  'x, y, z'
loop_
 _atom_site_type_symbol
 _atom_site_label
 _atom_site_symmetry_multiplicity
 _atom_site_fract_x
 _atom_site_fract_y
 _atom_site_fract_z
 _atom_site_occupancy
  In  In0  1  0.75000000  0.37500000  0.87500000  1
  In  In1  1  0.25000000  0.37500000  0.37500000  1
  In  In2  1  0.25000000  0.87500000  0.37500000  1
  In  In3  1  0.75000000  0.37500000  0.37500000  1
  Ag  Ag4  1  0.58027731  0.79013866  0.62958403  1
  Ag  Ag5  1  0.91972269  0.95986134  0.12041597  1
  Se  Se6  1  0.71772930  0.13334734  0.14892337  1
  Se  Se7  1  0.71772930  0.58438196  0.14892337  1
  Se  Se8  1  0.26669467  0.13334734  0.14892337  1
  Se  Se9  1  0.78227070  0.61665266  0.60107663  1
  Se  Se10  1  0.78227070  0.16561804  0.60107663  1
  Se  Se11  1  0.23330533  0.61665266  0.60107663  1
  I  I12  1  0.22145488  0.11072744  0.66781768  1
  I  I13  1  0.27854512  0.63927256  0.08218232  1
