# generated using pymatgen
data_HoBeCu4
_symmetry_space_group_name_H-M   'P 1'
_cell_length_a   3.89197717
_cell_length_b   5.02425395
_cell_length_c   5.02421033
_cell_angle_alpha   119.98632170
_cell_angle_beta   90.00000000
_cell_angle_gamma   90.00000000
_symmetry_Int_Tables_number   1
_chemical_formula_structural   HoBeCu4
_chemical_formula_sum   'Ho1 Be1 Cu4'
_cell_volume   85.09423793
_cell_formula_units_Z   1
loop_
 _symmetry_equiv_pos_site_id
 _symmetry_equiv_pos_as_xyz
  1  'x, y, z'
loop_
 _atom_site_type_symbol
 _atom_site_label
 _atom_site_symmetry_multiplicity
 _atom_site_fract_x
 _atom_site_fract_y
 _atom_site_fract_z
 _atom_site_occupancy
  Ho  Ho0  1  -0.00000000  0.99997911  -0.00000486  1
  Be  Be1  1  -0.00000000  0.33333079  0.66666975  1
  Cu  Cu2  1  -0.00000000  0.66662345  0.33332955  1
  Cu  Cu3  1  0.50000000  0.49614849  0.99233290  1
  Cu  Cu4  1  0.50000000  0.49617639  0.50383494  1
  Cu  Cu5  1  0.50000000  0.00764177  0.50383771  1
