# generated using pymatgen
data_Li2FeS2
_symmetry_space_group_name_H-M   'P 1'
_cell_length_a   8.86869192
_cell_length_b   6.13598891
_cell_length_c   13.33541063
_cell_angle_alpha   90.00000000
_cell_angle_beta   87.27832317
_cell_angle_gamma   90.00000000
_symmetry_Int_Tables_number   1
_chemical_formula_structural   Li2FeS2
_chemical_formula_sum   'Li16 Fe8 S16'
_cell_volume   724.87038928
_cell_formula_units_Z   8
loop_
 _symmetry_equiv_pos_site_id
 _symmetry_equiv_pos_as_xyz
  1  'x, y, z'
loop_
 _atom_site_type_symbol
 _atom_site_label
 _atom_site_symmetry_multiplicity
 _atom_site_fract_x
 _atom_site_fract_y
 _atom_site_fract_z
 _atom_site_occupancy
  Li  Li0  1  0.09865286  0.51716820  0.25332983  1
  Li  Li1  1  0.04567237  0.05804554  0.33796627  1
  Li  Li2  1  0.19434550  0.62380985  0.95209557  1
  Li  Li3  1  0.23096518  0.53084060  0.68773512  1
  Li  Li4  1  0.26903482  0.03084060  0.81226488  1
  Li  Li5  1  0.30565450  0.12380985  0.54790443  1
  Li  Li6  1  0.45432763  0.55804554  0.16203373  1
  Li  Li7  1  0.40134714  0.01716820  0.24667017  1
  Li  Li8  1  0.59865286  0.98283180  0.75332983  1
  Li  Li9  1  0.54567237  0.44195446  0.83796627  1
  Li  Li10  1  0.69434550  0.87619015  0.45209557  1
  Li  Li11  1  0.73096518  0.96915940  0.18773512  1
  Li  Li12  1  0.76903482  0.46915940  0.31226488  1
  Li  Li13  1  0.80565450  0.37619015  0.04790443  1
  Li  Li14  1  0.95432763  0.94195446  0.66203373  1
  Li  Li15  1  0.90134714  0.48283180  0.74667017  1
  Fe  Fe16  1  0.03846773  0.00850628  0.08989534  1
  Fe  Fe17  1  0.15322816  0.51461653  0.47487342  1
  Fe  Fe18  1  0.34677184  0.01461653  0.02512658  1
  Fe  Fe19  1  0.46153227  0.50850628  0.41010466  1
  Fe  Fe20  1  0.53846773  0.49149372  0.58989534  1
  Fe  Fe21  1  0.65322816  0.98538347  0.97487342  1
  Fe  Fe22  1  0.84677184  0.48538347  0.52512658  1
  Fe  Fe23  1  0.96153227  0.99149372  0.91010466  1
  S  S24  1  0.04042348  0.29466441  0.60019478  1
  S  S25  1  0.07659452  0.75964700  0.79602277  1
  S  S26  1  0.15746701  0.22984901  0.96013439  1
  S  S27  1  0.22944132  0.78261333  0.14368052  1
  S  S28  1  0.27055868  0.28261333  0.35631948  1
  S  S29  1  0.34253299  0.72984901  0.53986561  1
  S  S30  1  0.54042348  0.20533559  0.10019478  1
  S  S31  1  0.42340548  0.25964700  0.70397723  1
  S  S32  1  0.57659452  0.74035300  0.29602277  1
  S  S33  1  0.45957652  0.79466441  0.89980522  1
  S  S34  1  0.65746701  0.27015099  0.46013439  1
  S  S35  1  0.72944132  0.71738667  0.64368052  1
  S  S36  1  0.77055868  0.21738667  0.85631948  1
  S  S37  1  0.84253299  0.77015099  0.03986561  1
  S  S38  1  0.92340548  0.24035300  0.20397723  1
  S  S39  1  0.95957652  0.70533559  0.39980522  1
