# generated using pymatgen
data_Er9B5S21
_symmetry_space_group_name_H-M   'P 1'
_cell_length_a   11.14222155
_cell_length_b   11.14205040
_cell_length_c   11.14215558
_cell_angle_alpha   96.05299220
_cell_angle_beta   83.94590344
_cell_angle_gamma   83.94673038
_symmetry_Int_Tables_number   1
_chemical_formula_structural   Er9B5S21
_chemical_formula_sum   'Er18 B10 S42'
_cell_volume   1358.34556892
_cell_formula_units_Z   2
loop_
 _symmetry_equiv_pos_site_id
 _symmetry_equiv_pos_as_xyz
  1  'x, y, z'
loop_
 _atom_site_type_symbol
 _atom_site_label
 _atom_site_symmetry_multiplicity
 _atom_site_fract_x
 _atom_site_fract_y
 _atom_site_fract_z
 _atom_site_occupancy
  Er  Er0  1  0.91928638  0.22788352  0.46973434  1
  Er  Er1  1  0.54646067  0.56765648  0.80542626  1
  Er  Er2  1  0.21946395  0.91450827  0.16521100  1
  Er  Er3  1  0.19457975  0.45353509  0.56765215  1
  Er  Er4  1  0.83476612  0.78056617  0.91452100  1
  Er  Er5  1  0.53026203  0.08072265  0.22788555  1
  Er  Er6  1  0.08547940  0.16522149  0.78055724  1
  Er  Er7  1  0.77211752  0.46973870  0.08072277  1
  Er  Er8  1  0.43235299  0.80542320  0.45353764  1
  Er  Er9  1  0.73338808  0.14385551  0.91390183  1
  Er  Er10  1  0.37311884  0.49257348  0.24146949  1
  Er  Er11  1  0.06561908  0.79963354  0.54697044  1
  Er  Er12  1  0.45302543  0.93437757  0.79963356  1
  Er  Er13  1  0.08610157  0.26660971  0.14385288  1
  Er  Er14  1  0.75852784  0.62687581  0.49256508  1
  Er  Er15  1  0.50743418  0.24146967  0.62687403  1
  Er  Er16  1  0.20036461  0.54697573  0.93437354  1
  Er  Er17  1  0.85613952  0.91391078  0.26661801  1
  B  B18  1  0.75927997  0.92092599  0.58092492  1
  B  B19  1  0.41907318  0.24072488  0.92093081  1
  B  B20  1  0.07906826  0.58092268  0.24071910  1
  B  B21  1  0.58120502  0.73712762  0.08626568  1
  B  B22  1  0.26287471  0.08625978  0.41879757  1
  B  B23  1  0.91373600  0.41879594  0.73712618  1
  B  B24  1  0.04285621  0.95713756  0.95714035  1
  B  B25  1  0.73085312  0.26915216  0.26915112  1
  B  B26  1  0.22888457  0.77111603  0.77111780  1
  B  B27  1  0.54423485  0.45576521  0.45576722  1
  S  S28  1  0.96576383  0.69613406  0.35007264  1
  S  S29  1  0.64992384  0.03423267  0.69613473  1
  S  S30  1  0.30386490  0.35008110  0.03423141  1
  S  S31  1  0.46768114  0.84716049  0.20076997  1
  S  S32  1  0.15284197  0.20076306  0.53232909  1
  S  S33  1  0.79923602  0.53232585  0.84716708  1
  S  S34  1  0.53959925  0.72845253  0.64109559  1
  S  S35  1  0.16931465  0.04789181  0.97338938  1
  S  S36  1  0.84766166  0.37028051  0.29248088  1
  S  S37  1  0.70751986  0.15234480  0.37028344  1
  S  S38  1  0.35890812  0.46039891  0.72845088  1
  S  S39  1  0.02660793  0.83067845  0.04789855  1
  S  S40  1  0.95210604  0.97339099  0.83069097  1
  S  S41  1  0.62972018  0.29248974  0.15234251  1
  S  S42  1  0.27154951  0.64109651  0.46039245  1
  S  S43  1  0.74270864  0.98874425  0.08187218  1
  S  S44  1  0.43032873  0.35197194  0.42745718  1
  S  S45  1  0.10586896  0.67775458  0.74829161  1
  S  S46  1  0.57253553  0.56967593  0.35198144  1
  S  S47  1  0.25170999  0.89414241  0.67775847  1
  S  S48  1  0.91813308  0.25728203  0.98873894  1
  S  S49  1  0.32224208  0.74827995  0.89413669  1
  S  S50  1  0.01126202  0.08186462  0.25728932  1
  S  S51  1  0.64801875  0.42746608  0.56966033  1
  S  S52  1  0.68437057  0.85918547  0.43816242  1
  S  S53  1  0.34229856  0.17038605  0.78303119  1
  S  S54  1  0.01185829  0.51406104  0.09872738  1
  S  S55  1  0.90125927  0.98814091  0.51405764  1
  S  S56  1  0.56182964  0.31563253  0.85919073  1
  S  S57  1  0.21696889  0.65769996  0.17038012  1
  S  S58  1  0.82961439  0.78303337  0.65769741  1
  S  S59  1  0.48593899  0.09872530  0.98814069  1
  S  S60  1  0.14081007  0.43816142  0.31562676  1
  S  S61  1  0.74335813  0.71267937  0.13830578  1
  S  S62  1  0.42430874  0.05727165  0.47029243  1
  S  S63  1  0.07642467  0.40227508  0.78795163  1
  S  S64  1  0.52970916  0.57568721  0.05727497  1
  S  S65  1  0.21205480  0.92357330  0.40227266  1
  S  S66  1  0.86170117  0.25663354  0.71267819  1
  S  S67  1  0.59771660  0.78795524  0.92358045  1
  S  S68  1  0.28732015  0.13830324  0.25664178  1
  S  S69  1  0.94273135  0.47029287  0.57569051  1
