# generated using pymatgen
data_Dy4CdS7
_symmetry_space_group_name_H-M   'P 1'
_cell_length_a   3.83956483
_cell_length_b   6.65272854
_cell_length_c   11.59563177
_cell_angle_alpha   104.27128422
_cell_angle_beta   90.00000000
_cell_angle_gamma   73.22759584
_symmetry_Int_Tables_number   1
_chemical_formula_structural   Dy4CdS7
_chemical_formula_sum   'Dy4 Cd1 S7'
_cell_volume   274.03276119
_cell_formula_units_Z   1
loop_
 _symmetry_equiv_pos_site_id
 _symmetry_equiv_pos_as_xyz
  1  'x, y, z'
loop_
 _atom_site_type_symbol
 _atom_site_label
 _atom_site_symmetry_multiplicity
 _atom_site_fract_x
 _atom_site_fract_y
 _atom_site_fract_z
 _atom_site_occupancy
  Dy  Dy0  1  0.69350230  0.61299540  0.19949611  1
  Dy  Dy1  1  0.30720719  0.38558562  0.80385819  1
  Dy  Dy2  1  0.00005893  0.99988214  0.00256597  1
  Dy  Dy3  1  0.11491662  0.77016676  0.57128661  1
  Cd  Cd4  1  0.88462734  0.23074533  0.42101544  1
  S  S5  1  0.74127201  0.51745599  0.64750293  1
  S  S6  1  0.25814450  0.48371100  0.35078538  1
  S  S7  1  0.34051574  0.31896852  0.04965481  1
  S  S8  1  0.65975070  0.68049859  0.94853933  1
  S  S9  1  0.03906743  0.92186513  0.21762753  1
  S  S10  1  0.96063312  0.07873376  0.78547361  1
  S  S11  1  0.50030412  0.99939176  0.50219409  1
