# generated using pymatgen
data_Cr4Ni
_symmetry_space_group_name_H-M   'P 1'
_cell_length_a   2.43674293
_cell_length_b   2.43674293
_cell_length_c   10.15223925
_cell_angle_alpha   85.13514396
_cell_angle_beta   85.13514396
_cell_angle_gamma   107.05831352
_symmetry_Int_Tables_number   1
_chemical_formula_structural   Cr4Ni
_chemical_formula_sum   'Cr4 Ni1'
_cell_volume   57.03961009
_cell_formula_units_Z   1
loop_
 _symmetry_equiv_pos_site_id
 _symmetry_equiv_pos_as_xyz
  1  'x, y, z'
loop_
 _atom_site_type_symbol
 _atom_site_label
 _atom_site_symmetry_multiplicity
 _atom_site_fract_x
 _atom_site_fract_y
 _atom_site_fract_z
 _atom_site_occupancy
  Cr  Cr0  1  0.40108082  0.40108082  0.19783836  1
  Cr  Cr1  1  0.80074580  0.80074580  0.39850839  1
  Cr  Cr2  1  0.19925420  0.19925420  0.60149161  1
  Cr  Cr3  1  0.59891918  0.59891918  0.80216164  1
  Ni  Ni4  1  0.00000000  -0.00000000  0.00000000  1
