# generated using pymatgen
data_DyCu7
_symmetry_space_group_name_H-M   'P 1'
_cell_length_a   4.11155386
_cell_length_b   4.94141665
_cell_length_c   17.06211468
_cell_angle_alpha   89.99999766
_cell_angle_beta   90.00000000
_cell_angle_gamma   90.00000000
_symmetry_Int_Tables_number   1
_chemical_formula_structural   DyCu7
_chemical_formula_sum   'Dy3 Cu21'
_cell_volume   346.64928950
_cell_formula_units_Z   3
loop_
 _symmetry_equiv_pos_site_id
 _symmetry_equiv_pos_as_xyz
  1  'x, y, z'
loop_
 _atom_site_type_symbol
 _atom_site_label
 _atom_site_symmetry_multiplicity
 _atom_site_fract_x
 _atom_site_fract_y
 _atom_site_fract_z
 _atom_site_occupancy
  Dy  Dy0  1  0.00000000  0.49998383  0.24283889  1
  Dy  Dy1  1  0.00000000  0.99999151  0.50000000  1
  Dy  Dy2  1  -0.00000000  0.49998383  0.75716111  1
  Cu  Cu3  1  0.00000000  0.99998239  0.15227053  1
  Cu  Cu4  1  -0.00000000  0.49998891  0.41548473  1
  Cu  Cu5  1  0.00000000  0.99998771  0.66917144  1
  Cu  Cu6  1  -0.00000000  0.49998445  0.92566588  1
  Cu  Cu7  1  0.00000000  0.49998445  0.07433412  1
  Cu  Cu8  1  -0.00000000  0.99998771  0.33082856  1
  Cu  Cu9  1  0.00000000  0.49998891  0.58451527  1
  Cu  Cu10  1  -0.00000000  0.99998239  0.84772947  1
  Cu  Cu11  1  0.50000000  0.99997830  0.24612696  1
  Cu  Cu12  1  0.50000000  0.49998025  0.50000000  1
  Cu  Cu13  1  0.50000000  0.99997830  0.75387304  1
  Cu  Cu14  1  0.50000000  0.49997474  -0.00000000  1
  Cu  Cu15  1  0.50000000  0.25045218  0.12142655  1
  Cu  Cu16  1  0.50000000  0.74988337  0.37289642  1
  Cu  Cu17  1  0.50000000  0.25008851  0.62710319  1
  Cu  Cu18  1  0.50000000  0.74950540  0.87857312  1
  Cu  Cu19  1  0.50000000  0.74950540  0.12142688  1
  Cu  Cu20  1  0.50000000  0.25008851  0.37289681  1
  Cu  Cu21  1  0.50000000  0.74988337  0.62710358  1
  Cu  Cu22  1  0.50000000  0.25045218  0.87857345  1
  Cu  Cu23  1  0.00000000  0.99998341  -0.00000000  1
