# generated using pymatgen
data_CoNiTe2
_symmetry_space_group_name_H-M   'P 1'
_cell_length_a   3.95312963
_cell_length_b   3.95322626
_cell_length_c   5.28455542
_cell_angle_alpha   90.00000000
_cell_angle_beta   89.99152228
_cell_angle_gamma   59.99919142
_symmetry_Int_Tables_number   1
_chemical_formula_structural   CoNiTe2
_chemical_formula_sum   'Co1 Ni1 Te2'
_cell_volume   71.52012606
_cell_formula_units_Z   1
loop_
 _symmetry_equiv_pos_site_id
 _symmetry_equiv_pos_as_xyz
  1  'x, y, z'
loop_
 _atom_site_type_symbol
 _atom_site_label
 _atom_site_symmetry_multiplicity
 _atom_site_fract_x
 _atom_site_fract_y
 _atom_site_fract_z
 _atom_site_occupancy
  Co  Co0  1  -0.00000000  0.00000000  0.50000000  1
  Ni  Ni1  1  -0.00000000  0.00000000  0.00000000  1
  Te  Te2  1  0.33324518  0.33337741  0.73967774  1
  Te  Te3  1  0.66675482  0.66662259  0.26032226  1
