# generated using pymatgen
data_Cr3Si2Mo3
_symmetry_space_group_name_H-M   'P 1'
_cell_length_a   4.74311932
_cell_length_b   4.74311932
_cell_length_c   4.74311932
_cell_angle_alpha   90.09324536
_cell_angle_beta   89.90675464
_cell_angle_gamma   89.90675464
_symmetry_Int_Tables_number   1
_chemical_formula_structural   Cr3Si2Mo3
_chemical_formula_sum   'Cr3 Si2 Mo3'
_cell_volume   106.70638912
_cell_formula_units_Z   1
loop_
 _symmetry_equiv_pos_site_id
 _symmetry_equiv_pos_as_xyz
  1  'x, y, z'
loop_
 _atom_site_type_symbol
 _atom_site_label
 _atom_site_symmetry_multiplicity
 _atom_site_fract_x
 _atom_site_fract_y
 _atom_site_fract_z
 _atom_site_occupancy
  Cr  Cr0  1  0.50136566  0.75000000  0.00136566  1
  Cr  Cr1  1  0.25000000  0.00136566  0.49863434  1
  Cr  Cr2  1  0.99863434  0.49863434  0.75000000  1
  Si  Si3  1  0.49182523  0.50817477  0.50817477  1
  Si  Si4  1  0.00817477  0.99182523  0.99182523  1
  Mo  Mo5  1  0.49990677  0.25000000  0.99990677  1
  Mo  Mo6  1  0.75000000  0.99990677  0.50009323  1
  Mo  Mo7  1  0.00009323  0.50009323  0.25000000  1
