# generated using pymatgen
data_CdPb3Se4
_symmetry_space_group_name_H-M   'P 1'
_cell_length_a   4.34737802
_cell_length_b   4.34737802
_cell_length_c   14.17643632
_cell_angle_alpha   90.00000000
_cell_angle_beta   81.17997635
_cell_angle_gamma   120.00000000
_symmetry_Int_Tables_number   1
_chemical_formula_structural   CdPb3Se4
_chemical_formula_sum   'Cd1 Pb3 Se4'
_cell_volume   228.36869328
_cell_formula_units_Z   1
loop_
 _symmetry_equiv_pos_site_id
 _symmetry_equiv_pos_as_xyz
  1  'x, y, z'
loop_
 _atom_site_type_symbol
 _atom_site_label
 _atom_site_symmetry_multiplicity
 _atom_site_fract_x
 _atom_site_fract_y
 _atom_site_fract_z
 _atom_site_occupancy
  Cd  Cd0  1  -0.00000000  -0.00000000  0.00000000  1
  Pb  Pb1  1  0.50772744  0.25386372  0.23840883  1
  Pb  Pb2  1  -0.00000000  0.50000000  0.50000000  1
  Pb  Pb3  1  0.49227256  0.74613628  0.76159117  1
  Se  Se4  1  0.24710013  0.12355007  0.62934980  1
  Se  Se5  1  0.74017847  0.37008923  0.88973230  1
  Se  Se6  1  0.25982153  0.62991077  0.11026770  1
  Se  Se7  1  0.75289987  0.87644993  0.37065020  1
