# generated using pymatgen
data_Be3ZnS4
_symmetry_space_group_name_H-M   'P 1'
_cell_length_a   3.54765236
_cell_length_b   3.54765236
_cell_length_c   11.83368581
_cell_angle_alpha   90.00000000
_cell_angle_beta   81.37908074
_cell_angle_gamma   120.00000000
_symmetry_Int_Tables_number   1
_chemical_formula_structural   Be3ZnS4
_chemical_formula_sum   'Be3 Zn1 S4'
_cell_volume   127.03632569
_cell_formula_units_Z   1
loop_
 _symmetry_equiv_pos_site_id
 _symmetry_equiv_pos_as_xyz
  1  'x, y, z'
loop_
 _atom_site_type_symbol
 _atom_site_label
 _atom_site_symmetry_multiplicity
 _atom_site_fract_x
 _atom_site_fract_y
 _atom_site_fract_z
 _atom_site_occupancy
  Be  Be0  1  0.49285675  0.24642837  0.26071488  1
  Be  Be1  1  0.99962392  0.49981196  0.50056413  1
  Be  Be2  1  0.50690276  0.75345138  0.73964586  1
  Zn  Zn3  1  0.99766298  0.99883149  0.00350553  1
  S  S4  1  0.86443570  0.93221785  0.20334645  1
  S  S5  1  0.37199273  0.18599636  0.44201091  1
  S  S6  1  0.87912400  0.43956200  0.68131400  1
  S  S7  1  0.38740117  0.69370058  0.91889825  1
