# generated using pymatgen
data_CaPrCrO4
_symmetry_space_group_name_H-M   'P 1'
_cell_length_a   5.45021128
_cell_length_b   5.61068902
_cell_length_c   6.59461331
_cell_angle_alpha   90.00000000
_cell_angle_beta   65.59197446
_cell_angle_gamma   90.00000000
_symmetry_Int_Tables_number   1
_chemical_formula_structural   CaPrCrO4
_chemical_formula_sum   'Ca2 Pr2 Cr2 O8'
_cell_volume   183.63641910
_cell_formula_units_Z   2
loop_
 _symmetry_equiv_pos_site_id
 _symmetry_equiv_pos_as_xyz
  1  'x, y, z'
loop_
 _atom_site_type_symbol
 _atom_site_label
 _atom_site_symmetry_multiplicity
 _atom_site_fract_x
 _atom_site_fract_y
 _atom_site_fract_z
 _atom_site_occupancy
  Ca  Ca0  1  0.85362945  0.51861101  0.29274109  1
  Ca  Ca1  1  0.64637055  0.01861101  0.70725891  1
  Pr  Pr2  1  0.13799993  0.48329481  0.72400015  1
  Pr  Pr3  1  0.36200007  0.98329481  0.27599985  1
  Cr  Cr4  1  0.50095487  0.49874994  0.99809025  1
  Cr  Cr5  1  0.99904513  0.99874994  0.00190975  1
  O  O6  1  0.66840896  0.44230400  0.66318208  1
  O  O7  1  0.32861799  0.55383036  0.34276402  1
  O  O8  1  0.83159104  0.94230400  0.33681792  1
  O  O9  1  0.17138201  0.05383036  0.65723598  1
  O  O10  1  0.73432432  0.25160494  0.03702930  1
  O  O11  1  0.76567568  0.75160494  0.96297070  1
  O  O12  1  0.27135361  0.75160494  0.96297070  1
  O  O13  1  0.22864639  0.25160494  0.03702930  1
