# generated using pymatgen
data_CaAgGe
_symmetry_space_group_name_H-M   'P 1'
_cell_length_a   4.57443809
_cell_length_b   5.83850547
_cell_length_c   5.91483782
_cell_angle_alpha   94.99601924
_cell_angle_beta   112.74880696
_cell_angle_gamma   66.93673167
_symmetry_Int_Tables_number   1
_chemical_formula_structural   CaAgGe
_chemical_formula_sum   'Ca2 Ag2 Ge2'
_cell_volume   133.65320708
_cell_formula_units_Z   2
loop_
 _symmetry_equiv_pos_site_id
 _symmetry_equiv_pos_as_xyz
  1  'x, y, z'
loop_
 _atom_site_type_symbol
 _atom_site_label
 _atom_site_symmetry_multiplicity
 _atom_site_fract_x
 _atom_site_fract_y
 _atom_site_fract_z
 _atom_site_occupancy
  Ca  Ca0  1  0.75484676  0.70263979  0.21233330  1
  Ca  Ca1  1  0.24515324  0.29736021  0.78766670  1
  Ag  Ag2  1  0.55673761  0.26866319  0.38213842  1
  Ag  Ag3  1  0.44326239  0.73133681  0.61786158  1
  Ge  Ge4  1  0.04858379  0.10525132  0.20241889  1
  Ge  Ge5  1  0.95141621  0.89474868  0.79758111  1
