# generated using pymatgen
data_Cd2GaAgSe4
_symmetry_space_group_name_H-M   'P 1'
_cell_length_a   4.24793618
_cell_length_b   8.34550317
_cell_length_c   7.50982644
_cell_angle_alpha   61.54677015
_cell_angle_beta   90.00342094
_cell_angle_gamma   104.76214619
_symmetry_Int_Tables_number   1
_chemical_formula_structural   Cd2GaAgSe4
_chemical_formula_sum   'Cd2 Ga1 Ag1 Se4'
_cell_volume   224.02947016
_cell_formula_units_Z   1
loop_
 _symmetry_equiv_pos_site_id
 _symmetry_equiv_pos_as_xyz
  1  'x, y, z'
loop_
 _atom_site_type_symbol
 _atom_site_label
 _atom_site_symmetry_multiplicity
 _atom_site_fract_x
 _atom_site_fract_y
 _atom_site_fract_z
 _atom_site_occupancy
  Cd  Cd0  1  0.00034091  0.00109978  0.34640627  1
  Cd  Cd1  1  0.49639566  0.99304900  0.83282453  1
  Ga  Ga2  1  0.75128366  0.50227872  0.90214903  1
  Ag  Ag3  1  0.25237582  0.50472612  0.41986799  1
  Se  Se4  1  0.06430792  0.12880086  0.60475860  1
  Se  Se5  1  0.57268516  0.14561113  0.08904475  1
  Se  Se6  1  0.81149807  0.62267914  0.53592038  1
  Se  Se7  1  0.30111280  0.60175525  0.01902844  1
