# generated using pymatgen
data_Ce2Al3Ge
_symmetry_space_group_name_H-M   'P 1'
_cell_length_a   4.15610812
_cell_length_b   4.34799244
_cell_length_c   7.54471013
_cell_angle_alpha   89.99958570
_cell_angle_beta   90.00000000
_cell_angle_gamma   90.00000000
_symmetry_Int_Tables_number   1
_chemical_formula_structural   Ce2Al3Ge
_chemical_formula_sum   'Ce2 Al3 Ge1'
_cell_volume   136.33839462
_cell_formula_units_Z   1
loop_
 _symmetry_equiv_pos_site_id
 _symmetry_equiv_pos_as_xyz
  1  'x, y, z'
loop_
 _atom_site_type_symbol
 _atom_site_label
 _atom_site_symmetry_multiplicity
 _atom_site_fract_x
 _atom_site_fract_y
 _atom_site_fract_z
 _atom_site_occupancy
  Ce  Ce0  1  0.00000000  0.99994920  0.00407648  1
  Ce  Ce1  1  0.00000000  0.49998361  0.49665647  1
  Al  Al2  1  0.50000000  0.49995754  0.83207510  1
  Al  Al3  1  0.50000000  0.49997078  0.16781053  1
  Al  Al4  1  0.50000000  0.99997388  0.66558727  1
  Ge  Ge5  1  0.50000000  0.99996498  0.33379415  1
