# generated using pymatgen
data_Li10Ti2Mn3Ni3O16
_symmetry_space_group_name_H-M   'P 1'
_cell_length_a   5.97946601
_cell_length_b   6.01345180
_cell_length_c   9.86074410
_cell_angle_alpha   88.41983257
_cell_angle_beta   90.36066843
_cell_angle_gamma   120.50055044
_symmetry_Int_Tables_number   1
_chemical_formula_structural   Li10Ti2Mn3Ni3O16
_chemical_formula_sum   'Li10 Ti2 Mn3 Ni3 O16'
_cell_volume   305.37347366
_cell_formula_units_Z   1
loop_
 _symmetry_equiv_pos_site_id
 _symmetry_equiv_pos_as_xyz
  1  'x, y, z'
loop_
 _atom_site_type_symbol
 _atom_site_label
 _atom_site_symmetry_multiplicity
 _atom_site_fract_x
 _atom_site_fract_y
 _atom_site_fract_z
 _atom_site_occupancy
  Li  Li0  1  0.99947250  0.99590325  0.52886869  1
  Li  Li1  1  0.38248668  0.18104022  0.95443796  1
  Li  Li2  1  0.18944764  0.38584484  0.45827821  1
  Li  Li3  1  0.80794643  0.19391357  0.95644049  1
  Li  Li4  1  0.67478168  0.34274197  0.74678230  1
  Li  Li5  1  0.33770004  0.67240860  0.24618595  1
  Li  Li6  1  0.20874188  0.80583082  0.46974568  1
  Li  Li7  1  0.79710355  0.59804827  0.96468131  1
  Li  Li8  1  0.61078247  0.80109984  0.46379388  1
  Li  Li9  1  0.99080033  0.99127246  0.02730858  1
  Ti  Ti10  1  0.32846168  0.67528262  0.98202988  1
  Ti  Ti11  1  0.67397535  0.35314910  0.48578333  1
  Mn  Mn12  1  0.16949613  0.34201865  0.72642735  1
  Mn  Mn13  1  0.33443540  0.16850230  0.22755880  1
  Mn  Mn14  1  0.83085822  0.17584615  0.22714410  1
  Ni  Ni15  1  0.17126664  0.83308530  0.72774510  1
  Ni  Ni16  1  0.66389044  0.83311135  0.72878985  1
  Ni  Ni17  1  0.82967835  0.66171973  0.22674872  1
  O  O18  1  0.01050048  0.01793648  0.83354911  1
  O  O19  1  0.98211903  0.00746634  0.33521786  1
  O  O20  1  0.34957141  0.16294336  0.58922673  1
  O  O21  1  0.01570419  0.51373502  0.85712466  1
  O  O22  1  0.14310037  0.32994849  0.09812893  1
  O  O23  1  0.52689808  0.02267715  0.35530061  1
  O  O24  1  0.47839626  0.50008798  0.85357623  1
  O  O25  1  0.33140469  0.65562783  0.61320041  1
  O  O26  1  0.51668590  0.49532174  0.36153533  1
  O  O27  1  0.84665045  0.18093688  0.59933700  1
  O  O28  1  0.67374217  0.32515361  0.10897133  1
  O  O29  1  0.16698091  0.81912869  0.08928636  1
  O  O30  1  0.49068479  0.97750008  0.85548683  1
  O  O31  1  0.98771927  0.50667064  0.35965773  1
  O  O32  1  0.82751775  0.65238702  0.59738661  1
  O  O33  1  0.64192386  0.80386964  0.09034110  1
