# generated using pymatgen
data_CePr3Fe34
_symmetry_space_group_name_H-M   'P 1'
_cell_length_a   6.47511277
_cell_length_b   6.47511277
_cell_length_c   12.94369647
_cell_angle_alpha   82.98841159
_cell_angle_beta   82.98841159
_cell_angle_gamma   83.00087247
_symmetry_Int_Tables_number   1
_chemical_formula_structural   CePr3Fe34
_chemical_formula_sum   'Ce1 Pr3 Fe34'
_cell_volume   531.44455636
_cell_formula_units_Z   1
loop_
 _symmetry_equiv_pos_site_id
 _symmetry_equiv_pos_as_xyz
  1  'x, y, z'
loop_
 _atom_site_type_symbol
 _atom_site_label
 _atom_site_symmetry_multiplicity
 _atom_site_fract_x
 _atom_site_fract_y
 _atom_site_fract_z
 _atom_site_occupancy
  Ce  Ce0  1  0.65706028  0.65706028  0.32857563  1
  Pr  Pr1  1  0.65797283  0.65797283  0.82886174  1
  Pr  Pr2  1  0.34287563  0.34287563  0.17167849  1
  Pr  Pr3  1  0.34205150  0.34205150  0.67088264  1
  Fe  Fe4  1  0.90267560  0.90267560  0.45109480  1
  Fe  Fe5  1  0.90361681  0.90361681  0.95202611  1
  Fe  Fe6  1  0.09634328  0.09634328  0.04861006  1
  Fe  Fe7  1  0.09617342  0.09617342  0.54764714  1
  Fe  Fe8  1  0.00040013  0.00040013  0.25019964  1
  Fe  Fe9  1  0.99993966  0.99993966  0.74995870  1
  Fe  Fe10  1  0.00058224  0.50003415  0.49996780  1
  Fe  Fe11  1  0.99970542  0.50014671  0.00021634  1
  Fe  Fe12  1  0.50014671  0.99970542  0.00021634  1
  Fe  Fe13  1  0.50003415  0.00058224  0.49996780  1
  Fe  Fe14  1  0.29052186  0.71072405  0.49908707  1
  Fe  Fe15  1  0.28746362  0.71204489  0.00047590  1
  Fe  Fe16  1  0.71126588  0.99852286  0.14527016  1
  Fe  Fe17  1  0.71198554  0.00050914  0.64361941  1
  Fe  Fe18  1  0.99923743  0.28950269  0.35563912  1
  Fe  Fe19  1  0.99995313  0.28812237  0.85591674  1
  Fe  Fe20  1  0.28950269  0.99923743  0.35563912  1
  Fe  Fe21  1  0.28812237  0.99995313  0.85591674  1
  Fe  Fe22  1  0.99852286  0.71126588  0.14527016  1
  Fe  Fe23  1  0.00050914  0.71198554  0.64361941  1
  Fe  Fe24  1  0.71204489  0.28746362  0.00047590  1
  Fe  Fe25  1  0.71072405  0.29052186  0.49908707  1
  Fe  Fe26  1  0.34265188  0.34265188  0.42244985  1
  Fe  Fe27  1  0.34098653  0.34098653  0.92333087  1
  Fe  Fe28  1  0.34251830  0.84498719  0.17161891  1
  Fe  Fe29  1  0.34110452  0.84681681  0.67024721  1
  Fe  Fe30  1  0.84498719  0.34251830  0.17161891  1
  Fe  Fe31  1  0.84681681  0.34110452  0.67024721  1
  Fe  Fe32  1  0.65817055  0.65817055  0.07769014  1
  Fe  Fe33  1  0.65911705  0.65911705  0.57566916  1
  Fe  Fe34  1  0.65821638  0.15362960  0.32918966  1
  Fe  Fe35  1  0.65897075  0.15339933  0.82941419  1
  Fe  Fe36  1  0.15362960  0.65821638  0.32918966  1
  Fe  Fe37  1  0.15339933  0.65897075  0.82941419  1
