# generated using pymatgen
data_CaNdCrO4
_symmetry_space_group_name_H-M   'P 1'
_cell_length_a   5.43155440
_cell_length_b   5.65095798
_cell_length_c   6.54716751
_cell_angle_alpha   90.00000000
_cell_angle_beta   65.49315678
_cell_angle_gamma   90.00000000
_symmetry_Int_Tables_number   1
_chemical_formula_structural   CaNdCrO4
_chemical_formula_sum   'Ca2 Nd2 Cr2 O8'
_cell_volume   182.85166949
_cell_formula_units_Z   2
loop_
 _symmetry_equiv_pos_site_id
 _symmetry_equiv_pos_as_xyz
  1  'x, y, z'
loop_
 _atom_site_type_symbol
 _atom_site_label
 _atom_site_symmetry_multiplicity
 _atom_site_fract_x
 _atom_site_fract_y
 _atom_site_fract_z
 _atom_site_occupancy
  Ca  Ca0  1  0.85294220  0.51936016  0.29411560  1
  Ca  Ca1  1  0.64705780  0.01936016  0.70588440  1
  Nd  Nd2  1  0.13815943  0.48140570  0.72368113  1
  Nd  Nd3  1  0.36184057  0.98140570  0.27631887  1
  Cr  Cr4  1  0.50038249  0.49782761  0.99923501  1
  Cr  Cr5  1  0.99961751  0.99782761  0.00076499  1
  O  O6  1  0.72976524  0.25142577  0.04496170  1
  O  O7  1  0.77023476  0.75142577  0.95503830  1
  O  O8  1  0.27472694  0.75142577  0.95503830  1
  O  O9  1  0.22527306  0.25142577  0.04496170  1
  O  O10  1  0.66792995  0.43377246  0.66414010  1
  O  O11  1  0.32725576  0.56478252  0.34548848  1
  O  O12  1  0.83207005  0.93377246  0.33585990  1
  O  O13  1  0.17274424  0.06478252  0.65451152  1
