# generated using pymatgen
data_Cd2MoWO8
_symmetry_space_group_name_H-M   'P 1'
_cell_length_a   5.27216358
_cell_length_b   5.27216358
_cell_length_c   6.80874201
_cell_angle_alpha   67.22201440
_cell_angle_beta   67.22201440
_cell_angle_gamma   90.00000000
_symmetry_Int_Tables_number   1
_chemical_formula_structural   Cd2MoWO8
_chemical_formula_sum   'Cd2 Mo1 W1 O8'
_cell_volume   158.36509257
_cell_formula_units_Z   1
loop_
 _symmetry_equiv_pos_site_id
 _symmetry_equiv_pos_as_xyz
  1  'x, y, z'
loop_
 _atom_site_type_symbol
 _atom_site_label
 _atom_site_symmetry_multiplicity
 _atom_site_fract_x
 _atom_site_fract_y
 _atom_site_fract_z
 _atom_site_occupancy
  Cd  Cd0  1  0.37500000  0.62500000  0.25000000  1
  Cd  Cd1  1  0.62500000  0.37500000  0.75000000  1
  Mo  Mo2  1  0.12500000  0.87500000  0.75000000  1
  W  W3  1  0.87500000  0.12500000  0.25000000  1
  O  O4  1  0.94609583  0.28266353  0.42433905  1
  O  O5  1  0.62956512  0.79299742  0.42433905  1
  O  O6  1  0.27998021  0.63074451  0.92326011  1
  O  O7  1  0.79675968  0.94599538  0.92326011  1
  O  O8  1  0.05400462  0.72001979  0.57673989  1
  O  O9  1  0.36925549  0.20324032  0.57673989  1
  O  O10  1  0.71733647  0.37043488  0.07566095  1
  O  O11  1  0.20700258  0.05390417  0.07566095  1
