# generated using pymatgen
data_BaVSe2S
_symmetry_space_group_name_H-M   'P 1'
_cell_length_a   5.96143264
_cell_length_b   6.96722621
_cell_length_c   6.91558259
_cell_angle_alpha   60.37245444
_cell_angle_beta   90.00000000
_cell_angle_gamma   90.00000000
_symmetry_Int_Tables_number   1
_chemical_formula_structural   BaVSe2S
_chemical_formula_sum   'Ba2 V2 Se4 S2'
_cell_volume   249.68226852
_cell_formula_units_Z   2
loop_
 _symmetry_equiv_pos_site_id
 _symmetry_equiv_pos_as_xyz
  1  'x, y, z'
loop_
 _atom_site_type_symbol
 _atom_site_label
 _atom_site_symmetry_multiplicity
 _atom_site_fract_x
 _atom_site_fract_y
 _atom_site_fract_z
 _atom_site_occupancy
  Ba  Ba0  1  0.25000000  0.67032466  0.66492032  1
  Ba  Ba1  1  0.75000000  0.33145240  0.33425049  1
  V  V2  1  0.50469009  0.98569888  0.00694549  1
  V  V3  1  0.99530991  0.98569888  0.00694549  1
  Se  Se4  1  0.75000000  0.34093452  0.83000630  1
  Se  Se5  1  0.25000000  0.16433277  0.17012368  1
  Se  Se6  1  0.25000000  0.16360026  0.66628830  1
  Se  Se7  1  0.25000000  0.66138210  0.16928292  1
  S  S8  1  0.75000000  0.84800983  0.83833853  1
  S  S9  1  0.75000000  0.84856568  0.31289847  1
