# generated using pymatgen
data_Ba3Nd3(Cu3O7)2
_symmetry_space_group_name_H-M   'P 1'
_cell_length_a   5.54462976
_cell_length_b   5.54462976
_cell_length_c   12.31916863
_cell_angle_alpha   76.64876100
_cell_angle_beta   76.64876100
_cell_angle_gamma   88.50297378
_symmetry_Int_Tables_number   1
_chemical_formula_structural   Ba3Nd3(Cu3O7)2
_chemical_formula_sum   'Ba3 Nd3 Cu6 O14'
_cell_volume   358.38393854
_cell_formula_units_Z   1
loop_
 _symmetry_equiv_pos_site_id
 _symmetry_equiv_pos_as_xyz
  1  'x, y, z'
loop_
 _atom_site_type_symbol
 _atom_site_label
 _atom_site_symmetry_multiplicity
 _atom_site_fract_x
 _atom_site_fract_y
 _atom_site_fract_z
 _atom_site_occupancy
  Ba  Ba0  1  0.58892296  0.08892296  0.82215408  1
  Ba  Ba1  1  0.09095870  0.59095870  0.81808260  1
  Ba  Ba2  1  0.91008359  0.41008359  0.17983282  1
  Nd  Nd3  1  0.25043627  0.75043627  0.49912746  1
  Nd  Nd4  1  0.75132729  0.25132729  0.49734541  1
  Nd  Nd5  1  0.40643302  0.90643302  0.18713395  1
  Cu  Cu6  1  0.17595641  0.17595641  0.64808719  1
  Cu  Cu7  1  0.67595641  0.67595641  0.64808719  1
  Cu  Cu8  1  0.32552654  0.32552654  0.34894691  1
  Cu  Cu9  1  0.82552654  0.82552654  0.34894691  1
  Cu  Cu10  1  0.49762558  0.49762558  0.00474884  1
  Cu  Cu11  1  0.99762558  0.99762558  0.00474884  1
  O  O12  1  0.44098610  0.94098610  0.62164827  1
  O  O13  1  0.93736563  0.43736563  0.62164827  1
  O  O14  1  0.93573489  0.93715077  0.62711434  1
  O  O15  1  0.43715077  0.43573489  0.62711434  1
  O  O16  1  0.56105930  0.06105930  0.35890805  1
  O  O17  1  0.08003265  0.58003265  0.35890805  1
  O  O18  1  0.07486321  0.06492387  0.36021292  1
  O  O19  1  0.56492387  0.57486321  0.36021292  1
  O  O20  1  0.07797791  0.07797791  0.84404417  1
  O  O21  1  0.57797791  0.57797791  0.84404417  1
  O  O22  1  0.41773678  0.41773678  0.16452645  1
  O  O23  1  0.91773678  0.91773678  0.16452645  1
  O  O24  1  0.70206831  0.77800699  0.01992469  1
  O  O25  1  0.27800699  0.20206831  0.01992469  1
