# generated using pymatgen
data_BiTe2Pb2AuS3
_symmetry_space_group_name_H-M   'P 1'
_cell_length_a   4.18142497
_cell_length_b   9.66654745
_cell_length_c   12.29890189
_cell_angle_alpha   90.00000000
_cell_angle_beta   90.00000000
_cell_angle_gamma   90.00000000
_symmetry_Int_Tables_number   1
_chemical_formula_structural   BiTe2Pb2AuS3
_chemical_formula_sum   'Bi2 Te4 Pb4 Au2 S6'
_cell_volume   497.12091189
_cell_formula_units_Z   2
loop_
 _symmetry_equiv_pos_site_id
 _symmetry_equiv_pos_as_xyz
  1  'x, y, z'
loop_
 _atom_site_type_symbol
 _atom_site_label
 _atom_site_symmetry_multiplicity
 _atom_site_fract_x
 _atom_site_fract_y
 _atom_site_fract_z
 _atom_site_occupancy
  Bi  Bi0  1  0.25000000  0.33525936  0.42151435  1
  Bi  Bi1  1  0.75000000  0.66474064  0.92151435  1
  Te  Te2  1  0.75000000  0.99162863  0.39453283  1
  Te  Te3  1  0.75000000  0.99153135  0.10447510  1
  Te  Te4  1  0.25000000  0.00846865  0.60447510  1
  Te  Te5  1  0.25000000  0.00837137  0.89453283  1
  Pb  Pb6  1  0.25000000  0.31923388  0.07860471  1
  Pb  Pb7  1  0.75000000  0.68076612  0.57860471  1
  Pb  Pb8  1  0.75000000  0.65425369  0.25056559  1
  Pb  Pb9  1  0.25000000  0.34574631  0.75056559  1
  Au  Au10  1  0.25000000  0.99678355  0.24966983  1
  Au  Au11  1  0.75000000  0.00321645  0.74966983  1
  S  S12  1  0.75000000  0.36400937  0.25960604  1
  S  S13  1  0.25000000  0.63599063  0.75960604  1
  S  S14  1  0.75000000  0.38297863  0.57498647  1
  S  S15  1  0.75000000  0.38988419  0.91604508  1
  S  S16  1  0.25000000  0.61011581  0.41604508  1
  S  S17  1  0.25000000  0.61702137  0.07498647  1
