# generated using pymatgen
data_CaLa3Mn4O10
_symmetry_space_group_name_H-M   'P 1'
_cell_length_a   5.62135747
_cell_length_b   5.77306626
_cell_length_c   16.08311974
_cell_angle_alpha   90.71401327
_cell_angle_beta   90.00000000
_cell_angle_gamma   90.00000000
_symmetry_Int_Tables_number   1
_chemical_formula_structural   CaLa3Mn4O10
_chemical_formula_sum   'Ca2 La6 Mn8 O20'
_cell_volume   521.89641973
_cell_formula_units_Z   2
loop_
 _symmetry_equiv_pos_site_id
 _symmetry_equiv_pos_as_xyz
  1  'x, y, z'
loop_
 _atom_site_type_symbol
 _atom_site_label
 _atom_site_symmetry_multiplicity
 _atom_site_fract_x
 _atom_site_fract_y
 _atom_site_fract_z
 _atom_site_occupancy
  Ca  Ca0  1  0.03745114  0.52378956  0.88557422  1
  Ca  Ca1  1  0.46254886  0.02378956  0.38557422  1
  La  La2  1  0.52769159  0.97961467  0.60793136  1
  La  La3  1  0.96800543  0.47980788  0.38497806  1
  La  La4  1  0.46969602  0.01740519  0.11618475  1
  La  La5  1  0.97230841  0.47961467  0.10793136  1
  La  La6  1  0.03030398  0.51740519  0.61618475  1
  La  La7  1  0.53199457  0.97980788  0.88497806  1
  Mn  Mn8  1  0.04786821  0.05475876  0.75358745  1
  Mn  Mn9  1  0.55315878  0.44984491  0.75135028  1
  Mn  Mn10  1  0.94684122  0.94984491  0.25135028  1
  Mn  Mn11  1  0.45213179  0.55475876  0.25358745  1
  Mn  Mn12  1  0.49909697  0.49990080  0.99645168  1
  Mn  Mn13  1  0.00090303  -0.00009920  0.49645168  1
  Mn  Mn14  1  0.49939953  0.49697137  0.49582518  1
  Mn  Mn15  1  0.00060047  0.99697137  0.99582518  1
  O  O16  1  0.22708451  0.71116752  0.01971215  1
  O  O17  1  0.72527923  0.79145662  0.48009255  1
  O  O18  1  0.78907848  0.27105361  0.52158181  1
  O  O19  1  0.28797015  0.22748230  0.98364775  1
  O  O20  1  0.77472077  0.29145662  0.98009255  1
  O  O21  1  0.27291549  0.21116752  0.51971215  1
  O  O22  1  0.21202985  0.72748230  0.48364775  1
  O  O23  1  0.71092152  0.77105361  0.02158181  1
  O  O24  1  0.92782604  0.39895731  0.75187323  1
  O  O25  1  0.42731030  0.10236946  0.74871904  1
  O  O26  1  0.07268970  0.60236946  0.24871904  1
  O  O27  1  0.57217396  0.89895731  0.25187323  1
  O  O28  1  0.45003082  0.59109154  0.86138195  1
  O  O29  1  0.95876972  0.91173795  0.64066966  1
  O  O30  1  0.54686112  0.41345410  0.36433217  1
  O  O31  1  0.03483230  0.07913646  0.13610672  1
  O  O32  1  0.54123028  0.41173795  0.14066966  1
  O  O33  1  0.04996918  0.09109154  0.36138195  1
  O  O34  1  0.46516770  0.57913646  0.63610672  1
  O  O35  1  0.95313888  0.91345410  0.86433217  1
