# generated using pymatgen
data_La(BC)2
_symmetry_space_group_name_H-M   'P 1'
_cell_length_a   3.83664595
_cell_length_b   3.83664595
_cell_length_c   7.97289701
_cell_angle_alpha   90.00000000
_cell_angle_beta   90.00000000
_cell_angle_gamma   90.00000000
_symmetry_Int_Tables_number   1
_chemical_formula_structural   La(BC)2
_chemical_formula_sum   'La2 B4 C4'
_cell_volume   117.35986516
_cell_formula_units_Z   2
loop_
 _symmetry_equiv_pos_site_id
 _symmetry_equiv_pos_as_xyz
  1  'x, y, z'
loop_
 _atom_site_type_symbol
 _atom_site_label
 _atom_site_symmetry_multiplicity
 _atom_site_fract_x
 _atom_site_fract_y
 _atom_site_fract_z
 _atom_site_occupancy
  B  B0  1  0.50000000  0.78306710  0.50000000  1
  B  B1  1  0.21693290  0.50000000  0.00000000  1
  B  B2  1  0.50000000  0.21693290  0.50000000  1
  B  B3  1  0.78306710  0.50000000  0.00000000  1
  C  C4  1  0.50000000  0.81352825  0.00000000  1
  C  C5  1  0.81352825  0.50000000  0.50000000  1
  C  C6  1  0.18647175  0.50000000  0.50000000  1
  C  C7  1  0.50000000  0.18647175  0.00000000  1
  La  La8  1  0.00000000  0.00000000  0.75000000  1
  La  La9  1  0.00000000  0.00000000  0.25000000  1
