# generated using pymatgen
data_Ba4Y2Cu6O13
_symmetry_space_group_name_H-M   'P 1'
_cell_length_a   5.51144116
_cell_length_b   5.51144116
_cell_length_c   12.66861541
_cell_angle_alpha   77.13990238
_cell_angle_beta   77.13990238
_cell_angle_gamma   88.67029048
_symmetry_Int_Tables_number   1
_chemical_formula_structural   Ba4Y2Cu6O13
_chemical_formula_sum   'Ba4 Y2 Cu6 O13'
_cell_volume   365.61798530
_cell_formula_units_Z   1
loop_
 _symmetry_equiv_pos_site_id
 _symmetry_equiv_pos_as_xyz
  1  'x, y, z'
loop_
 _atom_site_type_symbol
 _atom_site_label
 _atom_site_symmetry_multiplicity
 _atom_site_fract_x
 _atom_site_fract_y
 _atom_site_fract_z
 _atom_site_occupancy
  Ba  Ba0  1  0.08755288  0.60252571  0.80992141  1
  Ba  Ba1  1  0.60252571  0.08755288  0.80992141  1
  Ba  Ba2  1  0.41244712  0.89747429  0.19007859  1
  Ba  Ba3  1  0.89747429  0.41244712  0.19007859  1
  Y  Y4  1  0.25000000  0.75000000  0.50000000  1
  Y  Y5  1  0.75000000  0.25000000  0.50000000  1
  Cu  Cu6  1  0.18292034  0.18292034  0.63652899  1
  Cu  Cu7  1  0.68055067  0.68055067  0.63652899  1
  Cu  Cu8  1  0.31707966  0.31707966  0.36347101  1
  Cu  Cu9  1  0.81944933  0.81944933  0.36347101  1
  Cu  Cu10  1  0.50917493  0.50917493  -0.00000000  1
  Cu  Cu11  1  0.99082507  0.99082507  0.00000000  1
  O  O12  1  0.93864655  0.93864655  0.62270690  1
  O  O13  1  0.44032835  0.44032835  0.61934330  1
  O  O14  1  0.44048946  0.94048946  0.61902108  1
  O  O15  1  0.94048946  0.44048946  0.61902108  1
  O  O16  1  0.05967165  0.05967165  0.38065670  1
  O  O17  1  0.56135345  0.56135345  0.37729310  1
  O  O18  1  0.55951054  0.05951054  0.38097892  1
  O  O19  1  0.05951054  0.55951054  0.38097892  1
  O  O20  1  0.09678866  0.09678866  0.84915125  1
  O  O21  1  0.55406009  0.55406009  0.84915125  1
  O  O22  1  0.40321134  0.40321134  0.15084875  1
  O  O23  1  0.94593991  0.94593991  0.15084875  1
  O  O24  1  0.75000000  0.75000000  -0.00000000  1
