# generated using pymatgen
data_CaMn25FeSi4SbO44
_symmetry_space_group_name_H-M   'P 1'
_cell_length_a   6.78797504
_cell_length_b   13.22869683
_cell_length_c   11.75171346
_cell_angle_alpha   63.58899959
_cell_angle_beta   89.99528854
_cell_angle_gamma   104.86355142
_symmetry_Int_Tables_number   1
_chemical_formula_structural   CaMn25FeSi4SbO44
_chemical_formula_sum   'Ca1 Mn25 Fe1 Si4 Sb1 O44'
_cell_volume   905.51086875
_cell_formula_units_Z   1
loop_
 _symmetry_equiv_pos_site_id
 _symmetry_equiv_pos_as_xyz
  1  'x, y, z'
loop_
 _atom_site_type_symbol
 _atom_site_label
 _atom_site_symmetry_multiplicity
 _atom_site_fract_x
 _atom_site_fract_y
 _atom_site_fract_z
 _atom_site_occupancy
  Ca  Ca0  1  0.49969231  0.99955496  0.49986124  1
  Mn  Mn1  1  0.24936685  0.99990942  0.75078099  1
  Mn  Mn2  1  0.75050117  0.99995583  0.24922977  1
  Mn  Mn3  1  0.99904238  0.99811203  0.50090152  1
  Mn  Mn4  1  0.50097070  0.00184217  0.99909488  1
  Mn  Mn5  1  0.75052582  0.99991393  0.75080917  1
  Mn  Mn6  1  0.24945361  0.99995514  0.24924008  1
  Mn  Mn7  1  0.00389203  0.49955237  0.99455400  1
  Mn  Mn8  1  0.49594226  0.50031865  0.50545136  1
  Mn  Mn9  1  0.74987245  0.49978939  0.75000755  1
  Mn  Mn10  1  0.25020230  0.50045521  0.24978462  1
  Mn  Mn11  1  0.49568516  0.49956558  0.99451450  1
  Mn  Mn12  1  0.00440488  0.50030834  0.50551728  1
  Mn  Mn13  1  0.00008155  -0.00007262  0.00056494  1
  Mn  Mn14  1  0.36498575  0.23274617  0.46730560  1
  Mn  Mn15  1  0.86726297  0.23419932  0.96652530  1
  Mn  Mn16  1  0.86762349  0.23266838  0.46731416  1
  Mn  Mn17  1  0.36692539  0.23429253  0.96645831  1
  Mn  Mn18  1  0.11667770  0.23330886  0.71672198  1
  Mn  Mn19  1  0.61684321  0.23375244  0.21543205  1
  Mn  Mn20  1  0.63284219  0.76428493  0.53384135  1
  Mn  Mn21  1  0.13455106  0.76877027  0.03246327  1
  Mn  Mn22  1  0.13130112  0.76415950  0.53386967  1
  Mn  Mn23  1  0.63428021  0.76885055  0.03247715  1
  Mn  Mn24  1  0.88394049  0.76781851  0.28266307  1
  Mn  Mn25  1  0.38251046  0.76504290  0.78501484  1
  Fe  Fe26  1  0.25014264  0.50019404  0.74993686  1
  Si  Si27  1  0.86788823  0.73581026  0.79825025  1
  Si  Si28  1  0.36801292  0.73600881  0.29918651  1
  Si  Si29  1  0.13207172  0.26415955  0.20028703  1
  Si  Si30  1  0.63208017  0.26406661  0.70228780  1
  Sb  Sb31  1  0.74993151  0.49982455  0.25016194  1
  O  O32  1  0.96666710  0.40673218  0.87541567  1
  O  O33  1  0.47390282  0.41028267  0.37100688  1
  O  O34  1  0.44033658  0.40706580  0.87521168  1
  O  O35  1  0.93608238  0.40996096  0.37122745  1
  O  O36  1  0.70590753  0.41213553  0.14065118  1
  O  O37  1  0.20275952  0.40534047  0.63898354  1
  O  O38  1  0.02496259  0.59089457  0.12899225  1
  O  O39  1  0.53408675  0.59169268  0.62490299  1
  O  O40  1  0.56631862  0.59125324  0.12868690  1
  O  O41  1  0.05740790  0.59148646  0.62508342  1
  O  O42  1  0.29641385  0.59299756  0.86290712  1
  O  O43  1  0.79451872  0.58881948  0.35775261  1
  O  O44  1  0.79562369  0.59116949  0.87156116  1
  O  O45  1  0.29533983  0.59082467  0.37106165  1
  O  O46  1  0.20471851  0.40934540  0.12915797  1
  O  O47  1  0.70428906  0.40856660  0.62831130  1
  O  O48  1  0.73959637  0.05777259  0.06729629  1
  O  O49  1  0.23074099  0.05505813  0.57161617  1
  O  O50  1  0.31842928  0.05766739  0.06743365  1
  O  O51  1  0.82429179  0.05522703  0.57155794  1
  O  O52  1  0.52759676  0.05514047  0.27344745  1
  O  O53  1  0.02861854  0.05727926  0.77972398  1
  O  O54  1  0.26543877  0.94697715  0.92973297  1
  O  O55  1  0.76496322  0.94053755  0.43099939  1
  O  O56  1  0.68157386  0.94673504  0.92985959  1
  O  O57  1  0.17536836  0.94052472  0.43096728  1
  O  O58  1  0.47027868  0.94047516  0.72723170  1
  O  O59  1  0.97384353  0.94772501  0.21953409  1
  O  O60  1  0.60268049  0.20508733  0.39818342  1
  O  O61  1  0.09944309  0.19923707  0.89980090  1
  O  O62  1  0.90276298  0.80590165  0.09600059  1
  O  O63  1  0.39545450  0.79083416  0.60526472  1
  O  O64  1  0.09214472  0.78579565  0.83890994  1
  O  O65  1  0.59096484  0.78473243  0.34181020  1
  O  O66  1  0.89197880  0.78428384  0.64075506  1
  O  O67  1  0.39322424  0.78622535  0.14182308  1
  O  O68  1  0.69353772  0.78571321  0.83905573  1
  O  O69  1  0.19380280  0.78480042  0.34169947  1
  O  O70  1  0.90924730  0.21559480  0.15725395  1
  O  O71  1  0.40747346  0.21403673  0.66190369  1
  O  O72  1  0.10662797  0.21352808  0.35753239  1
  O  O73  1  0.60815835  0.21585030  0.85996484  1
  O  O74  1  0.30627306  0.21548838  0.15745761  1
  O  O75  1  0.80664541  0.21408473  0.66176109  1
