# generated using pymatgen
data_BaNd4(CoO3)5
_symmetry_space_group_name_H-M   'P 1'
_cell_length_a   5.52018978
_cell_length_b   9.41574949
_cell_length_c   12.51517063
_cell_angle_alpha   74.00027657
_cell_angle_beta   77.25925477
_cell_angle_gamma   72.95420751
_symmetry_Int_Tables_number   1
_chemical_formula_structural   BaNd4(CoO3)5
_chemical_formula_sum   'Ba2 Nd8 Co10 O30'
_cell_volume   590.87899262
_cell_formula_units_Z   2
loop_
 _symmetry_equiv_pos_site_id
 _symmetry_equiv_pos_as_xyz
  1  'x, y, z'
loop_
 _atom_site_type_symbol
 _atom_site_label
 _atom_site_symmetry_multiplicity
 _atom_site_fract_x
 _atom_site_fract_y
 _atom_site_fract_z
 _atom_site_occupancy
  Ba  Ba0  1  0.69227500  0.65000000  0.95000000  1
  Ba  Ba1  1  0.70772500  0.15000000  0.45000000  1
  Nd  Nd2  1  0.89473583  0.04757482  0.14687536  1
  Nd  Nd3  1  0.09763777  0.45448169  0.34274143  1
  Nd  Nd4  1  0.29486089  0.84551831  0.55725857  1
  Nd  Nd5  1  0.48918601  0.25242518  0.75312464  1
  Nd  Nd6  1  0.50526417  0.75242518  0.25312464  1
  Nd  Nd7  1  0.91081399  0.54757482  0.64687536  1
  Nd  Nd8  1  0.10513911  0.95448169  0.84274143  1
  Nd  Nd9  1  0.30236223  0.34551831  0.05725857  1
  Co  Co10  1  0.89352550  0.30087855  0.89823975  1
  Co  Co11  1  0.09483473  0.70032346  0.10029879  1
  Co  Co12  1  0.30516527  0.09967654  0.29970121  1
  Co  Co13  1  0.50647450  0.49912145  0.50176025  1
  Co  Co14  1  0.70000000  0.90000000  0.70000000  1
  Co  Co15  1  0.29545698  0.59967654  0.79970121  1
  Co  Co16  1  0.49264380  -0.00087855  0.00176025  1
  Co  Co17  1  0.70000000  0.40000000  0.20000000  1
  Co  Co18  1  0.90735620  0.80087855  0.39823975  1
  Co  Co19  1  0.10454302  0.20032346  0.60029879  1
  O  O20  1  0.94971756  0.03072053  0.63915019  1
  O  O21  1  0.11730837  0.44397644  0.81860098  1
  O  O22  1  0.28693137  0.85956939  0.03032965  1
  O  O23  1  0.53280417  0.23627750  0.22360074  1
  O  O24  1  0.73080636  0.64614371  0.41689440  1
  O  O25  1  0.39268242  0.06372250  0.67639926  1
  O  O26  1  0.57683041  0.44043061  0.86967035  1
  O  O27  1  0.77988580  0.85602356  0.08139902  1
  O  O28  1  0.01958828  0.26927947  0.26084981  1
  O  O29  1  0.19384446  0.65385629  0.48310560  1
  O  O30  1  0.45028244  0.76927947  0.76084981  1
  O  O31  1  0.66919364  0.15385629  0.98310560  1
  O  O32  1  0.86719583  0.56372250  0.17639926  1
  O  O33  1  0.11306863  0.94043061  0.36967035  1
  O  O34  1  0.28269163  0.35602356  0.58139902  1
  O  O35  1  0.00731758  0.73627750  0.72360074  1
  O  O36  1  0.20615554  0.14614371  0.91689440  1
  O  O37  1  0.38041172  0.53072053  0.13915019  1
  O  O38  1  0.62011420  0.94397644  0.31860098  1
  O  O39  1  0.82316959  0.35956939  0.53032965  1
  O  O40  1  0.88031733  0.33973111  0.05278889  1
  O  O41  1  0.08462904  0.74466847  0.25048997  1
  O  O42  1  0.23714180  0.15000000  0.45000000  1
  O  O43  1  0.47978748  0.55533153  0.64951003  1
  O  O44  1  0.67283734  0.96026889  0.84721111  1
  O  O45  1  0.31537096  0.05533153  0.14951003  1
  O  O46  1  0.51968267  0.46026889  0.34721111  1
  O  O47  1  0.72716266  0.83973111  0.55278889  1
  O  O48  1  0.92021252  0.24466847  0.75048997  1
  O  O49  1  0.16285820  0.65000000  0.95000000  1
