# generated using pymatgen
data_Al5S8
_symmetry_space_group_name_H-M   'P 1'
_cell_length_a   7.03139495
_cell_length_b   7.03139495
_cell_length_c   7.03139495
_cell_angle_alpha   90.00000000
_cell_angle_beta   60.00000000
_cell_angle_gamma   120.00000000
_symmetry_Int_Tables_number   1
_chemical_formula_structural   Al5S8
_chemical_formula_sum   'Al5 S8'
_cell_volume   245.81562239
_cell_formula_units_Z   1
loop_
 _symmetry_equiv_pos_site_id
 _symmetry_equiv_pos_as_xyz
  1  'x, y, z'
loop_
 _atom_site_type_symbol
 _atom_site_label
 _atom_site_symmetry_multiplicity
 _atom_site_fract_x
 _atom_site_fract_y
 _atom_site_fract_z
 _atom_site_occupancy
  Al  Al0  1  0.73339374  0.36669687  0.89990939  1
  Al  Al1  1  0.26660626  0.36669687  0.36669687  1
  Al  Al2  1  0.26660626  0.89990939  0.36669687  1
  Al  Al3  1  0.73339374  0.36669687  0.36669687  1
  Al  Al4  1  0.50000000  0.75000000  0.75000000  1
  S  S5  1  0.25820123  0.12910061  0.61269816  1
  S  S6  1  0.74179877  0.12910061  0.12910061  1
  S  S7  1  0.74179877  0.61269816  0.12910061  1
  S  S8  1  0.25820123  0.12910061  0.12910061  1
  S  S9  1  0.23259611  0.61629805  0.15110584  1
  S  S10  1  0.76740389  0.61629805  0.61629805  1
  S  S11  1  0.76740389  0.15110584  0.61629805  1
  S  S12  1  0.23259611  0.61629805  0.61629805  1
