# generated using pymatgen
data_Ba6Y3Cu9O20
_symmetry_space_group_name_H-M   'P 1'
_cell_length_a   5.50840775
_cell_length_b   8.66022923
_cell_length_c   12.46549644
_cell_angle_alpha   105.98666152
_cell_angle_beta   102.48392957
_cell_angle_gamma   72.68004952
_symmetry_Int_Tables_number   1
_chemical_formula_structural   Ba6Y3Cu9O20
_chemical_formula_sum   'Ba6 Y3 Cu9 O20'
_cell_volume   539.87272489
_cell_formula_units_Z   1
loop_
 _symmetry_equiv_pos_site_id
 _symmetry_equiv_pos_as_xyz
  1  'x, y, z'
loop_
 _atom_site_type_symbol
 _atom_site_label
 _atom_site_symmetry_multiplicity
 _atom_site_fract_x
 _atom_site_fract_y
 _atom_site_fract_z
 _atom_site_occupancy
  Ba  Ba0  1  0.23501782  0.73565409  0.18844051  1
  Ba  Ba1  1  0.56042869  0.06058267  0.18148507  1
  Ba  Ba2  1  0.89065614  0.38988231  0.18849572  1
  Ba  Ba3  1  0.43957131  0.93941733  0.81851493  1
  Ba  Ba4  1  0.76498218  0.26434591  0.81155949  1
  Ba  Ba5  1  0.10934386  0.61011769  0.81150428  1
  Y  Y6  1  0.00000000  0.50000000  0.50000000  1
  Y  Y7  1  0.66672526  0.16675855  0.49936100  1
  Y  Y8  1  0.33327474  0.83324145  0.50063900  1
  Cu  Cu9  1  0.78729157  0.78565929  0.35791705  1
  Cu  Cu10  1  0.45115764  0.45298105  0.35762627  1
  Cu  Cu11  1  0.11892900  0.11874406  0.35658213  1
  Cu  Cu12  1  0.88107100  0.88125594  0.64341787  1
  Cu  Cu13  1  0.54884236  0.54701895  0.64237373  1
  Cu  Cu14  1  0.21270843  0.21434071  0.64208295  1
  Cu  Cu15  1  0.64326942  0.67737684  0.00000780  1
  Cu  Cu16  1  0.35673058  0.32262316  0.99999220  1
  Cu  Cu17  1  0.00000000  -0.00000000  0.00000000  1
  O  O18  1  0.62647743  0.62655410  0.37874907  1
  O  O19  1  0.29271679  0.29308342  0.37926192  1
  O  O20  1  0.95976768  0.95949615  0.37926995  1
  O  O21  1  0.70728321  0.70691658  0.62073808  1
  O  O22  1  0.37352257  0.37344590  0.62125093  1
  O  O23  1  0.04023232  0.04050385  0.62073005  1
  O  O24  1  0.12598603  0.62671626  0.37922174  1
  O  O25  1  0.79264065  0.29353387  0.37825128  1
  O  O26  1  0.45989772  0.95842309  0.37845414  1
  O  O27  1  0.20735935  0.70646613  0.62174872  1
  O  O28  1  0.87401397  0.37328374  0.62077826  1
  O  O29  1  0.54010228  0.04157691  0.62154586  1
  O  O30  1  0.73997736  0.70620449  0.15249319  1
  O  O31  1  0.36158829  0.39548758  0.15254086  1
  O  O32  1  0.05329238  0.05327315  0.15987960  1
  O  O33  1  0.94670762  0.94672685  0.84012040  1
  O  O34  1  0.63841171  0.60451242  0.84745914  1
  O  O35  1  0.26002264  0.29379551  0.84750681  1
  O  O36  1  0.31943672  0.83700947  0.00000138  1
  O  O37  1  0.68056328  0.16299053  -0.00000138  1
