# generated using pymatgen
data_Ca3GdAl8
_symmetry_space_group_name_H-M   'P 1'
_cell_length_a   5.67489353
_cell_length_b   5.67489353
_cell_length_c   9.75089053
_cell_angle_alpha   73.08254901
_cell_angle_beta   90.00000000
_cell_angle_gamma   120.00000000
_symmetry_Int_Tables_number   1
_chemical_formula_structural   Ca3GdAl8
_chemical_formula_sum   'Ca3 Gd1 Al8'
_cell_volume   256.13910929
_cell_formula_units_Z   1
loop_
 _symmetry_equiv_pos_site_id
 _symmetry_equiv_pos_as_xyz
  1  'x, y, z'
loop_
 _atom_site_type_symbol
 _atom_site_label
 _atom_site_symmetry_multiplicity
 _atom_site_fract_x
 _atom_site_fract_y
 _atom_site_fract_z
 _atom_site_occupancy
  Ca  Ca0  1  0.37503701  0.75007403  0.87488896  1
  Ca  Ca1  1  0.99988079  0.99976158  0.00035763  1
  Ca  Ca2  1  0.49999412  -0.00001177  0.50001765  1
  Gd  Gd3  1  0.87502863  0.75005727  0.37491410  1
  Al  Al4  1  0.43735516  0.37441614  0.18822870  1
  Al  Al5  1  0.93742843  0.37580972  0.68676185  1
  Al  Al6  1  0.43735516  0.87471033  0.18822870  1
  Al  Al7  1  0.93742843  0.87485687  0.68676185  1
  Al  Al8  1  0.18760072  0.37520144  0.43719785  1
  Al  Al9  1  0.68744927  0.37489855  0.93765218  1
  Al  Al10  1  0.93706097  0.37441614  0.18822870  1
  Al  Al11  1  0.43838129  0.37580972  0.68676185  1
