# generated using pymatgen
data_Pm2MgS4
_symmetry_space_group_name_H-M   'P 1'
_cell_length_a   8.31659636
_cell_length_b   8.31659636
_cell_length_c   8.75367822
_cell_angle_alpha   90.00000000
_cell_angle_beta   90.00000000
_cell_angle_gamma   90.00000000
_symmetry_Int_Tables_number   1
_chemical_formula_structural   Pm2MgS4
_chemical_formula_sum   'Pm8 Mg4 S16'
_cell_volume   605.45493832
_cell_formula_units_Z   4
loop_
 _symmetry_equiv_pos_site_id
 _symmetry_equiv_pos_as_xyz
  1  'x, y, z'
loop_
 _atom_site_type_symbol
 _atom_site_label
 _atom_site_symmetry_multiplicity
 _atom_site_fract_x
 _atom_site_fract_y
 _atom_site_fract_z
 _atom_site_occupancy
  Pm  Pm0  1  0.13238710  0.25000000  0.62500000  1
  Pm  Pm1  1  0.75000000  0.13238710  0.37500000  1
  Pm  Pm2  1  0.86761290  0.75000000  0.62500000  1
  Pm  Pm3  1  0.75000000  0.36761290  0.87500000  1
  Pm  Pm4  1  0.63238710  0.75000000  0.12500000  1
  Pm  Pm5  1  0.25000000  0.86761290  0.37500000  1
  Pm  Pm6  1  0.36761290  0.25000000  0.12500000  1
  Pm  Pm7  1  0.25000000  0.63238710  0.87500000  1
  Mg  Mg8  1  -0.00000000  0.00000000  -0.00000000  1
  Mg  Mg9  1  0.50000000  0.50000000  0.50000000  1
  Mg  Mg10  1  0.50000000  0.00000000  0.75000000  1
  Mg  Mg11  1  -0.00000000  0.50000000  0.25000000  1
  S  S12  1  0.06833723  0.19794938  0.30870922  1
  S  S13  1  0.80205062  0.06833723  0.69129078  1
  S  S14  1  0.93166277  0.80205062  0.30870922  1
  S  S15  1  0.69794938  0.43166277  0.19129078  1
  S  S16  1  0.56833723  0.80205062  0.44129078  1
  S  S17  1  0.30205062  0.93166277  0.05870922  1
  S  S18  1  0.43166277  0.19794938  0.44129078  1
  S  S19  1  0.69794938  0.06833723  0.05870922  1
  S  S20  1  0.56833723  0.69794938  0.80870922  1
  S  S21  1  0.30205062  0.56833723  0.19129078  1
  S  S22  1  0.43166277  0.30205062  0.80870922  1
  S  S23  1  0.19794938  0.93166277  0.69129078  1
  S  S24  1  0.06833723  0.30205062  0.94129078  1
  S  S25  1  0.80205062  0.43166277  0.55870922  1
  S  S26  1  0.93166277  0.69794938  0.94129078  1
  S  S27  1  0.19794938  0.56833723  0.55870922  1
