# generated using pymatgen
data_Ba3LaY2(Cu3O7)2
_symmetry_space_group_name_H-M   'P 1'
_cell_length_a   5.48349972
_cell_length_b   5.48349972
_cell_length_c   12.26332545
_cell_angle_alpha   77.47332223
_cell_angle_beta   77.47332223
_cell_angle_gamma   91.71188891
_symmetry_Int_Tables_number   1
_chemical_formula_structural   Ba3LaY2(Cu3O7)2
_chemical_formula_sum   'Ba3 La1 Y2 Cu6 O14'
_cell_volume   350.24979745
_cell_formula_units_Z   1
loop_
 _symmetry_equiv_pos_site_id
 _symmetry_equiv_pos_as_xyz
  1  'x, y, z'
loop_
 _atom_site_type_symbol
 _atom_site_label
 _atom_site_symmetry_multiplicity
 _atom_site_fract_x
 _atom_site_fract_y
 _atom_site_fract_z
 _atom_site_occupancy
  Ba  Ba0  1  0.59101115  0.09101115  0.81797771  1
  Ba  Ba1  1  0.09266994  0.59266994  0.81466013  1
  Ba  Ba2  1  0.90765855  0.40765855  0.18468290  1
  La  La3  1  0.40967169  0.90967169  0.18065663  1
  Y  Y4  1  0.25119528  0.75119528  0.49760943  1
  Y  Y5  1  0.75064211  0.25064211  0.49871578  1
  Cu  Cu6  1  0.49838986  0.49838986  0.00322027  1
  Cu  Cu7  1  0.99838986  0.99838986  0.00322027  1
  Cu  Cu8  1  0.17903773  0.17903773  0.64192455  1
  Cu  Cu9  1  0.67903773  0.67903773  0.64192455  1
  Cu  Cu10  1  0.32233901  0.32233901  0.35532199  1
  Cu  Cu11  1  0.82233901  0.82233901  0.35532199  1
  O  O12  1  0.07872047  0.07872047  0.84255906  1
  O  O13  1  0.57872047  0.57872047  0.84255906  1
  O  O14  1  0.41743732  0.41743732  0.16512537  1
  O  O15  1  0.91743732  0.91743732  0.16512537  1
  O  O16  1  0.94098385  0.94266862  0.61634753  1
  O  O17  1  0.44266862  0.44098385  0.61634753  1
  O  O18  1  0.43946516  0.93946516  0.62082285  1
  O  O19  1  0.93971199  0.43971199  0.62082285  1
  O  O20  1  0.06952784  0.05989547  0.37057669  1
  O  O21  1  0.55989547  0.56952784  0.37057669  1
  O  O22  1  0.56155452  0.06155452  0.36997773  1
  O  O23  1  0.06846775  0.56846775  0.36997773  1
  O  O24  1  0.27706575  0.77706575  0.01697267  1
  O  O25  1  0.70596158  0.20596158  0.01697267  1
