# generated using pymatgen
data_Cd5Ni
_symmetry_space_group_name_H-M   'P 1'
_cell_length_a   9.99350466
_cell_length_b   9.99350466
_cell_length_c   10.01189808
_cell_angle_alpha   90.00000000
_cell_angle_beta   90.00000000
_cell_angle_gamma   91.35863909
_symmetry_Int_Tables_number   1
_chemical_formula_structural   Cd5Ni
_chemical_formula_sum   'Cd40 Ni8'
_cell_volume   999.60851467
_cell_formula_units_Z   8
loop_
 _symmetry_equiv_pos_site_id
 _symmetry_equiv_pos_as_xyz
  1  'x, y, z'
loop_
 _atom_site_type_symbol
 _atom_site_label
 _atom_site_symmetry_multiplicity
 _atom_site_fract_x
 _atom_site_fract_y
 _atom_site_fract_z
 _atom_site_occupancy
  Cd  Cd0  1  0.49662669  0.86272549  0.50090751  1
  Cd  Cd1  1  0.13727451  0.50337331  0.50090751  1
  Cd  Cd2  1  0.50000000  0.50000000  0.13981281  1
  Cd  Cd3  1  0.50337331  0.13727451  0.50090751  1
  Cd  Cd4  1  0.86272549  0.49662669  0.50090751  1
  Cd  Cd5  1  0.50000000  0.50000000  0.86025068  1
  Cd  Cd6  1  0.69757779  0.30242221  0.99296553  1
  Cd  Cd7  1  0.72511945  0.05425531  0.74893902  1
  Cd  Cd8  1  0.94574469  0.27488055  0.74893902  1
  Cd  Cd9  1  0.30242221  0.69757779  0.99296553  1
  Cd  Cd10  1  0.27488055  0.94574469  0.74893902  1
  Cd  Cd11  1  0.05425531  0.72511945  0.74893902  1
  Cd  Cd12  1  0.79854351  0.79854351  0.05065579  1
  Cd  Cd13  1  0.74823014  0.00527462  0.26039445  1
  Cd  Cd14  1  0.00527462  0.74823014  0.26039445  1
  Cd  Cd15  1  0.20145649  0.20145649  0.05065579  1
  Cd  Cd16  1  0.25176986  -0.00527462  0.26039445  1
  Cd  Cd17  1  -0.00527462  0.25176986  0.26039445  1
  Cd  Cd18  1  0.35654117  0.64345883  0.34726173  1
  Cd  Cd19  1  0.64345883  0.35654117  0.34726173  1
  Cd  Cd20  1  0.34578286  0.34578286  0.64026736  1
  Cd  Cd21  1  0.65421714  0.65421714  0.64026736  1
  Cd  Cd22  1  0.17044962  0.82955038  0.49043948  1
  Cd  Cd23  1  0.16193628  0.49015947  0.16946811  1
  Cd  Cd24  1  0.50984053  0.83806372  0.16946811  1
  Cd  Cd25  1  0.82955038  0.17044962  0.49043948  1
  Cd  Cd26  1  0.83806372  0.50984053  0.16946811  1
  Cd  Cd27  1  0.49015947  0.16193628  0.16946811  1
  Cd  Cd28  1  0.13396689  0.13396689  0.54129811  1
  Cd  Cd29  1  0.16919551  0.45655847  0.85031450  1
  Cd  Cd30  1  0.45655847  0.16919551  0.85031450  1
  Cd  Cd31  1  0.86603311  0.86603311  0.54129811  1
  Cd  Cd32  1  0.83080449  0.54344153  0.85031450  1
  Cd  Cd33  1  0.54344153  0.83080449  0.85031450  1
  Cd  Cd34  1  0.65609856  0.34390144  0.66661659  1
  Cd  Cd35  1  0.34390144  0.65609856  0.66661659  1
  Cd  Cd36  1  0.67757177  0.67757177  0.34397817  1
  Cd  Cd37  1  0.32242823  0.32242823  0.34397817  1
  Cd  Cd38  1  0.09987246  0.90012754  0.00229358  1
  Cd  Cd39  1  0.90012754  0.09987246  0.00229358  1
  Ni  Ni40  1  0.18536591  0.18536591  0.79552442  1
  Ni  Ni41  1  0.81463409  0.81463409  0.79552442  1
  Ni  Ni42  1  0.97643437  0.36087803  0.00758788  1
  Ni  Ni43  1  0.63912197  0.02356563  0.00758788  1
  Ni  Ni44  1  0.00000000  -0.00000000  0.75399195  1
  Ni  Ni45  1  0.02356563  0.63912197  0.00758788  1
  Ni  Ni46  1  0.36087803  0.97643437  0.00758788  1
  Ni  Ni47  1  0.00000000  -0.00000000  0.35289714  1
