# generated using pymatgen
data_CsNd2Ti2NbO10
_symmetry_space_group_name_H-M   'P 1'
_cell_length_a   3.87325757
_cell_length_b   3.87325757
_cell_length_c   15.76811746
_cell_angle_alpha   89.48530016
_cell_angle_beta   90.51469984
_cell_angle_gamma   90.19814508
_symmetry_Int_Tables_number   1
_chemical_formula_structural   CsNd2Ti2NbO10
_chemical_formula_sum   'Cs1 Nd2 Ti2 Nb1 O10'
_cell_volume   236.53481815
_cell_formula_units_Z   1
loop_
 _symmetry_equiv_pos_site_id
 _symmetry_equiv_pos_as_xyz
  1  'x, y, z'
loop_
 _atom_site_type_symbol
 _atom_site_label
 _atom_site_symmetry_multiplicity
 _atom_site_fract_x
 _atom_site_fract_y
 _atom_site_fract_z
 _atom_site_occupancy
  Cs  Cs0  1  0.49994701  0.50005299  0.51186548  1
  Nd  Nd1  1  0.51238474  0.48761526  0.84506580  1
  Nd  Nd2  1  0.51536327  0.48463673  0.12739194  1
  Ti  Ti3  1  0.98893812  0.01106188  0.99846558  1
  Ti  Ti4  1  0.00057022  0.99942978  0.71714091  1
  Nb  Nb5  1  0.00092638  0.99907362  0.27845604  1
  O  O6  1  0.99812890  0.00187110  0.60887784  1
  O  O7  1  0.00330370  0.99669630  0.39250527  1
  O  O8  1  0.98347440  0.01652560  0.87916777  1
  O  O9  1  0.97663892  0.02336108  0.12711482  1
  O  O10  1  0.49930841  0.99791106  0.75286712  1
  O  O11  1  0.00208894  0.50069159  0.75286712  1
  O  O12  1  0.49505386  0.00969626  0.24527137  1
  O  O13  1  0.99030374  0.50494614  0.24527137  1
  O  O14  1  0.47523509  0.04566569  0.00883579  1
  O  O15  1  0.95433431  0.52476491  0.00883579  1
