# generated using pymatgen
data_Ti5Ni(PO4)6
_symmetry_space_group_name_H-M   'P 1'
_cell_length_a   8.40320768
_cell_length_b   8.40320752
_cell_length_c   8.40320783
_cell_angle_alpha   62.48676292
_cell_angle_beta   62.48676268
_cell_angle_gamma   62.48676280
_symmetry_Int_Tables_number   1
_chemical_formula_structural   Ti5Ni(PO4)6
_chemical_formula_sum   'Ti5 Ni1 P6 O24'
_cell_volume   442.84028489
_cell_formula_units_Z   1
loop_
 _symmetry_equiv_pos_site_id
 _symmetry_equiv_pos_as_xyz
  1  'x, y, z'
loop_
 _atom_site_type_symbol
 _atom_site_label
 _atom_site_symmetry_multiplicity
 _atom_site_fract_x
 _atom_site_fract_y
 _atom_site_fract_z
 _atom_site_occupancy
  Ti  Ti0  1  0.00020512  0.00020512  0.00020512  1
  Ti  Ti1  1  0.49923583  0.49923583  0.49923583  1
  Ti  Ti2  1  0.14069178  0.14069178  0.14069178  1
  Ti  Ti3  1  0.35829819  0.35829819  0.35829819  1
  Ti  Ti4  1  0.64089280  0.64089280  0.64089280  1
  Ni  Ni5  1  0.85720619  0.85720619  0.85720619  1
  P  P6  1  0.04344613  0.75076383  0.45914026  1
  P  P7  1  0.45914026  0.04344613  0.75076383  1
  P  P8  1  0.24687662  0.54548415  0.95669226  1
  P  P9  1  0.54548415  0.95669226  0.24687662  1
  P  P10  1  0.95669226  0.24687662  0.54548415  1
  P  P11  1  0.75076383  0.45914026  0.04344613  1
  O  O12  1  0.11219538  0.32702320  0.49380335  1
  O  O13  1  0.32702320  0.49380335  0.11219538  1
  O  O14  1  0.05743767  0.90355102  0.25567862  1
  O  O15  1  0.49380335  0.11219538  0.32702320  1
  O  O16  1  0.01371590  0.81983048  0.60894136  1
  O  O17  1  0.24450711  0.59431593  0.43501365  1
  O  O18  1  0.25567862  0.05743767  0.90355102  1
  O  O19  1  0.43501365  0.24450711  0.59431593  1
  O  O20  1  0.17705751  0.38627866  0.99957379  1
  O  O21  1  0.59431593  0.43501365  0.24450711  1
  O  O22  1  0.09885589  0.74409958  0.94631718  1
  O  O23  1  0.38627866  0.99957379  0.17705751  1
  O  O24  1  0.60894136  0.01371590  0.81983048  1
  O  O25  1  0.90355102  0.25567862  0.05743767  1
  O  O26  1  0.40384698  0.55629872  0.75764514  1
  O  O27  1  0.81983048  0.60894136  0.01371590  1
  O  O28  1  0.55629872  0.75764514  0.40384698  1
  O  O29  1  0.74409958  0.94631718  0.09885589  1
  O  O30  1  0.75764514  0.40384698  0.55629872  1
  O  O31  1  0.99957379  0.17705751  0.38627866  1
  O  O32  1  0.50082351  0.88548784  0.67877035  1
  O  O33  1  0.94631718  0.09885589  0.74409958  1
  O  O34  1  0.67877035  0.50082351  0.88548784  1
  O  O35  1  0.88548784  0.67877035  0.50082351  1
