# generated using pymatgen
data_Ag2BiSbSe4
_symmetry_space_group_name_H-M   'P 1'
_cell_length_a   5.83225331
_cell_length_b   5.83225331
_cell_length_c   7.16844958
_cell_angle_alpha   65.99600923
_cell_angle_beta   114.00399077
_cell_angle_gamma   90.00000000
_symmetry_Int_Tables_number   1
_chemical_formula_structural   Ag2BiSbSe4
_chemical_formula_sum   'Ag2 Bi1 Sb1 Se4'
_cell_volume   199.44347783
_cell_formula_units_Z   1
loop_
 _symmetry_equiv_pos_site_id
 _symmetry_equiv_pos_as_xyz
  1  'x, y, z'
loop_
 _atom_site_type_symbol
 _atom_site_label
 _atom_site_symmetry_multiplicity
 _atom_site_fract_x
 _atom_site_fract_y
 _atom_site_fract_z
 _atom_site_occupancy
  Ag  Ag0  1  0.50000000  0.50000000  -0.00000000  1
  Ag  Ag1  1  0.25000000  0.25000000  0.50000000  1
  Bi  Bi2  1  0.75000000  0.75000000  0.50000000  1
  Sb  Sb3  1  -0.00000000  0.00000000  -0.00000000  1
  Se  Se4  1  0.49789861  0.00210139  0.99579723  1
  Se  Se5  1  0.24494366  0.75505634  0.48988732  1
  Se  Se6  1  0.00210139  0.49789861  0.00420277  1
  Se  Se7  1  0.75505634  0.24494366  0.51011268  1
