# generated using pymatgen
data_Fe12As5
_symmetry_space_group_name_H-M   'P 1'
_cell_length_a   6.65721563
_cell_length_b   6.65721563
_cell_length_c   6.65721563
_cell_angle_alpha   60.96425709
_cell_angle_beta   60.96425709
_cell_angle_gamma   60.96425706
_symmetry_Int_Tables_number   1
_chemical_formula_structural   Fe12As5
_chemical_formula_sum   'Fe12 As5'
_cell_volume   213.15567642
_cell_formula_units_Z   1
loop_
 _symmetry_equiv_pos_site_id
 _symmetry_equiv_pos_as_xyz
  1  'x, y, z'
loop_
 _atom_site_type_symbol
 _atom_site_label
 _atom_site_symmetry_multiplicity
 _atom_site_fract_x
 _atom_site_fract_y
 _atom_site_fract_z
 _atom_site_occupancy
  Fe  Fe0  1  0.11721299  0.59093702  0.35398026  1
  Fe  Fe1  1  0.59093702  0.35398026  0.11721299  1
  Fe  Fe2  1  0.35398026  0.11721299  0.59093702  1
  Fe  Fe3  1  0.07896648  0.36819096  0.85899787  1
  Fe  Fe4  1  0.36819096  0.85899787  0.07896648  1
  Fe  Fe5  1  0.23628636  0.23628636  0.23628636  1
  Fe  Fe6  1  0.47175842  0.47175842  0.47175842  1
  Fe  Fe7  1  0.85410965  0.85410965  0.85410965  1
  Fe  Fe8  1  0.34005280  0.62909397  0.84917654  1
  Fe  Fe9  1  0.84917654  0.34005280  0.62909397  1
  Fe  Fe10  1  0.62909397  0.84917654  0.34005280  1
  Fe  Fe11  1  0.85899787  0.07896648  0.36819096  1
  As  As12  1  0.20006446  0.85392225  0.50813142  1
  As  As13  1  0.85392225  0.50813142  0.20006446  1
  As  As14  1  0.50813142  0.20006446  0.85392225  1
  As  As15  1  0.71040436  0.71040436  0.71040436  1
  As  As16  1  0.99781420  0.99781420  0.99781420  1
