# generated using pymatgen
data_Mg16Al12Tl
_symmetry_space_group_name_H-M   'P 1'
_cell_length_a   9.24961448
_cell_length_b   9.14937755
_cell_length_c   9.14937776
_cell_angle_alpha   109.24823053
_cell_angle_beta   109.69329932
_cell_angle_gamma   109.69329197
_symmetry_Int_Tables_number   1
_chemical_formula_structural   Mg16Al12Tl
_chemical_formula_sum   'Mg16 Al12 Tl1'
_cell_volume   594.41157433
_cell_formula_units_Z   1
loop_
 _symmetry_equiv_pos_site_id
 _symmetry_equiv_pos_as_xyz
  1  'x, y, z'
loop_
 _atom_site_type_symbol
 _atom_site_label
 _atom_site_symmetry_multiplicity
 _atom_site_fract_x
 _atom_site_fract_y
 _atom_site_fract_z
 _atom_site_occupancy
  Mg  Mg0  1  0.60473468  0.31322290  0.00000000  1
  Mg  Mg1  1  0.00256370  0.00000000  0.99999900  1
  Mg  Mg2  1  0.00010833  0.34444173  0.99999900  1
  Mg  Mg3  1  0.31428594  0.60194158  0.00000000  1
  Mg  Mg4  1  0.68125566  0.68176750  0.28183685  1
  Mg  Mg5  1  0.60473468  0.00000000  0.31322190  1
  Mg  Mg6  1  0.99948917  0.60006935  0.31823350  1
  Mg  Mg7  1  0.00010933  0.99999900  0.34444073  1
  Mg  Mg8  1  0.71234436  0.39805942  0.39805842  1
  Mg  Mg9  1  0.39942082  0.71816515  0.39993265  1
  Mg  Mg10  1  0.99948917  0.31823350  0.60006935  1
  Mg  Mg11  1  0.31428594  1.00000000  0.60194158  1
  Mg  Mg12  1  0.65566760  0.65555727  0.65555727  1
  Mg  Mg13  1  0.68125566  0.28183585  0.68176650  1
  Mg  Mg14  1  0.29151178  0.68677810  0.68677810  1
  Mg  Mg15  1  0.39942082  0.39993165  0.71816515  1
  Al  Al16  1  0.63852765  0.81310986  0.00000000  1
  Al  Al17  1  0.81596027  0.63209194  0.00000000  1
  Al  Al18  1  0.36447229  0.37238647  0.18361786  1
  Al  Al19  1  0.82541679  0.18689014  0.18689014  1
  Al  Al20  1  0.18085343  0.81638114  0.18876661  1
  Al  Al21  1  0.18386733  0.36790806  0.36790806  1
  Al  Al22  1  0.36447229  0.18361786  0.37238647  1
  Al  Al23  1  0.99208782  0.81123239  0.62761553  1
  Al  Al24  1  0.81596027  0.00000000  0.63209194  1
  Al  Al25  1  0.99208782  0.62761453  0.81123339  1
  Al  Al26  1  0.63852765  0.00000000  0.81310886  1
  Al  Al27  1  0.18085343  0.18876661  0.81638014  1
  Tl  Tl28  1  0.34623731  1.00000000  0.99999900  1
