# generated using pymatgen
data_CoTeO3
_symmetry_space_group_name_H-M   'P 1'
_cell_length_a   5.38537818
_cell_length_b   6.06814737
_cell_length_c   7.56407603
_cell_angle_alpha   90.00000000
_cell_angle_beta   90.00000000
_cell_angle_gamma   90.00000000
_symmetry_Int_Tables_number   1
_chemical_formula_structural   CoTeO3
_chemical_formula_sum   'Co4 Te4 O12'
_cell_volume   247.18847108
_cell_formula_units_Z   4
loop_
 _symmetry_equiv_pos_site_id
 _symmetry_equiv_pos_as_xyz
  1  'x, y, z'
loop_
 _atom_site_type_symbol
 _atom_site_label
 _atom_site_symmetry_multiplicity
 _atom_site_fract_x
 _atom_site_fract_y
 _atom_site_fract_z
 _atom_site_occupancy
  O  O0  1  0.86316781  0.18263698  0.43563949  1
  O  O1  1  0.36316781  0.31736302  0.56436051  1
  O  O2  1  0.63683219  0.68263698  0.06436051  1
  O  O3  1  0.13683219  0.81736302  0.93563949  1
  O  O4  1  0.13683219  0.81736302  0.56436051  1
  O  O5  1  0.63683219  0.68263698  0.43563949  1
  O  O6  1  0.36316781  0.31736302  0.93563949  1
  O  O7  1  0.86316781  0.18263698  0.06436051  1
  O  O8  1  0.33965999  0.05315135  0.25000000  1
  O  O9  1  0.83965999  0.44684865  0.75000000  1
  O  O10  1  0.16034001  0.55315135  0.25000000  1
  O  O11  1  0.66034001  0.94684865  0.75000000  1
  Co  Co12  1  0.50000000  0.00000000  0.00000000  1
  Co  Co13  1  0.00000000  0.50000000  0.00000000  1
  Co  Co14  1  0.00000000  0.50000000  0.50000000  1
  Co  Co15  1  0.50000000  0.00000000  0.50000000  1
  Te  Te16  1  0.98743827  0.98559386  0.25000000  1
  Te  Te17  1  0.48743827  0.51440614  0.75000000  1
  Te  Te18  1  0.51256173  0.48559386  0.25000000  1
  Te  Te19  1  0.01256173  0.01440614  0.75000000  1
