# generated using pymatgen
data_Ce2Al2Co15
_symmetry_space_group_name_H-M   'P 1'
_cell_length_a   6.32590691
_cell_length_b   6.32590691
_cell_length_c   6.32590691
_cell_angle_alpha   82.50745598
_cell_angle_beta   82.50745599
_cell_angle_gamma   82.50745600
_symmetry_Int_Tables_number   1
_chemical_formula_structural   Ce2Al2Co15
_chemical_formula_sum   'Ce2 Al2 Co15'
_cell_volume   247.17893652
_cell_formula_units_Z   1
loop_
 _symmetry_equiv_pos_site_id
 _symmetry_equiv_pos_as_xyz
  1  'x, y, z'
loop_
 _atom_site_type_symbol
 _atom_site_label
 _atom_site_symmetry_multiplicity
 _atom_site_fract_x
 _atom_site_fract_y
 _atom_site_fract_z
 _atom_site_occupancy
  Al  Al0  1  0.10554925  0.10554925  0.10554925  1
  Al  Al1  1  0.89445075  0.89445075  0.89445075  1
  Co  Co2  1  1.00000000  0.28594669  0.71405331  1
  Co  Co3  1  0.35119082  0.35119082  0.85331558  1
  Co  Co4  1  0.00000000  0.00000000  0.50000000  1
  Co  Co5  1  0.50000000  0.00000000  0.00000000  1
  Co  Co6  1  0.00000000  0.50000000  0.00000000  1
  Co  Co7  1  0.28594669  0.71405331  0.00000000  1
  Co  Co8  1  0.71405331  0.00000000  0.28594669  1
  Co  Co9  1  0.00000000  0.71405331  0.28594669  1
  Co  Co10  1  0.71405331  0.28594669  0.00000000  1
  Co  Co11  1  0.85331558  0.35119082  0.35119082  1
  Co  Co12  1  0.28594669  0.00000000  0.71405331  1
  Co  Co13  1  0.64880918  0.14668442  0.64880918  1
  Co  Co14  1  0.64880918  0.64880918  0.14668442  1
  Co  Co15  1  0.14668442  0.64880918  0.64880918  1
  Co  Co16  1  0.35119082  0.85331558  0.35119082  1
  Ce  Ce17  1  0.35428255  0.35428255  0.35428255  1
  Ce  Ce18  1  0.64571745  0.64571745  0.64571745  1
