# generated using pymatgen
data_AgO
_symmetry_space_group_name_H-M   'P 1'
_cell_length_a   6.80213705
_cell_length_b   6.80213704
_cell_length_c   6.80213704
_cell_angle_alpha   92.57854219
_cell_angle_beta   118.52261321
_cell_angle_gamma   118.52261319
_symmetry_Int_Tables_number   1
_chemical_formula_structural   AgO
_chemical_formula_sum   'Ag8 O8'
_cell_volume   227.26733221
_cell_formula_units_Z   8
loop_
 _symmetry_equiv_pos_site_id
 _symmetry_equiv_pos_as_xyz
  1  'x, y, z'
loop_
 _atom_site_type_symbol
 _atom_site_label
 _atom_site_symmetry_multiplicity
 _atom_site_fract_x
 _atom_site_fract_y
 _atom_site_fract_z
 _atom_site_occupancy
  O  O0  1  0.59170482  0.29522258  0.87339880  1
  O  O1  1  0.57817622  0.37339880  0.28169398  1
  O  O2  1  0.92182378  0.20351776  0.79522258  1
  O  O3  1  0.90829518  0.78169398  0.70351776  1
  O  O4  1  0.40829518  0.70477742  0.12660120  1
  O  O5  1  0.42182378  0.62660120  0.71830602  1
  O  O6  1  0.07817622  0.79648224  0.20477742  1
  O  O7  1  0.09170482  0.21830602  0.29648224  1
  Ag  Ag8  1  0.50000000  0.00000000  0.50000000  1
  Ag  Ag9  1  0.50000000  0.00000000  0.00000000  1
  Ag  Ag10  1  0.00000000  0.00000000  0.50000000  1
  Ag  Ag11  1  0.00000000  0.50000000  0.50000000  1
  Ag  Ag12  1  0.50000000  0.50000000  0.00000000  1
  Ag  Ag13  1  0.50000000  0.50000000  0.50000000  1
  Ag  Ag14  1  0.00000000  0.50000000  0.00000000  1
  Ag  Ag15  1  0.00000000  0.00000000  0.00000000  1
