# generated using pymatgen
data_Ag2TeO3
_symmetry_space_group_name_H-M   'P 1'
_cell_length_a   4.97532790
_cell_length_b   7.28447716
_cell_length_c   10.77338433
_cell_angle_alpha   90.00000000
_cell_angle_beta   90.00000000
_cell_angle_gamma   91.36401133
_symmetry_Int_Tables_number   1
_chemical_formula_structural   Ag2TeO3
_chemical_formula_sum   'Ag8 Te4 O12'
_cell_volume   390.34549168
_cell_formula_units_Z   4
loop_
 _symmetry_equiv_pos_site_id
 _symmetry_equiv_pos_as_xyz
  1  'x, y, z'
loop_
 _atom_site_type_symbol
 _atom_site_label
 _atom_site_symmetry_multiplicity
 _atom_site_fract_x
 _atom_site_fract_y
 _atom_site_fract_z
 _atom_site_occupancy
  O  O0  1  0.63921013  0.62002371  0.38630567  1
  O  O1  1  0.36078987  0.87997629  0.88630567  1
  O  O2  1  0.36078987  0.37997629  0.61369433  1
  O  O3  1  0.63921013  0.12002371  0.11369433  1
  O  O4  1  0.75219552  0.67823340  0.02188141  1
  O  O5  1  0.24780448  0.82176660  0.52188141  1
  O  O6  1  0.24780448  0.32176660  0.97811859  1
  O  O7  1  0.75219552  0.17823340  0.47811859  1
  O  O8  1  0.21882790  0.79158430  0.25689533  1
  O  O9  1  0.21882790  0.29158430  0.24310467  1
  O  O10  1  0.78117210  0.20841570  0.74310467  1
  O  O11  1  0.78117210  0.70841570  0.75689533  1
  Ag  Ag12  1  0.74847054  0.38718488  0.92651346  1
  Ag  Ag13  1  0.24810711  0.63389265  0.73885280  1
  Ag  Ag14  1  0.24810711  0.13389265  0.76114720  1
  Ag  Ag15  1  0.75189289  0.36610735  0.26114720  1
  Ag  Ag16  1  0.25152946  0.61281512  0.07348654  1
  Ag  Ag17  1  0.74847054  0.88718488  0.57348654  1
  Ag  Ag18  1  0.25152946  0.11281512  0.42651346  1
  Ag  Ag19  1  0.75189289  0.86610735  0.23885280  1
  Te  Te20  1  0.25515016  0.63395358  0.39829856  1
  Te  Te21  1  0.74484984  0.86604642  0.89829856  1
  Te  Te22  1  0.74484984  0.36604642  0.60170144  1
  Te  Te23  1  0.25515016  0.13395358  0.10170144  1
