# generated using pymatgen
data_V3Cr2Sb3O16
_symmetry_space_group_name_H-M   'P 1'
_cell_length_a   6.11975272
_cell_length_b   6.05962089
_cell_length_c   9.11469834
_cell_angle_alpha   90.00015206
_cell_angle_beta   90.02567950
_cell_angle_gamma   119.67515502
_symmetry_Int_Tables_number   1
_chemical_formula_structural   V3Cr2Sb3O16
_chemical_formula_sum   'V3 Cr2 Sb3 O16'
_cell_volume   293.67333458
_cell_formula_units_Z   1
loop_
 _symmetry_equiv_pos_site_id
 _symmetry_equiv_pos_as_xyz
  1  'x, y, z'
loop_
 _atom_site_type_symbol
 _atom_site_label
 _atom_site_symmetry_multiplicity
 _atom_site_fract_x
 _atom_site_fract_y
 _atom_site_fract_z
 _atom_site_occupancy
  V  V0  1  0.66339655  0.83170501  0.20778081  1
  V  V1  1  0.83307349  0.66635107  0.70867118  1
  V  V2  1  0.83302358  0.16666391  0.70863069  1
  Cr  Cr3  1  0.33902719  0.66953062  0.48933155  1
  Cr  Cr4  1  0.67756194  0.33878407  0.98461430  1
  Sb  Sb5  1  0.16507210  0.83102655  0.21134749  1
  Sb  Sb6  1  0.16507671  0.33406366  0.21134975  1
  Sb  Sb7  1  0.33726964  0.16865247  0.70964949  1
  O  O8  1  0.16493937  0.82955534  0.60656144  1
  O  O9  1  0.04260261  0.52131067  0.34642735  1
  O  O10  1  0.31920334  0.65960924  0.09097505  1
  O  O11  1  0.00567442  0.00284657  0.32155922  1
  O  O12  1  0.99898710  0.99950009  0.81237553  1
  O  O13  1  0.16493371  0.33540637  0.60655569  1
  O  O14  1  0.47102067  0.95130262  0.33809338  1
  O  O15  1  0.47102233  0.51974094  0.33809610  1
  O  O16  1  0.33204635  0.16602787  0.09945243  1
  O  O17  1  0.66915098  0.83459723  0.61101741  1
  O  O18  1  0.53230875  0.48076082  0.83890816  1
  O  O19  1  0.53231449  0.05157176  0.83890518  1
  O  O20  1  0.66649876  0.33325932  0.59547488  1
  O  O21  1  0.83667128  0.66676044  0.10579198  1
  O  O22  1  0.94244657  0.47124667  0.82835964  1
  O  O23  1  0.83667807  0.16992769  0.10579229  1
