# generated using pymatgen
data_UF5
_symmetry_space_group_name_H-M   'P 1'
_cell_length_a   6.00607635
_cell_length_b   8.79197607
_cell_length_c   8.79197606
_cell_angle_alpha   83.30020501
_cell_angle_beta   70.02770133
_cell_angle_gamma   70.02770134
_symmetry_Int_Tables_number   1
_chemical_formula_structural   UF5
_chemical_formula_sum   'U4 F20'
_cell_volume   410.09852610
_cell_formula_units_Z   4
loop_
 _symmetry_equiv_pos_site_id
 _symmetry_equiv_pos_as_xyz
  1  'x, y, z'
loop_
 _atom_site_type_symbol
 _atom_site_label
 _atom_site_symmetry_multiplicity
 _atom_site_fract_x
 _atom_site_fract_y
 _atom_site_fract_z
 _atom_site_occupancy
  F  F0  1  0.49983821  0.61230296  0.73156048  1
  F  F1  1  0.84370164  0.38769704  0.26843952  1
  F  F2  1  0.88785883  0.26843952  0.61230296  1
  F  F3  1  0.76860131  0.73156048  0.38769704  1
  F  F4  1  0.36873567  0.00626433  0.50626433  1
  F  F5  1  0.12500000  0.50626433  0.99373567  1
  F  F6  1  0.62500000  0.49373567  0.00626433  1
  F  F7  1  0.88126433  0.99373567  0.49373567  1
  F  F8  1  0.10024182  0.94428706  0.78299029  1
  F  F9  1  0.11676788  0.78299029  0.05571294  1
  F  F10  1  0.95547111  0.21700971  0.94428706  1
  F  F11  1  0.82751918  0.05571294  0.21700971  1
  F  F12  1  0.14975818  0.71700971  0.55571294  1
  F  F13  1  0.42248082  0.28299029  0.44428706  1
  F  F14  1  0.29452889  0.55571294  0.28299029  1
  F  F15  1  0.13323212  0.44428706  0.71700971  1
  F  F16  1  0.48139869  0.11230296  0.76843952  1
  F  F17  1  0.75016179  0.76843952  0.88769704  1
  F  F18  1  0.40629836  0.23156048  0.11230296  1
  F  F19  1  0.36214117  0.88769704  0.23156048  1
  U  U20  1  0.05558184  0.81941816  0.31941816  1
  U  U21  1  0.62500000  0.31941816  0.18058184  1
  U  U22  1  0.12500000  0.68058184  0.81941816  1
  U  U23  1  0.19441816  0.18058184  0.68058184  1
