# generated using pymatgen
data_Na2Cu3(GeO3)4
_symmetry_space_group_name_H-M   'P 1'
_cell_length_a   5.55585727
_cell_length_b   6.52863653
_cell_length_c   7.77085851
_cell_angle_alpha   88.36591222
_cell_angle_beta   77.57055974
_cell_angle_gamma   89.19033940
_symmetry_Int_Tables_number   1
_chemical_formula_structural   Na2Cu3(GeO3)4
_chemical_formula_sum   'Na2 Cu3 Ge4 O12'
_cell_volume   275.13833086
_cell_formula_units_Z   1
loop_
 _symmetry_equiv_pos_site_id
 _symmetry_equiv_pos_as_xyz
  1  'x, y, z'
loop_
 _atom_site_type_symbol
 _atom_site_label
 _atom_site_symmetry_multiplicity
 _atom_site_fract_x
 _atom_site_fract_y
 _atom_site_fract_z
 _atom_site_occupancy
  O  O0  1  0.70016714  0.12453780  0.58347003  1
  O  O1  1  0.29983286  0.87546220  0.41652997  1
  O  O2  1  0.28471572  0.64245456  0.10055631  1
  O  O3  1  0.71528428  0.35754544  0.89944369  1
  O  O4  1  0.26238092  0.18128545  0.04124124  1
  O  O5  1  0.73761908  0.81871455  0.95875876  1
  O  O6  1  0.41359912  0.34649653  0.35721360  1
  O  O7  1  0.58640088  0.65350347  0.64278640  1
  O  O8  1  0.93602625  0.39846664  0.31736489  1
  O  O9  1  0.23409011  0.99492687  0.77433468  1
  O  O10  1  0.76590989  0.00507313  0.22566532  1
  O  O11  1  0.06397375  0.60153336  0.68263511  1
  Na  Na12  1  0.08288858  0.25477498  0.60662233  1
  Na  Na13  1  0.91711142  0.74522502  0.39337767  1
  Cu  Cu14  1  0.50171368  0.17375571  0.81517001  1
  Cu  Cu15  1  0.49828632  0.82624429  0.18482999  1
  Cu  Cu16  1  0.00000000  0.00000000  0.00000000  1
  Ge  Ge17  1  0.24642063  0.39106670  0.18293606  1
  Ge  Ge18  1  0.75357937  0.60893330  0.81706394  1
  Ge  Ge19  1  0.69172234  0.21457267  0.37071747  1
  Ge  Ge20  1  0.30827766  0.78542733  0.62928253  1
