# generated using pymatgen
data_CoOF
_symmetry_space_group_name_H-M   'P 1'
_cell_length_a   4.50899203
_cell_length_b   4.48157740
_cell_length_c   8.99859921
_cell_angle_alpha   90.00232523
_cell_angle_beta   90.01019883
_cell_angle_gamma   89.98802843
_symmetry_Int_Tables_number   1
_chemical_formula_structural   CoOF
_chemical_formula_sum   'Co6 O6 F6'
_cell_volume   181.83825755
_cell_formula_units_Z   6
loop_
 _symmetry_equiv_pos_site_id
 _symmetry_equiv_pos_as_xyz
  1  'x, y, z'
loop_
 _atom_site_type_symbol
 _atom_site_label
 _atom_site_symmetry_multiplicity
 _atom_site_fract_x
 _atom_site_fract_y
 _atom_site_fract_z
 _atom_site_occupancy
  Co  Co0  1  0.97478583  0.97515786  0.00029655  1
  Co  Co1  1  0.97481995  0.97513969  0.33302984  1
  Co  Co2  1  0.03412069  0.02077202  0.66666800  1
  Co  Co3  1  0.53404689  0.47915340  0.16666771  1
  Co  Co4  1  0.47475885  0.52493061  0.83299091  1
  Co  Co5  1  0.47476520  0.52491962  0.50033657  1
  O  O6  1  0.19140939  0.82395714  0.83040045  1
  O  O7  1  0.19141328  0.82392114  0.50298448  1
  O  O8  1  0.30813780  0.32565582  0.66662973  1
  O  O9  1  0.69118690  0.67583924  0.00287227  1
  O  O10  1  0.69119894  0.67581113  0.33050737  1
  O  O11  1  0.80767903  0.17471574  0.16663342  1
  F  F12  1  0.21986899  0.76936765  0.16666222  1
  F  F13  1  0.30304818  0.28343410  0.32574285  1
  F  F14  1  0.30299772  0.28351298  0.00758556  1
  F  F15  1  0.71999164  0.73069588  0.66667477  1
  F  F16  1  0.80290245  0.21655427  0.82571512  1
  F  F17  1  0.80287025  0.21646172  0.50760618  1
