# generated using pymatgen
data_Sc7Cl12
_symmetry_space_group_name_H-M   'P 1'
_cell_length_a   8.20394627
_cell_length_b   8.20394626
_cell_length_c   8.20394627
_cell_angle_alpha   107.39831764
_cell_angle_beta   107.39831772
_cell_angle_gamma   107.39831772
_symmetry_Int_Tables_number   1
_chemical_formula_structural   Sc7Cl12
_chemical_formula_sum   'Sc7 Cl12'
_cell_volume   454.75875540
_cell_formula_units_Z   1
loop_
 _symmetry_equiv_pos_site_id
 _symmetry_equiv_pos_as_xyz
  1  'x, y, z'
loop_
 _atom_site_type_symbol
 _atom_site_label
 _atom_site_symmetry_multiplicity
 _atom_site_fract_x
 _atom_site_fract_y
 _atom_site_fract_z
 _atom_site_occupancy
  Cl  Cl0  1  0.61826016  0.84229006  0.54136847  1
  Cl  Cl1  1  0.84229006  0.54136847  0.61826016  1
  Cl  Cl2  1  0.54136847  0.61826016  0.84229006  1
  Cl  Cl3  1  0.38173984  0.15770994  0.45863153  1
  Cl  Cl4  1  0.15770994  0.45863153  0.38173984  1
  Cl  Cl5  1  0.45863153  0.38173984  0.15770994  1
  Cl  Cl6  1  0.07485343  0.21965648  0.68429207  1
  Cl  Cl7  1  0.31570793  0.92514657  0.78034352  1
  Cl  Cl8  1  0.78034352  0.31570793  0.92514657  1
  Cl  Cl9  1  0.92514657  0.78034352  0.31570793  1
  Cl  Cl10  1  0.68429207  0.07485343  0.21965648  1
  Cl  Cl11  1  0.21965648  0.68429207  0.07485343  1
  Sc  Sc12  1  0.50000000  0.50000000  0.50000000  1
  Sc  Sc13  1  0.97243904  0.89851698  0.69432679  1
  Sc  Sc14  1  0.89851698  0.69432679  0.97243904  1
  Sc  Sc15  1  0.69432679  0.97243904  0.89851698  1
  Sc  Sc16  1  0.02756096  0.10148302  0.30567321  1
  Sc  Sc17  1  0.10148302  0.30567321  0.02756096  1
  Sc  Sc18  1  0.30567321  0.02756096  0.10148302  1
