# generated using pymatgen
data_PbICl
_symmetry_space_group_name_H-M   'P 1'
_cell_length_a   4.63237772
_cell_length_b   8.33019338
_cell_length_c   9.87218440
_cell_angle_alpha   90.00000000
_cell_angle_beta   90.00000000
_cell_angle_gamma   90.00000000
_symmetry_Int_Tables_number   1
_chemical_formula_structural   PbICl
_chemical_formula_sum   'Pb4 I4 Cl4'
_cell_volume   380.95379682
_cell_formula_units_Z   4
loop_
 _symmetry_equiv_pos_site_id
 _symmetry_equiv_pos_as_xyz
  1  'x, y, z'
loop_
 _atom_site_type_symbol
 _atom_site_label
 _atom_site_symmetry_multiplicity
 _atom_site_fract_x
 _atom_site_fract_y
 _atom_site_fract_z
 _atom_site_occupancy
  Cl  Cl0  1  0.75000000  0.63963167  0.55817630  1
  Cl  Cl1  1  0.25000000  0.86036833  0.05817630  1
  Cl  Cl2  1  0.75000000  0.13963167  0.94182370  1
  Cl  Cl3  1  0.25000000  0.36036833  0.44182370  1
  I  I4  1  0.25000000  0.46791386  0.83030053  1
  I  I5  1  0.75000000  0.03208614  0.33030053  1
  I  I6  1  0.25000000  0.96791386  0.66969947  1
  I  I7  1  0.75000000  0.53208614  0.16969947  1
  Pb  Pb8  1  0.25000000  0.70364124  0.37739132  1
  Pb  Pb9  1  0.75000000  0.29635876  0.62260868  1
  Pb  Pb10  1  0.25000000  0.20364124  0.12260868  1
  Pb  Pb11  1  0.75000000  0.79635876  0.87739132  1
