# generated using pymatgen
data_U2Si(H2O5)2
_symmetry_space_group_name_H-M   'P 1'
_cell_length_a   7.03788472
_cell_length_b   7.03788473
_cell_length_c   10.30538865
_cell_angle_alpha   103.11822319
_cell_angle_beta   103.11822315
_cell_angle_gamma   109.59283724
_symmetry_Int_Tables_number   1
_chemical_formula_structural   U2Si(H2O5)2
_chemical_formula_sum   'U4 Si2 H8 O20'
_cell_volume   442.05263161
_cell_formula_units_Z   2
loop_
 _symmetry_equiv_pos_site_id
 _symmetry_equiv_pos_as_xyz
  1  'x, y, z'
loop_
 _atom_site_type_symbol
 _atom_site_label
 _atom_site_symmetry_multiplicity
 _atom_site_fract_x
 _atom_site_fract_y
 _atom_site_fract_z
 _atom_site_occupancy
  H  H0  1  0.39013536  0.07646937  0.39712794  1
  H  H1  1  0.67934143  0.49300742  0.10287206  1
  H  H2  1  0.92353063  0.60986464  0.10287206  1
  H  H3  1  0.50699258  0.32065857  0.39712794  1
  H  H4  1  0.60986464  0.92353063  0.60287206  1
  H  H5  1  0.32065857  0.50699258  0.89712794  1
  H  H6  1  0.07646937  0.39013536  0.89712794  1
  H  H7  1  0.49300742  0.67934143  0.60287206  1
  O  O8  1  0.31904335  0.40322573  0.58892849  1
  O  O9  1  0.59677427  0.68095665  0.91107151  1
  O  O10  1  0.18570276  0.76988515  0.08892849  1
  O  O11  1  0.68095665  0.59677427  0.41107151  1
  O  O12  1  0.23011485  0.81429724  0.41107151  1
  O  O13  1  0.76988515  0.18570276  0.58892849  1
  O  O14  1  0.36522076  0.95360661  0.86421163  1
  O  O15  1  0.08939498  0.00100913  0.63578837  1
  O  O16  1  0.04639339  0.63477924  0.63578837  1
  O  O17  1  0.99899087  0.91060502  0.86421163  1
  O  O18  1  0.63477924  0.04639339  0.13578837  1
  O  O19  1  0.91060502  0.99899087  0.36421163  1
  O  O20  1  0.95360661  0.36522076  0.36421163  1
  O  O21  1  0.00100913  0.08939498  0.13578837  1
  O  O22  1  0.58048156  0.83048156  0.66096313  1
  O  O23  1  0.16951844  0.41951844  0.83903687  1
  O  O24  1  0.41951844  0.16951844  0.33903687  1
  O  O25  1  0.83048156  0.58048156  0.16096313  1
  O  O26  1  0.40322573  0.31904335  0.08892849  1
  O  O27  1  0.81429724  0.23011485  0.91107151  1
  Si  Si28  1  0.87500000  0.12500000  0.25000000  1
  Si  Si29  1  0.12500000  0.87500000  0.75000000  1
  U  U30  1  0.95636769  0.70636769  0.41273538  1
  U  U31  1  0.29363231  0.04363231  0.08726462  1
  U  U32  1  0.04363231  0.29363231  0.58726462  1
  U  U33  1  0.70636769  0.95636769  0.91273538  1
