# generated using pymatgen
data_LiCu5(PO4)2
_symmetry_space_group_name_H-M   'P 1'
_cell_length_a   6.26006024
_cell_length_b   5.50968465
_cell_length_c   10.46439894
_cell_angle_alpha   89.89433707
_cell_angle_beta   90.03162336
_cell_angle_gamma   89.57275428
_symmetry_Int_Tables_number   1
_chemical_formula_structural   LiCu5(PO4)2
_chemical_formula_sum   'Li2 Cu10 P4 O16'
_cell_volume   360.91643610
_cell_formula_units_Z   2
loop_
 _symmetry_equiv_pos_site_id
 _symmetry_equiv_pos_as_xyz
  1  'x, y, z'
loop_
 _atom_site_type_symbol
 _atom_site_label
 _atom_site_symmetry_multiplicity
 _atom_site_fract_x
 _atom_site_fract_y
 _atom_site_fract_z
 _atom_site_occupancy
  Li  Li0  1  0.24781352  0.32843752  0.49602245  1
  Li  Li1  1  0.25124477  0.67415151  0.24866482  1
  Cu  Cu2  1  0.00293201  0.18869936  0.74925076  1
  Cu  Cu3  1  0.99562481  0.18602723  0.24576798  1
  Cu  Cu4  1  0.24317963  0.33500415  0.00247243  1
  Cu  Cu5  1  0.25533964  0.65417593  0.75076634  1
  Cu  Cu6  1  0.50432691  0.81540996  0.99883498  1
  Cu  Cu7  1  0.49827620  0.81170843  0.49632564  1
  Cu  Cu8  1  0.74389283  0.66032450  0.74790314  1
  Cu  Cu9  1  0.74289007  0.66508375  0.24625839  1
  Cu  Cu10  1  0.75703842  0.33483890  0.49460437  1
  Cu  Cu11  1  0.75562633  0.33955654  0.99997053  1
  P  P12  1  0.00317379  0.82567322  0.00268534  1
  P  P13  1  0.00799694  0.82730456  0.49712496  1
  P  P14  1  0.49098835  0.17404749  0.25318681  1
  P  P15  1  0.49829361  0.17375536  0.74624258  1
  O  O16  1  0.00581627  0.82242118  0.64574825  1
  O  O17  1  0.01467916  0.09508266  0.44906177  1
  O  O18  1  0.00837525  0.81817707  0.15092773  1
  O  O19  1  -0.00040108  0.08919857  0.94943968  1
  O  O20  1  0.20371277  0.68225607  0.44248570  1
  O  O21  1  0.20754413  0.69454969  0.94932575  1
  O  O22  1  0.29259479  0.32202543  0.20330546  1
  O  O23  1  0.29765684  0.30438699  0.68724506  1
  O  O24  1  0.49486684  0.17706863  0.89464840  1
  O  O25  1  0.50172285  0.90859103  0.69547401  1
  O  O26  1  0.49121129  0.18327728  0.40159933  1
  O  O27  1  0.48296108  0.90800117  0.20395923  1
  O  O28  1  0.70411929  0.30509665  0.69642126  1
  O  O29  1  0.69711979  0.30005269  0.20006523  1
  O  O30  1  0.79997642  0.70067468  0.44622735  1
  O  O31  1  0.79940653  0.69494078  0.95057527  1
