# generated using pymatgen
data_VO2
_symmetry_space_group_name_H-M   'P 1'
_cell_length_a   3.06441512
_cell_length_b   4.81428526
_cell_length_c   9.19871017
_cell_angle_alpha   90.00000000
_cell_angle_beta   90.00000000
_cell_angle_gamma   90.00000000
_symmetry_Int_Tables_number   1
_chemical_formula_structural   VO2
_chemical_formula_sum   'V4 O8'
_cell_volume   135.70828177
_cell_formula_units_Z   4
loop_
 _symmetry_equiv_pos_site_id
 _symmetry_equiv_pos_as_xyz
  1  'x, y, z'
loop_
 _atom_site_type_symbol
 _atom_site_label
 _atom_site_symmetry_multiplicity
 _atom_site_fract_x
 _atom_site_fract_y
 _atom_site_fract_z
 _atom_site_occupancy
  O  O0  1  0.24999959  0.70264831  0.47493645  1
  O  O1  1  0.74999877  0.29735154  0.52506400  1
  O  O2  1  0.74999877  0.20264839  0.02506377  1
  O  O3  1  0.24999959  0.79735146  0.97493667  1
  O  O4  1  0.24999959  0.15157626  0.76380748  1
  O  O5  1  0.74999877  0.84842359  0.23619189  1
  O  O6  1  0.24999959  0.34842366  0.26380726  1
  O  O7  1  0.74999877  0.65157619  0.73619211  1
  V  V8  1  0.24999959  0.47005467  0.63733857  1
  V  V9  1  0.74999877  0.52994518  0.36266080  1
  V  V10  1  0.74999877  0.97005460  0.86266102  1
  V  V11  1  0.24999959  0.02994525  0.13733942  1
