# generated using pymatgen
data_Ni2P3O10
_symmetry_space_group_name_H-M   'P 1'
_cell_length_a   4.69039011
_cell_length_b   8.40733368
_cell_length_c   9.00824375
_cell_angle_alpha   90.00000000
_cell_angle_beta   98.31355302
_cell_angle_gamma   90.00000000
_symmetry_Int_Tables_number   1
_chemical_formula_structural   Ni2P3O10
_chemical_formula_sum   'Ni4 P6 O20'
_cell_volume   351.49528000
_cell_formula_units_Z   2
loop_
 _symmetry_equiv_pos_site_id
 _symmetry_equiv_pos_as_xyz
  1  'x, y, z'
loop_
 _atom_site_type_symbol
 _atom_site_label
 _atom_site_symmetry_multiplicity
 _atom_site_fract_x
 _atom_site_fract_y
 _atom_site_fract_z
 _atom_site_occupancy
  O  O0  1  0.45774722  0.75000027  0.02589955  1
  O  O1  1  0.82119546  0.90296348  0.20707413  1
  O  O2  1  0.82119546  0.59703586  0.20707413  1
  O  O3  1  0.79474422  0.25000009  0.23282925  1
  O  O4  1  0.17880356  0.09703568  0.79292558  1
  O  O5  1  0.17880356  0.40296330  0.79292558  1
  O  O6  1  0.20525696  0.75000027  0.76717062  1
  O  O7  1  0.22788506  0.59677422  0.49143120  1
  O  O8  1  0.22788506  0.90322513  0.49143120  1
  O  O9  1  0.29815042  0.25000009  0.45365332  1
  O  O10  1  0.31190472  0.10214086  0.17380424  1
  O  O11  1  0.31190472  0.39785932  0.17380424  1
  O  O12  1  0.77211396  0.09677404  0.50856851  1
  O  O13  1  0.40025004  0.75000027  0.28601464  1
  O  O14  1  0.59975114  0.25000009  0.71398524  1
  O  O15  1  0.77211396  0.40322494  0.50856851  1
  O  O16  1  0.68809646  0.60214104  0.82619564  1
  O  O17  1  0.68809646  0.89785950  0.82619564  1
  O  O18  1  0.70185076  0.75000027  0.54634656  1
  O  O19  1  0.54225396  0.25000009  0.97410033  1
  P  P20  1  0.39153549  0.75000027  0.46401446  1
  P  P21  1  0.51074697  0.75000027  0.85374519  1
  P  P22  1  0.48925421  0.25000009  0.14625469  1
  P  P23  1  0.60846351  0.25000009  0.53598637  1
  P  P24  1  0.34555516  0.25000009  0.81405633  1
  P  P25  1  0.65444385  0.75000027  0.18594337  1
  Ni  Ni26  1  0.95314174  0.93192720  0.66199300  1
  Ni  Ni27  1  0.95314174  0.56807334  0.66199300  1
  Ni  Ni28  1  0.04685728  0.43192702  0.33800671  1
  Ni  Ni29  1  0.04685728  0.06807316  0.33800671  1
