# generated using pymatgen
data_P2H4PbO4
_symmetry_space_group_name_H-M   'P 1'
_cell_length_a   6.06658301
_cell_length_b   6.09935430
_cell_length_c   8.52849012
_cell_angle_alpha   110.95207887
_cell_angle_beta   93.03096280
_cell_angle_gamma   90.00000002
_symmetry_Int_Tables_number   1
_chemical_formula_structural   P2H4PbO4
_chemical_formula_sum   'P4 H8 Pb2 O8'
_cell_volume   294.23471827
_cell_formula_units_Z   2
loop_
 _symmetry_equiv_pos_site_id
 _symmetry_equiv_pos_as_xyz
  1  'x, y, z'
loop_
 _atom_site_type_symbol
 _atom_site_label
 _atom_site_symmetry_multiplicity
 _atom_site_fract_x
 _atom_site_fract_y
 _atom_site_fract_z
 _atom_site_occupancy
  H  H0  1  0.35240949  0.17744936  0.61153056  1
  H  H1  1  0.64759051  0.82255064  0.38846944  1
  H  H2  1  0.85240949  0.43408120  0.61153056  1
  H  H3  1  0.14759051  0.56591880  0.38846944  1
  H  H4  1  0.90777693  0.07531302  0.38711215  1
  H  H5  1  0.59222307  0.68820087  0.61288785  1
  H  H6  1  0.40777693  0.31179913  0.38711215  1
  H  H7  1  0.09222307  0.92468698  0.61288785  1
  O  O8  1  0.88682896  0.81626464  0.82583406  1
  O  O9  1  0.61317104  0.99043058  0.17416594  1
  O  O10  1  0.41671150  0.49273890  0.17988795  1
  O  O11  1  0.91671150  0.68714905  0.17988795  1
  O  O12  1  0.08328850  0.31285095  0.82011205  1
  O  O13  1  0.58328850  0.50726110  0.82011205  1
  O  O14  1  0.11317104  0.18373536  0.17416594  1
  O  O15  1  0.38682896  0.00956942  0.82583406  1
  P  P16  1  0.77114556  0.89026348  0.27635517  1
  P  P17  1  0.72885444  0.61390831  0.72364483  1
  P  P18  1  0.22885444  0.10973652  0.72364483  1
  P  P19  1  0.27114556  0.38609169  0.27635517  1
  Pb  Pb20  1  0.75000000  0.24972176  0.00000000  1
  Pb  Pb21  1  0.25000000  0.75027824  0.00000000  1
