# generated using pymatgen
data_LiBi(PO3)4
_symmetry_space_group_name_H-M   'P 1'
_cell_length_a   5.30674016
_cell_length_b   10.72722226
_cell_length_c   10.72722225
_cell_angle_alpha   68.78050859
_cell_angle_beta   102.46442576
_cell_angle_gamma   102.46442572
_symmetry_Int_Tables_number   1
_chemical_formula_structural   LiBi(PO3)4
_chemical_formula_sum   'Li2 Bi2 P8 O24'
_cell_volume   549.44550310
_cell_formula_units_Z   2
loop_
 _symmetry_equiv_pos_site_id
 _symmetry_equiv_pos_as_xyz
  1  'x, y, z'
loop_
 _atom_site_type_symbol
 _atom_site_label
 _atom_site_symmetry_multiplicity
 _atom_site_fract_x
 _atom_site_fract_y
 _atom_site_fract_z
 _atom_site_occupancy
  Li  Li0  1  0.00000000  0.00000000  0.50000000  1
  Li  Li1  1  0.00000000  0.50000000  0.00000000  1
  O  O2  1  0.34850338  0.13005055  0.37819191  1
  O  O3  1  0.74249234  0.33867102  0.05055845  1
  O  O4  1  0.00000000  0.26674741  0.73325259  1
  O  O5  1  0.00000000  0.73325259  0.26674741  1
  O  O6  1  0.25750766  0.66132898  0.94944155  1
  O  O7  1  0.25750766  0.94944155  0.66132898  1
  O  O8  1  0.01066493  0.21750947  0.51768570  1
  O  O9  1  0.01066493  0.51768570  0.21750947  1
  O  O10  1  0.27604761  0.30489252  0.92510607  1
  O  O11  1  0.27604761  0.92510607  0.30489252  1
  O  O12  1  0.37732331  0.45680270  0.68908274  1
  O  O13  1  0.37732331  0.68908274  0.45680270  1
  O  O14  1  0.61127463  0.85833845  0.85833845  1
  O  O15  1  0.65149662  0.62180809  0.86994945  1
  O  O16  1  0.98933507  0.78249053  0.48231430  1
  O  O17  1  0.34850338  0.37819191  0.13005055  1
  O  O18  1  0.65149662  0.86994945  0.62180809  1
  O  O19  1  0.38872537  0.14166155  0.14166155  1
  O  O20  1  0.62267669  0.31091726  0.54319730  1
  O  O21  1  0.62267669  0.54319730  0.31091726  1
  O  O22  1  0.72395239  0.07489393  0.69510748  1
  O  O23  1  0.72395239  0.69510748  0.07489393  1
  O  O24  1  0.98933507  0.48231430  0.78249053  1
  O  O25  1  0.74249234  0.05055845  0.33867102  1
  P  P26  1  0.46240746  0.30136922  0.06464786  1
  P  P27  1  0.83553525  0.60797483  0.22376349  1
  P  P28  1  0.16446475  0.39202517  0.77623651  1
  P  P29  1  0.16446475  0.77623651  0.39202517  1
  P  P30  1  0.53759254  0.69863078  0.93535214  1
  P  P31  1  0.83553525  0.22376349  0.60797483  1
  P  P32  1  0.46240746  0.06464786  0.30136922  1
  P  P33  1  0.53759254  0.93535214  0.69863078  1
  Bi  Bi34  1  0.68997018  0.64855219  0.64855219  1
  Bi  Bi35  1  0.31002982  0.35144781  0.35144781  1
