# generated using pymatgen
data_Sr2InI5
_symmetry_space_group_name_H-M   'P 1'
_cell_length_a   9.20791239
_cell_length_b   9.20791239
_cell_length_c   10.06203570
_cell_angle_alpha   117.22958566
_cell_angle_beta   117.22958568
_cell_angle_gamma   90.00000001
_symmetry_Int_Tables_number   1
_chemical_formula_structural   Sr2InI5
_chemical_formula_sum   'Sr4 In2 I10'
_cell_volume   650.43215005
_cell_formula_units_Z   2
loop_
 _symmetry_equiv_pos_site_id
 _symmetry_equiv_pos_as_xyz
  1  'x, y, z'
loop_
 _atom_site_type_symbol
 _atom_site_label
 _atom_site_symmetry_multiplicity
 _atom_site_fract_x
 _atom_site_fract_y
 _atom_site_fract_z
 _atom_site_occupancy
  Sr  Sr0  1  0.84397480  0.34397480  0.00000000  1
  Sr  Sr1  1  0.65602520  0.84397480  0.00000000  1
  Sr  Sr2  1  0.15602520  0.65602520  0.00000000  1
  Sr  Sr3  1  0.34397480  0.15602520  0.00000000  1
  In  In4  1  0.75000000  0.75000000  0.50000000  1
  In  In5  1  0.25000000  0.25000000  0.50000000  1
  I  I6  1  0.00000000  0.00000000  0.00000000  1
  I  I7  1  0.50000000  0.50000000  0.00000000  1
  I  I8  1  0.51271394  0.01271394  0.72416980  1
  I  I9  1  0.71145587  0.51271394  0.72416980  1
  I  I10  1  0.01271394  0.21145587  0.72416980  1
  I  I11  1  0.28854413  0.48728606  0.27583020  1
  I  I12  1  0.98728606  0.78854413  0.27583020  1
  I  I13  1  0.78854413  0.28854413  0.27583020  1
  I  I14  1  0.48728606  0.98728606  0.27583020  1
  I  I15  1  0.21145587  0.71145587  0.72416980  1
