# generated using pymatgen
data_BaYFe2O5
_symmetry_space_group_name_H-M   'P 1'
_cell_length_a   3.98325391
_cell_length_b   3.98379329
_cell_length_c   7.61113178
_cell_angle_alpha   90.00000000
_cell_angle_beta   90.00000000
_cell_angle_gamma   90.00000000
_symmetry_Int_Tables_number   1
_chemical_formula_structural   BaYFe2O5
_chemical_formula_sum   'Ba1 Y1 Fe2 O5'
_cell_volume   120.77694172
_cell_formula_units_Z   1
loop_
 _symmetry_equiv_pos_site_id
 _symmetry_equiv_pos_as_xyz
  1  'x, y, z'
loop_
 _atom_site_type_symbol
 _atom_site_label
 _atom_site_symmetry_multiplicity
 _atom_site_fract_x
 _atom_site_fract_y
 _atom_site_fract_z
 _atom_site_occupancy
  O  O0  1  0.49999901  0.00000000  0.31355285  1
  O  O1  1  0.49999901  0.00000000  0.68644715  1
  O  O2  1  0.00000000  0.50000072  0.31364923  1
  O  O3  1  0.00000000  0.50000072  0.68635077  1
  O  O4  1  0.49999901  0.50000072  0.00000000  1
  Fe  Fe5  1  0.49999901  0.50000072  0.26820515  1
  Fe  Fe6  1  0.49999901  0.50000072  0.73179486  1
  Y  Y7  1  0.00000000  0.00000000  0.50000000  1
  Ba  Ba8  1  0.00000000  0.00000000  0.00000000  1
