# generated using pymatgen
data_Sr3Co2Cl2O5
_symmetry_space_group_name_H-M   'P 1'
_cell_length_a   3.90207569
_cell_length_b   3.90207570
_cell_length_c   12.64892478
_cell_angle_alpha   98.87303171
_cell_angle_beta   98.87303171
_cell_angle_gamma   89.99999994
_symmetry_Int_Tables_number   1
_chemical_formula_structural   Sr3Co2Cl2O5
_chemical_formula_sum   'Sr3 Co2 Cl2 O5'
_cell_volume   187.95699820
_cell_formula_units_Z   1
loop_
 _symmetry_equiv_pos_site_id
 _symmetry_equiv_pos_as_xyz
  1  'x, y, z'
loop_
 _atom_site_type_symbol
 _atom_site_label
 _atom_site_symmetry_multiplicity
 _atom_site_fract_x
 _atom_site_fract_y
 _atom_site_fract_z
 _atom_site_occupancy
  O  O0  1  0.50000044  0.50000097  0.00000026  1
  O  O1  1  0.41300169  0.91300286  0.82600411  1
  O  O2  1  0.91300180  0.41300189  0.82600406  1
  O  O3  1  0.08699717  0.58699708  0.17399596  1
  O  O4  1  0.58699734  0.08699872  0.17399604  1
  Cl  Cl5  1  0.29783989  0.29783868  0.59567804  1
  Cl  Cl6  1  0.70216169  0.70216028  0.40432211  1
  Co  Co7  1  0.42209132  0.42209191  0.84418263  1
  Co  Co8  1  0.57790771  0.57790966  0.15581752  1
  Sr  Sr9  1  0.00000000  0.00000000  0.00000000  1
  Sr  Sr10  1  0.15322162  0.15322269  0.30644557  1
  Sr  Sr11  1  0.84677735  0.84677628  0.69355445  1
