# generated using pymatgen
data_K2CdN12
_symmetry_space_group_name_H-M   'P 1'
_cell_length_a   3.88492229
_cell_length_b   7.56542630
_cell_length_c   8.98291018
_cell_angle_alpha   93.92789646
_cell_angle_beta   90.00000000
_cell_angle_gamma   104.87760300
_symmetry_Int_Tables_number   1
_chemical_formula_structural   K2CdN12
_chemical_formula_sum   'K2 Cd1 N12'
_cell_volume   254.52503371
_cell_formula_units_Z   1
loop_
 _symmetry_equiv_pos_site_id
 _symmetry_equiv_pos_as_xyz
  1  'x, y, z'
loop_
 _atom_site_type_symbol
 _atom_site_label
 _atom_site_symmetry_multiplicity
 _atom_site_fract_x
 _atom_site_fract_y
 _atom_site_fract_z
 _atom_site_occupancy
  Cd  Cd0  1  0.00000000  0.00000000  0.50000000  1
  K  K1  1  0.34656474  0.69312948  0.82478723  1
  K  K2  1  0.65343526  0.30687052  0.17521277  1
  N  N3  1  0.39852275  0.79704550  0.49385749  1
  N  N4  1  0.60147725  0.20295450  0.50614251  1
  N  N5  1  0.32770493  0.65540985  0.41692394  1
  N  N6  1  0.67229507  0.34459015  0.58307606  1
  N  N7  1  0.25826027  0.51652053  0.34421665  1
  N  N8  1  0.74173973  0.48347947  0.65578335  1
  N  N9  1  -0.00010099  -0.00020197  0.76105216  1
  N  N10  1  1.00010099  1.00020197  0.23894784  1
  N  N11  1  0.06675754  0.13351507  0.84612669  1
  N  N12  1  0.93324246  0.86648493  0.15387331  1
  N  N13  1  0.13061697  0.26123394  0.93367506  1
  N  N14  1  0.86938303  0.73876606  0.06632494  1
