# generated using pymatgen
data_Li3Bi2P5O18
_symmetry_space_group_name_H-M   'P 1'
_cell_length_a   9.91602066
_cell_length_b   11.19164351
_cell_length_c   6.84837369
_cell_angle_alpha   92.50724144
_cell_angle_beta   90.28559378
_cell_angle_gamma   95.45434217
_symmetry_Int_Tables_number   1
_chemical_formula_structural   Li3Bi2P5O18
_chemical_formula_sum   'Li6 Bi4 P10 O36'
_cell_volume   755.81168601
_cell_formula_units_Z   2
loop_
 _symmetry_equiv_pos_site_id
 _symmetry_equiv_pos_as_xyz
  1  'x, y, z'
loop_
 _atom_site_type_symbol
 _atom_site_label
 _atom_site_symmetry_multiplicity
 _atom_site_fract_x
 _atom_site_fract_y
 _atom_site_fract_z
 _atom_site_occupancy
  Li  Li0  1  0.11897512  0.34682762  0.82804497  1
  Li  Li1  1  0.88102488  0.65317238  0.17195503  1
  Li  Li2  1  0.82143495  0.30227506  0.89401879  1
  Li  Li3  1  0.63977024  0.16363939  0.66350047  1
  Li  Li4  1  0.36022976  0.83636061  0.33649953  1
  Li  Li5  1  0.17856505  0.69772494  0.10598121  1
  O  O6  1  0.56462183  0.87903062  0.92716382  1
  O  O7  1  0.98671375  0.67934311  0.59245646  1
  O  O8  1  0.93405066  0.09799576  0.37562626  1
  O  O9  1  0.98764186  0.32504823  0.04012556  1
  O  O10  1  0.01235814  0.67495177  0.95987444  1
  O  O11  1  0.06594934  0.90200424  0.62437374  1
  O  O12  1  0.01328625  0.32065689  0.40754354  1
  O  O13  1  0.08097580  0.49972939  0.73852863  1
  O  O14  1  0.07491327  0.19113392  0.66489093  1
  O  O15  1  0.17050569  0.76119418  0.36976860  1
  O  O16  1  0.16044489  0.47302156  0.23057200  1
  O  O17  1  0.19683028  0.04414971  0.00119331  1
  O  O18  1  0.24745142  0.21271301  0.26377287  1
  O  O19  1  0.33338467  0.79928599  0.02369263  1
  O  O20  1  0.37179188  0.88431484  0.68056947  1
  O  O21  1  0.32131417  0.36149219  0.90097254  1
  O  O22  1  0.30059486  0.00560172  0.33504263  1
  O  O23  1  0.35570646  0.41886036  0.55786494  1
  O  O24  1  0.45464954  0.68598515  0.75579822  1
  O  O25  1  0.92508673  0.80886608  0.33510907  1
  O  O26  1  0.44387458  0.22233096  0.66866317  1
  O  O27  1  0.43537817  0.12096938  0.07283618  1
  O  O28  1  0.43686195  0.58013356  0.21317800  1
  O  O29  1  0.55612542  0.77766904  0.33133683  1
  O  O30  1  0.56313805  0.41986644  0.78682200  1
  O  O31  1  0.54535046  0.31401485  0.24420178  1
  O  O32  1  0.64429354  0.58113964  0.44213506  1
  O  O33  1  0.69940514  0.99439828  0.66495737  1
  O  O34  1  0.67868583  0.63850781  0.09902746  1
  O  O35  1  0.62820812  0.11568516  0.31943053  1
  O  O36  1  0.66661533  0.20071401  0.97630737  1
  O  O37  1  0.75254858  0.78728699  0.73622713  1
  O  O38  1  0.80316972  0.95585029  0.99880669  1
  O  O39  1  0.83955511  0.52697844  0.76942800  1
  O  O40  1  0.82949431  0.23880582  0.63023140  1
  O  O41  1  0.91902420  0.50027061  0.26147137  1
  P  P42  1  0.57822750  0.64782924  0.27552201  1
  P  P43  1  0.57912592  0.18854922  0.15366245  1
  P  P44  1  0.71165851  0.90837236  0.82920663  1
  P  P45  1  0.98830940  0.59692461  0.77501089  1
  P  P46  1  0.04517874  0.79392424  0.47536279  1
  P  P47  1  0.01169060  0.40307539  0.22498911  1
  P  P48  1  0.28834149  0.09162764  0.17079337  1
  P  P49  1  0.95482126  0.20607576  0.52463721  1
  P  P50  1  0.42177250  0.35217076  0.72447799  1
  P  P51  1  0.42087408  0.81145078  0.84633755  1
  Bi  Bi52  1  0.76738598  0.95434903  0.32954000  1
  Bi  Bi53  1  0.64813433  0.60691693  0.76301755  1
  Bi  Bi54  1  0.35186567  0.39308307  0.23698245  1
  Bi  Bi55  1  0.23261402  0.04565097  0.67046000  1
