# generated using pymatgen
data_CrInBr3
_symmetry_space_group_name_H-M   'P 1'
_cell_length_a   4.29588544
_cell_length_b   9.53244596
_cell_length_c   15.15506058
_cell_angle_alpha   90.00000000
_cell_angle_beta   90.00000000
_cell_angle_gamma   96.13911471
_symmetry_Int_Tables_number   1
_chemical_formula_structural   CrInBr3
_chemical_formula_sum   'Cr4 In4 Br12'
_cell_volume   617.04515239
_cell_formula_units_Z   4
loop_
 _symmetry_equiv_pos_site_id
 _symmetry_equiv_pos_as_xyz
  1  'x, y, z'
loop_
 _atom_site_type_symbol
 _atom_site_label
 _atom_site_symmetry_multiplicity
 _atom_site_fract_x
 _atom_site_fract_y
 _atom_site_fract_z
 _atom_site_occupancy
  Cr  Cr0  1  0.76874757  0.34023451  0.95153419  1
  Cr  Cr1  1  0.23125243  0.15976549  0.45153419  1
  Cr  Cr2  1  0.23125243  0.65976549  0.04846581  1
  Cr  Cr3  1  0.76874757  0.84023451  0.54846581  1
  Br  Br4  1  0.74779817  0.72604183  0.69818966  1
  Br  Br5  1  0.25220183  0.77395817  0.19818966  1
  Br  Br6  1  0.25220183  0.27395817  0.30181034  1
  Br  Br7  1  0.74779817  0.22604183  0.80181034  1
  Br  Br8  1  0.80007446  0.97071855  0.40070221  1
  Br  Br9  1  0.19992554  0.52928145  0.90070221  1
  Br  Br10  1  0.19992554  0.02928145  0.59929779  1
  Br  Br11  1  0.80007446  0.47071855  0.09929779  1
  Br  Br12  1  0.30753608  0.67408171  0.49252179  1
  Br  Br13  1  0.69246392  0.82591829  0.99252179  1
  Br  Br14  1  0.69246392  0.32591829  0.50747821  1
  Br  Br15  1  0.30753608  0.17408171  0.00747821  1
  In  In16  1  0.24291376  0.46501855  0.66504402  1
  In  In17  1  0.75708624  0.03498145  0.16504402  1
  In  In18  1  0.75708624  0.53498145  0.33495598  1
  In  In19  1  0.24291376  0.96501855  0.83495598  1
