# generated using pymatgen
data_Li3Sn2(PO4)3
_symmetry_space_group_name_H-M   'P 1'
_cell_length_a   8.73757440
_cell_length_b   9.33823807
_cell_length_c   12.89482268
_cell_angle_alpha   90.00000000
_cell_angle_beta   89.51947146
_cell_angle_gamma   90.00000000
_symmetry_Int_Tables_number   1
_chemical_formula_structural   Li3Sn2(PO4)3
_chemical_formula_sum   'Li12 Sn8 P12 O48'
_cell_volume   1052.09735498
_cell_formula_units_Z   4
loop_
 _symmetry_equiv_pos_site_id
 _symmetry_equiv_pos_as_xyz
  1  'x, y, z'
loop_
 _atom_site_type_symbol
 _atom_site_label
 _atom_site_symmetry_multiplicity
 _atom_site_fract_x
 _atom_site_fract_y
 _atom_site_fract_z
 _atom_site_occupancy
  Li  Li0  1  0.07747825  0.52650197  0.64197245  1
  Li  Li1  1  0.07094731  0.08204334  0.31213166  1
  Li  Li2  1  0.20430790  0.76589032  0.80301302  1
  Li  Li3  1  0.29569210  0.26589032  0.69698698  1
  Li  Li4  1  0.42905269  0.58204334  0.18786834  1
  Li  Li5  1  0.42252175  0.02650197  0.85802755  1
  Li  Li6  1  0.57747825  0.97349803  0.14197245  1
  Li  Li7  1  0.57094731  0.41795666  0.81213166  1
  Li  Li8  1  0.70430790  0.73410968  0.30301302  1
  Li  Li9  1  0.79569210  0.23410968  0.19698698  1
  Li  Li10  1  0.92905269  0.91795666  0.68786834  1
  Li  Li11  1  0.92252175  0.47349803  0.35802755  1
  O  O12  1  0.03155574  0.85579872  0.54902282  1
  O  O13  1  0.04449359  0.61508410  0.77460819  1
  O  O14  1  0.04975026  0.65904780  0.40374837  1
  O  O15  1  0.05468875  0.91151706  0.09035500  1
  O  O16  1  0.09670323  0.37558864  0.42682494  1
  O  O17  1  0.12070869  0.96594528  0.77675053  1
  O  O18  1  0.12570742  0.40602564  0.06564495  1
  O  O19  1  0.14085645  0.23651810  0.80828617  1
  O  O20  1  0.15601255  0.20033017  0.19185702  1
  O  O21  1  0.19469075  0.20783914  0.56810851  1
  O  O22  1  0.23239371  0.06506463  0.94235947  1
  O  O23  1  0.23741845  0.45766734  0.24096062  1
  O  O24  1  0.26258155  0.95766734  0.25903938  1
  O  O25  1  0.26760629  0.56506463  0.55764053  1
  O  O26  1  0.30530925  0.70783914  0.93189149  1
  O  O27  1  0.34398745  0.70033017  0.30814298  1
  O  O28  1  0.35914355  0.73651810  0.69171383  1
  O  O29  1  0.37429258  0.90602564  0.43435505  1
  O  O30  1  0.37929131  0.46594528  0.72324947  1
  O  O31  1  0.40329677  0.87558864  0.07317506  1
  O  O32  1  0.44531125  0.41151706  0.40964500  1
  O  O33  1  0.45024974  0.15904780  0.09625163  1
  O  O34  1  0.45550641  0.11508410  0.72539181  1
  O  O35  1  0.46844426  0.35579872  0.95097718  1
  O  O36  1  0.53155574  0.64420128  0.04902282  1
  O  O37  1  0.54449359  0.88491590  0.27460819  1
  O  O38  1  0.54975026  0.84095220  0.90374837  1
  O  O39  1  0.55468875  0.58848294  0.59035500  1
  O  O40  1  0.59670323  0.12441136  0.92682494  1
  O  O41  1  0.62070869  0.53405472  0.27675053  1
  O  O42  1  0.62570742  0.09397436  0.56564495  1
  O  O43  1  0.64085645  0.26348190  0.30828617  1
  O  O44  1  0.65601255  0.29966983  0.69185702  1
  O  O45  1  0.69469075  0.29216086  0.06810851  1
  O  O46  1  0.73239371  0.43493537  0.44235947  1
  O  O47  1  0.73741845  0.04233266  0.74096062  1
  O  O48  1  0.76258155  0.54233266  0.75903938  1
  O  O49  1  0.76760629  0.93493537  0.05764053  1
  O  O50  1  0.80530925  0.79216086  0.43189149  1
  O  O51  1  0.84398745  0.79966983  0.80814298  1
  O  O52  1  0.85914355  0.76348190  0.19171383  1
  O  O53  1  0.87429258  0.59397436  0.93435505  1
  O  O54  1  0.87929131  0.03405472  0.22324947  1
  O  O55  1  0.90329677  0.62441136  0.57317506  1
  O  O56  1  0.94531125  0.08848294  0.90964500  1
  O  O57  1  0.95024974  0.34095220  0.59625163  1
  O  O58  1  0.95550641  0.38491590  0.22539181  1
  O  O59  1  0.96844426  0.14420128  0.45097718  1
  P  P60  1  0.05247506  0.26178181  0.51237692  1
  P  P61  1  0.10551344  0.08985683  0.85565255  1
  P  P62  1  0.11763010  0.36512407  0.18003133  1
  P  P63  1  0.38236990  0.86512407  0.31996867  1
  P  P64  1  0.39448656  0.58985683  0.64434745  1
  P  P65  1  0.44752494  0.76178181  0.98762308  1
  P  P66  1  0.55247506  0.23821819  0.01237692  1
  P  P67  1  0.60551344  0.41014317  0.35565255  1
  P  P68  1  0.61763010  0.13487593  0.68003133  1
  P  P69  1  0.88236990  0.63487593  0.81996867  1
  P  P70  1  0.89448656  0.91014317  0.14434745  1
  P  P71  1  0.94752494  0.73821819  0.48762308  1
  Sn  Sn72  1  0.22022836  0.45262936  0.91022727  1
  Sn  Sn73  1  0.24671126  0.03529991  0.10263202  1
  Sn  Sn74  1  0.25328874  0.53529991  0.39736798  1
  Sn  Sn75  1  0.27977164  0.95262936  0.58977273  1
  Sn  Sn76  1  0.72022836  0.04737064  0.41022727  1
  Sn  Sn77  1  0.74671126  0.46470009  0.60263202  1
  Sn  Sn78  1  0.75328874  0.96470009  0.89736798  1
  Sn  Sn79  1  0.77977164  0.54737064  0.08977273  1
