# generated using pymatgen
data_LiSb(PO3)5
_symmetry_space_group_name_H-M   'P 1'
_cell_length_a   10.83134169
_cell_length_b   14.06538119
_cell_length_c   9.67226069
_cell_angle_alpha   90.00000000
_cell_angle_beta   67.18446577
_cell_angle_gamma   90.00000000
_symmetry_Int_Tables_number   1
_chemical_formula_structural   LiSb(PO3)5
_chemical_formula_sum   'Li4 Sb4 P20 O60'
_cell_volume   1358.24681982
_cell_formula_units_Z   4
loop_
 _symmetry_equiv_pos_site_id
 _symmetry_equiv_pos_as_xyz
  1  'x, y, z'
loop_
 _atom_site_type_symbol
 _atom_site_label
 _atom_site_symmetry_multiplicity
 _atom_site_fract_x
 _atom_site_fract_y
 _atom_site_fract_z
 _atom_site_occupancy
  Li  Li0  1  -0.00024340  0.64432712  0.92762859  1
  Li  Li1  1  0.50024340  0.35567288  0.07237141  1
  Li  Li2  1  0.49975660  0.85567288  0.92762859  1
  Li  Li3  1  1.00024340  0.14432712  0.07237141  1
  O  O4  1  0.12587303  0.24434171  0.06699223  1
  O  O5  1  0.15645982  0.82968165  0.11972960  1
  O  O6  1  0.18069991  0.65511431  0.12280981  1
  O  O7  1  0.12478245  0.51091585  0.28090829  1
  O  O8  1  0.12774179  0.98172673  0.26501729  1
  O  O9  1  0.10945092  0.37198769  0.50220412  1
  O  O10  1  0.11398526  0.12753167  0.51680134  1
  O  O11  1  0.13809034  0.91762554  0.56087464  1
  O  O12  1  0.14317349  0.57734427  0.57249678  1
  O  O13  1  0.27003965  0.84666680  0.30126452  1
  O  O14  1  0.28528840  0.63714875  0.30728235  1
  O  O15  1  0.35336110  0.27303759  0.09523521  1
  O  O16  1  0.20829568  0.74716966  0.52935062  1
  O  O17  1  0.35968148  0.94341280  0.06112206  1
  O  O18  1  0.36270739  0.52309623  0.08187876  1
  O  O19  1  0.13729261  0.47690377  0.91812124  1
  O  O20  1  0.14031852  0.05658720  0.93887794  1
  O  O21  1  0.29170432  0.25283034  0.47064938  1
  O  O22  1  0.14663890  0.72696241  0.90476479  1
  O  O23  1  0.21471160  0.36285125  0.69271765  1
  O  O24  1  0.22996035  0.15333320  0.69873548  1
  O  O25  1  0.35682651  0.42265573  0.42750322  1
  O  O26  1  0.36190966  0.08237446  0.43912536  1
  O  O27  1  0.38601474  0.87246833  0.48319866  1
  O  O28  1  0.39054908  0.62801231  0.49779588  1
  O  O29  1  0.37225821  0.01827327  0.73498271  1
  O  O30  1  0.37521755  0.48908415  0.71909171  1
  O  O31  1  0.31930009  0.34488569  0.87719019  1
  O  O32  1  0.34354018  0.17031835  0.88027040  1
  O  O33  1  0.62587303  0.25565829  0.06699223  1
  O  O34  1  0.37412697  0.75565829  0.93300777  1
  O  O35  1  0.65645982  0.67031835  0.11972960  1
  O  O36  1  0.68069991  0.84488569  0.12280981  1
  O  O37  1  0.62478245  0.98908415  0.28090829  1
  O  O38  1  0.62774179  0.51827327  0.26501729  1
  O  O39  1  0.60945092  0.12801231  0.50220412  1
  O  O40  1  0.61398526  0.37246833  0.51680134  1
  O  O41  1  0.63809034  0.58237446  0.56087464  1
  O  O42  1  0.64317349  0.92265573  0.57249678  1
  O  O43  1  0.77003965  0.65333320  0.30126452  1
  O  O44  1  0.78528840  0.86285125  0.30728235  1
  O  O45  1  0.85336110  0.22696241  0.09523521  1
  O  O46  1  0.70829568  0.75283034  0.52935062  1
  O  O47  1  0.85968148  0.55658720  0.06112206  1
  O  O48  1  0.86270739  0.97690377  0.08187876  1
  O  O49  1  0.63729261  0.02309623  0.91812124  1
  O  O50  1  0.64031852  0.44341280  0.93887794  1
  O  O51  1  0.79170432  0.24716966  0.47064938  1
  O  O52  1  0.64663890  0.77303759  0.90476479  1
  O  O53  1  0.71471160  0.13714875  0.69271765  1
  O  O54  1  0.72996035  0.34666680  0.69873548  1
  O  O55  1  0.85682651  0.07734427  0.42750322  1
  O  O56  1  0.86190966  0.41762554  0.43912536  1
  O  O57  1  0.88601474  0.62753167  0.48319866  1
  O  O58  1  0.89054908  0.87198769  0.49779588  1
  O  O59  1  0.87225821  0.48172673  0.73498271  1
  O  O60  1  0.87521755  0.01091585  0.71909171  1
  O  O61  1  0.81930009  0.15511431  0.87719019  1
  O  O62  1  0.84354018  0.32968165  0.88027040  1
  O  O63  1  0.87412697  0.74434171  0.93300777  1
  P  P64  1  0.27294926  0.25834816  0.00344905  1
  P  P65  1  0.23317712  0.90739128  0.17464060  1
  P  P66  1  0.24511405  0.57433160  0.18505786  1
  P  P67  1  0.25375469  0.85253439  0.46943974  1
  P  P68  1  0.25880641  0.64130034  0.47806830  1
  P  P69  1  0.24119359  0.35869966  0.52193170  1
  P  P70  1  0.24624531  0.14746561  0.53056026  1
  P  P71  1  0.25488595  0.42566840  0.81494214  1
  P  P72  1  0.26682288  0.09260872  0.82535940  1
  P  P73  1  0.22705074  0.74165184  0.99655095  1
  P  P74  1  0.77294926  0.24165184  0.00344905  1
  P  P75  1  0.73317712  0.59260872  0.17464060  1
  P  P76  1  0.74511405  0.92566840  0.18505786  1
  P  P77  1  0.75375469  0.64746561  0.46943974  1
  P  P78  1  0.75880641  0.85869966  0.47806830  1
  P  P79  1  0.74119359  0.14130034  0.52193170  1
  P  P80  1  0.74624531  0.35253439  0.53056026  1
  P  P81  1  0.75488595  0.07433160  0.81494214  1
  P  P82  1  0.76682288  0.40739128  0.82535940  1
  P  P83  1  0.72705074  0.75834816  0.99655095  1
  Sb  Sb84  1  0.00237701  0.99932771  0.49669011  1
  Sb  Sb85  1  0.49762299  0.00067229  0.50330989  1
  Sb  Sb86  1  0.50237701  0.50067229  0.49669011  1
  Sb  Sb87  1  0.99762299  0.49932771  0.50330989  1
