# generated using pymatgen
data_Li3Sb3(PO4)4
_symmetry_space_group_name_H-M   'P 1'
_cell_length_a   13.11638466
_cell_length_b   9.20336778
_cell_length_c   9.25781591
_cell_angle_alpha   90.73271308
_cell_angle_beta   85.58569919
_cell_angle_gamma   89.33310895
_symmetry_Int_Tables_number   1
_chemical_formula_structural   Li3Sb3(PO4)4
_chemical_formula_sum   'Li9 Sb9 P12 O48'
_cell_volume   1114.06085397
_cell_formula_units_Z   3
loop_
 _symmetry_equiv_pos_site_id
 _symmetry_equiv_pos_as_xyz
  1  'x, y, z'
loop_
 _atom_site_type_symbol
 _atom_site_label
 _atom_site_symmetry_multiplicity
 _atom_site_fract_x
 _atom_site_fract_y
 _atom_site_fract_z
 _atom_site_occupancy
  Li  Li0  1  0.15492843  0.88539700  0.22563550  1
  Li  Li1  1  0.51870877  0.11914801  0.10754320  1
  Li  Li2  1  0.14704677  0.61617918  0.74943316  1
  Li  Li3  1  0.48114455  0.61705221  0.40323863  1
  Li  Li4  1  0.82092520  0.61322069  0.04911518  1
  Li  Li5  1  0.18295430  0.37858697  0.92370405  1
  Li  Li6  1  0.52128389  0.38723135  0.58171047  1
  Li  Li7  1  0.81328915  0.87829331  0.58522847  1
  Li  Li8  1  0.85189990  0.11297736  0.75517952  1
  O  O9  1  0.07308670  0.08431919  0.00898974  1
  O  O10  1  0.10408141  0.33834792  0.11660642  1
  O  O11  1  0.23452199  0.84021773  0.03600419  1
  O  O12  1  0.05418174  0.73216738  0.28161994  1
  O  O13  1  0.13035579  0.10091220  0.25845742  1
  O  O14  1  0.38857522  0.67246278  -0.00367833  1
  O  O15  1  0.25542784  0.62425051  0.19433752  1
  O  O16  1  0.08063397  0.29270783  0.49823402  1
  O  O17  1  0.41325405  0.37385320  0.13464802  1
  O  O18  1  0.27684584  0.32866495  0.33093529  1
  O  O19  1  0.21721709  0.89730882  0.40974901  1
  O  O20  1  0.53987607  0.89707000  0.06756351  1
  O  O21  1  0.62130684  0.28983716  0.04991620  1
  O  O22  1  0.20849116  0.63631550  0.49971712  1
  O  O23  1  0.43140739  0.15809232  0.29367334  1
  O  O24  1  0.09213562  0.12239999  0.69641564  1
  O  O25  1  0.55736273  0.66228570  0.21468494  1
  O  O26  1  0.10430949  0.40152583  0.74881551  1
  O  O27  1  0.38219242  0.76639616  0.46012601  1
  O  O28  1  0.05967034  0.81120710  0.82489409  1
  O  O29  1  0.71719770  0.78774944  0.10679482  1
  O  O30  1  0.45052421  0.41343148  0.40176772  1
  O  O31  1  0.25231936  0.82992144  0.67002051  1
  O  O32  1  0.79506446  0.39339314  0.10689907  1
  O  O33  1  0.61255876  0.91770447  0.30581393  1
  O  O34  1  0.92157576  0.86047802  0.02384905  1
  O  O35  1  0.41078544  0.13836134  0.66691533  1
  O  O36  1  0.75446317  0.20040482  0.34005597  1
  O  O37  1  0.21506752  0.58296390  0.92939268  1
  O  O38  1  0.59774614  0.18102245  0.51708841  1
  O  O39  1  0.28650162  0.23132533  0.87126112  1
  O  O40  1  0.55771738  0.59730711  0.57799969  1
  O  O41  1  0.89275951  0.60225760  0.22305270  1
  O  O42  1  0.95157209  0.18255145  0.20260703  1
  O  O43  1  0.58418670  0.87355347  0.62407828  1
  O  O44  1  0.87837496  0.85739852  0.33307395  1
  O  O45  1  0.46195296  0.35312072  0.81893219  1
  O  O46  1  0.73285448  0.36083077  0.55902495  1
  O  O47  1  0.45193894  0.10284378  0.92912871  1
  O  O48  1  0.77139978  0.08529196  0.58630647  1
  O  O49  1  0.73005852  0.69458948  0.64394239  1
  O  O50  1  0.57729849  0.70566683  0.82937066  1
  O  O51  1  0.93192720  0.64604092  0.48601230  1
  O  O52  1  0.73338073  0.42517663  0.86612598  1
  O  O53  1  0.93424311  0.28648478  0.69750446  1
  O  O54  1  0.88675110  0.90898796  0.75887288  1
  O  O55  1  0.78489994  0.16408488  0.94600457  1
  O  O56  1  0.90184214  0.65072265  0.85791733  1
  P  P57  1  0.06853014  0.18473555  0.14255591  1
  P  P58  1  0.26780235  0.67816445  0.03335010  1
  P  P59  1  0.05160187  0.28196978  0.66992190  1
  P  P60  1  0.39780107  0.32008089  0.29586977  1
  P  P61  1  0.26934896  0.78689758  0.50773518  1
  P  P62  1  0.60360131  0.80791230  0.17868802  1
  P  P63  1  0.39847801  0.20441772  0.82308627  1
  P  P64  1  0.71658269  0.20148545  0.50775627  1
  P  P65  1  0.61132421  0.71181041  0.66078509  1
  P  P66  1  0.93803220  0.70666530  0.33264165  1
  P  P67  1  0.73545488  0.30877620  0.98819574  1
  P  P68  1  0.94004885  0.81055019  0.85919049  1
  Sb  Sb69  1  0.14505785  0.53948139  0.32939242  1
  Sb  Sb70  1  0.20422473  0.14897515  0.44225490  1
  Sb  Sb71  1  0.17023376  0.98232219  0.83999794  1
  Sb  Sb72  1  0.49791550  1.00746739  0.48695920  1
  Sb  Sb73  1  0.81536150  0.96159962  0.15858689  1
  Sb  Sb74  1  0.86530088  0.35707079  0.29235641  1
  Sb  Sb75  1  0.45927709  0.85543610  0.89006209  1
  Sb  Sb76  1  0.51784889  0.46640182  0.99486514  1
  Sb  Sb77  1  0.83209643  0.50568611  0.68343771  1
