# generated using pymatgen
data_Co6O5F7
_symmetry_space_group_name_H-M   'P 1'
_cell_length_a   6.94481430
_cell_length_b   5.53384794
_cell_length_c   5.53384794
_cell_angle_alpha   76.18430448
_cell_angle_beta   74.07379458
_cell_angle_gamma   74.07379458
_symmetry_Int_Tables_number   1
_chemical_formula_structural   Co6O5F7
_chemical_formula_sum   'Co6 O5 F7'
_cell_volume   193.56237072
_cell_formula_units_Z   1
loop_
 _symmetry_equiv_pos_site_id
 _symmetry_equiv_pos_as_xyz
  1  'x, y, z'
loop_
 _atom_site_type_symbol
 _atom_site_label
 _atom_site_symmetry_multiplicity
 _atom_site_fract_x
 _atom_site_fract_y
 _atom_site_fract_z
 _atom_site_occupancy
  Co  Co0  1  0.83333300  0.66580965  0.66752335  1
  Co  Co1  1  0.33333300  0.70331785  0.63001515  1
  Co  Co2  1  0.67765010  0.33021976  0.34113501  1
  Co  Co3  1  0.16564901  0.30843879  0.32302192  1
  Co  Co4  1  0.50101699  0.01031108  0.02489421  1
  Co  Co5  1  0.98901690  0.99219799  0.00311324  1
  O  O6  1  0.63780555  0.57150738  0.56022548  1
  O  O7  1  0.96625181  0.21862211  0.23138753  1
  O  O8  1  0.02886045  0.77310752  0.76182562  1
  O  O9  1  0.70041519  0.10194547  0.11471189  1
  O  O10  1  0.33333300  0.98626188  0.34707112  1
  F  F11  1  0.33333300  0.35757543  0.97575757  1
  F  F12  1  0.65311871  0.03338177  0.66557795  1
  F  F13  1  0.29727461  0.90814042  0.91244269  1
  F  F14  1  0.36939239  0.42089131  0.42519358  1
  F  F15  1  0.65584834  0.65547990  0.03829635  1
  F  F16  1  0.01081866  0.29503665  0.67785310  1
  F  F17  1  0.01354729  0.66775505  0.29995223  1
