# generated using pymatgen
data_Li4Cu(PO4)2
_symmetry_space_group_name_H-M   'P 1'
_cell_length_a   6.34530170
_cell_length_b   10.56903808
_cell_length_c   5.00248272
_cell_angle_alpha   90.00000000
_cell_angle_beta   90.00000000
_cell_angle_gamma   91.25868583
_symmetry_Int_Tables_number   1
_chemical_formula_structural   Li4Cu(PO4)2
_chemical_formula_sum   'Li8 Cu2 P4 O16'
_cell_volume   335.40422710
_cell_formula_units_Z   2
loop_
 _symmetry_equiv_pos_site_id
 _symmetry_equiv_pos_as_xyz
  1  'x, y, z'
loop_
 _atom_site_type_symbol
 _atom_site_label
 _atom_site_symmetry_multiplicity
 _atom_site_fract_x
 _atom_site_fract_y
 _atom_site_fract_z
 _atom_site_occupancy
  Li  Li0  1  0.00262118  0.84504432  0.68865806  1
  Li  Li1  1  0.73931252  0.42350786  0.20833509  1
  Li  Li2  1  0.73931252  0.92350786  0.29166491  1
  Li  Li3  1  0.00262118  0.34504432  0.81134194  1
  Li  Li4  1  0.49027380  0.83667012  0.69124886  1
  Li  Li5  1  0.49027380  0.33667012  0.80875114  1
  Li  Li6  1  0.49533777  0.66096027  0.18429630  1
  Li  Li7  1  0.49533777  0.16096027  0.31570370  1
  O  O8  1  0.24886705  0.04589838  0.27304564  1
  O  O9  1  0.95921278  0.16411153  0.70956431  1
  O  O10  1  0.03630496  0.84156612  0.28734295  1
  O  O11  1  0.03630496  0.34156612  0.21265705  1
  O  O12  1  0.24925260  0.89524808  0.87341004  1
  O  O13  1  0.75201457  0.09182805  0.11415222  1
  O  O14  1  0.24925260  0.39524808  0.62658996  1
  O  O15  1  0.24886705  0.54589838  0.22695436  1
  O  O16  1  0.44456128  0.84033503  0.29678555  1
  O  O17  1  0.44456128  0.34033503  0.20321445  1
  O  O18  1  0.56131246  0.66618889  0.80390088  1
  O  O19  1  0.56131246  0.16618889  0.69609912  1
  O  O20  1  0.75006783  0.95428340  0.69403417  1
  O  O21  1  0.75006783  0.45428340  0.80596583  1
  O  O22  1  0.75201457  0.59182805  0.38584778  1
  O  O23  1  0.95921278  0.66411153  0.79043569  1
  P  P24  1  0.24891553  0.40577755  0.32332400  1
  P  P25  1  0.74953601  0.59275566  0.70134625  1
  P  P26  1  0.24891553  0.90577755  0.17667600  1
  P  P27  1  0.74953601  0.09275566  0.79865375  1
  Cu  Cu28  1  0.02291622  0.16023569  0.32720749  1
  Cu  Cu29  1  0.02291622  0.66023569  0.17279251  1
