# generated using pymatgen
data_SrPr2O4
_symmetry_space_group_name_H-M   'P 1'
_cell_length_a   3.61736003
_cell_length_b   10.42366671
_cell_length_c   12.46949975
_cell_angle_alpha   90.00000000
_cell_angle_beta   90.00000000
_cell_angle_gamma   90.00000000
_symmetry_Int_Tables_number   1
_chemical_formula_structural   SrPr2O4
_chemical_formula_sum   'Sr4 Pr8 O16'
_cell_volume   470.17689437
_cell_formula_units_Z   4
loop_
 _symmetry_equiv_pos_site_id
 _symmetry_equiv_pos_as_xyz
  1  'x, y, z'
loop_
 _atom_site_type_symbol
 _atom_site_label
 _atom_site_symmetry_multiplicity
 _atom_site_fract_x
 _atom_site_fract_y
 _atom_site_fract_z
 _atom_site_occupancy
  O  O0  1  0.25563508  0.92944577  0.08266086  1
  O  O1  1  0.75563508  0.07055423  0.91733914  1
  O  O2  1  0.75563508  0.57055423  0.58266086  1
  O  O3  1  0.25563508  0.42944577  0.41733914  1
  O  O4  1  0.25721870  -0.00382856  0.71267342  1
  O  O5  1  0.75721870  1.00382856  0.28732658  1
  O  O6  1  0.75721870  0.50382856  0.21267342  1
  O  O7  1  0.25721870  0.49617144  0.78732658  1
  O  O8  1  0.25723289  0.63686410  0.01621818  1
  O  O9  1  0.75723289  0.36313590  0.98378182  1
  O  O10  1  0.75723289  0.86313590  0.51621818  1
  O  O11  1  0.25723289  0.13686410  0.48378182  1
  O  O12  1  0.25547888  0.21831995  0.18677069  1
  O  O13  1  0.75547888  0.78168005  0.81322931  1
  O  O14  1  0.75547888  0.28168005  0.68677069  1
  O  O15  1  0.25547888  0.71831995  0.31322931  1
  Sr  Sr16  1  0.26090594  0.75181968  0.64571101  1
  Sr  Sr17  1  0.76090594  0.24818032  0.35428899  1
  Sr  Sr18  1  0.76090594  0.74818032  0.14571101  1
  Sr  Sr19  1  0.26090594  0.25181968  0.85428899  1
  Pr  Pr20  1  0.25702870  0.92873518  0.38426471  1
  Pr  Pr21  1  0.75702870  0.07126482  0.61573529  1
  Pr  Pr22  1  0.75702870  0.57126482  0.88426471  1
  Pr  Pr23  1  0.25702870  0.42873518  0.11573529  1
  Pr  Pr24  1  0.25489981  0.41161569  0.61036868  1
  Pr  Pr25  1  0.75489981  0.58838431  0.38963132  1
  Pr  Pr26  1  0.75489981  0.08838431  0.11036868  1
  Pr  Pr27  1  0.25489981  0.91161569  0.88963132  1
