# generated using pymatgen
data_CrP2O7
_symmetry_space_group_name_H-M   'P 1'
_cell_length_a   6.29478170
_cell_length_b   6.29470540
_cell_length_c   13.00876562
_cell_angle_alpha   79.17916259
_cell_angle_beta   77.52774166
_cell_angle_gamma   99.54171476
_symmetry_Int_Tables_number   1
_chemical_formula_structural   CrP2O7
_chemical_formula_sum   'Cr4 P8 O28'
_cell_volume   482.76921415
_cell_formula_units_Z   4
loop_
 _symmetry_equiv_pos_site_id
 _symmetry_equiv_pos_as_xyz
  1  'x, y, z'
loop_
 _atom_site_type_symbol
 _atom_site_label
 _atom_site_symmetry_multiplicity
 _atom_site_fract_x
 _atom_site_fract_y
 _atom_site_fract_z
 _atom_site_occupancy
  O  O0  1  0.55194991  0.64346188  0.63123794  1
  O  O1  1  0.77470888  0.18319590  0.86875590  1
  O  O2  1  0.91332631  0.52899357  0.64405301  1
  O  O3  1  0.87112395  0.97694572  0.70242514  1
  O  O4  1  0.22529990  0.81679670  0.13124222  1
  O  O5  1  0.08666614  0.47100456  0.35594936  1
  O  O6  1  0.12887693  0.02304883  0.29757368  1
  O  O7  1  0.03035638  0.87171065  0.87931604  1
  O  O8  1  0.08999078  0.19507745  0.51809467  1
  O  O9  1  0.32699672  0.44261308  0.14405925  1
  O  O10  1  0.25104212  0.90971654  0.62069806  1
  O  O11  1  0.29472765  0.59392552  0.49144962  1
  O  O12  1  0.17938576  0.57356802  0.79756960  1
  O  O13  1  0.58534968  0.78618022  0.00853337  1
  O  O14  1  0.22474535  0.26889439  0.67963192  1
  O  O15  1  0.44804026  0.35653825  0.36876441  1
  O  O16  1  0.21313199  0.60807723  0.98192387  1
  O  O17  1  0.91000911  0.80491789  0.48190877  1
  O  O18  1  0.44848281  0.90441389  0.82039805  1
  O  O19  1  0.78687530  0.39191773  0.01807178  1
  O  O20  1  0.96964483  0.12829358  0.12068116  1
  O  O21  1  0.77524660  0.73109406  0.32036982  1
  O  O22  1  0.41465525  0.21380957  0.99146376  1
  O  O23  1  0.82061300  0.42642375  0.20243332  1
  O  O24  1  0.70526438  0.40606873  0.50855440  1
  O  O25  1  0.74896535  0.09027097  0.37930329  1
  O  O26  1  0.67301327  0.55738398  0.85593647  1
  O  O27  1  0.55152545  0.09558037  0.17959824  1
  P  P28  1  0.21931318  0.75042977  0.86438239  1
  P  P29  1  0.78069227  0.24956674  0.13561587  1
  P  P30  1  0.88518298  0.91627436  0.36436474  1
  P  P31  1  0.76187651  0.58631408  0.56996520  1
  P  P32  1  0.34370520  0.66812976  0.06997321  1
  P  P33  1  0.23811701  0.41368254  0.43003068  1
  P  P34  1  0.11481484  0.08372998  0.63563586  1
  P  P35  1  0.65629508  0.33186035  0.93003288  1
  Cr  Cr36  1  0.73313444  0.87726345  0.85409391  1
  Cr  Cr37  1  0.76867264  0.41284596  0.35410762  1
  Cr  Cr38  1  0.23134826  0.58725375  0.64589061  1
  Cr  Cr39  1  0.26683596  0.12272503  0.14590694  1
