# generated using pymatgen
data_Sr2FeN2
_symmetry_space_group_name_H-M   'P 1'
_cell_length_a   6.55185397
_cell_length_b   8.66721287
_cell_length_c   8.89040514
_cell_angle_alpha   90.12804340
_cell_angle_beta   109.55065452
_cell_angle_gamma   102.25496291
_symmetry_Int_Tables_number   1
_chemical_formula_structural   Sr2FeN2
_chemical_formula_sum   'Sr10 Fe5 N10'
_cell_volume   463.43177208
_cell_formula_units_Z   5
loop_
 _symmetry_equiv_pos_site_id
 _symmetry_equiv_pos_as_xyz
  1  'x, y, z'
loop_
 _atom_site_type_symbol
 _atom_site_label
 _atom_site_symmetry_multiplicity
 _atom_site_fract_x
 _atom_site_fract_y
 _atom_site_fract_z
 _atom_site_occupancy
  N  N0  1  0.76181324  0.93102206  0.56878876  1
  N  N1  1  0.67903970  0.71365614  0.04453100  1
  N  N2  1  0.32096030  0.28634386  0.95546900  1
  N  N3  1  0.29371813  0.89364083  0.95916423  1
  N  N4  1  0.70628187  0.10635917  0.04083577  1
  N  N5  1  0.23818676  0.06897794  0.43121124  1
  N  N6  1  0.80234527  0.44357554  0.76134853  1
  N  N7  1  0.19765473  0.55642446  0.23865147  1
  N  N8  1  0.79993119  0.44038829  0.36839768  1
  N  N9  1  0.20006881  0.55961171  0.63160232  1
  Fe  Fe10  1  0.50000000  0.00000000  0.50000000  1
  Fe  Fe11  1  0.89952429  0.47040642  0.59212148  1
  Fe  Fe12  1  0.41391223  0.10721695  0.97939600  1
  Fe  Fe13  1  0.58608777  0.89278305  0.02060400  1
  Fe  Fe14  1  0.10047571  0.52959358  0.40787852  1
  Sr  Sr15  1  0.10933459  0.84915250  0.18009739  1
  Sr  Sr16  1  0.89066541  0.15084750  0.81990261  1
  Sr  Sr17  1  0.23069749  0.56542286  0.93512830  1
  Sr  Sr18  1  0.85615142  0.13549419  0.35693643  1
  Sr  Sr19  1  0.14384858  0.86450581  0.64306357  1
  Sr  Sr20  1  0.63057144  0.70212375  0.73260151  1
  Sr  Sr21  1  0.36942856  0.29787625  0.26739849  1
  Sr  Sr22  1  0.61752721  0.69790101  0.33219502  1
  Sr  Sr23  1  0.38247279  0.30209899  0.66780498  1
  Sr  Sr24  1  0.76930251  0.43457714  0.06487170  1
