# generated using pymatgen
data_LiCoPO4
_symmetry_space_group_name_H-M   'P 1'
_cell_length_a   11.06824729
_cell_length_b   6.12278371
_cell_length_c   5.01888633
_cell_angle_alpha   90.00000000
_cell_angle_beta   90.00000000
_cell_angle_gamma   90.00000000
_symmetry_Int_Tables_number   1
_chemical_formula_structural   LiCoPO4
_chemical_formula_sum   'Li4 Co4 P4 O16'
_cell_volume   340.12231898
_cell_formula_units_Z   4
loop_
 _symmetry_equiv_pos_site_id
 _symmetry_equiv_pos_as_xyz
  1  'x, y, z'
loop_
 _atom_site_type_symbol
 _atom_site_label
 _atom_site_symmetry_multiplicity
 _atom_site_fract_x
 _atom_site_fract_y
 _atom_site_fract_z
 _atom_site_occupancy
  Li  Li0  1  0.06805663  0.21598171  0.99088257  1
  Li  Li1  1  0.93194338  0.78401799  0.49088271  1
  Li  Li2  1  0.56805709  0.28401814  0.99088257  1
  Li  Li3  1  0.43194292  0.71598156  0.49088271  1
  O  O4  1  0.08596870  0.71491186  0.30540947  1
  O  O5  1  0.83919511  0.06151142  0.41310082  1
  O  O6  1  0.85194955  0.48132059  0.38486135  1
  O  O7  1  0.91403131  0.28508783  0.80540933  1
  O  O8  1  0.04259943  0.24297274  0.38728179  1
  O  O9  1  0.41403176  0.21491201  0.80540933  1
  O  O10  1  0.14805047  0.51867911  0.88486321  1
  O  O11  1  0.66080536  0.56151127  0.91310267  1
  O  O12  1  0.33919465  0.43848843  0.41310082  1
  O  O13  1  0.35194999  0.01867926  0.38486135  1
  O  O14  1  0.95740059  0.75702696  0.88728166  1
  O  O15  1  0.45740103  0.74297259  0.88728166  1
  O  O16  1  0.54259898  0.25702711  0.38728179  1
  O  O17  1  0.58596825  0.78508768  0.30540947  1
  O  O18  1  0.64805002  0.98132044  0.88486321  1
  O  O19  1  0.16080490  0.93848828  0.91310267  1
  P  P20  1  0.08850161  0.73093098  0.99662111  1
  P  P21  1  0.41149794  0.23092950  0.49662125  1
  P  P22  1  0.58850207  0.76907020  0.99662111  1
  P  P23  1  0.91149841  0.26907035  0.49662125  1
  Co  Co24  1  0.83425917  0.53069556  0.99273040  1
  Co  Co25  1  0.66574131  0.03069571  0.49273053  1
  Co  Co26  1  0.33425871  0.96930399  0.99273040  1
  Co  Co27  1  0.16574084  0.46930414  0.49273053  1
