# generated using pymatgen
data_LuNiSn4
_symmetry_space_group_name_H-M   'P 1'
_cell_length_a   4.43667459
_cell_length_b   4.45063628
_cell_length_c   14.27533656
_cell_angle_alpha   90.00000000
_cell_angle_beta   98.93979254
_cell_angle_gamma   90.00000000
_symmetry_Int_Tables_number   1
_chemical_formula_structural   LuNiSn4
_chemical_formula_sum   'Lu2 Ni2 Sn8'
_cell_volume   278.45690962
_cell_formula_units_Z   2
loop_
 _symmetry_equiv_pos_site_id
 _symmetry_equiv_pos_as_xyz
  1  'x, y, z'
loop_
 _atom_site_type_symbol
 _atom_site_label
 _atom_site_symmetry_multiplicity
 _atom_site_fract_x
 _atom_site_fract_y
 _atom_site_fract_z
 _atom_site_occupancy
  Ni  Ni0  1  0.94726041  0.50000000  0.89452081  1
  Ni  Ni1  1  0.05273959  0.50000000  0.10547919  1
  Sn  Sn2  1  0.50000000  0.50000000  0.00000000  1
  Sn  Sn3  1  0.00000000  0.00000000  0.00000000  1
  Sn  Sn4  1  0.78664768  0.50000000  0.57329536  1
  Sn  Sn5  1  0.21335232  0.50000000  0.42670464  1
  Sn  Sn6  1  0.38909422  0.50000000  0.77818843  1
  Sn  Sn7  1  0.61090578  0.50000000  0.22181157  1
  Sn  Sn8  1  0.88932788  0.00000000  0.77865576  1
  Sn  Sn9  1  0.11067212  0.00000000  0.22134424  1
  Lu  Lu10  1  0.69433448  0.00000000  0.38866896  1
  Lu  Lu11  1  0.30566552  0.00000000  0.61133104  1
