# generated using pymatgen
data_UAl4Co
_symmetry_space_group_name_H-M   'P 1'
_cell_length_a   9.10381485
_cell_length_b   9.10381485
_cell_length_c   4.09494862
_cell_angle_alpha   90.00000000
_cell_angle_beta   90.00000000
_cell_angle_gamma   120.00000003
_symmetry_Int_Tables_number   1
_chemical_formula_structural   UAl4Co
_chemical_formula_sum   'U3 Al12 Co3'
_cell_volume   293.91782273
_cell_formula_units_Z   3
loop_
 _symmetry_equiv_pos_site_id
 _symmetry_equiv_pos_as_xyz
  1  'x, y, z'
loop_
 _atom_site_type_symbol
 _atom_site_label
 _atom_site_symmetry_multiplicity
 _atom_site_fract_x
 _atom_site_fract_y
 _atom_site_fract_z
 _atom_site_occupancy
  Al  Al0  1  0.00000000  0.74155712  0.00000000  1
  Al  Al1  1  0.25844288  0.25844288  0.00000000  1
  Al  Al2  1  0.74155712  0.00000000  0.00000000  1
  Al  Al3  1  0.00000000  0.16942616  0.50000000  1
  Al  Al4  1  0.83057384  0.83057384  0.50000000  1
  Al  Al5  1  0.16942616  0.00000000  0.50000000  1
  Al  Al6  1  0.29700213  0.48009269  0.50000000  1
  Al  Al7  1  0.18309056  0.70299787  0.50000000  1
  Al  Al8  1  0.51990731  0.81690944  0.50000000  1
  Al  Al9  1  0.81690944  0.51990731  0.50000000  1
  Al  Al10  1  0.70299787  0.18309056  0.50000000  1
  Al  Al11  1  0.48009269  0.29700213  0.50000000  1
  Co  Co12  1  0.66666667  0.33333333  0.00000000  1
  Co  Co13  1  0.33333333  0.66666667  0.00000000  1
  Co  Co14  1  0.00000000  0.00000000  0.00000000  1
  U  U15  1  0.00000000  0.40927530  0.00000000  1
  U  U16  1  0.59072470  0.59072470  0.00000000  1
  U  U17  1  0.40927530  0.00000000  0.00000000  1
