# generated using pymatgen
data_Tl2Cr2O7
_symmetry_space_group_name_H-M   'P 1'
_cell_length_a   7.53523794
_cell_length_b   7.74458509
_cell_length_c   7.92364110
_cell_angle_alpha   108.10319753
_cell_angle_beta   91.47692696
_cell_angle_gamma   111.17845646
_symmetry_Int_Tables_number   1
_chemical_formula_structural   Tl2Cr2O7
_chemical_formula_sum   'Tl4 Cr4 O14'
_cell_volume   404.82706649
_cell_formula_units_Z   2
loop_
 _symmetry_equiv_pos_site_id
 _symmetry_equiv_pos_as_xyz
  1  'x, y, z'
loop_
 _atom_site_type_symbol
 _atom_site_label
 _atom_site_symmetry_multiplicity
 _atom_site_fract_x
 _atom_site_fract_y
 _atom_site_fract_z
 _atom_site_occupancy
  O  O0  1  0.47218057  0.93379723  0.67458553  1
  O  O1  1  0.52781943  0.06620277  0.32541447  1
  O  O2  1  0.32094652  0.08607062  0.95587773  1
  O  O3  1  0.67905348  0.91392938  0.04412227  1
  O  O4  1  0.90514463  0.35047035  0.62533764  1
  O  O5  1  0.09485537  0.64952965  0.37466236  1
  O  O6  1  0.63077056  0.34268987  0.86196068  1
  O  O7  1  0.36922944  0.65731013  0.13803932  1
  O  O8  1  0.30318051  0.42992164  0.36420496  1
  O  O9  1  0.69681949  0.57007836  0.63579504  1
  O  O10  1  0.73918835  0.85585773  0.35176129  1
  O  O11  1  0.26081165  0.14414227  0.64823871  1
  O  O12  1  0.02854266  0.32983226  0.09050445  1
  O  O13  1  0.97145734  0.67016774  0.90949555  1
  Cr  Cr14  1  0.80410106  0.48480456  0.75594803  1
  Cr  Cr15  1  0.19589894  0.51519544  0.24405197  1
  Cr  Cr16  1  0.41575249  0.12056601  0.78050966  1
  Cr  Cr17  1  0.58424751  0.87943399  0.21949034  1
  Tl  Tl18  1  0.30921742  0.57644226  0.73124272  1
  Tl  Tl19  1  0.69078258  0.42355774  0.26875728  1
  Tl  Tl20  1  0.87123894  0.99110522  0.74552480  1
  Tl  Tl21  1  0.12876106  0.00889478  0.25447520  1
