# generated using pymatgen
data_V(PO3)5
_symmetry_space_group_name_H-M   'P 1'
_cell_length_a   5.21092653
_cell_length_b   13.80002114
_cell_length_c   8.95770731
_cell_angle_alpha   90.00000000
_cell_angle_beta   101.76343423
_cell_angle_gamma   90.00000000
_symmetry_Int_Tables_number   1
_chemical_formula_structural   V(PO3)5
_chemical_formula_sum   'V2 P10 O30'
_cell_volume   630.62798667
_cell_formula_units_Z   2
loop_
 _symmetry_equiv_pos_site_id
 _symmetry_equiv_pos_as_xyz
  1  'x, y, z'
loop_
 _atom_site_type_symbol
 _atom_site_label
 _atom_site_symmetry_multiplicity
 _atom_site_fract_x
 _atom_site_fract_y
 _atom_site_fract_z
 _atom_site_occupancy
  O  O0  1  0.04726524  0.25000022  0.47143621  1
  O  O1  1  0.12018268  0.14196987  0.70050268  1
  O  O2  1  0.12018268  0.35802984  0.70050268  1
  O  O3  1  0.22825682  0.01931368  0.91929141  1
  O  O4  1  0.22825682  0.48068675  0.91929141  1
  O  O5  1  0.22334912  0.74999992  0.87091067  1
  O  O6  1  0.17422791  0.07762301  0.44215814  1
  O  O7  1  0.17422791  0.42237670  0.44215814  1
  O  O8  1  0.28277965  0.61987294  0.51002934  1
  O  O9  1  0.28277965  0.88012690  0.51002934  1
  O  O10  1  0.49742054  0.02702178  0.70376694  1
  O  O11  1  0.49742054  0.47297865  0.70376694  1
  O  O12  1  0.54409969  0.16200729  0.88562309  1
  O  O13  1  0.54409969  0.33799314  0.88562309  1
  O  O14  1  0.30176767  0.25000022  0.07576544  1
  O  O15  1  0.69823158  0.74999992  0.92423465  1
  O  O16  1  0.45589956  0.66200699  0.11437700  1
  O  O17  1  0.45589956  0.83799285  0.11437700  1
  O  O18  1  0.50257872  0.52702148  0.29623315  1
  O  O19  1  0.50257872  0.97297836  0.29623315  1
  O  O20  1  0.71722157  0.11987324  0.48997097  1
  O  O21  1  0.95273598  0.74999992  0.52856410  1
  O  O22  1  0.82577331  0.57762271  0.55784218  1
  O  O23  1  0.82577331  0.92237713  0.55784218  1
  O  O24  1  0.77665014  0.25000022  0.12908829  1
  O  O25  1  0.77174440  0.51931339  0.08070891  1
  O  O26  1  0.77174440  0.98068645  0.08070891  1
  O  O27  1  0.87981657  0.64197030  0.29949741  1
  O  O28  1  0.87981657  0.85802954  0.29949741  1
  O  O29  1  0.71722157  0.38012719  0.48997097  1
  P  P30  1  0.00749330  0.14118838  0.52189063  1
  P  P31  1  0.00749330  0.35881205  0.52189063  1
  P  P32  1  0.34440740  0.07713995  0.81423227  1
  P  P33  1  0.34440740  0.42285976  0.81423227  1
  P  P34  1  0.46301096  0.74999992  0.99853434  1
  P  P35  1  0.53698829  0.25000022  0.00146575  1
  P  P36  1  0.99250595  0.85881175  0.47810946  1
  P  P37  1  0.65559185  0.92286019  0.18576782  1
  P  P38  1  0.99250595  0.64118809  0.47810946  1
  P  P39  1  0.65559185  0.57713965  0.18576782  1
  V  V40  1  0.50000061  0.00000000  0.49999959  1
  V  V41  1  0.50000061  0.49999971  0.49999959  1
