# generated using pymatgen
data_UNb3O10
_symmetry_space_group_name_H-M   'P 1'
_cell_length_a   7.53025294
_cell_length_b   7.53025294
_cell_length_c   8.92000775
_cell_angle_alpha   102.16810165
_cell_angle_beta   102.16810169
_cell_angle_gamma   120.04215623
_symmetry_Int_Tables_number   1
_chemical_formula_structural   UNb3O10
_chemical_formula_sum   'U2 Nb6 O20'
_cell_volume   396.99218477
_cell_formula_units_Z   2
loop_
 _symmetry_equiv_pos_site_id
 _symmetry_equiv_pos_as_xyz
  1  'x, y, z'
loop_
 _atom_site_type_symbol
 _atom_site_label
 _atom_site_symmetry_multiplicity
 _atom_site_fract_x
 _atom_site_fract_y
 _atom_site_fract_z
 _atom_site_occupancy
  O  O0  1  0.07807096  0.92192904  0.25000000  1
  O  O1  1  0.67192904  0.32807096  0.25000000  1
  O  O2  1  0.92192904  0.07807096  0.75000000  1
  O  O3  1  0.32807096  0.67192904  0.75000000  1
  O  O4  1  0.75921096  0.00921096  0.01842191  1
  O  O5  1  0.99078904  0.24078904  0.48157809  1
  O  O6  1  0.24078904  0.99078904  0.98157809  1
  O  O7  1  0.00921096  0.75921096  0.51842191  1
  O  O8  1  0.52946777  0.07738721  0.75446068  1
  O  O9  1  0.32292653  0.27500709  0.74553932  1
  O  O10  1  0.92261279  0.47053223  0.74553932  1
  O  O11  1  0.72499291  0.67707347  0.75446068  1
  O  O12  1  0.47053223  0.92261279  0.24553932  1
  O  O13  1  0.67707347  0.72499291  0.25446068  1
  O  O14  1  0.07738721  0.52946777  0.25446068  1
  O  O15  1  0.27500709  0.32292653  0.24553932  1
  O  O16  1  0.74893549  0.49893549  0.99787098  1
  O  O17  1  0.50106451  0.25106451  0.50212902  1
  O  O18  1  0.25106451  0.50106451  0.00212902  1
  O  O19  1  0.49893549  0.74893549  0.49787098  1
  Nb  Nb20  1  0.61373526  0.86373526  0.72747052  1
  Nb  Nb21  1  0.13626474  0.38626474  0.77252948  1
  Nb  Nb22  1  0.38626474  0.13626474  0.27252948  1
  Nb  Nb23  1  0.86373526  0.61373526  0.22747052  1
  Nb  Nb24  1  0.37500000  0.62500000  0.25000000  1
  Nb  Nb25  1  0.62500000  0.37500000  0.75000000  1
  U  U26  1  0.87500000  0.12500000  0.25000000  1
  U  U27  1  0.12500000  0.87500000  0.75000000  1
