# generated using pymatgen
data_Ba3Ti3O8
_symmetry_space_group_name_H-M   'P 1'
_cell_length_a   5.79512928
_cell_length_b   5.79512978
_cell_length_c   7.04239451
_cell_angle_alpha   88.51642851
_cell_angle_beta   91.48357142
_cell_angle_gamma   121.20013212
_symmetry_Int_Tables_number   1
_chemical_formula_structural   Ba3Ti3O8
_chemical_formula_sum   'Ba3 Ti3 O8'
_cell_volume   202.21123675
_cell_formula_units_Z   1
loop_
 _symmetry_equiv_pos_site_id
 _symmetry_equiv_pos_as_xyz
  1  'x, y, z'
loop_
 _atom_site_type_symbol
 _atom_site_label
 _atom_site_symmetry_multiplicity
 _atom_site_fract_x
 _atom_site_fract_y
 _atom_site_fract_z
 _atom_site_occupancy
  Ba  Ba0  1  0.00119478  0.99880522  0.00064657  1
  Ba  Ba1  1  0.33213671  0.66786329  0.66602489  1
  Ba  Ba2  1  0.66666869  0.33333131  0.33333764  1
  Ti  Ti3  1  0.98435290  0.01564710  0.51736803  1
  Ti  Ti4  1  0.34898893  0.65101107  0.14929906  1
  Ti  Ti5  1  0.66667196  0.33332804  0.83333937  1
  O  O6  1  0.00193928  0.50577959  0.00620452  1
  O  O7  1  0.16665661  0.33332151  0.33334804  1
  O  O8  1  0.49422041  0.99806072  0.00620452  1
  O  O9  1  0.66667849  0.83334339  0.33334804  1
  O  O10  1  0.33136488  0.16088171  0.66045921  1
  O  O11  1  0.50022297  0.49977703  0.99473247  1
  O  O12  1  0.83911829  0.66863512  0.66045921  1
  O  O13  1  0.83311510  0.16688490  0.67192842  1
