# generated using pymatgen
data_Li4Co5O9F
_symmetry_space_group_name_H-M   'P 1'
_cell_length_a   2.87559158
_cell_length_b   5.14976903
_cell_length_c   13.08454783
_cell_angle_alpha   79.71514955
_cell_angle_beta   96.82013862
_cell_angle_gamma   106.54250946
_symmetry_Int_Tables_number   1
_chemical_formula_structural   Li4Co5O9F
_chemical_formula_sum   'Li4 Co5 O9 F1'
_cell_volume   182.28521203
_cell_formula_units_Z   1
loop_
 _symmetry_equiv_pos_site_id
 _symmetry_equiv_pos_as_xyz
  1  'x, y, z'
loop_
 _atom_site_type_symbol
 _atom_site_label
 _atom_site_symmetry_multiplicity
 _atom_site_fract_x
 _atom_site_fract_y
 _atom_site_fract_z
 _atom_site_occupancy
  Li  Li0  1  0.80769667  0.00308857  0.60845634  1
  Li  Li1  1  0.59378030  0.99626025  0.19245929  1
  Li  Li2  1  0.40094853  0.98020499  0.81921449  1
  Li  Li3  1  0.20248131  0.00901585  0.40020108  1
  Co  Co4  1  0.90022874  0.49943893  0.29986968  1
  Co  Co5  1  0.68414027  0.47859432  0.89648092  1
  Co  Co6  1  0.51132778  0.50885628  0.49875856  1
  Co  Co7  1  0.31519385  0.53229048  0.10011733  1
  Co  Co8  1  0.11414239  0.51063515  0.69767076  1
  O  O9  1  0.86452680  0.28633818  0.43834815  1
  O  O10  1  0.94613521  0.72133670  0.17070943  1
  O  O11  1  0.72672101  0.74033137  0.74418633  1
  O  O12  1  0.53350414  0.71276657  0.34639490  1
  O  O13  1  0.48023050  0.28400296  0.64072778  1
  O  O14  1  0.26782863  0.28382895  0.25764822  1
  O  O15  1  0.05239994  0.27887376  0.84147290  1
  O  O16  1  0.31151139  0.67479625  0.94754279  1
  O  O17  1  0.14424262  0.74511280  0.54294657  1
  F  F18  1  0.65370293  0.24677965  0.06173847  1
