# generated using pymatgen
data_BaMn3O6
_symmetry_space_group_name_H-M   'P 1'
_cell_length_a   4.05608979
_cell_length_b   5.78279142
_cell_length_c   10.82206675
_cell_angle_alpha   97.87344686
_cell_angle_beta   100.80299345
_cell_angle_gamma   90.00005776
_symmetry_Int_Tables_number   1
_chemical_formula_structural   BaMn3O6
_chemical_formula_sum   'Ba2 Mn6 O12'
_cell_volume   246.90206422
_cell_formula_units_Z   2
loop_
 _symmetry_equiv_pos_site_id
 _symmetry_equiv_pos_as_xyz
  1  'x, y, z'
loop_
 _atom_site_type_symbol
 _atom_site_label
 _atom_site_symmetry_multiplicity
 _atom_site_fract_x
 _atom_site_fract_y
 _atom_site_fract_z
 _atom_site_occupancy
  O  O0  1  0.50000159  0.00000799  1.00000335  1
  O  O1  1  0.50000106  0.50000444  1.00000316  1
  O  O2  1  0.64496122  0.57454749  0.28993958  1
  O  O3  1  0.35503865  0.42544996  0.71005933  1
  O  O4  1  0.64380014  0.06505301  0.28761566  1
  O  O5  1  0.35619965  0.93494245  0.71238375  1
  O  O6  1  0.06400122  0.78121467  0.12807534  1
  O  O7  1  0.93599736  0.21879088  0.87192230  1
  O  O8  1  0.22679515  0.36123711  0.45359078  1
  O  O9  1  0.77320388  0.63875395  0.54640620  1
  O  O10  1  0.77079349  0.13513514  0.54157367  1
  O  O11  1  0.22920622  0.86485776  0.45842558  1
  Mn  Mn12  1  0.56329498  0.78221752  0.12646602  1
  Mn  Mn13  1  0.43670497  0.21779116  0.87353565  1
  Mn  Mn14  1  0.70610312  0.85261506  0.41229377  1
  Mn  Mn15  1  0.29389560  0.14737832  0.58770509  1
  Mn  Mn16  1  0.29432335  0.64822299  0.58860676  1
  Mn  Mn17  1  0.70567462  0.35177263  0.41139077  1
  Ba  Ba18  1  0.06785097  0.28436598  0.13570722  1
  Ba  Ba19  1  0.93214945  0.71564356  0.86429626  1
