# generated using pymatgen
data_Ni5(PO4)4
_symmetry_space_group_name_H-M   'P 1'
_cell_length_a   7.90972185
_cell_length_b   8.16788429
_cell_length_c   5.05060568
_cell_angle_alpha   90.92715418
_cell_angle_beta   100.41886455
_cell_angle_gamma   111.22036515
_symmetry_Int_Tables_number   1
_chemical_formula_structural   Ni5(PO4)4
_chemical_formula_sum   'Ni5 P4 O16'
_cell_volume   297.96973855
_cell_formula_units_Z   1
loop_
 _symmetry_equiv_pos_site_id
 _symmetry_equiv_pos_as_xyz
  1  'x, y, z'
loop_
 _atom_site_type_symbol
 _atom_site_label
 _atom_site_symmetry_multiplicity
 _atom_site_fract_x
 _atom_site_fract_y
 _atom_site_fract_z
 _atom_site_occupancy
  Ni  Ni0  1  0.40516848  0.67316527  0.63944980  1
  Ni  Ni1  1  0.59483152  0.32683473  0.36055020  1
  Ni  Ni2  1  0.23838280  0.76482069  0.09378971  1
  Ni  Ni3  1  -0.00000000  -0.00000000  -0.00000000  1
  Ni  Ni4  1  0.76161720  0.23517931  0.90621029  1
  P  P5  1  0.70016822  0.97332938  0.38226347  1
  P  P6  1  0.20979995  0.42527653  0.14047519  1
  P  P7  1  0.79020005  0.57472347  0.85952481  1
  P  P8  1  0.29983178  0.02667062  0.61773653  1
  O  O9  1  0.97140701  0.73766727  0.92464372  1
  O  O10  1  0.02859299  0.26233273  0.07535628  1
  O  O11  1  0.67008028  0.13037456  0.23226058  1
  O  O12  1  0.75441063  0.45426704  0.09876801  1
  O  O13  1  0.81679858  0.43719624  0.66002717  1
  O  O14  1  0.37172316  0.37538068  0.25594110  1
  O  O15  1  0.22065778  0.96819504  0.31038580  1
  O  O16  1  0.24558937  0.54573296  0.90123199  1
  O  O17  1  0.50562924  0.82257236  0.34773622  1
  O  O18  1  0.82606809  0.90992630  0.25048902  1
  O  O19  1  0.32991972  0.86962544  0.76773942  1
  O  O20  1  0.62827684  0.62461932  0.74405890  1
  O  O21  1  0.49437076  0.17742764  0.65226378  1
  O  O22  1  0.18320142  0.56280376  0.33997283  1
  O  O23  1  0.17393191  0.09007370  0.74951098  1
  O  O24  1  0.77934222  0.03180496  0.68961420  1
