# generated using pymatgen
data_TiZn2O4
_symmetry_space_group_name_H-M   'P 1'
_cell_length_a   6.09000530
_cell_length_b   6.02377722
_cell_length_c   6.09000512
_cell_angle_alpha   60.35909486
_cell_angle_beta   58.72054688
_cell_angle_gamma   60.35909074
_symmetry_Int_Tables_number   1
_chemical_formula_structural   TiZn2O4
_chemical_formula_sum   'Ti2 Zn4 O8'
_cell_volume   157.21911793
_cell_formula_units_Z   2
loop_
 _symmetry_equiv_pos_site_id
 _symmetry_equiv_pos_as_xyz
  1  'x, y, z'
loop_
 _atom_site_type_symbol
 _atom_site_label
 _atom_site_symmetry_multiplicity
 _atom_site_fract_x
 _atom_site_fract_y
 _atom_site_fract_z
 _atom_site_occupancy
  O  O0  1  0.27527668  0.23840721  0.27527668  1
  O  O1  1  0.27527668  0.71103943  0.27527668  1
  O  O2  1  0.28105403  0.24591027  0.72712543  1
  O  O3  1  0.72712543  0.24591027  0.28105403  1
  O  O4  1  0.27287457  0.75408973  0.71894597  1
  O  O5  1  0.71894597  0.75408973  0.27287457  1
  O  O6  1  0.72472332  0.28896057  0.72472332  1
  O  O7  1  0.72472332  0.76159279  0.72472332  1
  Ti  Ti8  1  0.50000000  0.00000000  0.50000000  1
  Ti  Ti9  1  0.50000000  0.50000000  0.50000000  1
  Zn  Zn10  1  0.13895515  0.11104485  0.13895515  1
  Zn  Zn11  1  0.50000000  0.50000000  0.00000000  1
  Zn  Zn12  1  0.00000000  0.50000000  0.50000000  1
  Zn  Zn13  1  0.86104485  0.88895515  0.86104485  1
