# generated using pymatgen
data_NbFeO4
_symmetry_space_group_name_H-M   'P 1'
_cell_length_a   9.45796379
_cell_length_b   5.10295010
_cell_length_c   5.69909746
_cell_angle_alpha   89.96820180
_cell_angle_beta   89.96671171
_cell_angle_gamma   89.99546258
_symmetry_Int_Tables_number   1
_chemical_formula_structural   NbFeO4
_chemical_formula_sum   'Nb4 Fe4 O16'
_cell_volume   275.05839900
_cell_formula_units_Z   4
loop_
 _symmetry_equiv_pos_site_id
 _symmetry_equiv_pos_as_xyz
  1  'x, y, z'
loop_
 _atom_site_type_symbol
 _atom_site_label
 _atom_site_symmetry_multiplicity
 _atom_site_fract_x
 _atom_site_fract_y
 _atom_site_fract_z
 _atom_site_occupancy
  Nb  Nb0  1  0.24769756  0.77118865  0.33089681  1
  Nb  Nb1  1  0.50189987  0.27130252  0.16881616  1
  Nb  Nb2  1  0.74842516  0.27123371  0.66864413  1
  Nb  Nb3  1  0.00210621  0.77083737  0.83104912  1
  Fe  Fe4  1  0.25409684  0.24946579  0.67392008  1
  Fe  Fe5  1  0.49606009  0.74931575  0.82520812  1
  Fe  Fe6  1  0.75390021  0.75018859  0.32529698  1
  Fe  Fe7  1  0.99592921  0.24920592  0.17402171  1
  O  O8  1  0.11538179  0.07569877  0.89320518  1
  O  O9  1  0.11482262  0.57779393  0.13451845  1
  O  O10  1  0.13430178  0.07557629  0.39346113  1
  O  O11  1  0.13488188  0.57734060  0.63478154  1
  O  O12  1  0.36522327  0.41735048  0.38665131  1
  O  O13  1  0.35918856  0.90770763  0.61245616  1
  O  O14  1  0.38464467  0.91634113  0.11375742  1
  O  O15  1  0.39057927  0.40790602  0.88807144  1
  O  O16  1  0.61516078  0.07855184  0.86548883  1
  O  O17  1  0.61525475  0.57584609  0.10680132  1
  O  O18  1  0.63511403  0.07821943  0.36524940  1
  O  O19  1  0.63498415  0.57646818  0.60687061  1
  O  O20  1  0.85962958  0.40896152  0.38781152  1
  O  O21  1  0.86550240  0.91765683  0.61418239  1
  O  O22  1  0.88463948  0.41750716  0.88643415  1
  O  O23  1  0.89057584  0.90833582  0.11240605  1
