# generated using pymatgen
data_Fe2CoO4
_symmetry_space_group_name_H-M   'P 1'
_cell_length_a   6.04090193
_cell_length_b   5.98513704
_cell_length_c   6.04090223
_cell_angle_alpha   60.30489866
_cell_angle_beta   60.00417487
_cell_angle_gamma   60.30489806
_symmetry_Int_Tables_number   1
_chemical_formula_structural   Fe2CoO4
_chemical_formula_sum   'Fe4 Co2 O8'
_cell_volume   155.15389513
_cell_formula_units_Z   2
loop_
 _symmetry_equiv_pos_site_id
 _symmetry_equiv_pos_as_xyz
  1  'x, y, z'
loop_
 _atom_site_type_symbol
 _atom_site_label
 _atom_site_symmetry_multiplicity
 _atom_site_fract_x
 _atom_site_fract_y
 _atom_site_fract_z
 _atom_site_occupancy
  Co  Co0  1  0.62500000  0.12500000  0.62500000  1
  Co  Co1  1  0.62500000  0.62500000  0.62500000  1
  Fe  Fe2  1  0.00648887  0.99351113  0.00648887  1
  Fe  Fe3  1  0.24351113  0.25648887  0.24351113  1
  Fe  Fe4  1  0.12500000  0.62500000  0.62500000  1
  Fe  Fe5  1  0.62500000  0.62500000  0.12500000  1
  O  O6  1  0.37509635  0.39040277  0.37509635  1
  O  O7  1  0.37127659  0.38728629  0.85415082  1
  O  O8  1  0.37509635  0.85940453  0.37509635  1
  O  O9  1  0.85415082  0.38728629  0.37127659  1
  O  O10  1  0.39584918  0.86271371  0.87872341  1
  O  O11  1  0.87490365  0.39059547  0.87490365  1
  O  O12  1  0.87872341  0.86271371  0.39584918  1
  O  O13  1  0.87490365  0.85959723  0.87490365  1
