# generated using pymatgen
data_Na4BeAlSi4ClO12
_symmetry_space_group_name_H-M   'P 1'
_cell_length_a   7.71393624
_cell_length_b   7.71393633
_cell_length_c   15.40449348
_cell_angle_alpha   109.25419640
_cell_angle_beta   109.25419594
_cell_angle_gamma   109.88091111
_symmetry_Int_Tables_number   1
_chemical_formula_structural   Na4BeAlSi4ClO12
_chemical_formula_sum   'Na8 Be2 Al2 Si8 Cl2 O24'
_cell_volume   705.82185175
_cell_formula_units_Z   2
loop_
 _symmetry_equiv_pos_site_id
 _symmetry_equiv_pos_as_xyz
  1  'x, y, z'
loop_
 _atom_site_type_symbol
 _atom_site_label
 _atom_site_symmetry_multiplicity
 _atom_site_fract_x
 _atom_site_fract_y
 _atom_site_fract_z
 _atom_site_occupancy
  Al  Al0  1  0.75387161  0.49981720  0.62233321  1
  Al  Al1  1  0.49981720  0.75387161  0.12233321  1
  Be  Be2  1  0.50322229  0.25001100  0.87882643  1
  Be  Be3  1  0.25001100  0.50322229  0.37882643  1
  Cl  Cl4  1  1.00003478  -0.00040870  0.50025486  1
  Cl  Cl5  1  -0.00040870  1.00003478  0.00025486  1
  Na  Na6  1  0.02883189  0.01058354  0.82156678  1
  Na  Na7  1  0.01306864  0.62586734  0.48948612  1
  Na  Na8  1  0.36934744  0.35317013  0.69051987  1
  Na  Na9  1  0.01058354  0.02883189  0.32156678  1
  Na  Na10  1  0.35317013  0.36934744  0.19051987  1
  Na  Na11  1  0.62133370  0.97969337  0.49674969  1
  Na  Na12  1  0.62586734  0.01306864  0.98948612  1
  Na  Na13  1  0.97969337  0.62133370  0.99674969  1
  O  O14  1  0.99152725  0.29815105  0.79547220  1
  O  O15  1  0.28865149  0.67420593  0.83800046  1
  O  O16  1  0.38364513  0.37927364  0.84908829  1
  O  O17  1  0.41516308  0.70867919  0.70470285  1
  O  O18  1  -0.00270111  0.32158647  0.30974031  1
  O  O19  1  0.32158647  -0.00270111  0.80974031  1
  O  O20  1  0.31590897  0.60823187  0.50429646  1
  O  O21  1  0.29774531  0.69636332  0.35078380  1
  O  O22  1  0.37927364  0.38364513  0.34908829  1
  O  O23  1  0.69636332  0.29774531  0.85078380  1
  O  O24  1  0.39204055  0.70096331  0.20047931  1
  O  O25  1  0.70677347  0.71320309  0.65257514  1
  O  O26  1  0.29815105  0.99152725  0.29547220  1
  O  O27  1  0.28925100  0.59633337  0.99121517  1
  O  O28  1  0.70096331  0.39204055  0.70047931  1
  O  O29  1  0.59768180  0.00266304  0.65629686  1
  O  O30  1  0.59633337  0.28925100  0.49121517  1
  O  O31  1  0.60511976  0.01738134  0.14830596  1
  O  O32  1  0.01738134  0.60511976  0.64830596  1
  O  O33  1  0.71320309  0.70677347  0.15257514  1
  O  O34  1  0.67420593  0.28865149  0.33800046  1
  O  O35  1  0.70867919  0.41516308  0.20470285  1
  O  O36  1  0.60823187  0.31590897  0.00429646  1
  O  O37  1  0.00266304  0.59768180  0.15629686  1
  Si  Si38  1  0.25777349  0.75415264  0.74924890  1
  Si  Si39  1  0.24633729  0.48603763  0.87058955  1
  Si  Si40  1  0.25158216  0.74425512  0.25482967  1
  Si  Si41  1  0.50389629  0.74967883  0.62463810  1
  Si  Si42  1  0.48603763  0.24633729  0.37058955  1
  Si  Si43  1  0.74425512  0.25158216  0.75482967  1
  Si  Si44  1  0.75415264  0.25777349  0.24924890  1
  Si  Si45  1  0.74967883  0.50389629  0.12463810  1
