# generated using pymatgen
data_NaGdTiNbO6F
_symmetry_space_group_name_H-M   'P 1'
_cell_length_a   7.35552170
_cell_length_b   14.71663419
_cell_length_c   12.74658507
_cell_angle_alpha   29.98690514
_cell_angle_beta   54.75607295
_cell_angle_gamma   60.01221608
_symmetry_Int_Tables_number   1
_chemical_formula_structural   NaGdTiNbO6F
_chemical_formula_sum   'Na4 Gd4 Ti4 Nb4 O24 F4'
_cell_volume   563.21974177
_cell_formula_units_Z   4
loop_
 _symmetry_equiv_pos_site_id
 _symmetry_equiv_pos_as_xyz
  1  'x, y, z'
loop_
 _atom_site_type_symbol
 _atom_site_label
 _atom_site_symmetry_multiplicity
 _atom_site_fract_x
 _atom_site_fract_y
 _atom_site_fract_z
 _atom_site_occupancy
  F  F0  1  0.12769626  0.00273974  0.12228887  1
  F  F1  1  0.12227138  0.49729429  0.12768514  1
  F  F2  1  0.87773051  0.49724863  0.87772769  1
  F  F3  1  0.87227779  0.00274629  0.87225682  1
  Gd  Gd4  1  0.00001546  0.03355155  0.96644627  1
  Gd  Gd5  1  0.96644653  0.75001489  -0.00001863  1
  Gd  Gd6  1  0.49999526  0.46647525  0.03353538  1
  Gd  Gd7  1  0.03353772  0.74998687  0.50000196  1
  Na  Na8  1  0.01936755  0.24999511  0.00000524  1
  Na  Na9  1  0.49999211  0.01952722  0.98054408  1
  Na  Na10  1  0.00004029  0.48046129  0.01948366  1
  Na  Na11  1  0.98062094  0.25003553  0.49998694  1
  Nb  Nb12  1  0.49031533  0.24997281  0.50001023  1
  Nb  Nb13  1  -0.00000748  0.98994067  0.51002920  1
  Nb  Nb14  1  0.49998386  0.51001526  0.49000657  1
  Nb  Nb15  1  0.50973698  0.24998854  0.00002586  1
  O  O16  1  0.18921180  0.18579407  0.18920421  1
  O  O17  1  0.17693770  0.97326591  0.60076873  1
  O  O18  1  0.56892689  0.19680581  0.18616081  1
  O  O19  1  0.16512677  0.30320172  0.57978594  1
  O  O20  1  0.17006961  0.70492639  0.17008304  1
  O  O21  1  0.43105315  0.19683409  0.42019152  1
  O  O22  1  0.17497146  0.52674450  0.54731733  1
  O  O23  1  0.39916022  0.99907051  0.82500795  1
  O  O24  1  0.82306059  0.97325562  0.45270408  1
  O  O25  1  0.54732469  0.50094732  0.17496609  1
  O  O26  1  0.81079223  0.18579463  0.43919833  1
  O  O27  1  0.56077261  0.31422188  0.56078546  1
  O  O28  1  0.57980082  0.70185008  0.16514785  1
  O  O29  1  0.42017325  0.70187166  0.43113003  1
  O  O30  1  0.18617703  0.79813446  0.56886177  1
  O  O31  1  0.43920751  0.31418571  0.81080499  1
  O  O32  1  0.82500991  0.52675220  0.39920166  1
  O  O33  1  0.45267737  0.50093840  0.82312795  1
  O  O34  1  0.60084970  0.99906526  0.17684605  1
  O  O35  1  0.83486276  0.30318848  0.81382265  1
  O  O36  1  0.57994502  0.79506933  0.57993235  1
  O  O37  1  0.82992350  0.70491227  0.42008838  1
  O  O38  1  0.42007388  0.79509209  0.82991415  1
  O  O39  1  0.81383553  0.79815344  0.83486255  1
  Ti  Ti40  1  0.00002819  0.51708237  0.48290136  1
  Ti  Ti41  1  0.49994344  0.98287753  0.51714475  1
  Ti  Ti42  1  0.51747889  0.75000479  0.49997265  1
  Ti  Ti43  1  0.48258500  0.74996555  0.00005211  1
