# generated using pymatgen
data_BaLu2CuO5
_symmetry_space_group_name_H-M   'P 1'
_cell_length_a   5.62016643
_cell_length_b   7.09310849
_cell_length_c   12.05655721
_cell_angle_alpha   90.00000000
_cell_angle_beta   90.00000000
_cell_angle_gamma   90.00000000
_symmetry_Int_Tables_number   1
_chemical_formula_structural   BaLu2CuO5
_chemical_formula_sum   'Ba4 Lu8 Cu4 O20'
_cell_volume   480.62802472
_cell_formula_units_Z   4
loop_
 _symmetry_equiv_pos_site_id
 _symmetry_equiv_pos_as_xyz
  1  'x, y, z'
loop_
 _atom_site_type_symbol
 _atom_site_label
 _atom_site_symmetry_multiplicity
 _atom_site_fract_x
 _atom_site_fract_y
 _atom_site_fract_z
 _atom_site_occupancy
  Lu  Lu0  1  0.25000000  0.11490471  0.28686613  1
  Lu  Lu1  1  0.75000000  0.88509529  0.71313387  1
  Lu  Lu2  1  0.75000000  0.61490471  0.21313387  1
  Lu  Lu3  1  0.25000000  0.38509529  0.78686613  1
  Lu  Lu4  1  0.25000000  0.39807075  0.07382701  1
  Lu  Lu5  1  0.75000000  0.60192925  0.92617299  1
  Lu  Lu6  1  0.75000000  0.89807075  0.42617299  1
  Lu  Lu7  1  0.25000000  0.10192925  0.57382701  1
  Ba  Ba8  1  0.25000000  0.92941081  0.90367546  1
  Ba  Ba9  1  0.75000000  0.07058919  0.09632454  1
  Ba  Ba10  1  0.75000000  0.42941081  0.59632454  1
  Ba  Ba11  1  0.25000000  0.57058919  0.40367546  1
  Cu  Cu12  1  0.25000000  0.71728821  0.66060283  1
  Cu  Cu13  1  0.75000000  0.28271179  0.33939717  1
  Cu  Cu14  1  0.75000000  0.21728821  0.83939717  1
  Cu  Cu15  1  0.25000000  0.78271179  0.16060283  1
  O  O16  1  0.99774258  0.15842066  0.43190010  1
  O  O17  1  0.49774258  0.84157934  0.56809990  1
  O  O18  1  0.00225742  0.65842066  0.06809990  1
  O  O19  1  0.50225742  0.34157934  0.93190010  1
  O  O20  1  0.00225742  0.84157934  0.56809990  1
  O  O21  1  0.50225742  0.15842066  0.43190010  1
  O  O22  1  0.99774258  0.34157934  0.93190010  1
  O  O23  1  0.49774258  0.65842066  0.06809990  1
  O  O24  1  0.50132338  0.36043510  0.22803266  1
  O  O25  1  0.00132338  0.63956490  0.77196734  1
  O  O26  1  0.49867662  0.86043510  0.27196734  1
  O  O27  1  0.99867662  0.13956490  0.72803266  1
  O  O28  1  0.49867662  0.63956490  0.77196734  1
  O  O29  1  0.99867662  0.36043510  0.22803266  1
  O  O30  1  0.50132338  0.13956490  0.72803266  1
  O  O31  1  0.00132338  0.86043510  0.27196734  1
  O  O32  1  0.25000000  0.09010487  0.10185252  1
  O  O33  1  0.75000000  0.90989513  0.89814748  1
  O  O34  1  0.75000000  0.59010487  0.39814748  1
  O  O35  1  0.25000000  0.40989513  0.60185252  1
