# generated using pymatgen
data_Ni(PO3)3
_symmetry_space_group_name_H-M   'P 1'
_cell_length_a   5.04665358
_cell_length_b   11.92903906
_cell_length_c   12.88116383
_cell_angle_alpha   90.00000000
_cell_angle_beta   90.00000000
_cell_angle_gamma   90.00000000
_symmetry_Int_Tables_number   1
_chemical_formula_structural   Ni(PO3)3
_chemical_formula_sum   'Ni4 P12 O36'
_cell_volume   775.46831707
_cell_formula_units_Z   4
loop_
 _symmetry_equiv_pos_site_id
 _symmetry_equiv_pos_as_xyz
  1  'x, y, z'
loop_
 _atom_site_type_symbol
 _atom_site_label
 _atom_site_symmetry_multiplicity
 _atom_site_fract_x
 _atom_site_fract_y
 _atom_site_fract_z
 _atom_site_occupancy
  Ni  Ni0  1  0.00000000  0.00000000  0.00000000  1
  Ni  Ni1  1  0.00000000  0.00000000  0.50000000  1
  Ni  Ni2  1  0.00000000  0.50000000  0.00000000  1
  Ni  Ni3  1  0.00000000  0.50000000  0.50000000  1
  O  O4  1  0.08023099  0.65360714  0.04624031  1
  O  O5  1  0.08023099  0.65360714  0.45375969  1
  O  O6  1  0.08023099  0.84639286  0.54624031  1
  O  O7  1  0.08023099  0.84639286  0.95375969  1
  O  O8  1  0.20626299  0.06171893  0.62251846  1
  O  O9  1  0.20626299  0.06171893  0.87748154  1
  O  O10  1  0.20626299  0.43828107  0.12251846  1
  O  O11  1  0.20626299  0.43828107  0.37748154  1
  O  O12  1  0.31691719  0.00388489  0.08650056  1
  O  O13  1  0.31691719  0.00388489  0.41349944  1
  O  O14  1  0.31691719  0.49611511  0.58650056  1
  O  O15  1  0.31691719  0.49611511  0.91349944  1
  O  O16  1  0.42365422  0.60298939  0.75000000  1
  O  O17  1  0.42365422  0.89701061  0.25000000  1
  O  O18  1  0.43318111  0.70586195  0.58727596  1
  O  O19  1  0.43318111  0.70586195  0.91272404  1
  O  O20  1  0.43318111  0.79413805  0.08727596  1
  O  O21  1  0.43318111  0.79413805  0.41272404  1
  O  O22  1  0.56681889  0.20586195  0.58727596  1
  O  O23  1  0.56681889  0.20586195  0.91272404  1
  O  O24  1  0.56681889  0.29413805  0.08727596  1
  O  O25  1  0.56681889  0.29413805  0.41272404  1
  O  O26  1  0.57634578  0.10298939  0.75000000  1
  O  O27  1  0.57634578  0.39701061  0.25000000  1
  O  O28  1  0.68308281  0.50388489  0.08650056  1
  O  O29  1  0.68308281  0.50388489  0.41349944  1
  O  O30  1  0.68308281  0.99611511  0.58650056  1
  O  O31  1  0.68308281  0.99611511  0.91349944  1
  O  O32  1  0.79373701  0.56171893  0.62251846  1
  O  O33  1  0.79373701  0.56171893  0.87748154  1
  O  O34  1  0.79373701  0.93828107  0.12251846  1
  O  O35  1  0.79373701  0.93828107  0.37748154  1
  O  O36  1  0.91976901  0.15360714  0.04624031  1
  O  O37  1  0.91976901  0.15360714  0.45375969  1
  O  O38  1  0.91976901  0.34639286  0.54624031  1
  O  O39  1  0.91976901  0.34639286  0.95375969  1
  P  P40  1  0.23184735  0.75000000  0.00000000  1
  P  P41  1  0.23184735  0.75000000  0.50000000  1
  P  P42  1  0.50163539  0.58305675  0.63167910  1
  P  P43  1  0.50163539  0.58305675  0.86832090  1
  P  P44  1  0.50163539  0.91694325  0.13167910  1
  P  P45  1  0.50163539  0.91694325  0.36832090  1
  P  P46  1  0.49836461  0.08305675  0.63167910  1
  P  P47  1  0.49836461  0.08305675  0.86832090  1
  P  P48  1  0.49836461  0.41694325  0.13167910  1
  P  P49  1  0.49836461  0.41694325  0.36832090  1
  P  P50  1  0.76815265  0.25000000  0.00000000  1
  P  P51  1  0.76815265  0.25000000  0.50000000  1
