# generated using pymatgen
data_Zr6Al7Cu16H9
_symmetry_space_group_name_H-M   'P 1'
_cell_length_a   8.55838952
_cell_length_b   8.55838924
_cell_length_c   8.55838884
_cell_angle_alpha   59.99999777
_cell_angle_beta   59.99999890
_cell_angle_gamma   59.99999604
_symmetry_Int_Tables_number   1
_chemical_formula_structural   Zr6Al7Cu16H9
_chemical_formula_sum   'Zr6 Al7 Cu16 H9'
_cell_volume   443.26258568
_cell_formula_units_Z   1
loop_
 _symmetry_equiv_pos_site_id
 _symmetry_equiv_pos_as_xyz
  1  'x, y, z'
loop_
 _atom_site_type_symbol
 _atom_site_label
 _atom_site_symmetry_multiplicity
 _atom_site_fract_x
 _atom_site_fract_y
 _atom_site_fract_z
 _atom_site_occupancy
  Zr  Zr0  1  0.79964485  0.20035515  0.20035515  1
  Zr  Zr1  1  0.79964485  0.79964485  0.20035515  1
  Zr  Zr2  1  0.20035515  0.20035515  0.79964485  1
  Zr  Zr3  1  0.79964485  0.20035515  0.79964485  1
  Zr  Zr4  1  0.20035515  0.79964485  0.20035515  1
  Zr  Zr5  1  0.20035515  0.79964485  0.79964485  1
  Al  Al6  1  0.50000000  -0.00000000  0.00000000  1
  Al  Al7  1  -0.00000000  -0.00000000  0.50000000  1
  Al  Al8  1  0.50000000  0.50000000  0.00000000  1
  Al  Al9  1  -0.00000000  0.50000000  0.50000000  1
  Al  Al10  1  -0.00000000  0.50000000  0.00000000  1
  Al  Al11  1  0.50000000  -0.00000000  0.50000000  1
  Al  Al12  1  0.50000000  0.50000000  0.50000000  1
  Cu  Cu13  1  0.17531620  0.17531620  0.17531620  1
  Cu  Cu14  1  0.82468380  0.82468380  0.52594859  1
  Cu  Cu15  1  0.52594859  0.82468380  0.82468380  1
  Cu  Cu16  1  0.82468380  0.52594859  0.82468380  1
  Cu  Cu17  1  0.47405141  0.17531620  0.17531620  1
  Cu  Cu18  1  0.17531620  0.47405141  0.17531620  1
  Cu  Cu19  1  0.17531620  0.17531620  0.47405141  1
  Cu  Cu20  1  0.82468380  0.82468380  0.82468380  1
  Cu  Cu21  1  0.38071197  0.38071197  0.38071197  1
  Cu  Cu22  1  0.61928803  0.61928803  0.14213591  1
  Cu  Cu23  1  0.14213591  0.61928803  0.61928803  1
  Cu  Cu24  1  0.61928803  0.14213591  0.61928803  1
  Cu  Cu25  1  0.85786409  0.38071197  0.38071197  1
  Cu  Cu26  1  0.38071197  0.85786409  0.38071197  1
  Cu  Cu27  1  0.38071197  0.38071197  0.85786409  1
  Cu  Cu28  1  0.61928803  0.61928803  0.61928803  1
  H  H29  1  -0.00000000  -0.00000000  0.00000000  1
  H  H30  1  0.09367446  0.09367446  0.09367446  1
  H  H31  1  0.90632554  0.90632554  0.28102337  1
  H  H32  1  0.28102337  0.90632554  0.90632554  1
  H  H33  1  0.90632554  0.28102337  0.90632554  1
  H  H34  1  0.71897663  0.09367446  0.09367446  1
  H  H35  1  0.09367446  0.71897663  0.09367446  1
  H  H36  1  0.09367446  0.09367446  0.71897663  1
  H  H37  1  0.90632554  0.90632554  0.90632554  1
