# generated using pymatgen
data_Li3Mn5(FeO6)2
_symmetry_space_group_name_H-M   'P 1'
_cell_length_a   5.24038523
_cell_length_b   5.20878170
_cell_length_c   30.10866497
_cell_angle_alpha   83.40396406
_cell_angle_beta   95.45247278
_cell_angle_gamma   58.50290941
_symmetry_Int_Tables_number   1
_chemical_formula_structural   Li3Mn5(FeO6)2
_chemical_formula_sum   'Li9 Mn15 Fe6 O36'
_cell_volume   684.36301025
_cell_formula_units_Z   3
loop_
 _symmetry_equiv_pos_site_id
 _symmetry_equiv_pos_as_xyz
  1  'x, y, z'
loop_
 _atom_site_type_symbol
 _atom_site_label
 _atom_site_symmetry_multiplicity
 _atom_site_fract_x
 _atom_site_fract_y
 _atom_site_fract_z
 _atom_site_occupancy
  Li  Li0  1  0.67701263  0.17639518  0.99948186  1
  Li  Li1  1  0.32532957  0.82624735  0.66086432  1
  Li  Li2  1  0.33374399  0.82870456  0.32732725  1
  Li  Li3  1  0.81675669  0.32551664  0.83802575  1
  Li  Li4  1  0.83226143  0.33140120  0.50431926  1
  Li  Li5  1  0.82624331  0.32139217  0.16959224  1
  Li  Li6  1  0.92796289  0.91797131  0.91926726  1
  Li  Li7  1  0.91778677  0.92618001  0.58335374  1
  Li  Li8  1  0.91537313  0.93138143  0.25013455  1
  Mn  Mn9  1  0.07912291  0.06558247  0.75047816  1
  Mn  Mn10  1  0.08153878  0.07215927  0.41768275  1
  Mn  Mn11  1  0.08571868  0.06500732  0.08394232  1
  Mn  Mn12  1  0.42195392  0.41240988  0.75062310  1
  Mn  Mn13  1  0.42094678  0.41087784  0.41732928  1
  Mn  Mn14  1  0.57897513  0.57624351  0.91648657  1
  Mn  Mn15  1  0.41613764  0.43033847  0.08226874  1
  Mn  Mn16  1  0.57879210  0.57818673  0.58320646  1
  Mn  Mn17  1  0.50408114  0.00949453  0.83668214  1
  Mn  Mn18  1  0.57978708  0.58207135  0.24930883  1
  Mn  Mn19  1  0.49747228  0.01141678  0.50406875  1
  Mn  Mn20  1  0.00816549  0.49996910  0.99809201  1
  Mn  Mn21  1  0.50051726  0.00462934  0.16836412  1
  Mn  Mn22  1  0.00960371  0.51258735  0.66327469  1
  Mn  Mn23  1  0.00697793  0.51404238  0.32988507  1
  Fe  Fe24  1  0.25822538  0.24832885  0.91657144  1
  Fe  Fe25  1  0.26038952  0.26099894  0.58312928  1
  Fe  Fe26  1  0.26025248  0.26843137  0.24901070  1
  Fe  Fe27  1  0.75014862  0.75087142  0.75022008  1
  Fe  Fe28  1  0.74945761  0.74499281  0.41747700  1
  Fe  Fe29  1  0.75303621  0.74576286  0.08347812  1
  O  O30  1  0.15224249  0.33879394  0.78783845  1
  O  O31  1  0.11983575  0.33266600  0.45836367  1
  O  O32  1  0.07369973  0.77045070  0.71178490  1
  O  O33  1  0.36602368  0.15484076  0.71343857  1
  O  O34  1  0.29987613  0.50933479  0.95238838  1
  O  O35  1  0.12702331  0.32254226  0.12308221  1
  O  O36  1  0.05338113  0.77712750  0.38158803  1
  O  O37  1  0.38045734  0.13895605  0.38032202  1
  O  O38  1  0.29316615  0.54383454  0.61748251  1
  O  O39  1  0.53243228  0.29688295  0.88171302  1
  O  O40  1  0.24262059  0.97790619  0.87785047  1
  O  O41  1  0.04850636  0.79403807  0.04586333  1
  O  O42  1  0.37949784  0.17510480  0.04230545  1
  O  O43  1  0.29454123  0.55435188  0.28509580  1
  O  O44  1  0.53939522  0.29882154  0.54859567  1
  O  O45  1  0.24509805  0.97948804  0.54529223  1
  O  O46  1  0.75163045  0.06357067  0.79297343  1
  O  O47  1  0.44139338  0.69899812  0.78598596  1
  O  O48  1  0.54507320  0.30466807  0.21394273  1
  O  O49  1  0.25107005  0.97216237  0.20985680  1
  O  O50  1  0.74888168  0.04021936  0.45866510  1
  O  O51  1  0.45942728  0.69804669  0.45237785  1
  O  O52  1  0.63836595  0.83620991  0.95366696  1
  O  O53  1  0.70919328  0.43625552  0.71563230  1
  O  O54  1  0.95089946  0.23812875  0.95151421  1
  O  O55  1  0.73889992  0.06598089  0.12488233  1
  O  O56  1  0.45094215  0.69984420  0.11897513  1
  O  O57  1  0.60530892  0.84796643  0.62125539  1
  O  O58  1  0.73759353  0.46111791  0.38036375  1
  O  O59  1  0.82917756  0.61855321  0.87624161  1
  O  O60  1  0.97199626  0.24263270  0.61935309  1
  O  O61  1  0.60896617  0.85198669  0.28717012  1
  O  O62  1  0.76392147  0.42758056  0.04213686  1
  O  O63  1  0.83044114  0.62761853  0.54377605  1
  O  O64  1  0.96768487  0.24488985  0.28622374  1
  O  O65  1  0.83603394  0.63014716  0.20955703  1
