# generated using pymatgen
data_Ce3(Si4Ni)2
_symmetry_space_group_name_H-M   'P 1'
_cell_length_a   4.09328942
_cell_length_b   4.19367943
_cell_length_c   13.16820156
_cell_angle_alpha   90.00000000
_cell_angle_beta   98.94134609
_cell_angle_gamma   90.00000000
_symmetry_Int_Tables_number   1
_chemical_formula_structural   Ce3(Si4Ni)2
_chemical_formula_sum   'Ce3 Si8 Ni2'
_cell_volume   223.29770406
_cell_formula_units_Z   1
loop_
 _symmetry_equiv_pos_site_id
 _symmetry_equiv_pos_as_xyz
  1  'x, y, z'
loop_
 _atom_site_type_symbol
 _atom_site_label
 _atom_site_symmetry_multiplicity
 _atom_site_fract_x
 _atom_site_fract_y
 _atom_site_fract_z
 _atom_site_occupancy
  Ce  Ce0  1  0.00000000  0.00000000  0.00000000  1
  Ce  Ce1  1  0.68790039  0.50000000  0.37580079  1
  Ce  Ce2  1  0.31209961  0.50000000  0.62419921  1
  Ni  Ni3  1  0.86600532  0.00000000  0.73201064  1
  Ni  Ni4  1  0.13399468  0.00000000  0.26798936  1
  Si  Si5  1  0.59524420  0.00000000  0.19048841  1
  Si  Si6  1  0.40475580  0.00000000  0.80951159  1
  Si  Si7  1  0.77567358  0.00000000  0.55134715  1
  Si  Si8  1  0.22432642  0.00000000  0.44865285  1
  Si  Si9  1  0.90286247  0.50000000  0.80572493  1
  Si  Si10  1  0.09713753  0.50000000  0.19427507  1
  Si  Si11  1  0.54526504  0.50000000  0.09053009  1
  Si  Si12  1  0.45473496  0.50000000  0.90946991  1
