# generated using pymatgen
data_MgAl2O4
_symmetry_space_group_name_H-M   'P 1'
_cell_length_a   5.74062146
_cell_length_b   5.74062117
_cell_length_c   5.78445388
_cell_angle_alpha   59.74710038
_cell_angle_beta   59.74710182
_cell_angle_gamma   59.64519660
_symmetry_Int_Tables_number   1
_chemical_formula_structural   MgAl2O4
_chemical_formula_sum   'Mg2 Al4 O8'
_cell_volume   133.91378325
_cell_formula_units_Z   2
loop_
 _symmetry_equiv_pos_site_id
 _symmetry_equiv_pos_as_xyz
  1  'x, y, z'
loop_
 _atom_site_type_symbol
 _atom_site_label
 _atom_site_symmetry_multiplicity
 _atom_site_fract_x
 _atom_site_fract_y
 _atom_site_fract_z
 _atom_site_occupancy
  Al  Al0  1  0.13540167  0.13540167  0.11459833  1
  Al  Al1  1  0.50000000  0.50000000  0.00000000  1
  Al  Al2  1  0.50000000  0.50000000  0.50000000  1
  Al  Al3  1  0.86459833  0.86459833  0.88540167  1
  Mg  Mg4  1  0.00000000  0.50000000  0.50000000  1
  Mg  Mg5  1  0.50000000  0.00000000  0.50000000  1
  O  O6  1  0.26540198  0.26540198  0.23563428  1
  O  O7  1  0.26540198  0.26540198  0.73356176  1
  O  O8  1  0.26854613  0.73944794  0.24600296  1
  O  O9  1  0.73944794  0.26854613  0.24600296  1
  O  O10  1  0.26055206  0.73145387  0.75399704  1
  O  O11  1  0.73459802  0.73459802  0.26643824  1
  O  O12  1  0.73145387  0.26055206  0.75399704  1
  O  O13  1  0.73459802  0.73459802  0.76436572  1
