# generated using pymatgen
data_V5As3
_symmetry_space_group_name_H-M   'P 1'
_cell_length_a   6.46394586
_cell_length_b   7.52161645
_cell_length_c   9.42947626
_cell_angle_alpha   90.00000000
_cell_angle_beta   90.00000000
_cell_angle_gamma   90.00000000
_symmetry_Int_Tables_number   1
_chemical_formula_structural   V5As3
_chemical_formula_sum   'V20 As12'
_cell_volume   458.45473798
_cell_formula_units_Z   4
loop_
 _symmetry_equiv_pos_site_id
 _symmetry_equiv_pos_as_xyz
  1  'x, y, z'
loop_
 _atom_site_type_symbol
 _atom_site_label
 _atom_site_symmetry_multiplicity
 _atom_site_fract_x
 _atom_site_fract_y
 _atom_site_fract_z
 _atom_site_occupancy
  V  V0  1  0.64979509  0.75000000  0.72161418  1
  V  V1  1  0.14979509  0.25000000  0.77838582  1
  V  V2  1  0.35020491  0.25000000  0.27838582  1
  V  V3  1  0.85020491  0.75000000  0.22161418  1
  V  V4  1  0.19875971  0.75000000  0.75239273  1
  V  V5  1  0.69875971  0.25000000  0.74760727  1
  V  V6  1  0.80124029  0.25000000  0.24760727  1
  V  V7  1  0.30124029  0.75000000  0.25239273  1
  V  V8  1  0.47159631  0.75000000  0.99044368  1
  V  V9  1  0.97159631  0.25000000  0.50955632  1
  V  V10  1  0.52840369  0.25000000  0.00955632  1
  V  V11  1  0.02840369  0.75000000  0.49044368  1
  V  V12  1  0.79499589  0.94138359  0.92318583  1
  V  V13  1  0.29499589  0.05861641  0.57681417  1
  V  V14  1  0.20500411  0.44138359  0.07681417  1
  V  V15  1  0.70500411  0.55861641  0.42318583  1
  V  V16  1  0.20500411  0.05861641  0.07681417  1
  V  V17  1  0.70500411  0.94138359  0.42318583  1
  V  V18  1  0.79499589  0.55861641  0.92318583  1
  V  V19  1  0.29499589  0.44138359  0.57681417  1
  As  As20  1  0.41742135  0.75000000  0.51080687  1
  As  As21  1  0.91742135  0.25000000  0.98919313  1
  As  As22  1  0.58257865  0.25000000  0.48919313  1
  As  As23  1  0.08257865  0.75000000  0.01080687  1
  As  As24  1  0.92603756  0.51527873  0.67147027  1
  As  As25  1  0.42603756  0.48472127  0.82852973  1
  As  As26  1  0.07396244  0.01527873  0.32852973  1
  As  As27  1  0.57396244  0.98472127  0.17147027  1
  As  As28  1  0.07396244  0.48472127  0.32852973  1
  As  As29  1  0.57396244  0.51527873  0.17147027  1
  As  As30  1  0.92603756  0.98472127  0.67147027  1
  As  As31  1  0.42603756  0.01527873  0.82852973  1
