# generated using pymatgen
data_MgBeAl4O8
_symmetry_space_group_name_H-M   'P 1'
_cell_length_a   5.66261201
_cell_length_b   5.66261175
_cell_length_c   18.31749620
_cell_angle_alpha   90.00000000
_cell_angle_beta   90.00000000
_cell_angle_gamma   120.00000149
_symmetry_Int_Tables_number   1
_chemical_formula_structural   MgBeAl4O8
_chemical_formula_sum   'Mg4 Be4 Al16 O32'
_cell_volume   508.66320865
_cell_formula_units_Z   4
loop_
 _symmetry_equiv_pos_site_id
 _symmetry_equiv_pos_as_xyz
  1  'x, y, z'
loop_
 _atom_site_type_symbol
 _atom_site_label
 _atom_site_symmetry_multiplicity
 _atom_site_fract_x
 _atom_site_fract_y
 _atom_site_fract_z
 _atom_site_occupancy
  Mg  Mg0  1  0.00000000  0.00000000  0.15554741  1
  Mg  Mg1  1  0.33333300  0.66666700  0.40541508  1
  Mg  Mg2  1  0.66666700  0.33333300  0.90541508  1
  Mg  Mg3  1  0.00000000  0.00000000  0.65554741  1
  Be  Be4  1  0.66666700  0.33333300  0.71808152  1
  Be  Be5  1  0.33333300  0.66666700  0.95465926  1
  Be  Be6  1  0.66666700  0.33333300  0.45465926  1
  Be  Be7  1  0.33333300  0.66666700  0.21808152  1
  Al  Al8  1  0.16333579  0.83666421  0.81348735  1
  Al  Al9  1  0.50147345  0.00294690  0.06239467  1
  Al  Al10  1  0.00294690  0.50147345  0.56239467  1
  Al  Al11  1  0.83666421  0.67332841  0.31348735  1
  Al  Al12  1  0.00000000  0.00000000  0.94586503  1
  Al  Al13  1  0.33333300  0.66666700  0.68711320  1
  Al  Al14  1  0.83666421  0.16333579  0.31348735  1
  Al  Al15  1  0.49852655  0.99705310  0.56239467  1
  Al  Al16  1  0.32667159  0.16333579  0.31348735  1
  Al  Al17  1  0.99705310  0.49852655  0.06239467  1
  Al  Al18  1  0.50147345  0.49852655  0.06239467  1
  Al  Al19  1  0.16333579  0.32667159  0.81348735  1
  Al  Al20  1  0.00000000  0.00000000  0.44586503  1
  Al  Al21  1  0.66666700  0.33333300  0.18711320  1
  Al  Al22  1  0.49852655  0.50147345  0.56239467  1
  Al  Al23  1  0.67332841  0.83666421  0.81348735  1
  O  O24  1  0.36049924  0.18024962  0.49985962  1
  O  O25  1  0.36814590  0.18407295  0.12144284  1
  O  O26  1  0.18024962  0.36049924  -0.00014038  1
  O  O27  1  0.33333300  0.66666700  0.50957923  1
  O  O28  1  0.85257157  0.14742843  0.87456031  1
  O  O29  1  0.33333300  0.66666700  0.12150451  1
  O  O30  1  0.00000000  0.00000000  0.26007786  1
  O  O31  1  0.66666700  0.33333300  0.62150451  1
  O  O32  1  0.50651006  0.01302012  0.25168862  1
  O  O33  1  0.63950076  0.81975038  -0.00014038  1
  O  O34  1  0.66666700  0.33333300  0.36685667  1
  O  O35  1  0.18407295  0.36814590  0.62144284  1
  O  O36  1  0.81592705  0.18407295  0.12144284  1
  O  O37  1  0.14742843  0.29485685  0.37456031  1
  O  O38  1  0.18407295  0.81592705  0.62144284  1
  O  O39  1  0.63185410  0.81592705  0.62144284  1
  O  O40  1  0.50651006  0.49348994  0.25168862  1
  O  O41  1  0.81592705  0.63185410  0.12144284  1
  O  O42  1  0.14742843  0.85257157  0.37456031  1
  O  O43  1  0.70514315  0.85257157  0.37456031  1
  O  O44  1  0.29485685  0.14742843  0.87456031  1
  O  O45  1  0.01302012  0.50651006  0.75168862  1
  O  O46  1  0.49348994  0.50651006  0.75168862  1
  O  O47  1  0.81975038  0.63950076  0.49985962  1
  O  O48  1  0.66666700  0.33333300  0.00957923  1
  O  O49  1  0.49348994  0.98697988  0.75168862  1
  O  O50  1  0.81975038  0.18024962  0.49985962  1
  O  O51  1  0.18024962  0.81975038  -0.00014038  1
  O  O52  1  0.33333300  0.66666700  0.86685667  1
  O  O53  1  0.98697988  0.49348994  0.25168862  1
  O  O54  1  0.85257157  0.70514315  0.87456031  1
  O  O55  1  0.00000000  0.00000000  0.76007786  1
