# generated using pymatgen
data_Sc2CrB2Rh5
_symmetry_space_group_name_H-M   'P 1'
_cell_length_a   3.07598626
_cell_length_b   9.38279050
_cell_length_c   9.38279050
_cell_angle_alpha   90.00000000
_cell_angle_beta   90.00000000
_cell_angle_gamma   90.00000000
_symmetry_Int_Tables_number   1
_chemical_formula_structural   Sc2CrB2Rh5
_chemical_formula_sum   'Sc4 Cr2 B4 Rh10'
_cell_volume   270.79985665
_cell_formula_units_Z   2
loop_
 _symmetry_equiv_pos_site_id
 _symmetry_equiv_pos_as_xyz
  1  'x, y, z'
loop_
 _atom_site_type_symbol
 _atom_site_label
 _atom_site_symmetry_multiplicity
 _atom_site_fract_x
 _atom_site_fract_y
 _atom_site_fract_z
 _atom_site_occupancy
  Rh  Rh0  1  0.50000000  0.21859322  0.07067055  1
  Rh  Rh1  1  0.50000000  0.92932945  0.21859322  1
  Rh  Rh2  1  0.50000000  0.07067055  0.78140678  1
  Rh  Rh3  1  0.50000000  0.78140678  0.92932945  1
  Rh  Rh4  1  0.50000000  0.71859322  0.42932945  1
  Rh  Rh5  1  0.50000000  0.28140678  0.57067055  1
  Rh  Rh6  1  0.50000000  0.57067055  0.71859322  1
  Rh  Rh7  1  0.50000000  0.42932945  0.28140678  1
  Rh  Rh8  1  0.50000000  0.00000000  0.50000000  1
  Rh  Rh9  1  0.50000000  0.50000000  0.00000000  1
  Sc  Sc10  1  0.00000000  0.32411998  0.82411998  1
  Sc  Sc11  1  0.00000000  0.17588002  0.32411998  1
  Sc  Sc12  1  0.00000000  0.82411998  0.67588002  1
  Sc  Sc13  1  0.00000000  0.67588002  0.17588002  1
  B  B14  1  0.00000000  0.12265941  0.62265941  1
  B  B15  1  0.00000000  0.37734059  0.12265941  1
  B  B16  1  0.00000000  0.62265941  0.87734059  1
  B  B17  1  0.00000000  0.87734059  0.37734059  1
  Cr  Cr18  1  0.00000000  0.00000000  0.00000000  1
  Cr  Cr19  1  0.00000000  0.50000000  0.50000000  1
