# generated using pymatgen
data_Li2Mo(PO4)2
_symmetry_space_group_name_H-M   'P 1'
_cell_length_a   4.72215791
_cell_length_b   5.24466940
_cell_length_c   13.93132889
_cell_angle_alpha   83.35384366
_cell_angle_beta   90.00000000
_cell_angle_gamma   63.24436081
_symmetry_Int_Tables_number   1
_chemical_formula_structural   Li2Mo(PO4)2
_chemical_formula_sum   'Li4 Mo2 P4 O16'
_cell_volume   305.48633446
_cell_formula_units_Z   2
loop_
 _symmetry_equiv_pos_site_id
 _symmetry_equiv_pos_as_xyz
  1  'x, y, z'
loop_
 _atom_site_type_symbol
 _atom_site_label
 _atom_site_symmetry_multiplicity
 _atom_site_fract_x
 _atom_site_fract_y
 _atom_site_fract_z
 _atom_site_occupancy
  Li  Li0  1  0.64879107  0.64018118  0.66472764  1
  Li  Li1  1  0.71102776  0.64018118  0.16472764  1
  Li  Li2  1  0.92642356  0.00706371  0.75837277  1
  Li  Li3  1  0.06651373  0.00706371  0.25837277  1
  Mo  Mo4  1  0.00107885  0.99831718  0.99769620  1
  Mo  Mo5  1  0.00060297  0.99831718  0.49769620  1
  P  P6  1  0.63134749  0.67992075  0.88172724  1
  P  P7  1  0.68873176  0.67992075  0.38172724  1
  P  P8  1  0.32689894  0.31907456  0.61427775  1
  P  P9  1  0.35402650  0.31907456  0.11427775  1
  O  O10  1  0.77158157  0.77454764  0.96488336  1
  O  O11  1  0.33976642  0.62293045  0.08467097  1
  O  O12  1  0.69547007  0.36436312  0.91165719  1
  O  O13  1  0.03730313  0.62293045  0.58467097  1
  O  O14  1  0.15550341  0.32986278  0.20054799  1
  O  O15  1  0.86933091  0.87145619  0.37778733  1
  O  O16  1  0.22389661  0.22723104  0.02860595  1
  O  O17  1  0.71965313  0.09828934  0.12799244  1
  O  O18  1  0.94016681  0.36436312  0.41165719  1
  O  O19  1  0.51980718  0.72458706  0.28437917  1
  O  O20  1  0.54887135  0.22723104  0.52860495  1
  O  O21  1  0.75560576  0.72458706  0.78437917  1
  O  O22  1  0.18205753  0.09828934  0.62799244  1
  O  O23  1  0.25921390  0.87145619  0.87778733  1
  O  O24  1  0.51463280  0.32986278  0.70054799  1
  O  O25  1  0.45387079  0.77454764  0.46488336  1
