# generated using pymatgen
data_UV3O10
_symmetry_space_group_name_H-M   'P 1'
_cell_length_a   7.01890065
_cell_length_b   7.05106333
_cell_length_c   8.90542700
_cell_angle_alpha   78.68860556
_cell_angle_beta   66.79140006
_cell_angle_gamma   60.15077103
_symmetry_Int_Tables_number   1
_chemical_formula_structural   UV3O10
_chemical_formula_sum   'U2 V6 O20'
_cell_volume   351.33257378
_cell_formula_units_Z   2
loop_
 _symmetry_equiv_pos_site_id
 _symmetry_equiv_pos_as_xyz
  1  'x, y, z'
loop_
 _atom_site_type_symbol
 _atom_site_label
 _atom_site_symmetry_multiplicity
 _atom_site_fract_x
 _atom_site_fract_y
 _atom_site_fract_z
 _atom_site_occupancy
  U  U0  1  0.12500000  0.75000000  0.75000000  1
  U  U1  1  0.87500000  0.25000000  0.25000000  1
  V  V2  1  0.62500000  0.75000000  0.75000000  1
  V  V3  1  0.37500000  0.25000000  0.25000000  1
  V  V4  1  0.84882430  0.75000000  0.30235040  1
  V  V5  1  0.40117570  0.75000000  0.19764960  1
  V  V6  1  0.15117570  0.25000000  0.69764960  1
  V  V7  1  0.59882430  0.25000000  0.80235040  1
  O  O8  1  0.32607939  0.95732224  0.74334708  1
  O  O9  1  0.52674971  0.54267776  0.75665292  1
  O  O10  1  0.71659737  0.95732224  0.75665292  1
  O  O11  1  0.93057352  0.54267776  0.74334708  1
  O  O12  1  0.67392061  0.04267776  0.25665292  1
  O  O13  1  0.47325029  0.45732224  0.24334708  1
  O  O14  1  0.28340263  0.04267776  0.24334708  1
  O  O15  1  0.06942648  0.45732224  0.25665292  1
  O  O16  1  0.74559108  0.75000000  0.50881884  1
  O  O17  1  0.50440892  0.75000000  0.99118116  1
  O  O18  1  0.25440892  0.25000000  0.49118116  1
  O  O19  1  0.49559108  0.25000000  0.00881884  1
  O  O20  1  0.01462495  0.75000000  0.97074910  1
  O  O21  1  0.23537505  0.75000000  0.52925090  1
  O  O22  1  0.98537505  0.25000000  0.02925090  1
  O  O23  1  0.76462495  0.25000000  0.47074910  1
  O  O24  1  0.91612138  0.16775624  0.75000000  1
  O  O25  1  0.33387862  0.33224376  0.75000000  1
  O  O26  1  0.08387862  0.83224376  0.25000000  1
  O  O27  1  0.66612138  0.66775624  0.25000000  1
