# generated using pymatgen
data_Si2Ag6O7
_symmetry_space_group_name_H-M   'P 1'
_cell_length_a   5.44173140
_cell_length_b   9.85129259
_cell_length_c   16.24155891
_cell_angle_alpha   90.00000000
_cell_angle_beta   90.66617117
_cell_angle_gamma   90.00000000
_symmetry_Int_Tables_number   1
_chemical_formula_structural   Si2Ag6O7
_chemical_formula_sum   'Si8 Ag24 O28'
_cell_volume   870.62007247
_cell_formula_units_Z   4
loop_
 _symmetry_equiv_pos_site_id
 _symmetry_equiv_pos_as_xyz
  1  'x, y, z'
loop_
 _atom_site_type_symbol
 _atom_site_label
 _atom_site_symmetry_multiplicity
 _atom_site_fract_x
 _atom_site_fract_y
 _atom_site_fract_z
 _atom_site_occupancy
  Ag  Ag0  1  0.71367419  0.29389114  0.81381916  1
  Ag  Ag1  1  0.28632581  0.79389114  0.18618084  1
  Ag  Ag2  1  0.71919525  0.30279256  0.33286510  1
  Ag  Ag3  1  0.28080475  0.80279256  0.66713490  1
  Ag  Ag4  1  0.73856170  0.03656857  0.70859070  1
  Ag  Ag5  1  0.26143830  0.53656857  0.29140930  1
  Ag  Ag6  1  0.73215387  0.01682156  0.19751348  1
  Ag  Ag7  1  0.26784613  0.51682156  0.80248652  1
  Ag  Ag8  1  0.71872522  0.81147416  0.07639296  1
  Ag  Ag9  1  0.28127478  0.31147416  0.92360704  1
  Ag  Ag10  1  0.28747980  0.74333649  0.97960795  1
  Ag  Ag11  1  0.71252020  0.24333649  0.02039205  1
  Ag  Ag12  1  0.71709219  0.27947135  0.54628251  1
  Ag  Ag13  1  0.28290781  0.77947135  0.45371749  1
  Ag  Ag14  1  0.72807321  0.49767469  0.67207002  1
  Ag  Ag15  1  0.27192679  0.99767469  0.32792998  1
  Ag  Ag16  1  0.67107212  0.51621493  0.17559673  1
  Ag  Ag17  1  0.32892788  0.01621493  0.82440327  1
  Ag  Ag18  1  0.28873489  0.33254869  0.42777009  1
  Ag  Ag19  1  0.71126511  0.83254869  0.57222991  1
  Ag  Ag20  1  0.27764676  0.51422772  0.57186228  1
  Ag  Ag21  1  0.72235324  0.01422772  0.42813772  1
  Ag  Ag22  1  0.16194762  0.50079951  0.08016640  1
  Ag  Ag23  1  0.83805238  0.00079951  0.91983360  1
  Si  Si24  1  0.74780091  0.54711115  0.93730271  1
  Si  Si25  1  0.25219909  0.04711115  0.06269729  1
  Si  Si26  1  0.27763337  0.26148438  0.19652902  1
  Si  Si27  1  0.72236663  0.76148438  0.80347098  1
  Si  Si28  1  0.75198134  0.56263743  0.46053122  1
  Si  Si29  1  0.24801866  0.06263743  0.53946878  1
  Si  Si30  1  0.24681865  0.25394771  0.69298803  1
  Si  Si31  1  0.75318135  0.75394771  0.30701197  1
  O  O32  1  0.84922226  0.60791658  0.02554741  1
  O  O33  1  0.15077774  0.10791658  0.97445259  1
  O  O34  1  0.44461206  0.54628091  0.93138658  1
  O  O35  1  0.55538794  0.04628091  0.06861342  1
  O  O36  1  0.85497175  0.39072343  0.92612593  1
  O  O37  1  0.14502825  0.89072343  0.07387407  1
  O  O38  1  0.13639430  0.14145927  0.13923411  1
  O  O39  1  0.86360570  0.64145927  0.86076589  1
  O  O40  1  0.07289073  0.35203685  0.24483131  1
  O  O41  1  0.92710927  0.85203685  0.75516869  1
  O  O42  1  0.46528446  0.18011170  0.25982684  1
  O  O43  1  0.53471554  0.68011170  0.74017316  1
  O  O44  1  0.43414254  0.35590440  0.12955116  1
  O  O45  1  0.56585746  0.85590440  0.87044884  1
  O  O46  1  0.84660848  0.61945488  0.55032511  1
  O  O47  1  0.15339152  0.11945488  0.44967489  1
  O  O48  1  0.86707836  0.41045737  0.44295794  1
  O  O49  1  0.13292164  0.91045737  0.55704206  1
  O  O50  1  0.44699510  0.55715461  0.45170293  1
  O  O51  1  0.55300490  0.05715461  0.54829707  1
  O  O52  1  0.85839636  0.66736619  0.38829630  1
  O  O53  1  0.14160364  0.16736619  0.61170370  1
  O  O54  1  0.13209698  0.18993952  0.77721692  1
  O  O55  1  0.86790302  0.68993952  0.22278308  1
  O  O56  1  0.14732862  0.41241855  0.68274155  1
  O  O57  1  0.85267138  0.91241855  0.31725845  1
  O  O58  1  0.55309121  0.24697371  0.69059550  1
  O  O59  1  0.44690879  0.74697371  0.30940450  1
