# generated using pymatgen
data_LiNiP2O7
_symmetry_space_group_name_H-M   'P 1'
_cell_length_a   6.41552864
_cell_length_b   6.34183558
_cell_length_c   6.90077034
_cell_angle_alpha   112.94391688
_cell_angle_beta   95.27602398
_cell_angle_gamma   81.87243356
_symmetry_Int_Tables_number   1
_chemical_formula_structural   LiNiP2O7
_chemical_formula_sum   'Li2 Ni2 P4 O14'
_cell_volume   255.74794581
_cell_formula_units_Z   2
loop_
 _symmetry_equiv_pos_site_id
 _symmetry_equiv_pos_as_xyz
  1  'x, y, z'
loop_
 _atom_site_type_symbol
 _atom_site_label
 _atom_site_symmetry_multiplicity
 _atom_site_fract_x
 _atom_site_fract_y
 _atom_site_fract_z
 _atom_site_occupancy
  Li  Li0  1  0.00860889  0.71207200  0.16871222  1
  Li  Li1  1  0.99139211  0.28792800  0.83128778  1
  O  O2  1  0.31076867  0.22411534  0.77073128  1
  O  O3  1  0.94981430  0.61459805  0.86103772  1
  O  O4  1  0.02776082  0.93684206  0.75157182  1
  O  O5  1  0.05018670  0.38540295  0.13896328  1
  O  O6  1  0.21283453  0.35827945  0.47110962  1
  O  O7  1  0.97223818  0.06315794  0.24842818  1
  O  O8  1  0.33160978  0.05184036  0.12155015  1
  O  O9  1  0.40448964  0.59549548  0.79791808  1
  O  O10  1  0.40107754  0.77095293  0.46446845  1
  O  O11  1  0.78716647  0.64172055  0.52889038  1
  O  O12  1  0.59550936  0.40450352  0.20208192  1
  O  O13  1  0.66839122  0.94815964  0.87844985  1
  O  O14  1  0.68923133  0.77588366  0.22926872  1
  O  O15  1  0.59892046  0.22904607  0.53553055  1
  P  P16  1  0.86454165  0.78939474  0.76566644  1
  P  P17  1  0.60620377  0.65430150  0.35498535  1
  P  P18  1  0.13545935  0.21060426  0.23433356  1
  P  P19  1  0.39379623  0.34569750  0.64501365  1
  Ni  Ni20  1  0.35539188  0.90784047  0.78273239  1
  Ni  Ni21  1  0.64460812  0.09215953  0.21726761  1
