# generated using pymatgen
data_LiMn(PO3)3
_symmetry_space_group_name_H-M   'P 1'
_cell_length_a   6.48281130
_cell_length_b   6.48261953
_cell_length_c   9.84475149
_cell_angle_alpha   90.00223071
_cell_angle_beta   89.99732228
_cell_angle_gamma   119.99947959
_symmetry_Int_Tables_number   1
_chemical_formula_structural   LiMn(PO3)3
_chemical_formula_sum   'Li2 Mn2 P6 O18'
_cell_volume   358.30393671
_cell_formula_units_Z   2
loop_
 _symmetry_equiv_pos_site_id
 _symmetry_equiv_pos_as_xyz
  1  'x, y, z'
loop_
 _atom_site_type_symbol
 _atom_site_label
 _atom_site_symmetry_multiplicity
 _atom_site_fract_x
 _atom_site_fract_y
 _atom_site_fract_z
 _atom_site_occupancy
  Li  Li0  1  0.66683722  0.33409775  0.50000808  1
  Li  Li1  1  0.66685551  0.33272962  0.00000488  1
  O  O2  1  0.37139976  0.97779337  0.11816580  1
  O  O3  1  0.78418554  0.01473167  0.25012769  1
  O  O4  1  0.02211128  0.62865082  0.61816794  1
  O  O5  1  0.02235690  0.62863456  0.88177814  1
  O  O6  1  0.02235003  0.39369959  0.38178538  1
  O  O7  1  0.02212480  0.39344519  0.11816969  1
  O  O8  1  0.37122774  0.97765109  0.38176828  1
  O  O9  1  0.98523049  0.21576943  0.74987932  1
  O  O10  1  0.60654830  0.97793419  0.88184290  1
  O  O11  1  0.60626181  0.97753328  0.61823859  1
  O  O12  1  0.23052961  0.21577349  0.25000451  1
  O  O13  1  0.37123447  0.39357329  0.88177354  1
  O  O14  1  0.98522949  0.76943205  0.24989628  1
  O  O15  1  0.23053456  0.01473375  0.74998657  1
  O  O16  1  0.60627671  0.62870629  0.11825205  1
  O  O17  1  0.60652232  0.62860595  0.38186340  1
  O  O18  1  0.78418070  0.76942767  0.75011337  1
  O  O19  1  0.37138782  0.39358762  0.61815115  1
  P  P20  1  0.72687620  0.74367077  0.25004149  1
  P  P21  1  0.72688482  0.98318439  0.75001426  1
  P  P22  1  0.01678311  0.74366287  0.75001849  1
  P  P23  1  0.25629604  0.98319854  0.24998418  1
  P  P24  1  0.25631507  0.27309679  0.74996437  1
  P  P25  1  0.01678165  0.27310135  0.25001171  1
  Mn  Mn26  1  0.33317061  0.66682059  0.49996446  1
  Mn  Mn27  1  0.33350947  0.66675801  0.00001748  1
