# generated using pymatgen
data_LiMnP2O7
_symmetry_space_group_name_H-M   'P 1'
_cell_length_a   9.10899166
_cell_length_b   8.46504222
_cell_length_c   6.63198766
_cell_angle_alpha   90.00000000
_cell_angle_beta   102.25777125
_cell_angle_gamma   90.00000000
_symmetry_Int_Tables_number   1
_chemical_formula_structural   LiMnP2O7
_chemical_formula_sum   'Li4 Mn4 P8 O28'
_cell_volume   499.72103554
_cell_formula_units_Z   4
loop_
 _symmetry_equiv_pos_site_id
 _symmetry_equiv_pos_as_xyz
  1  'x, y, z'
loop_
 _atom_site_type_symbol
 _atom_site_label
 _atom_site_symmetry_multiplicity
 _atom_site_fract_x
 _atom_site_fract_y
 _atom_site_fract_z
 _atom_site_occupancy
  Li  Li0  1  0.24243088  0.08173068  0.27589960  1
  Li  Li1  1  0.24243088  0.41826932  0.27589960  1
  Li  Li2  1  0.75756912  0.58172968  0.72410140  1
  Li  Li3  1  0.75756912  0.91826932  0.72410140  1
  O  O4  1  0.37399263  0.09998346  0.91048393  1
  O  O5  1  0.85557310  0.09600129  0.01888240  1
  O  O6  1  0.94627146  0.25000000  0.75555003  1
  O  O7  1  0.88604804  0.25000000  0.37917462  1
  O  O8  1  0.14442690  0.59600029  0.98111760  1
  O  O9  1  0.14442690  0.90399971  0.98111760  1
  O  O10  1  0.05372854  0.75000000  0.24444997  1
  O  O11  1  0.11395196  0.75000000  0.62082638  1
  O  O12  1  0.11784031  0.10046402  0.55938915  1
  O  O13  1  0.11784031  0.39953598  0.55938915  1
  O  O14  1  0.10528635  0.25000000  0.12362322  1
  O  O15  1  0.85557310  0.40399871  0.01888240  1
  O  O16  1  0.37399263  0.40001654  0.91048393  1
  O  O17  1  0.40274916  0.75000000  0.89087017  1
  O  O18  1  0.35606157  0.59561107  0.52627728  1
  O  O19  1  0.35606157  0.90438893  0.52627728  1
  O  O20  1  0.39259923  0.25000000  0.37831209  1
  O  O21  1  0.44047103  0.75000000  0.26178653  1
  O  O22  1  0.88216069  0.89953598  0.44061185  1
  O  O23  1  0.60740077  0.75000000  0.62168891  1
  O  O24  1  0.64393843  0.09561107  0.47372272  1
  O  O25  1  0.64393843  0.40438893  0.47372272  1
  O  O26  1  0.59725084  0.25000000  0.10912983  1
  O  O27  1  0.62600637  0.59998346  0.08951607  1
  O  O28  1  0.62600637  0.90001654  0.08951607  1
  O  O29  1  0.89471365  0.75000000  0.87637578  1
  O  O30  1  0.88216069  0.60046402  0.44061185  1
  O  O31  1  0.55952897  0.25000000  0.73821347  1
  P  P32  1  0.94696615  0.25000000  -0.00144440  1
  P  P33  1  0.97135697  0.75000000  0.43533977  1
  P  P34  1  0.53315259  0.75000000  0.08154055  1
  P  P35  1  0.55305563  0.25000000  0.49541654  1
  P  P36  1  0.05303385  0.75000000  1.00144540  1
  P  P37  1  0.02864303  0.25000000  0.56466123  1
  P  P38  1  0.44694437  0.75000000  0.50458246  1
  P  P39  1  0.46684741  0.25000000  0.91845845  1
  Mn  Mn40  1  0.24908572  0.56640766  0.75210109  1
  Mn  Mn41  1  0.24908572  0.93359134  0.75210109  1
  Mn  Mn42  1  0.75091428  0.06640866  0.24789891  1
  Mn  Mn43  1  0.75091428  0.43359134  0.24789891  1
