# generated using pymatgen
data_SrTaNO2
_symmetry_space_group_name_H-M   'P 1'
_cell_length_a   5.75652816
_cell_length_b   5.75653072
_cell_length_c   5.75653152
_cell_angle_alpha   88.41765228
_cell_angle_beta   120.91773742
_cell_angle_gamma   120.91777375
_symmetry_Int_Tables_number   1
_chemical_formula_structural   SrTaNO2
_chemical_formula_sum   'Sr2 Ta2 N2 O4'
_cell_volume   132.95995551
_cell_formula_units_Z   2
loop_
 _symmetry_equiv_pos_site_id
 _symmetry_equiv_pos_as_xyz
  1  'x, y, z'
loop_
 _atom_site_type_symbol
 _atom_site_label
 _atom_site_symmetry_multiplicity
 _atom_site_fract_x
 _atom_site_fract_y
 _atom_site_fract_z
 _atom_site_occupancy
  N  N0  1  0.00000138  0.24999859  0.24999919  1
  Ta  Ta1  1  -0.00000029  0.00000315  0.00000300  1
  O  O2  1  0.08914617  0.29457278  0.79457235  1
  O  O3  1  0.50000036  0.79457268  0.70542659  1
  Sr  Sr4  1  0.49999961  0.25000034  0.75000048  1
  O  O5  1  0.91085329  0.70542509  0.20542542  1
  O  O6  1  0.49999975  0.20542576  0.29457160  1
  Sr  Sr7  1  0.50000054  0.75000072  0.25000045  1
  Ta  Ta8  1  0.99999974  0.50000310  0.50000304  1
  N  N9  1  0.99999944  0.74999778  0.74999787  1
