# generated using pymatgen
data_SnHg2(SBr)2
_symmetry_space_group_name_H-M   'P 1'
_cell_length_a   10.27694299
_cell_length_b   10.51031582
_cell_length_c   13.17483826
_cell_angle_alpha   120.54497950
_cell_angle_beta   90.00000000
_cell_angle_gamma   90.00000000
_symmetry_Int_Tables_number   1
_chemical_formula_structural   SnHg2(SBr)2
_chemical_formula_sum   'Sn4 Hg8 S8 Br8'
_cell_volume   1225.58767704
_cell_formula_units_Z   4
loop_
 _symmetry_equiv_pos_site_id
 _symmetry_equiv_pos_as_xyz
  1  'x, y, z'
loop_
 _atom_site_type_symbol
 _atom_site_label
 _atom_site_symmetry_multiplicity
 _atom_site_fract_x
 _atom_site_fract_y
 _atom_site_fract_z
 _atom_site_occupancy
  Sn  Sn0  1  0.87103924  0.14717546  0.98518314  1
  Sn  Sn1  1  0.62896076  0.64717546  0.48518314  1
  Sn  Sn2  1  0.37103924  0.35282454  0.51481686  1
  Sn  Sn3  1  0.12896076  0.85282454  0.01481686  1
  Hg  Hg4  1  0.56668666  0.12437999  0.80882483  1
  Hg  Hg5  1  0.83983007  0.06720222  0.60430128  1
  Hg  Hg6  1  0.33983007  0.43279778  0.89569872  1
  Hg  Hg7  1  0.43331334  0.87562001  0.19117517  1
  Hg  Hg8  1  0.66016993  0.56720222  0.10430128  1
  Hg  Hg9  1  0.93331334  0.62437999  0.30882483  1
  Hg  Hg10  1  0.06668666  0.37562001  0.69117517  1
  Hg  Hg11  1  0.16016993  0.93279778  0.39569872  1
  S  S12  1  0.71031068  0.93732440  0.67366380  1
  S  S13  1  0.78968932  0.43732440  0.17366380  1
  S  S14  1  0.94902363  0.19834300  0.52586840  1
  S  S15  1  0.55097637  0.69834300  0.02586840  1
  S  S16  1  0.21031068  0.56267560  0.82633620  1
  S  S17  1  0.44902363  0.30165700  0.97413160  1
  S  S18  1  0.28968932  0.06267560  0.32633620  1
  S  S19  1  0.05097637  0.80165700  0.47413160  1
  Br  Br20  1  0.02401214  0.21632033  0.85590761  1
  Br  Br21  1  0.97598786  0.78367967  0.14409239  1
  Br  Br22  1  0.52401214  0.28367967  0.64409239  1
  Br  Br23  1  0.05887130  0.17829358  0.13873571  1
  Br  Br24  1  0.55887130  0.32170642  0.36126429  1
  Br  Br25  1  0.94112870  0.82170642  0.86126429  1
  Br  Br26  1  0.44112870  0.67829358  0.63873571  1
  Br  Br27  1  0.47598786  0.71632033  0.35590761  1
