# generated using pymatgen
data_SbAs3(S2F3)2
_symmetry_space_group_name_H-M   'P 1'
_cell_length_a   6.19559795
_cell_length_b   10.11075493
_cell_length_c   20.81000081
_cell_angle_alpha   90.00000000
_cell_angle_beta   90.00000000
_cell_angle_gamma   90.00000000
_symmetry_Int_Tables_number   1
_chemical_formula_structural   SbAs3(S2F3)2
_chemical_formula_sum   'Sb4 As12 S16 F24'
_cell_volume   1303.58366082
_cell_formula_units_Z   4
loop_
 _symmetry_equiv_pos_site_id
 _symmetry_equiv_pos_as_xyz
  1  'x, y, z'
loop_
 _atom_site_type_symbol
 _atom_site_label
 _atom_site_symmetry_multiplicity
 _atom_site_fract_x
 _atom_site_fract_y
 _atom_site_fract_z
 _atom_site_occupancy
  Sb  Sb0  1  0.49080047  0.25000000  0.33711574  1
  Sb  Sb1  1  0.50919953  0.25000000  0.83711574  1
  Sb  Sb2  1  0.50919953  0.75000000  0.66288426  1
  Sb  Sb3  1  0.49080047  0.75000000  0.16288426  1
  As  As4  1  0.94144039  0.75000000  0.48967707  1
  As  As5  1  0.00518303  0.62479400  0.82897833  1
  As  As6  1  0.05855961  0.75000000  0.98967707  1
  As  As7  1  0.99481697  0.12479400  0.17102167  1
  As  As8  1  0.94144039  0.25000000  0.01032293  1
  As  As9  1  0.00518303  0.87520600  0.82897833  1
  As  As10  1  0.99481697  0.62479400  0.32897833  1
  As  As11  1  0.99481697  0.87520600  0.32897833  1
  As  As12  1  0.99481697  0.37520600  0.17102167  1
  As  As13  1  0.00518303  0.12479400  0.67102167  1
  As  As14  1  0.05855961  0.25000000  0.51032293  1
  As  As15  1  0.00518303  0.37520600  0.67102167  1
  S  S16  1  0.69703716  0.75000000  0.86571110  1
  S  S17  1  0.69658913  0.25000000  0.53750470  1
  S  S18  1  0.85562518  0.07892274  0.07607444  1
  S  S19  1  0.85562518  0.42107726  0.07607444  1
  S  S20  1  0.85562518  0.57892274  0.42392556  1
  S  S21  1  0.14437482  0.92107726  0.92392556  1
  S  S22  1  0.30341087  0.25000000  0.03750470  1
  S  S23  1  0.14437482  0.07892274  0.57607444  1
  S  S24  1  0.14437482  0.42107726  0.57607444  1
  S  S25  1  0.30296284  0.75000000  0.36571110  1
  S  S26  1  0.30341087  0.75000000  0.46249530  1
  S  S27  1  0.69658913  0.75000000  0.96249530  1
  S  S28  1  0.30296284  0.25000000  0.13428890  1
  S  S29  1  0.14437482  0.57892274  0.92392556  1
  S  S30  1  0.85562518  0.92107726  0.42392556  1
  S  S31  1  0.69703716  0.25000000  0.63428890  1
  F  F32  1  0.34783017  0.38457569  0.38639166  1
  F  F33  1  0.72794585  0.25000000  0.39704492  1
  F  F34  1  0.63350226  0.61669093  0.21296967  1
  F  F35  1  0.25195906  0.75000000  0.22341777  1
  F  F36  1  0.27205415  0.75000000  0.60295508  1
  F  F37  1  0.74804094  0.75000000  0.72341777  1
  F  F38  1  0.65216983  0.88457569  0.61360834  1
  F  F39  1  0.65216983  0.11542431  0.88639166  1
  F  F40  1  0.36649774  0.38330907  0.78703033  1
  F  F41  1  0.65216983  0.38457569  0.88639166  1
  F  F42  1  0.36649774  0.88330907  0.71296967  1
  F  F43  1  0.63350226  0.88330907  0.21296967  1
  F  F44  1  0.36649774  0.61669093  0.71296967  1
  F  F45  1  0.25195906  0.25000000  0.27658223  1
  F  F46  1  0.63350226  0.11669093  0.28703033  1
  F  F47  1  0.63350226  0.38330907  0.28703033  1
  F  F48  1  0.36649774  0.11669093  0.78703033  1
  F  F49  1  0.65216983  0.61542431  0.61360834  1
  F  F50  1  0.34783017  0.61542431  0.11360834  1
  F  F51  1  0.27205415  0.25000000  0.89704492  1
  F  F52  1  0.34783017  0.88457569  0.11360834  1
  F  F53  1  0.74804094  0.25000000  0.77658223  1
  F  F54  1  0.72794585  0.75000000  0.10295508  1
  F  F55  1  0.34783017  0.11542431  0.38639166  1
