# generated using pymatgen
data_Li2CrCl4
_symmetry_space_group_name_H-M   'P 1'
_cell_length_a   3.79776790
_cell_length_b   6.30811492
_cell_length_c   6.30811547
_cell_angle_alpha   107.19521346
_cell_angle_beta   93.24583302
_cell_angle_gamma   93.24584684
_symmetry_Int_Tables_number   1
_chemical_formula_structural   Li2CrCl4
_chemical_formula_sum   'Li2 Cr1 Cl4'
_cell_volume   143.70872389
_cell_formula_units_Z   1
loop_
 _symmetry_equiv_pos_site_id
 _symmetry_equiv_pos_as_xyz
  1  'x, y, z'
loop_
 _atom_site_type_symbol
 _atom_site_label
 _atom_site_symmetry_multiplicity
 _atom_site_fract_x
 _atom_site_fract_y
 _atom_site_fract_z
 _atom_site_occupancy
  Li  Li0  1  0.50000000  0.00000000  0.50000000  1
  Li  Li1  1  0.50000000  0.50000000  -0.00000000  1
  Cr  Cr2  1  0.00000000  0.00000000  -0.00000000  1
  Cl  Cl3  1  0.53573683  0.75822750  0.75822750  1
  Cl  Cl4  1  0.00000000  0.76323072  0.23676928  1
  Cl  Cl5  1  0.46426317  0.24177250  0.24177250  1
  Cl  Cl6  1  1.00000000  0.23676928  0.76323072  1
