# generated using pymatgen
data_Pr9O16
_symmetry_space_group_name_H-M   'P 1'
_cell_length_a   6.88355093
_cell_length_b   7.01136388
_cell_length_c   9.14782761
_cell_angle_alpha   74.04455278
_cell_angle_beta   80.83499052
_cell_angle_gamma   81.39419604
_symmetry_Int_Tables_number   1
_chemical_formula_structural   Pr9O16
_chemical_formula_sum   'Pr9 O16'
_cell_volume   416.46064311
_cell_formula_units_Z   1
loop_
 _symmetry_equiv_pos_site_id
 _symmetry_equiv_pos_as_xyz
  1  'x, y, z'
loop_
 _atom_site_type_symbol
 _atom_site_label
 _atom_site_symmetry_multiplicity
 _atom_site_fract_x
 _atom_site_fract_y
 _atom_site_fract_z
 _atom_site_occupancy
  Pr  Pr0  1  0.67186050  0.30920593  0.67192629  1
  Pr  Pr1  1  0.32813950  0.69079407  0.32807371  1
  Pr  Pr2  1  0.40869820  0.23839140  0.10089699  1
  Pr  Pr3  1  0.22996932  0.12438432  0.52691108  1
  Pr  Pr4  1  0.00000000  0.00000000  0.00000000  1
  Pr  Pr5  1  0.10724510  0.52134237  0.77301798  1
  Pr  Pr6  1  0.89275490  0.47865763  0.22698202  1
  Pr  Pr7  1  0.59130180  0.76160860  0.89910301  1
  Pr  Pr8  1  0.77003068  0.87561568  0.47308892  1
  O  O9  1  0.07079356  0.29559769  0.04475075  1
  O  O10  1  0.77927265  0.61188316  0.70242353  1
  O  O11  1  0.52770873  0.00530625  0.66320369  1
  O  O12  1  0.64654823  0.58108314  0.42885861  1
  O  O13  1  0.92920644  0.70440231  0.95524925  1
  O  O14  1  0.12423626  0.80557354  0.54599753  1
  O  O15  1  0.35345177  0.41891686  0.57114139  1
  O  O16  1  0.97431621  0.78677434  0.25686223  1
  O  O17  1  0.66805484  0.08753729  0.94011148  1
  O  O18  1  0.22072735  0.38811684  0.29757647  1
  O  O19  1  0.02568379  0.21322566  0.74313777  1
  O  O20  1  0.42374073  0.49672723  0.85811939  1
  O  O21  1  0.47229127  0.99469375  0.33679631  1
  O  O22  1  0.57625927  0.50327277  0.14188061  1
  O  O23  1  0.87576374  0.19442646  0.45400247  1
  O  O24  1  0.33194516  0.91246271  0.05988852  1
