# generated using pymatgen
data_H3CS
_symmetry_space_group_name_H-M   'P 1'
_cell_length_a   5.36854078
_cell_length_b   7.00677340
_cell_length_c   15.29296660
_cell_angle_alpha   90.00000000
_cell_angle_beta   90.00000000
_cell_angle_gamma   107.22783417
_symmetry_Int_Tables_number   1
_chemical_formula_structural   H3CS
_chemical_formula_sum   'H24 C8 S8'
_cell_volume   549.45312051
_cell_formula_units_Z   8
loop_
 _symmetry_equiv_pos_site_id
 _symmetry_equiv_pos_as_xyz
  1  'x, y, z'
loop_
 _atom_site_type_symbol
 _atom_site_label
 _atom_site_symmetry_multiplicity
 _atom_site_fract_x
 _atom_site_fract_y
 _atom_site_fract_z
 _atom_site_occupancy
  H  H0  1  0.53601792  0.45292400  0.28187499  1
  H  H1  1  0.67296607  0.56883264  0.38250588  1
  H  H2  1  0.28428352  0.66591200  0.64744692  1
  H  H3  1  0.53601792  0.95292400  0.21812501  1
  H  H4  1  0.47596555  0.42306165  0.10887749  1
  H  H5  1  0.79299175  0.65247403  0.96658486  1
  H  H6  1  0.46398208  0.04707600  0.78187499  1
  H  H7  1  0.47596555  0.92306165  0.39112251  1
  H  H8  1  0.67296607  0.06883264  0.11749412  1
  H  H9  1  0.20700825  0.34752597  0.03341514  1
  H  H10  1  0.32703393  0.93116736  0.88250588  1
  H  H11  1  0.20700825  0.84752597  0.46658486  1
  H  H12  1  0.32703393  0.43116736  0.61749412  1
  H  H13  1  0.79299175  0.15247403  0.53341514  1
  H  H14  1  0.52403445  0.57693835  0.89112251  1
  H  H15  1  0.46398208  0.54707600  0.71812501  1
  H  H16  1  0.81366253  0.26909899  0.63867394  1
  H  H17  1  0.81366253  0.76909899  0.86132606  1
  H  H18  1  0.18633747  0.73090101  0.36132606  1
  H  H19  1  0.71571648  0.33408800  0.35255308  1
  H  H20  1  0.52403445  0.07693835  0.60887749  1
  H  H21  1  0.71571648  0.83408800  0.14744692  1
  H  H22  1  0.18633747  0.23090101  0.13867394  1
  H  H23  1  0.28428352  0.16591200  0.85255308  1
  C  C24  1  0.41850258  0.57457979  0.65031216  1
  C  C25  1  0.73719163  0.62821485  0.89762662  1
  C  C26  1  0.41850258  0.07457979  0.84968784  1
  C  C27  1  0.26280837  0.37178515  0.10237338  1
  C  C28  1  0.58149742  0.42542021  0.34968784  1
  C  C29  1  0.73719163  0.12821485  0.60237338  1
  C  C30  1  0.26280837  0.87178515  0.39762662  1
  C  C31  1  0.58149742  0.92542021  0.15031216  1
  S  S32  1  0.71543328  0.18864840  0.91088253  1
  S  S33  1  0.88335762  0.95168678  0.65239395  1
  S  S34  1  0.28456672  0.31135160  0.41088253  1
  S  S35  1  0.11664238  0.04831322  0.34760605  1
  S  S36  1  0.11664238  0.54831322  0.15239395  1
  S  S37  1  0.88335762  0.45168678  0.84760605  1
  S  S38  1  0.71543328  0.68864840  0.58911747  1
  S  S39  1  0.28456672  0.81135160  0.08911747  1
