# generated using pymatgen
data_GdH7C2SO8
_symmetry_space_group_name_H-M   'P 1'
_cell_length_a   6.79163296
_cell_length_b   7.00512594
_cell_length_c   8.77935017
_cell_angle_alpha   110.29965286
_cell_angle_beta   89.90719450
_cell_angle_gamma   107.85774179
_symmetry_Int_Tables_number   1
_chemical_formula_structural   GdH7C2SO8
_chemical_formula_sum   'Gd2 H14 C4 S2 O16'
_cell_volume   370.29553082
_cell_formula_units_Z   2
loop_
 _symmetry_equiv_pos_site_id
 _symmetry_equiv_pos_as_xyz
  1  'x, y, z'
loop_
 _atom_site_type_symbol
 _atom_site_label
 _atom_site_symmetry_multiplicity
 _atom_site_fract_x
 _atom_site_fract_y
 _atom_site_fract_z
 _atom_site_occupancy
  Gd  Gd0  1  0.88245702  0.64834783  0.87090205  1
  Gd  Gd1  1  0.11754298  0.35165217  0.12909795  1
  H  H2  1  0.41520599  0.14096206  0.33067548  1
  H  H3  1  0.89514021  0.80067530  0.57420375  1
  H  H4  1  0.42649376  0.93117795  0.82291640  1
  H  H5  1  0.07894780  0.98278148  0.70943782  1
  H  H6  1  0.51560388  0.09599806  0.70384253  1
  H  H7  1  0.60886654  0.33873954  0.55612924  1
  H  H8  1  0.48439612  0.90400194  0.29615747  1
  H  H9  1  0.10485979  0.19932470  0.42579625  1
  H  H10  1  0.57350624  0.06882205  0.17708360  1
  H  H11  1  0.92105220  0.01721852  0.29056218  1
  H  H12  1  0.16918614  0.67118189  0.49931905  1
  H  H13  1  0.83081386  0.32881811  0.50068095  1
  H  H14  1  0.58479401  0.85903794  0.66932452  1
  H  H15  1  0.39113346  0.66126046  0.44387076  1
  C  C16  1  0.25485723  0.87891485  0.11728483  1
  C  C17  1  0.44368079  0.00344772  0.23831527  1
  C  C18  1  0.55631921  0.99655228  0.76168473  1
  C  C19  1  0.74514277  0.12108515  0.88271517  1
  S  S20  1  0.69626889  0.58793315  0.24896665  1
  S  S21  1  0.30373111  0.41206685  0.75103335  1
  O  O22  1  0.21852343  0.27231236  0.84815743  1
  O  O23  1  0.78147657  0.72768764  0.15184257  1
  O  O24  1  0.24161210  0.61224451  0.40633271  1
  O  O25  1  0.17435928  0.97261453  0.04443151  1
  O  O26  1  0.83047536  0.32283866  0.91716764  1
  O  O27  1  0.83157567  0.45748748  0.25091408  1
  O  O28  1  0.16842433  0.54251252  0.74908592  1
  O  O29  1  0.75838790  0.38775549  0.59366729  1
  O  O30  1  0.31149288  0.27221774  0.58053486  1
  O  O31  1  0.16952464  0.67716134  0.08283236  1
  O  O32  1  0.68850712  0.72778226  0.41946514  1
  O  O33  1  0.99631648  0.17386437  0.33799317  1
  O  O34  1  0.82564072  0.02738547  0.95556849  1
  O  O35  1  0.51845900  0.55754785  0.82541185  1
  O  O36  1  0.00368352  0.82613563  0.66200683  1
  O  O37  1  0.48154100  0.44245215  0.17458815  1
