# generated using pymatgen
data_Li3Ni2OF5
_symmetry_space_group_name_H-M   'P 1'
_cell_length_a   5.11508095
_cell_length_b   5.11574982
_cell_length_c   9.27527969
_cell_angle_alpha   100.67976103
_cell_angle_beta   79.33028491
_cell_angle_gamma   70.50346921
_symmetry_Int_Tables_number   1
_chemical_formula_structural   Li3Ni2OF5
_chemical_formula_sum   'Li6 Ni4 O2 F10'
_cell_volume   216.69119282
_cell_formula_units_Z   2
loop_
 _symmetry_equiv_pos_site_id
 _symmetry_equiv_pos_as_xyz
  1  'x, y, z'
loop_
 _atom_site_type_symbol
 _atom_site_label
 _atom_site_symmetry_multiplicity
 _atom_site_fract_x
 _atom_site_fract_y
 _atom_site_fract_z
 _atom_site_occupancy
  Li  Li0  1  0.86561963  0.38497544  0.27035651  1
  Li  Li1  1  0.46118302  0.28891646  0.07609412  1
  Li  Li2  1  0.21841294  0.03203667  0.56288314  1
  Li  Li3  1  0.79174509  0.95822020  0.41662621  1
  Li  Li4  1  0.12198653  0.62794436  0.75721341  1
  Li  Li5  1  0.54163337  0.70827713  0.91662237  1
  Ni  Ni6  1  0.96300636  0.78701204  0.07289634  1
  Ni  Ni7  1  0.29230409  0.45869111  0.41669231  1
  Ni  Ni8  1  0.62020014  0.12981487  0.76042225  1
  Ni  Ni9  1  0.04172748  0.20839513  0.91676670  1
  O  O10  1  0.28304649  0.44987414  0.91667210  1
  O  O11  1  0.80020837  0.96698705  0.91667339  1
  F  F12  1  0.64167402  0.13995350  0.25458748  1
  F  F13  1  0.20210292  0.04146453  0.08225691  1
  F  F14  1  0.71433471  0.54201463  0.08222196  1
  F  F15  1  0.97329852  0.80828645  0.57873672  1
  F  F16  1  0.52805779  0.69454720  0.41664770  1
  F  F17  1  0.09989037  0.61716007  0.25357065  1
  F  F18  1  0.45054464  0.26637706  0.57976098  1
  F  F19  1  0.05587556  0.22241207  0.41663983  1
  F  F20  1  0.87463650  0.36881471  0.75118951  1
  F  F21  1  0.37517847  0.88116020  0.75113738  1
