# generated using pymatgen
data_BaH4(CO3)2
_symmetry_space_group_name_H-M   'P 1'
_cell_length_a   7.18769486
_cell_length_b   7.56195134
_cell_length_c   11.16918761
_cell_angle_alpha   90.00000000
_cell_angle_beta   90.00000000
_cell_angle_gamma   104.97226273
_symmetry_Int_Tables_number   1
_chemical_formula_structural   BaH4(CO3)2
_chemical_formula_sum   'Ba4 H16 C8 O24'
_cell_volume   586.46912599
_cell_formula_units_Z   4
loop_
 _symmetry_equiv_pos_site_id
 _symmetry_equiv_pos_as_xyz
  1  'x, y, z'
loop_
 _atom_site_type_symbol
 _atom_site_label
 _atom_site_symmetry_multiplicity
 _atom_site_fract_x
 _atom_site_fract_y
 _atom_site_fract_z
 _atom_site_occupancy
  Ba  Ba0  1  0.20790017  0.80183755  0.99042461  1
  Ba  Ba1  1  0.29209983  0.19816245  0.49042461  1
  Ba  Ba2  1  0.70790017  0.80183755  0.50957539  1
  Ba  Ba3  1  0.79209983  0.19816245  0.00957539  1
  H  H4  1  0.77648301  0.36395538  0.52708077  1
  H  H5  1  0.22351699  0.63604462  0.47291923  1
  H  H6  1  0.26013762  0.59617232  0.60668100  1
  H  H7  1  0.27648301  0.36395538  0.97291923  1
  H  H8  1  0.23986238  0.40382768  0.10668100  1
  H  H9  1  0.73986238  0.40382768  0.39331900  1
  H  H10  1  0.03740953  0.54122632  0.75436612  1
  H  H11  1  0.46259047  0.45877368  0.25436612  1
  H  H12  1  0.76013762  0.59617232  0.89331900  1
  H  H13  1  0.72351699  0.63604462  0.02708077  1
  H  H14  1  0.59702346  0.75184436  0.78513157  1
  H  H15  1  0.53740953  0.54122632  0.74563388  1
  H  H16  1  0.09702346  0.75184436  0.71486843  1
  H  H17  1  0.40297654  0.24815564  0.21486843  1
  H  H18  1  0.96259047  0.45877368  0.24563388  1
  H  H19  1  0.90297654  0.24815564  0.28513157  1
  C  C20  1  0.50786334  0.95881910  0.24708082  1
  C  C21  1  0.92837211  0.21275136  0.70145115  1
  C  C22  1  0.00786334  0.95881910  0.25291918  1
  C  C23  1  0.99213666  0.04118090  0.74708082  1
  C  C24  1  0.42837211  0.21275136  0.79854885  1
  C  C25  1  0.57162789  0.78724864  0.20145115  1
  C  C26  1  0.49213666  0.04118090  0.75291918  1
  C  C27  1  0.07162789  0.78724864  0.29854885  1
  O  O28  1  0.85168479  0.34942486  0.25200101  1
  O  O29  1  0.35168479  0.34942486  0.24799899  1
  O  O30  1  0.49806491  0.01492977  0.64155796  1
  O  O31  1  0.00193509  0.98507023  0.14155796  1
  O  O32  1  0.50193509  0.98507023  0.35844204  1
  O  O33  1  0.80735082  0.58115103  0.97550720  1
  O  O34  1  0.92902154  0.23490859  0.58886989  1
  O  O35  1  0.53640256  0.94116482  0.83473994  1
  O  O36  1  0.38316505  0.31605414  0.72067213  1
  O  O37  1  0.99806491  0.01492977  0.85844204  1
  O  O38  1  0.61683495  0.68394586  0.27932787  1
  O  O39  1  0.46359744  0.05883518  0.16526006  1
  O  O40  1  0.11683495  0.68394586  0.22067213  1
  O  O41  1  0.19264918  0.41884897  0.02449280  1
  O  O42  1  0.30735082  0.58115103  0.52449280  1
  O  O43  1  0.14831521  0.65057514  0.74799899  1
  O  O44  1  0.69264918  0.41884897  0.47550720  1
  O  O45  1  0.57097846  0.76509141  0.08886989  1
  O  O46  1  0.96359744  0.05883518  0.33473994  1
  O  O47  1  0.42902154  0.23490859  0.91113011  1
  O  O48  1  0.88316505  0.31605414  0.77932787  1
  O  O49  1  0.07097846  0.76509141  0.41113011  1
  O  O50  1  0.03640256  0.94116482  0.66526006  1
  O  O51  1  0.64831521  0.65057514  0.75200101  1
