# generated using pymatgen
data_Nb2O5
_symmetry_space_group_name_H-M   'P 1'
_cell_length_a   3.85703265
_cell_length_b   14.81483730
_cell_length_c   14.81483694
_cell_angle_alpha   89.02905167
_cell_angle_beta   82.52031782
_cell_angle_gamma   82.52031499
_symmetry_Int_Tables_number   1
_chemical_formula_structural   Nb2O5
_chemical_formula_sum   'Nb16 O40'
_cell_volume   832.19423267
_cell_formula_units_Z   8
loop_
 _symmetry_equiv_pos_site_id
 _symmetry_equiv_pos_as_xyz
  1  'x, y, z'
loop_
 _atom_site_type_symbol
 _atom_site_label
 _atom_site_symmetry_multiplicity
 _atom_site_fract_x
 _atom_site_fract_y
 _atom_site_fract_z
 _atom_site_occupancy
  Nb  Nb0  1  0.26611906  0.59874721  0.86901467  1
  Nb  Nb1  1  1.00000000  0.86875116  0.13124884  1
  Nb  Nb2  1  0.00000000  0.40025666  0.59974334  1
  Nb  Nb3  1  0.40025666  0.59974334  0.59974334  1
  Nb  Nb4  1  0.86486627  0.86901467  0.40125279  1
  Nb  Nb5  1  0.59974334  0.40025666  0.40025666  1
  Nb  Nb6  1  0.13513373  0.13098533  0.59874721  1
  Nb  Nb7  1  0.13124884  0.86875116  0.86875116  1
  Nb  Nb8  1  0.00000000  0.13124884  0.86875116  1
  Nb  Nb9  1  0.86875116  0.13124884  0.13124884  1
  Nb  Nb10  1  0.86486627  0.40125279  0.86901467  1
  Nb  Nb11  1  1.00000000  0.59974334  0.40025666  1
  Nb  Nb12  1  0.73388094  0.13098533  0.40125279  1
  Nb  Nb13  1  0.73388094  0.40125279  0.13098533  1
  Nb  Nb14  1  0.26611906  0.86901467  0.59874721  1
  Nb  Nb15  1  0.13513373  0.59874721  0.13098533  1
  O  O16  1  0.06978477  0.72122272  0.13920774  1
  O  O17  1  0.20630980  0.00000000  0.58738041  1
  O  O18  1  0.93021523  0.27877728  0.86079226  1
  O  O19  1  0.35159408  0.43798159  0.85883025  1
  O  O20  1  0.79369020  0.00000000  0.41261959  1
  O  O21  1  0.79100749  0.27877728  0.13920774  1
  O  O22  1  0.20899251  0.72122272  0.86079226  1
  O  O23  1  0.78957567  0.56201841  0.85883025  1
  O  O24  1  0.21042433  0.14116975  0.43798159  1
  O  O25  1  0.93066370  0.13867259  0.00000000  1
  O  O26  1  0.50000000  0.14470906  0.85529094  1
  O  O27  1  0.06933630  0.00000000  0.86132741  1
  O  O28  1  0.93165308  0.41513198  0.72156186  1
  O  O29  1  0.50000000  0.56671432  0.43328568  1
  O  O30  1  0.20630980  0.58738041  0.00000000  1
  O  O31  1  0.93066370  0.00000000  0.13867259  1
  O  O32  1  0.50000000  0.85529094  0.14470906  1
  O  O33  1  0.93165308  0.72156186  0.41513198  1
  O  O34  1  0.64840592  0.14116975  0.56201841  1
  O  O35  1  0.78957567  0.85883025  0.56201841  1
  O  O36  1  0.64470906  0.85529094  0.85529094  1
  O  O37  1  0.34678506  0.58486802  0.72156186  1
  O  O38  1  0.06834692  0.58486802  0.27843814  1
  O  O39  1  0.65321494  0.41513198  0.27843814  1
  O  O40  1  0.93328568  0.56671432  0.56671432  1
  O  O41  1  0.06834692  0.27843814  0.58486802  1
  O  O42  1  0.06933630  0.86132741  0.00000000  1
  O  O43  1  0.93021523  0.86079226  0.27877728  1
  O  O44  1  0.35159408  0.85883025  0.43798159  1
  O  O45  1  0.79100749  0.13920774  0.27877728  1
  O  O46  1  0.50000000  0.43328568  0.56671432  1
  O  O47  1  0.06978477  0.13920774  0.72122272  1
  O  O48  1  0.65321494  0.27843814  0.41513198  1
  O  O49  1  0.79369020  0.41261959  0.00000000  1
  O  O50  1  0.21042433  0.43798159  0.14116975  1
  O  O51  1  0.06671432  0.43328568  0.43328568  1
  O  O52  1  0.20899251  0.86079226  0.72122272  1
  O  O53  1  0.34678506  0.72156186  0.58486802  1
  O  O54  1  0.64840592  0.56201841  0.14116975  1
  O  O55  1  0.35529094  0.14470906  0.14470906  1
