# generated using pymatgen
data_Y2O3
_symmetry_space_group_name_H-M   'P 1'
_cell_length_a   3.51599795
_cell_length_b   7.27694679
_cell_length_c   8.69533653
_cell_angle_alpha   100.10066967
_cell_angle_beta   90.00000000
_cell_angle_gamma   103.98008930
_symmetry_Int_Tables_number   1
_chemical_formula_structural   Y2O3
_chemical_formula_sum   'Y6 O9'
_cell_volume   212.33159697
_cell_formula_units_Z   3
loop_
 _symmetry_equiv_pos_site_id
 _symmetry_equiv_pos_as_xyz
  1  'x, y, z'
loop_
 _atom_site_type_symbol
 _atom_site_label
 _atom_site_symmetry_multiplicity
 _atom_site_fract_x
 _atom_site_fract_y
 _atom_site_fract_z
 _atom_site_occupancy
  Y  Y0  1  0.63517486  0.27034972  0.48803871  1
  Y  Y1  1  0.36482514  0.72965028  0.51196129  1
  Y  Y2  1  0.03201438  0.06402875  0.81404801  1
  Y  Y3  1  0.69136440  0.38272881  0.13732777  1
  Y  Y4  1  0.30863560  0.61727119  0.86267223  1
  Y  Y5  1  0.96798562  0.93597125  0.18595199  1
  O  O6  1  0.12799597  0.25599194  0.28177158  1
  O  O7  1  0.82553212  0.65106424  0.03051723  1
  O  O8  1  0.79330768  0.58661537  0.37737007  1
  O  O9  1  0.47096311  0.94192622  0.34285588  1
  O  O10  1  0.52903689  0.05807378  0.65714412  1
  O  O11  1  0.50000000  0.00000000  0.00000000  1
  O  O12  1  0.17446788  0.34893576  0.96948277  1
  O  O13  1  0.20669232  0.41338463  0.62262993  1
  O  O14  1  0.87200403  0.74400806  0.71822842  1
