# generated using pymatgen
data_U6Mn
_symmetry_space_group_name_H-M   'P 1'
_cell_length_a   5.29465270
_cell_length_b   7.64101306
_cell_length_c   7.64101284
_cell_angle_alpha   83.10579530
_cell_angle_beta   69.72888880
_cell_angle_gamma   69.72888735
_symmetry_Int_Tables_number   1
_chemical_formula_structural   U6Mn
_chemical_formula_sum   'U12 Mn2'
_cell_volume   272.02201015
_cell_formula_units_Z   2
loop_
 _symmetry_equiv_pos_site_id
 _symmetry_equiv_pos_as_xyz
  1  'x, y, z'
loop_
 _atom_site_type_symbol
 _atom_site_label
 _atom_site_symmetry_multiplicity
 _atom_site_fract_x
 _atom_site_fract_y
 _atom_site_fract_z
 _atom_site_occupancy
  U  U0  1  0.09847767  0.68297561  0.12006905  1
  U  U1  1  0.90152233  0.31702439  0.87993095  1
  U  U2  1  0.09339887  0.31320225  0.50000000  1
  U  U3  1  0.59339887  0.50000000  0.31320225  1
  U  U4  1  0.59847767  0.12006905  0.68297561  1
  U  U5  1  0.28145328  0.31702439  0.12006905  1
  U  U6  1  0.78145328  0.12006905  0.31702439  1
  U  U7  1  0.90660113  0.68679775  0.50000000  1
  U  U8  1  0.40152233  0.87993095  0.31702439  1
  U  U9  1  0.21854672  0.87993095  0.68297561  1
  U  U10  1  0.40660113  0.50000000  0.68679775  1
  U  U11  1  0.71854672  0.68297561  0.87993095  1
  Mn  Mn12  1  0.25000000  0.00000000  0.00000000  1
  Mn  Mn13  1  0.75000000  0.00000000  0.00000000  1
