# generated using pymatgen
data_Si2Ni7P5
_symmetry_space_group_name_H-M   'P 1'
_cell_length_a   4.91350582
_cell_length_b   5.92284904
_cell_length_c   23.93746098
_cell_angle_alpha   90.00000000
_cell_angle_beta   90.00000000
_cell_angle_gamma   90.00000000
_symmetry_Int_Tables_number   1
_chemical_formula_structural   Si2Ni7P5
_chemical_formula_sum   'Si8 Ni28 P20'
_cell_volume   696.62686986
_cell_formula_units_Z   4
loop_
 _symmetry_equiv_pos_site_id
 _symmetry_equiv_pos_as_xyz
  1  'x, y, z'
loop_
 _atom_site_type_symbol
 _atom_site_label
 _atom_site_symmetry_multiplicity
 _atom_site_fract_x
 _atom_site_fract_y
 _atom_site_fract_z
 _atom_site_occupancy
  Si  Si0  1  0.21947680  0.15927070  0.21701647  1
  Si  Si1  1  0.78052320  0.34072930  0.71701647  1
  Si  Si2  1  0.28052320  0.15927070  0.78298353  1
  Si  Si3  1  0.78052320  0.84072930  0.78298353  1
  Si  Si4  1  0.28052320  0.65927070  0.71701647  1
  Si  Si5  1  0.71947680  0.84072930  0.21701647  1
  Si  Si6  1  0.21947680  0.65927070  0.28298353  1
  Si  Si7  1  0.71947680  0.34072930  0.28298353  1
  Ni  Ni8  1  0.99357137  0.44943430  0.36016061  1
  Ni  Ni9  1  0.50093308  0.46611718  0.20570740  1
  Ni  Ni10  1  0.00642863  0.55056570  0.63983939  1
  Ni  Ni11  1  0.50135273  0.45763529  0.07376988  1
  Ni  Ni12  1  0.50135273  0.95763529  0.42623012  1
  Ni  Ni13  1  0.49906692  0.53388282  0.79429260  1
  Ni  Ni14  1  0.50093308  0.96611718  0.29429260  1
  Ni  Ni15  1  0.99864727  0.45763529  0.92623012  1
  Ni  Ni16  1  0.00642863  0.05056570  0.86016061  1
  Ni  Ni17  1  0.00135273  0.04236471  0.42623012  1
  Ni  Ni18  1  0.49357137  0.05056570  0.13983939  1
  Ni  Ni19  1  0.99906692  0.96611718  0.70570740  1
  Ni  Ni20  1  0.99906692  0.46611718  0.79429260  1
  Ni  Ni21  1  0.99864727  0.95763529  0.57376988  1
  Ni  Ni22  1  0.00093308  0.53388282  0.20570740  1
  Ni  Ni23  1  0.49864727  0.54236471  0.92623012  1
  Ni  Ni24  1  0.49357137  0.55056570  0.36016061  1
  Ni  Ni25  1  0.50642863  0.94943430  0.86016061  1
  Ni  Ni26  1  0.00000000  0.50000000  0.50000000  1
  Ni  Ni27  1  0.99357137  0.94943430  0.13983939  1
  Ni  Ni28  1  0.49864727  0.04236471  0.57376988  1
  Ni  Ni29  1  0.00093308  0.03388282  0.29429260  1
  Ni  Ni30  1  0.50642863  0.44943430  0.63983939  1
  Ni  Ni31  1  0.49906692  0.03388282  0.70570740  1
  Ni  Ni32  1  0.50000000  0.00000000  0.00000000  1
  Ni  Ni33  1  0.00135273  0.54236471  0.07376988  1
  Ni  Ni34  1  0.00000000  0.00000000  0.00000000  1
  Ni  Ni35  1  0.50000000  0.50000000  0.50000000  1
  P  P36  1  0.31240305  0.68532259  0.14215947  1
  P  P37  1  0.69236040  0.82293554  0.07223346  1
  P  P38  1  0.19236040  0.17706446  0.07223346  1
  P  P39  1  0.81240305  0.31467741  0.14215947  1
  P  P40  1  0.25000000  0.16862846  0.50000000  1
  P  P41  1  0.75000000  0.83137154  0.50000000  1
  P  P42  1  0.31240305  0.18532259  0.35784053  1
  P  P43  1  0.25000000  0.66862846  0.00000000  1
  P  P44  1  0.68759695  0.81467741  0.64215947  1
  P  P45  1  0.81240305  0.81467741  0.35784053  1
  P  P46  1  0.80763960  0.32293554  0.57223346  1
  P  P47  1  0.19236040  0.67706446  0.42776654  1
  P  P48  1  0.68759695  0.31467741  0.85784053  1
  P  P49  1  0.69236040  0.32293554  0.42776654  1
  P  P50  1  0.30763960  0.17706446  0.92776654  1
  P  P51  1  0.18759695  0.68532259  0.85784053  1
  P  P52  1  0.75000000  0.33137154  0.00000000  1
  P  P53  1  0.80763960  0.82293554  0.92776654  1
  P  P54  1  0.18759695  0.18532259  0.64215947  1
  P  P55  1  0.30763960  0.67706446  0.57223346  1
