# generated using pymatgen
data_SbI3
_symmetry_space_group_name_H-M   'P 1'
_cell_length_a   7.91228180
_cell_length_b   8.87491988
_cell_length_c   11.71589501
_cell_angle_alpha   90.00000000
_cell_angle_beta   90.00000000
_cell_angle_gamma   109.36587584
_symmetry_Int_Tables_number   1
_chemical_formula_structural   SbI3
_chemical_formula_sum   'Sb4 I12'
_cell_volume   776.15218459
_cell_formula_units_Z   4
loop_
 _symmetry_equiv_pos_site_id
 _symmetry_equiv_pos_as_xyz
  1  'x, y, z'
loop_
 _atom_site_type_symbol
 _atom_site_label
 _atom_site_symmetry_multiplicity
 _atom_site_fract_x
 _atom_site_fract_y
 _atom_site_fract_z
 _atom_site_occupancy
  Sb  Sb0  1  0.04764855  0.67601314  0.66211558  1
  Sb  Sb1  1  0.04764855  0.17601314  0.83788442  1
  Sb  Sb2  1  0.95235145  0.82398686  0.16211558  1
  Sb  Sb3  1  0.95235145  0.32398686  0.33788442  1
  I  I4  1  0.21178957  0.69643368  0.44629536  1
  I  I5  1  0.31714948  0.45285048  0.75277488  1
  I  I6  1  0.31714948  0.95285048  0.74722512  1
  I  I7  1  0.79332238  0.32008241  0.89816092  1
  I  I8  1  0.20667762  0.67991759  0.10183908  1
  I  I9  1  0.79332238  0.82008241  0.60183908  1
  I  I10  1  0.78821043  0.30356632  0.55370464  1
  I  I11  1  0.21178957  0.19643368  0.05370464  1
  I  I12  1  0.78821043  0.80356632  0.94629536  1
  I  I13  1  0.20667762  0.17991759  0.39816092  1
  I  I14  1  0.68285052  0.04714952  0.25277488  1
  I  I15  1  0.68285052  0.54714952  0.24722512  1
