# generated using pymatgen
data_H8C2NCl
_symmetry_space_group_name_H-M   'P 1'
_cell_length_a   4.62436474
_cell_length_b   6.04354277
_cell_length_c   8.37431548
_cell_angle_alpha   90.00000000
_cell_angle_beta   93.73342310
_cell_angle_gamma   90.00000000
_symmetry_Int_Tables_number   1
_chemical_formula_structural   H8C2NCl
_chemical_formula_sum   'H16 C4 N2 Cl2'
_cell_volume   233.54488555
_cell_formula_units_Z   2
loop_
 _symmetry_equiv_pos_site_id
 _symmetry_equiv_pos_as_xyz
  1  'x, y, z'
loop_
 _atom_site_type_symbol
 _atom_site_label
 _atom_site_symmetry_multiplicity
 _atom_site_fract_x
 _atom_site_fract_y
 _atom_site_fract_z
 _atom_site_occupancy
  H  H0  1  0.98676320  0.25000000  0.02623003  1
  H  H1  1  0.01323680  0.75000000  0.97376997  1
  H  H2  1  0.69400950  0.60238685  0.57035969  1
  H  H3  1  0.04419294  0.25000000  0.53367429  1
  H  H4  1  0.95580706  0.75000000  0.46632571  1
  H  H5  1  0.25830066  0.10793787  0.12544898  1
  H  H6  1  0.30599050  0.39761315  0.42964031  1
  H  H7  1  0.17568295  0.89760175  0.73068622  1
  H  H8  1  0.30599050  0.10238685  0.42964031  1
  H  H9  1  0.25830066  0.39206213  0.12544898  1
  H  H10  1  0.82431705  0.10239825  0.26931378  1
  H  H11  1  0.74169934  0.60793787  0.87455102  1
  H  H12  1  0.82431705  0.39760175  0.26931378  1
  H  H13  1  0.17568295  0.60239825  0.73068622  1
  H  H14  1  0.69400950  0.89761315  0.57035969  1
  H  H15  1  0.74169934  0.89206213  0.87455102  1
  C  C16  1  0.83291625  0.75000000  0.57410479  1
  C  C17  1  0.03670125  0.75000000  0.72383436  1
  C  C18  1  0.16708375  0.25000000  0.42589521  1
  C  C19  1  0.96329875  0.25000000  0.27616564  1
  N  N20  1  0.86974907  0.75000000  0.87095794  1
  N  N21  1  0.13025093  0.25000000  0.12904206  1
  Cl  Cl22  1  0.63066290  0.25000000  0.84990256  1
  Cl  Cl23  1  0.36933710  0.75000000  0.15009744  1
