# generated using pymatgen
data_Si5Pt12
_symmetry_space_group_name_H-M   'P 1'
_cell_length_a   5.60877816
_cell_length_b   13.54406753
_cell_length_c   13.54406753
_cell_angle_alpha   90.00000000
_cell_angle_beta   90.00000000
_cell_angle_gamma   90.00000000
_symmetry_Int_Tables_number   1
_chemical_formula_structural   Si5Pt12
_chemical_formula_sum   'Si20 Pt48'
_cell_volume   1028.88416661
_cell_formula_units_Z   4
loop_
 _symmetry_equiv_pos_site_id
 _symmetry_equiv_pos_as_xyz
  1  'x, y, z'
loop_
 _atom_site_type_symbol
 _atom_site_label
 _atom_site_symmetry_multiplicity
 _atom_site_fract_x
 _atom_site_fract_y
 _atom_site_fract_z
 _atom_site_occupancy
  Si  Si0  1  0.54176928  0.86185051  0.55562583  1
  Si  Si1  1  0.54176928  0.63814949  0.94437417  1
  Si  Si2  1  0.54176928  0.55562583  0.63814949  1
  Si  Si3  1  0.54176928  0.94437417  0.86185051  1
  Si  Si4  1  0.45823072  0.13814949  0.44437417  1
  Si  Si5  1  0.45823072  0.36185051  0.05562583  1
  Si  Si6  1  0.45823072  0.44437417  0.36185051  1
  Si  Si7  1  0.45823072  0.05562583  0.13814949  1
  Si  Si8  1  0.98395307  0.05987037  0.63651577  1
  Si  Si9  1  0.98395307  0.44012963  0.86348423  1
  Si  Si10  1  0.98395307  0.63651577  0.44012963  1
  Si  Si11  1  0.98395307  0.86348423  0.05987037  1
  Si  Si12  1  0.01604693  0.94012963  0.36348423  1
  Si  Si13  1  0.01604693  0.55987037  0.13651577  1
  Si  Si14  1  0.01604693  0.36348423  0.55987037  1
  Si  Si15  1  0.01604693  0.13651577  0.94012963  1
  Si  Si16  1  0.04051876  0.75000000  0.75000000  1
  Si  Si17  1  0.95948124  0.25000000  0.25000000  1
  Si  Si18  1  0.50000000  0.25000000  0.75000000  1
  Si  Si19  1  0.50000000  0.75000000  0.25000000  1
  Pt  Pt20  1  0.07982598  0.91108005  0.53989946  1
  Pt  Pt21  1  0.07982598  0.58891995  0.96010054  1
  Pt  Pt22  1  0.07982598  0.53989946  0.58891995  1
  Pt  Pt23  1  0.07982598  0.96010054  0.91108005  1
  Pt  Pt24  1  0.92017402  0.08891995  0.46010054  1
  Pt  Pt25  1  0.92017402  0.41108005  0.03989946  1
  Pt  Pt26  1  0.92017402  0.46010054  0.41108005  1
  Pt  Pt27  1  0.92017402  0.03989946  0.08891995  1
  Pt  Pt28  1  0.54133366  0.03586193  0.59593169  1
  Pt  Pt29  1  0.54133366  0.46413807  0.90406831  1
  Pt  Pt30  1  0.54133366  0.59593169  0.46413807  1
  Pt  Pt31  1  0.54133366  0.90406831  0.03586193  1
  Pt  Pt32  1  0.45866634  0.96413807  0.40406831  1
  Pt  Pt33  1  0.45866634  0.53586193  0.09593169  1
  Pt  Pt34  1  0.45866634  0.40406831  0.53586193  1
  Pt  Pt35  1  0.45866634  0.09593169  0.96413807  1
  Pt  Pt36  1  0.79541602  0.72085799  0.60160767  1
  Pt  Pt37  1  0.79541602  0.77914201  0.89839233  1
  Pt  Pt38  1  0.79541602  0.60160767  0.77914201  1
  Pt  Pt39  1  0.79541602  0.89839233  0.72085799  1
  Pt  Pt40  1  0.20458398  0.27914201  0.39839233  1
  Pt  Pt41  1  0.20458398  0.22085799  0.10160767  1
  Pt  Pt42  1  0.20458398  0.39839233  0.22085799  1
  Pt  Pt43  1  0.20458398  0.10160767  0.27914201  1
  Pt  Pt44  1  0.29469374  0.72622202  0.60380539  1
  Pt  Pt45  1  0.29469374  0.77377798  0.89619461  1
  Pt  Pt46  1  0.29469374  0.60380539  0.77377798  1
  Pt  Pt47  1  0.29469374  0.89619461  0.72622202  1
  Pt  Pt48  1  0.70530626  0.27377798  0.39619461  1
  Pt  Pt49  1  0.70530626  0.22622202  0.10380539  1
  Pt  Pt50  1  0.70530626  0.39619461  0.22622202  1
  Pt  Pt51  1  0.70530626  0.10380539  0.27377798  1
  Pt  Pt52  1  0.75040901  0.23062351  0.60358349  1
  Pt  Pt53  1  0.75040901  0.26937649  0.89641651  1
  Pt  Pt54  1  0.75040901  0.60358349  0.26937649  1
  Pt  Pt55  1  0.75040901  0.89641651  0.23062351  1
  Pt  Pt56  1  0.24959099  0.76937649  0.39641651  1
  Pt  Pt57  1  0.24959099  0.73062351  0.10358349  1
  Pt  Pt58  1  0.24959099  0.39641651  0.73062351  1
  Pt  Pt59  1  0.24959099  0.10358349  0.76937649  1
  Pt  Pt60  1  0.25072128  0.21379290  0.59673507  1
  Pt  Pt61  1  0.25072128  0.28620710  0.90326493  1
  Pt  Pt62  1  0.25072128  0.59673507  0.28620710  1
  Pt  Pt63  1  0.25072128  0.90326493  0.21379290  1
  Pt  Pt64  1  0.74927872  0.78620710  0.40326493  1
  Pt  Pt65  1  0.74927872  0.71379290  0.09673507  1
  Pt  Pt66  1  0.74927872  0.40326493  0.71379290  1
  Pt  Pt67  1  0.74927872  0.09673507  0.78620710  1
