# generated using pymatgen
data_Li9Bi3P8O29
_symmetry_space_group_name_H-M   'P 1'
_cell_length_a   10.32720234
_cell_length_b   10.32722878
_cell_length_c   14.16363854
_cell_angle_alpha   90.00143539
_cell_angle_beta   90.00069093
_cell_angle_gamma   59.99980126
_symmetry_Int_Tables_number   1
_chemical_formula_structural   Li9Bi3P8O29
_chemical_formula_sum   'Li18 Bi6 P16 O58'
_cell_volume   1308.19077177
_cell_formula_units_Z   2
loop_
 _symmetry_equiv_pos_site_id
 _symmetry_equiv_pos_as_xyz
  1  'x, y, z'
loop_
 _atom_site_type_symbol
 _atom_site_label
 _atom_site_symmetry_multiplicity
 _atom_site_fract_x
 _atom_site_fract_y
 _atom_site_fract_z
 _atom_site_occupancy
  Li  Li0  1  0.22270012  0.10571843  0.06103287  1
  Li  Li1  1  0.32841308  0.89428671  0.43897017  1
  Li  Li2  1  0.67158634  0.22269489  0.06102902  1
  Li  Li3  1  0.67158692  0.10571725  0.56103409  1
  Li  Li4  1  0.10572257  0.22269274  0.56102887  1
  Li  Li5  1  0.77730297  0.89428626  0.93896589  1
  Li  Li6  1  0.66667756  0.66666457  0.62168197  1
  Li  Li7  1  0.33333023  0.33333097  0.37831288  1
  Li  Li8  1  0.89428797  0.32841590  0.93897270  1
  Li  Li9  1  0.77729984  0.32841854  0.43897201  1
  Li  Li10  1  0.99998755  0.00002156  0.49999626  1
  Li  Li11  1  0.99998910  0.99999787  0.99999731  1
  Li  Li12  1  0.22270103  0.67158360  0.56102582  1
  Li  Li13  1  0.66666860  0.66667092  0.12168711  1
  Li  Li14  1  0.10571524  0.67158626  0.06103015  1
  Li  Li15  1  0.33334425  0.33333066  0.87831704  1
  Li  Li16  1  0.89428070  0.77730306  0.43896805  1
  Li  Li17  1  0.32841938  0.77730926  0.93897276  1
  Bi  Bi18  1  0.56145416  -0.00000235  0.74999728  1
  Bi  Bi19  1  0.56145156  0.43854986  0.25000069  1
  Bi  Bi20  1  0.43855108  0.99999546  0.25000457  1
  Bi  Bi21  1  0.43855316  0.56145694  0.75000062  1
  Bi  Bi22  1  0.00000893  0.56144477  0.24999971  1
  Bi  Bi23  1  0.00001025  0.43854590  0.74999758  1
  P  P24  1  0.91076388  0.78453956  0.65364350  1
  P  P25  1  0.33334306  0.33333390  0.61044748  1
  P  P26  1  0.08923843  0.69530605  0.84636074  1
  P  P27  1  0.66667204  0.66666694  0.38953563  1
  P  P28  1  0.33333843  0.33332405  0.11046305  1
  P  P29  1  0.08923332  0.21546548  0.34635851  1
  P  P30  1  0.78453594  0.30470570  0.65363946  1
  P  P31  1  0.78453430  0.91076576  0.15364114  1
  P  P32  1  0.30470357  0.78453480  0.15364373  1
  P  P33  1  0.91076576  0.30470504  0.15364450  1
  P  P34  1  0.66668096  0.66666488  0.88954810  1
  P  P35  1  0.21547723  0.08922390  0.84635651  1
  P  P36  1  0.69530366  0.21546288  0.84635572  1
  P  P37  1  0.21546733  0.69529173  0.34635750  1
  P  P38  1  0.69529452  0.08923708  0.34635918  1
  P  P39  1  0.30470431  0.91076935  0.65363909  1
  O  O40  1  0.06250486  0.23405233  0.84719866  1
  O  O41  1  0.34037153  0.12964658  0.84188348  1
  O  O42  1  0.99999984  0.22204958  0.25000284  1
  O  O43  1  0.76596249  0.93747765  0.65280309  1
  O  O44  1  0.52997881  0.34038088  0.84189420  1
  O  O45  1  0.23405842  0.70344769  0.84720006  1
  O  O46  1  0.30532181  0.20611126  0.14841735  1
  O  O47  1  0.48857522  0.20610461  0.64840873  1
  O  O48  1  0.87035584  0.65962373  0.65811214  1
  O  O49  1  0.22458109  0.78107511  0.43132675  1
  O  O50  1  0.22457888  0.99435427  0.93132698  1
  O  O51  1  0.30532981  0.48857064  0.64840338  1
  O  O52  1  0.52998316  0.12964919  0.34188888  1
  O  O53  1  0.29655636  0.76594682  0.65280049  1
  O  O54  1  0.20611633  0.48856525  0.14839776  1
  O  O55  1  0.12963877  0.34037251  0.34190072  1
  O  O56  1  0.00565334  0.21892476  0.06867668  1
  O  O57  1  0.69468396  0.51142838  0.35159684  1
  O  O58  1  0.65962543  0.87036186  0.15810477  1
  O  O59  1  0.70343632  0.06252817  0.84719576  1
  O  O60  1  0.77794591  0.22205453  0.75000884  1
  O  O61  1  0.34036433  0.52997934  0.34188758  1
  O  O62  1  0.23404656  0.06251207  0.34719718  1
  O  O63  1  0.93749946  0.29655628  0.65280329  1
  O  O64  1  0.22204298  0.00000427  0.75000324  1
  O  O65  1  0.69468266  0.79389263  0.85159410  1
  O  O66  1  0.87034527  0.47002063  0.15811621  1
  O  O67  1  0.12966027  0.52998162  0.84189450  1
  O  O68  1  0.48857272  0.30531698  0.14840208  1
  O  O69  1  0.00000420  0.77795191  0.74999485  1
  O  O70  1  0.76594957  0.29655563  0.15280232  1
  O  O71  1  0.66669248  0.66666955  0.49576645  1
  O  O72  1  0.99435166  0.78108873  0.93132315  1
  O  O73  1  0.78107576  0.99435500  0.43132664  1
  O  O74  1  0.06251119  0.70344712  0.34719629  1
  O  O75  1  0.65963755  0.47002572  0.65810866  1
  O  O76  1  0.93748821  0.76594849  0.15280247  1
  O  O77  1  0.33336171  0.33332635  0.50423133  1
  O  O78  1  0.77543728  0.00564378  0.06867226  1
  O  O79  1  0.51144039  0.69467497  0.85160542  1
  O  O80  1  0.51143416  0.79388544  0.35159974  1
  O  O81  1  0.78107900  0.22457476  0.93132919  1
  O  O82  1  0.33334086  0.33329736  0.00423293  1
  O  O83  1  0.77795459  0.99999821  0.24999710  1
  O  O84  1  0.22205730  0.77794826  0.24999583  1
  O  O85  1  0.21892868  0.77541945  0.06867406  1
  O  O86  1  0.47002654  0.65963081  0.15810940  1
  O  O87  1  0.00565158  0.77541873  0.56866933  1
  O  O88  1  0.66669425  0.66666871  0.99576873  1
  O  O89  1  0.29655872  0.93748377  0.15280190  1
  O  O90  1  0.79388875  0.69468082  0.35158136  1
  O  O91  1  0.47001566  0.87035352  0.65811060  1
  O  O92  1  0.77542868  0.21892260  0.56867839  1
  O  O93  1  0.70344096  0.23405324  0.34719901  1
  O  O94  1  0.99434665  0.22456184  0.43132949  1
  O  O95  1  0.20611040  0.30532680  0.64839283  1
  O  O96  1  0.21892372  0.00564906  0.56866950  1
  O  O97  1  0.79390174  0.51142960  0.85159594  1
