# generated using pymatgen
data_Sr2YCu3(PbO4)2
_symmetry_space_group_name_H-M   'P 1'
_cell_length_a   5.36017890
_cell_length_b   5.33629263
_cell_length_c   15.48541918
_cell_angle_alpha   90.00000000
_cell_angle_beta   90.04146017
_cell_angle_gamma   90.00000000
_symmetry_Int_Tables_number   1
_chemical_formula_structural   Sr2YCu3(PbO4)2
_chemical_formula_sum   'Sr4 Y2 Cu6 Pb4 O16'
_cell_volume   442.93681065
_cell_formula_units_Z   2
loop_
 _symmetry_equiv_pos_site_id
 _symmetry_equiv_pos_as_xyz
  1  'x, y, z'
loop_
 _atom_site_type_symbol
 _atom_site_label
 _atom_site_symmetry_multiplicity
 _atom_site_fract_x
 _atom_site_fract_y
 _atom_site_fract_z
 _atom_site_occupancy
  Sr  Sr0  1  0.25075972  0.00428222  0.22124303  1
  Sr  Sr1  1  0.74967464  0.50417076  0.22123421  1
  Sr  Sr2  1  0.25032536  0.00417076  0.77876579  1
  Sr  Sr3  1  0.74924028  0.50428222  0.77875697  1
  Y  Y4  1  0.24998257  0.00021114  -0.00001886  1
  Y  Y5  1  0.75001743  0.50021114  1.00001886  1
  Cu  Cu6  1  0.24999472  0.50077257  0.10410098  1
  Cu  Cu7  1  0.75052677  0.00072276  0.10433931  1
  Cu  Cu8  1  0.75000528  0.00077257  0.89589902  1
  Cu  Cu9  1  0.24947323  0.50072276  0.89566069  1
  Cu  Cu10  1  0.27390128  0.02525588  0.49995395  1
  Cu  Cu11  1  0.72609872  0.52525588  0.50004605  1
  Pb  Pb12  1  0.25114382  0.50388907  0.61068464  1
  Pb  Pb13  1  0.25167690  0.50398823  0.38946271  1
  Pb  Pb14  1  0.74885618  0.00388907  0.38931536  1
  Pb  Pb15  1  0.74832310  0.00398823  0.61053729  1
  O  O16  1  -0.00000590  0.75041337  0.09252594  1
  O  O17  1  0.24304528  0.50636174  0.24964465  1
  O  O18  1  0.70450620  0.53937263  0.61881439  1
  O  O19  1  0.29549380  0.03937263  0.38118561  1
  O  O20  1  0.29417926  0.03897586  0.61872968  1
  O  O21  1  0.70582074  0.53897586  0.38127032  1
  O  O22  1  0.50038301  0.75050393  0.09324167  1
  O  O23  1  0.49990659  0.25045197  0.09325441  1
  O  O24  1  0.75695472  0.00636174  0.75035535  1
  O  O25  1  1.00000590  0.25041337  0.90747406  1
  O  O26  1  0.00050958  0.25048206  0.09257929  1
  O  O27  1  0.49961699  0.25050393  0.90675833  1
  O  O28  1  0.75696720  0.00614582  0.24955367  1
  O  O29  1  0.24303280  0.50614582  0.75044633  1
  O  O30  1  0.99949042  0.75048206  0.90742071  1
  O  O31  1  0.50009341  0.75045197  0.90674559  1
