# generated using pymatgen
data_Ru(SCl3)4
_symmetry_space_group_name_H-M   'P 1'
_cell_length_a   11.30298293
_cell_length_b   12.56163809
_cell_length_c   16.51777490
_cell_angle_alpha   90.00000000
_cell_angle_beta   108.43400688
_cell_angle_gamma   90.00000000
_symmetry_Int_Tables_number   1
_chemical_formula_structural   Ru(SCl3)4
_chemical_formula_sum   'Ru4 S16 Cl48'
_cell_volume   2224.92064947
_cell_formula_units_Z   4
loop_
 _symmetry_equiv_pos_site_id
 _symmetry_equiv_pos_as_xyz
  1  'x, y, z'
loop_
 _atom_site_type_symbol
 _atom_site_label
 _atom_site_symmetry_multiplicity
 _atom_site_fract_x
 _atom_site_fract_y
 _atom_site_fract_z
 _atom_site_occupancy
  Ru  Ru0  1  0.70110018  0.72310503  0.79678485  1
  Ru  Ru1  1  0.29889982  0.22310503  0.70321515  1
  Ru  Ru2  1  0.70110018  0.77689497  0.29678485  1
  Ru  Ru3  1  0.29889982  0.27689497  0.20321515  1
  S  S4  1  0.50259549  0.22391489  0.21908822  1
  S  S5  1  0.01880105  0.41880315  0.01990040  1
  S  S6  1  0.49740451  0.72391489  0.28091178  1
  S  S7  1  0.01880105  0.08119685  0.51990040  1
  S  S8  1  0.98119895  0.58119685  0.98009960  1
  S  S9  1  0.98119895  0.91880315  0.48009960  1
  S  S10  1  0.65404636  0.93331788  0.22791213  1
  S  S11  1  0.65404636  0.56668212  0.72791213  1
  S  S12  1  0.49740451  0.77608511  0.78091178  1
  S  S13  1  0.70223083  0.69087792  0.17878330  1
  S  S14  1  0.29776917  0.19087792  0.32121670  1
  S  S15  1  0.50259549  0.27608511  0.71908822  1
  S  S16  1  0.34595364  0.43331788  0.27208787  1
  S  S17  1  0.34595364  0.06668212  0.77208787  1
  S  S18  1  0.29776917  0.30912208  0.82121670  1
  S  S19  1  0.70223083  0.80912208  0.67878330  1
  Cl  Cl20  1  0.63221228  0.17557022  0.80168664  1
  Cl  Cl21  1  0.71063469  0.89787436  0.41294383  1
  Cl  Cl22  1  0.54437121  0.90496917  0.62815905  1
  Cl  Cl23  1  0.54635640  0.24449697  0.61045739  1
  Cl  Cl24  1  0.45364360  0.74449697  0.88954261  1
  Cl  Cl25  1  0.07853326  0.29347222  0.15851142  1
  Cl  Cl26  1  0.99920106  0.93695634  0.07785012  1
  Cl  Cl27  1  0.15991875  0.88073913  0.49360108  1
  Cl  Cl28  1  0.71063469  0.60212564  0.91294383  1
  Cl  Cl29  1  0.16140361  0.42797784  0.79574976  1
  Cl  Cl30  1  0.03031844  0.29364975  0.37897901  1
  Cl  Cl31  1  0.70854723  0.61784520  0.37927996  1
  Cl  Cl32  1  0.36778772  0.82442978  0.19831336  1
  Cl  Cl33  1  0.29145277  0.11784520  0.12072004  1
  Cl  Cl34  1  0.45562879  0.09503083  0.37184095  1
  Cl  Cl35  1  0.80791649  0.03548497  0.24497742  1
  Cl  Cl36  1  0.84008125  0.38073913  0.00639892  1
  Cl  Cl37  1  0.54437121  0.59503083  0.12815905  1
  Cl  Cl38  1  0.29145277  0.38215380  0.62072004  1
  Cl  Cl39  1  0.83859639  0.92797784  0.70425024  1
  Cl  Cl40  1  0.45364360  0.75550303  0.38954261  1
  Cl  Cl41  1  0.07853326  0.20652778  0.65851142  1
  Cl  Cl42  1  0.03031844  0.20635025  0.87897901  1
  Cl  Cl43  1  0.84008125  0.11926087  0.50639892  1
  Cl  Cl44  1  0.83859639  0.57202216  0.20425024  1
  Cl  Cl45  1  0.15991875  0.61926087  0.99360108  1
  Cl  Cl46  1  0.92146674  0.70652778  0.84148858  1
  Cl  Cl47  1  0.39630047  0.41754398  0.40372012  1
  Cl  Cl48  1  0.19208351  0.53548497  0.25502258  1
  Cl  Cl49  1  0.80791649  0.46451503  0.74497742  1
  Cl  Cl50  1  0.63221228  0.32442978  0.30168664  1
  Cl  Cl51  1  0.00079894  0.06304366  0.92214988  1
  Cl  Cl52  1  0.45562879  0.40496917  0.87184095  1
  Cl  Cl53  1  0.19208351  0.96451503  0.75502258  1
  Cl  Cl54  1  0.96968156  0.79364975  0.12102099  1
  Cl  Cl55  1  0.36778772  0.67557022  0.69831336  1
  Cl  Cl56  1  0.92146674  0.79347222  0.34148858  1
  Cl  Cl57  1  0.60369953  0.58245602  0.59627988  1
  Cl  Cl58  1  0.54635640  0.25550303  0.11045739  1
  Cl  Cl59  1  0.28936531  0.10212564  0.58705617  1
  Cl  Cl60  1  0.00079894  0.43695634  0.42214988  1
  Cl  Cl61  1  0.28936531  0.39787436  0.08705617  1
  Cl  Cl62  1  0.39630047  0.08245602  0.90372012  1
  Cl  Cl63  1  0.96968156  0.70635025  0.62102099  1
  Cl  Cl64  1  0.16140361  0.07202216  0.29574976  1
  Cl  Cl65  1  0.99920106  0.56304366  0.57785012  1
  Cl  Cl66  1  0.60369953  0.91754398  0.09627988  1
  Cl  Cl67  1  0.70854723  0.88215480  0.87927996  1
