# generated using pymatgen
data_Si2H2O5
_symmetry_space_group_name_H-M   'P 1'
_cell_length_a   9.23731093
_cell_length_b   8.97063740
_cell_length_c   8.97063740
_cell_angle_alpha   142.79548575
_cell_angle_beta   50.33990090
_cell_angle_gamma   146.70697409
_symmetry_Int_Tables_number   1
_chemical_formula_structural   Si2H2O5
_chemical_formula_sum   'Si4 H4 O10'
_cell_volume   245.87587012
_cell_formula_units_Z   2
loop_
 _symmetry_equiv_pos_site_id
 _symmetry_equiv_pos_as_xyz
  1  'x, y, z'
loop_
 _atom_site_type_symbol
 _atom_site_label
 _atom_site_symmetry_multiplicity
 _atom_site_fract_x
 _atom_site_fract_y
 _atom_site_fract_z
 _atom_site_occupancy
  Si  Si0  1  0.52564934  0.02304169  0.68150376  1
  Si  Si1  1  0.37237877  0.86883079  0.30996002  1
  Si  Si2  1  0.87237877  0.06241875  0.00354798  1
  Si  Si3  1  0.02564934  0.84414558  0.00260765  1
  H  H4  1  0.72781738  0.84332466  0.44243664  1
  H  H5  1  0.17637053  0.04211991  0.51905880  1
  H  H6  1  0.67637053  0.65731173  0.63425062  1
  H  H7  1  0.22781738  0.28538075  0.38449372  1
  O  O8  1  0.47249791  0.94794823  0.47902175  1
  O  O9  1  0.97249791  0.99347616  0.02454969  1
  O  O10  1  0.27278617  0.89852082  0.83691315  1
  O  O11  1  0.08181850  0.47753877  0.17105865  1
  O  O12  1  0.58181850  0.91075984  0.10427973  1
  O  O13  1  0.77278617  0.43587302  0.87426535  1
  O  O14  1  0.57082171  0.78923302  0.53734865  1
  O  O15  1  0.35658569  0.13947183  0.47629830  1
  O  O16  1  0.85658569  0.88028739  0.71711386  1
  O  O17  1  0.07082171  0.03347306  0.28158869  1
