# generated using pymatgen
data_Al(HO)3
_symmetry_space_group_name_H-M   'P 1'
_cell_length_a   8.85796941
_cell_length_b   5.15616430
_cell_length_c   9.55002812
_cell_angle_alpha   88.83811416
_cell_angle_beta   88.65294291
_cell_angle_gamma   90.46451582
_symmetry_Int_Tables_number   1
_chemical_formula_structural   Al(HO)3
_chemical_formula_sum   'Al8 H24 O24'
_cell_volume   435.95354786
_cell_formula_units_Z   8
loop_
 _symmetry_equiv_pos_site_id
 _symmetry_equiv_pos_as_xyz
  1  'x, y, z'
loop_
 _atom_site_type_symbol
 _atom_site_label
 _atom_site_symmetry_multiplicity
 _atom_site_fract_x
 _atom_site_fract_y
 _atom_site_fract_z
 _atom_site_occupancy
  Al  Al0  1  0.32964534  0.98877711  0.48928076  1
  Al  Al1  1  0.66572460  0.01955152  0.50555442  1
  Al  Al2  1  0.83521982  0.52409346  0.50884545  1
  Al  Al3  1  0.16687366  0.48777341  0.49120621  1
  Al  Al4  1  0.82881810  0.97009445  0.00943782  1
  Al  Al5  1  0.16296753  0.02503430  0.98987746  1
  Al  Al6  1  0.33045940  0.52638047  0.98855826  1
  Al  Al7  1  0.66283314  0.46538077  0.00776103  1
  H  H8  1  0.02370819  0.82666309  0.59658865  1
  H  H9  1  0.98855874  0.23950778  0.34205850  1
  H  H10  1  0.48991133  0.73652436  0.33549692  1
  H  H11  1  0.47098235  0.32379458  0.60161033  1
  H  H12  1  0.14979767  0.15336033  0.69146302  1
  H  H13  1  0.86125054  0.87235606  0.31519623  1
  H  H14  1  0.59248725  0.43223014  0.39808072  1
  H  H15  1  0.34047261  0.65401622  0.69064405  1
  H  H16  1  0.86149540  0.16033744  0.69373932  1
  H  H17  1  0.22832852  0.78596403  0.28365236  1
  H  H18  1  0.25899416  0.27265015  0.28522226  1
  H  H19  1  0.62951711  0.66637809  0.69769065  1
  H  H20  1  0.96287279  0.31950800  0.89256111  1
  H  H21  1  0.02142355  0.74972376  0.17950265  1
  H  H22  1  0.46696337  0.33105324  0.20378550  1
  H  H23  1  0.53391799  0.81789103  0.89502328  1
  H  H24  1  0.66370143  0.15581663  0.80289569  1
  H  H25  1  0.40456810  0.94749013  0.10458227  1
  H  H26  1  0.07755654  0.42181673  0.10250898  1
  H  H27  1  0.84452917  0.65633289  0.80750622  1
  H  H28  1  0.77206770  0.27867986  0.21705132  1
  H  H29  1  0.13482436  0.67734738  0.80194942  1
  H  H30  1  0.36500255  0.17150719  0.80314949  1
  H  H31  1  0.64361756  0.82311243  0.19967497  1
  O  O32  1  0.01054249  0.63744254  0.61106604  1
  O  O33  1  0.99280726  0.40597533  0.38798889  1
  O  O34  1  0.50752217  0.90009895  0.38113076  1
  O  O35  1  0.48393660  0.13452549  0.60244345  1
  O  O36  1  0.16962707  0.16123828  0.59068263  1
  O  O37  1  0.81876680  0.84378603  0.40845302  1
  O  O38  1  0.68737053  0.33860520  0.39892923  1
  O  O39  1  0.32658027  0.65898986  0.58966708  1
  O  O40  1  0.79732498  0.22232469  0.61911996  1
  O  O41  1  0.19608052  0.79857569  0.38172757  1
  O  O42  1  0.30640879  0.30012073  0.37587581  1
  O  O43  1  0.68992595  0.71818035  0.61474282  1
  O  O44  1  0.98328115  0.13293577  0.89125636  1
  O  O45  1  0.00686522  0.88703434  0.11131577  1
  O  O46  1  0.47975628  0.37133997  0.10431912  1
  O  O47  1  0.51354950  0.63039924  0.88730638  1
  O  O48  1  0.66940447  0.14863995  0.90472590  1
  O  O49  1  0.31304952  0.84197408  0.09672230  1
  O  O50  1  0.17667462  0.34117101  0.09622248  1
  O  O51  1  0.82826970  0.64939551  0.90876899  1
  O  O52  1  0.79574610  0.27017946  0.11642492  1
  O  O53  1  0.19690166  0.73163174  0.87939487  1
  O  O54  1  0.29904440  0.23162229  0.87818655  1
  O  O55  1  0.69390935  0.76562148  0.11472777  1
