# generated using pymatgen
data_Eu(HO)3
_symmetry_space_group_name_H-M   'P 1'
_cell_length_a   6.42853316
_cell_length_b   6.42675326
_cell_length_c   3.69077538
_cell_angle_alpha   90.00000000
_cell_angle_beta   90.00000000
_cell_angle_gamma   120.00059518
_symmetry_Int_Tables_number   1
_chemical_formula_structural   Eu(HO)3
_chemical_formula_sum   'Eu2 H6 O6'
_cell_volume   132.05326905
_cell_formula_units_Z   2
loop_
 _symmetry_equiv_pos_site_id
 _symmetry_equiv_pos_as_xyz
  1  'x, y, z'
loop_
 _atom_site_type_symbol
 _atom_site_label
 _atom_site_symmetry_multiplicity
 _atom_site_fract_x
 _atom_site_fract_y
 _atom_site_fract_z
 _atom_site_occupancy
  Eu  Eu0  1  0.33338619  0.66664117  0.25000000  1
  Eu  Eu1  1  0.66661381  0.33335883  0.75000000  1
  H  H2  1  0.85918488  0.72333386  0.25000000  1
  H  H3  1  0.86412938  0.14080805  0.25000000  1
  H  H4  1  0.27667710  0.13582658  0.25000000  1
  H  H5  1  0.14081512  0.27666614  0.75000000  1
  H  H6  1  0.13587062  0.85919195  0.75000000  1
  H  H7  1  0.72332290  0.86417342  0.75000000  1
  O  O8  1  0.91634318  0.60867112  0.25000000  1
  O  O9  1  0.69234679  0.08364001  0.25000000  1
  O  O10  1  0.39134841  0.30767115  0.25000000  1
  O  O11  1  0.08365682  0.39132888  0.75000000  1
  O  O12  1  0.30765321  0.91635999  0.75000000  1
  O  O13  1  0.60865159  0.69232885  0.75000000  1
