# generated using pymatgen
data_Al(HO)3
_symmetry_space_group_name_H-M   'P 1'
_cell_length_a   5.06290237
_cell_length_b   5.21589219
_cell_length_c   5.71425366
_cell_angle_alpha   63.34898102
_cell_angle_beta   62.22516202
_cell_angle_gamma   60.07164826
_symmetry_Int_Tables_number   1
_chemical_formula_structural   Al(HO)3
_chemical_formula_sum   'Al2 H6 O6'
_cell_volume   111.02131335
_cell_formula_units_Z   2
loop_
 _symmetry_equiv_pos_site_id
 _symmetry_equiv_pos_as_xyz
  1  'x, y, z'
loop_
 _atom_site_type_symbol
 _atom_site_label
 _atom_site_symmetry_multiplicity
 _atom_site_fract_x
 _atom_site_fract_y
 _atom_site_fract_z
 _atom_site_occupancy
  Al  Al0  1  0.66502462  0.66689480  0.99329491  1
  Al  Al1  1  0.34068200  0.32162284  0.00384240  1
  H  H2  1  0.74893595  0.15379557  0.59474050  1
  H  H3  1  0.26806087  0.83791561  0.40282360  1
  H  H4  1  0.14488341  0.37469737  0.63315108  1
  H  H5  1  0.86451570  0.61878738  0.36027674  1
  H  H6  1  0.25778791  0.86386535  0.77138104  1
  H  H7  1  0.74778101  0.12673834  0.22771059  1
  O  O8  1  0.70951884  0.06382335  0.79252138  1
  O  O9  1  0.29579167  0.92471721  0.20601306  1
  O  O10  1  0.07596469  0.44566865  0.79070641  1
  O  O11  1  0.92896643  0.53984053  0.20903659  1
  O  O12  1  0.45682749  0.68624722  0.77676752  1
  O  O13  1  0.54796340  0.30296377  0.22070819  1
