# generated using pymatgen
data_CaCeMg2
_symmetry_space_group_name_H-M   'P 1'
_cell_length_a   5.56272629
_cell_length_b   5.56265250
_cell_length_c   5.56229755
_cell_angle_alpha   60.00355560
_cell_angle_beta   59.99070815
_cell_angle_gamma   59.99091197
_symmetry_Int_Tables_number   1
_chemical_formula_structural   CaCeMg2
_chemical_formula_sum   'Ca1 Ce1 Mg2'
_cell_volume   121.69147803
_cell_formula_units_Z   1
loop_
 _symmetry_equiv_pos_site_id
 _symmetry_equiv_pos_as_xyz
  1  'x, y, z'
loop_
 _atom_site_type_symbol
 _atom_site_label
 _atom_site_symmetry_multiplicity
 _atom_site_fract_x
 _atom_site_fract_y
 _atom_site_fract_z
 _atom_site_occupancy
  Ca  Ca0  1  0.24999973  0.24999947  0.25000067  1
  Ce  Ce1  1  0.75000088  0.75000227  0.74999954  1
  Mg  Mg2  1  0.49999981  0.50000031  0.50000120  1
  Mg  Mg3  1  0.00000058  -0.00000105  -0.00000040  1
