# generated using pymatgen
data_VH10SNO9
_symmetry_space_group_name_H-M   'P 1'
_cell_length_a   6.26968873
_cell_length_b   6.79611436
_cell_length_c   10.00487701
_cell_angle_alpha   90.00000000
_cell_angle_beta   90.00000000
_cell_angle_gamma   108.32865263
_symmetry_Int_Tables_number   1
_chemical_formula_structural   VH10SNO9
_chemical_formula_sum   'V2 H20 S2 N2 O18'
_cell_volume   404.67596188
_cell_formula_units_Z   2
loop_
 _symmetry_equiv_pos_site_id
 _symmetry_equiv_pos_as_xyz
  1  'x, y, z'
loop_
 _atom_site_type_symbol
 _atom_site_label
 _atom_site_symmetry_multiplicity
 _atom_site_fract_x
 _atom_site_fract_y
 _atom_site_fract_z
 _atom_site_occupancy
  V  V0  1  0.38931133  0.61436503  0.99978081  1
  V  V1  1  0.61068867  0.38563497  0.49978081  1
  H  H2  1  0.68691593  0.25530820  0.76398774  1
  H  H3  1  0.23656946  0.30800351  0.21779098  1
  H  H4  1  0.11552945  0.93110536  0.35019048  1
  H  H5  1  0.58749730  0.25896090  0.14835861  1
  H  H6  1  0.76343054  0.69199649  0.71779098  1
  H  H7  1  0.81935278  0.22895124  0.22128586  1
  H  H8  1  0.41250270  0.74103910  0.64835861  1
  H  H9  1  0.03799408  0.29962889  0.85878703  1
  H  H10  1  0.88447055  0.06889464  0.85019048  1
  H  H11  1  0.61907467  0.02203767  0.16204821  1
  H  H12  1  0.18064722  0.77104876  0.72128586  1
  H  H13  1  0.96200592  0.70037111  0.35878703  1
  H  H14  1  0.77980842  0.19672308  0.05268238  1
  H  H15  1  0.53272927  0.66725670  0.26678391  1
  H  H16  1  0.31308407  0.74469180  0.26398774  1
  H  H17  1  0.22019158  0.80327692  0.55268238  1
  H  H18  1  0.46727073  0.33274330  0.76678391  1
  H  H19  1  0.20706128  0.18053166  0.08543893  1
  H  H20  1  0.79293872  0.81946834  0.58543893  1
  H  H21  1  0.38092533  0.97796233  0.66204821  1
  S  S22  1  0.06872224  0.26923556  0.50166487  1
  S  S23  1  0.93127776  0.73076444  0.00166487  1
  N  N24  1  0.70260652  0.17793470  0.14596462  1
  N  N25  1  0.29739348  0.82206530  0.64596462  1
  O  O26  1  0.12074433  0.79068216  0.36725780  1
  O  O27  1  0.67277719  0.54765719  0.36723835  1
  O  O28  1  0.92841493  0.40474770  0.54332193  1
  O  O29  1  0.53307531  0.15204041  0.43540578  1
  O  O30  1  0.69617044  0.59411353  0.03705570  1
  O  O31  1  0.69832454  0.68946947  0.62732327  1
  O  O32  1  0.32722281  0.45234281  0.86723835  1
  O  O33  1  0.07158507  0.59525230  0.04332193  1
  O  O34  1  0.94767962  0.76892052  0.85593994  1
  O  O35  1  0.30382956  0.40588647  0.53705570  1
  O  O36  1  0.55748094  0.26828408  0.70869325  1
  O  O37  1  0.99340276  0.92254918  0.07889956  1
  O  O38  1  0.30167546  0.31053053  0.12732327  1
  O  O39  1  0.46692469  0.84795959  0.93540578  1
  O  O40  1  0.00659724  0.07745082  0.57889956  1
  O  O41  1  0.44251906  0.73171592  0.20869325  1
  O  O42  1  0.87925567  0.20931784  0.86725780  1
  O  O43  1  0.05232038  0.23107948  0.35593994  1
