# generated using pymatgen
data_Co(HO)2
_symmetry_space_group_name_H-M   'P 1'
_cell_length_a   3.18864238
_cell_length_b   3.23753449
_cell_length_c   4.80977854
_cell_angle_alpha   90.00000023
_cell_angle_beta   92.53765143
_cell_angle_gamma   120.50852361
_symmetry_Int_Tables_number   1
_chemical_formula_structural   Co(HO)2
_chemical_formula_sum   'Co1 H2 O2'
_cell_volume   42.72217714
_cell_formula_units_Z   1
loop_
 _symmetry_equiv_pos_site_id
 _symmetry_equiv_pos_as_xyz
  1  'x, y, z'
loop_
 _atom_site_type_symbol
 _atom_site_label
 _atom_site_symmetry_multiplicity
 _atom_site_fract_x
 _atom_site_fract_y
 _atom_site_fract_z
 _atom_site_occupancy
  Co  Co0  1  0.00000000  0.97808446  1.00000000  1
  H  H1  1  0.58852405  0.18376601  0.58512996  1
  H  H2  1  0.41147595  0.59524097  0.41487004  1
  O  O3  1  0.63220894  0.28058575  0.78056782  1
  O  O4  1  0.36779106  0.64837681  0.21943218  1
