# generated using pymatgen
data_Zn10Fe(B4Rh9)2
_symmetry_space_group_name_H-M   'P 1'
_cell_length_a   2.87724882
_cell_length_b   17.89576531
_cell_length_c   17.89576531
_cell_angle_alpha   90.00000000
_cell_angle_beta   90.00000000
_cell_angle_gamma   90.00000000
_symmetry_Int_Tables_number   1
_chemical_formula_structural   Zn10Fe(B4Rh9)2
_chemical_formula_sum   'Zn20 Fe2 B16 Rh36'
_cell_volume   921.46314962
_cell_formula_units_Z   2
loop_
 _symmetry_equiv_pos_site_id
 _symmetry_equiv_pos_as_xyz
  1  'x, y, z'
loop_
 _atom_site_type_symbol
 _atom_site_label
 _atom_site_symmetry_multiplicity
 _atom_site_fract_x
 _atom_site_fract_y
 _atom_site_fract_z
 _atom_site_occupancy
  Zn  Zn0  1  0.50000000  0.79087203  0.70912797  1
  Zn  Zn1  1  0.50000000  0.70912797  0.20912797  1
  Zn  Zn2  1  0.50000000  0.81217350  0.96812440  1
  Zn  Zn3  1  0.50000000  0.33101900  0.16898100  1
  Zn  Zn4  1  0.50000000  0.94974690  0.44974690  1
  Zn  Zn5  1  0.50000000  0.83101900  0.33101900  1
  Zn  Zn6  1  0.50000000  0.55025310  0.94974690  1
  Zn  Zn7  1  0.50000000  0.16898100  0.66898100  1
  Zn  Zn8  1  0.50000000  0.44974690  0.05025310  1
  Zn  Zn9  1  0.50000000  0.68782650  0.46812440  1
  Zn  Zn10  1  0.50000000  0.31217350  0.53187560  1
  Zn  Zn11  1  0.50000000  0.29087203  0.79087203  1
  Zn  Zn12  1  0.50000000  0.66898100  0.83101900  1
  Zn  Zn13  1  0.50000000  0.18782650  0.03187560  1
  Zn  Zn14  1  0.50000000  0.96812440  0.18782650  1
  Zn  Zn15  1  0.50000000  0.53187560  0.68782650  1
  Zn  Zn16  1  0.50000000  0.20912797  0.29087203  1
  Zn  Zn17  1  0.50000000  0.05025310  0.55025310  1
  Zn  Zn18  1  0.50000000  0.03187560  0.81217350  1
  Zn  Zn19  1  0.50000000  0.46812440  0.31217350  1
  Fe  Fe20  1  0.50000000  0.50000000  0.50000000  1
  Fe  Fe21  1  0.50000000  0.00000000  0.00000000  1
  B  B22  1  0.50000000  0.16623085  0.87563785  1
  B  B23  1  0.50000000  0.96137385  0.66627226  1
  B  B24  1  0.50000000  0.66627226  0.03862615  1
  B  B25  1  0.50000000  0.62436215  0.33376915  1
  B  B26  1  0.50000000  0.33372774  0.96137385  1
  B  B27  1  0.50000000  0.46137385  0.83372774  1
  B  B28  1  0.50000000  0.83376915  0.12436215  1
  B  B29  1  0.50000000  0.37563785  0.66623085  1
  B  B30  1  0.50000000  0.03862615  0.33372774  1
  B  B31  1  0.50000000  0.66623085  0.62436215  1
  B  B32  1  0.50000000  0.83372774  0.53862615  1
  B  B33  1  0.50000000  0.87563785  0.83376915  1
  B  B34  1  0.50000000  0.53862615  0.16627226  1
  B  B35  1  0.50000000  0.12436215  0.16623085  1
  B  B36  1  0.50000000  0.16627226  0.46137385  1
  B  B37  1  0.50000000  0.33376915  0.37563785  1
  Rh  Rh38  1  0.00000000  0.25498882  0.91260259  1
  Rh  Rh39  1  0.00000000  0.75498882  0.58739741  1
  Rh  Rh40  1  0.00000000  0.45210841  0.17390180  1
  Rh  Rh41  1  0.00000000  0.28922299  0.66047528  1
  Rh  Rh42  1  0.00000000  0.90206455  0.06684950  1
  Rh  Rh43  1  0.00000000  0.40206455  0.43315050  1
  Rh  Rh44  1  0.00000000  0.08231458  0.41768542  1
  Rh  Rh45  1  0.00000000  0.24501118  0.41260259  1
  Rh  Rh46  1  0.00000000  0.83952472  0.21077701  1
  Rh  Rh47  1  0.00000000  0.33952472  0.28922299  1
  Rh  Rh48  1  0.00000000  0.58739741  0.24501118  1
  Rh  Rh49  1  0.00000000  0.32609820  0.04789159  1
  Rh  Rh50  1  0.00000000  0.58231458  0.08231458  1
  Rh  Rh51  1  0.00000000  0.67390180  0.95210841  1
  Rh  Rh52  1  0.00000000  0.17390180  0.54789159  1
  Rh  Rh53  1  0.00000000  0.06684950  0.09793545  1
  Rh  Rh54  1  0.00000000  0.09793545  0.93315050  1
  Rh  Rh55  1  0.00000000  0.16047528  0.78922299  1
  Rh  Rh56  1  0.00000000  0.95210841  0.32609820  1
  Rh  Rh57  1  0.00000000  0.04789159  0.67390180  1
  Rh  Rh58  1  0.00000000  0.21077701  0.16047528  1
  Rh  Rh59  1  0.00000000  0.43315050  0.59793545  1
  Rh  Rh60  1  0.00000000  0.91260259  0.74501118  1
  Rh  Rh61  1  0.00000000  0.74501118  0.08739741  1
  Rh  Rh62  1  0.00000000  0.54789159  0.82609820  1
  Rh  Rh63  1  0.00000000  0.66047528  0.71077701  1
  Rh  Rh64  1  0.00000000  0.78922299  0.83952472  1
  Rh  Rh65  1  0.00000000  0.08739741  0.25498882  1
  Rh  Rh66  1  0.00000000  0.91768542  0.58231458  1
  Rh  Rh67  1  0.00000000  0.41768542  0.91768542  1
  Rh  Rh68  1  0.00000000  0.41260259  0.75498882  1
  Rh  Rh69  1  0.00000000  0.93315050  0.90206455  1
  Rh  Rh70  1  0.00000000  0.56684950  0.40206455  1
  Rh  Rh71  1  0.00000000  0.71077701  0.33952472  1
  Rh  Rh72  1  0.00000000  0.82609820  0.45210841  1
  Rh  Rh73  1  0.00000000  0.59793545  0.56684950  1
