# generated using pymatgen
data_Ca(H8O5)2
_symmetry_space_group_name_H-M   'P 1'
_cell_length_a   6.13582122
_cell_length_b   6.14204406
_cell_length_c   11.34684430
_cell_angle_alpha   88.81494763
_cell_angle_beta   90.00000000
_cell_angle_gamma   90.00000000
_symmetry_Int_Tables_number   1
_chemical_formula_structural   Ca(H8O5)2
_chemical_formula_sum   'Ca2 H32 O20'
_cell_volume   427.53120661
_cell_formula_units_Z   2
loop_
 _symmetry_equiv_pos_site_id
 _symmetry_equiv_pos_as_xyz
  1  'x, y, z'
loop_
 _atom_site_type_symbol
 _atom_site_label
 _atom_site_symmetry_multiplicity
 _atom_site_fract_x
 _atom_site_fract_y
 _atom_site_fract_z
 _atom_site_occupancy
  Ca  Ca0  1  0.00687719  0.99278908  0.50012631  1
  Ca  Ca1  1  0.99312281  0.99278908  0.00012631  1
  H  H2  1  0.27741166  0.37278001  0.39157853  1
  H  H3  1  0.03279045  0.43732636  0.38487078  1
  H  H4  1  0.91900992  0.70520271  0.29237627  1
  H  H5  1  0.73557864  0.62195699  0.38920178  1
  H  H6  1  0.69467830  0.07892328  0.29384410  1
  H  H7  1  0.61975852  0.26839292  0.39027876  1
  H  H8  1  0.44176735  0.96886108  0.38688679  1
  H  H9  1  0.37145960  0.72616757  0.38969486  1
  H  H10  1  0.72258834  0.37278001  0.89157853  1
  H  H11  1  0.96720955  0.43732636  0.88487078  1
  H  H12  1  0.26442136  0.62195699  0.88920178  1
  H  H13  1  0.08099008  0.70520271  0.79237627  1
  H  H14  1  0.30532170  0.07892328  0.79384410  1
  H  H15  1  0.38024148  0.26839292  0.89027876  1
  H  H16  1  0.62854040  0.72616757  0.88969486  1
  H  H17  1  0.55823265  0.96886108  0.88688679  1
  H  H18  1  0.72631390  0.62887732  0.60983422  1
  H  H19  1  0.96874198  0.55928679  0.61264146  1
  H  H20  1  0.26980430  0.37906052  0.60974928  1
  H  H21  1  0.07653212  0.30493696  0.70676283  1
  H  H22  1  0.37389362  0.72422460  0.60774539  1
  H  H23  1  0.44167407  0.96705571  0.61678851  1
  H  H24  1  0.70613639  0.07837855  0.70667592  1
  H  H25  1  0.62218267  0.26639647  0.61057306  1
  H  H26  1  0.03125802  0.55928679  0.11264146  1
  H  H27  1  0.27368610  0.62887732  0.10983422  1
  H  H28  1  0.73019570  0.37906052  0.10974928  1
  H  H29  1  0.92346788  0.30493696  0.20676283  1
  H  H30  1  0.55832593  0.96705571  0.11678851  1
  H  H31  1  0.62610638  0.72422460  0.10774539  1
  H  H32  1  0.37781733  0.26639647  0.11057306  1
  H  H33  1  0.29386361  0.07837855  0.20667592  1
  O  O34  1  0.50668625  0.48854974  0.43352489  1
  O  O35  1  0.49331375  0.48854974  0.93352489  1
  O  O36  1  0.49786018  0.48753364  0.56637728  1
  O  O37  1  0.50213982  0.48753364  0.06637728  1
  O  O38  1  0.12897695  0.30901158  0.37234818  1
  O  O39  1  0.88953608  0.67951280  0.37685730  1
  O  O40  1  0.68662345  0.11609072  0.37746015  1
  O  O41  1  0.31186169  0.87624308  0.37360529  1
  O  O42  1  0.87102305  0.30901158  0.87234818  1
  O  O43  1  0.11046392  0.67951280  0.87685730  1
  O  O44  1  0.31337655  0.11609072  0.87746015  1
  O  O45  1  0.68813831  0.87624308  0.87360529  1
  O  O46  1  0.87585489  0.68875630  0.62570870  1
  O  O47  1  0.11659328  0.31386097  0.62289518  1
  O  O48  1  0.31203491  0.87044135  0.62915831  1
  O  O49  1  0.68012190  0.11062491  0.62243585  1
  O  O50  1  0.12414511  0.68875630  0.12570870  1
  O  O51  1  0.88340672  0.31386097  0.12289518  1
  O  O52  1  0.68796509  0.87044135  0.12915831  1
  O  O53  1  0.31987810  0.11062491  0.12243585  1
