# generated using pymatgen
data_Sr(H8O5)2
_symmetry_space_group_name_H-M   'P 1'
_cell_length_a   6.33863017
_cell_length_b   6.37930320
_cell_length_c   11.40952351
_cell_angle_alpha   91.89367499
_cell_angle_beta   88.76264981
_cell_angle_gamma   92.15537745
_symmetry_Int_Tables_number   1
_chemical_formula_structural   Sr(H8O5)2
_chemical_formula_sum   'Sr2 H32 O20'
_cell_volume   460.68213298
_cell_formula_units_Z   2
loop_
 _symmetry_equiv_pos_site_id
 _symmetry_equiv_pos_as_xyz
  1  'x, y, z'
loop_
 _atom_site_type_symbol
 _atom_site_label
 _atom_site_symmetry_multiplicity
 _atom_site_fract_x
 _atom_site_fract_y
 _atom_site_fract_z
 _atom_site_occupancy
  Sr  Sr0  1  0.98274534  0.01131383  0.48225314  1
  Sr  Sr1  1  0.00941858  0.00132753  0.98917065  1
  H  H2  1  0.46891017  0.65061258  0.51639482  1
  H  H3  1  0.27520363  0.37556943  0.37983350  1
  H  H4  1  0.16479025  0.26566554  0.27390403  1
  H  H5  1  0.73689933  0.60167896  0.36222357  1
  H  H6  1  0.97556438  0.54557470  0.36333274  1
  H  H7  1  0.53440914  0.98469537  0.38217853  1
  H  H8  1  0.61452871  0.22069042  0.36807968  1
  H  H9  1  0.31937156  0.74347456  0.37279899  1
  H  H10  1  0.80957566  0.25784261  0.77887374  1
  H  H11  1  0.73271971  0.37704278  0.89497725  1
  H  H12  1  0.05452746  0.54508037  0.85465228  1
  H  H13  1  0.28532088  0.60480759  0.89552499  1
  H  H14  1  0.30022511  0.15945438  0.78879366  1
  H  H15  1  0.40641401  0.27635112  0.90033901  1
  H  H16  1  0.58276032  0.93327893  0.85170475  1
  H  H17  1  0.62474424  0.70373540  0.89275065  1
  H  H18  1  0.77623648  0.61827685  0.59156626  1
  H  H19  1  0.82709893  0.73405896  0.71293692  1
  H  H20  1  0.06896744  0.44409850  0.64732082  1
  H  H21  1  0.28727245  0.38260801  0.59470342  1
  H  H22  1  0.29310829  0.80094623  0.70125959  1
  H  H23  1  0.34018829  0.86261305  0.56156265  1
  H  H24  1  0.57787868  0.05321500  0.65189698  1
  H  H25  1  0.63566109  0.27720781  0.60393940  1
  H  H26  1  0.06486899  0.67139686  0.16999722  1
  H  H27  1  0.29479481  0.64373359  0.11133825  1
  H  H28  1  0.87511470  0.31850616  0.19144552  1
  H  H29  1  0.71082890  0.38511742  0.09812764  1
  H  H30  1  0.69785108  0.91574266  0.20138914  1
  H  H31  1  0.63194125  0.72127571  0.11221723  1
  H  H32  1  0.36008451  0.07376887  0.16918646  1
  H  H33  1  0.36702034  0.30831735  0.11531900  1
  O  O34  1  0.51556895  0.44801676  0.39463201  1
  O  O35  1  0.50721708  0.49326075  0.94245801  1
  O  O36  1  0.52302893  0.50598631  0.52179317  1
  O  O37  1  0.49677674  0.49764150  0.07340287  1
  O  O38  1  0.12753392  0.31941678  0.35582828  1
  O  O39  1  0.88306351  0.66804502  0.36272019  1
  O  O40  1  0.66385137  0.07233815  0.35388640  1
  O  O41  1  0.33356018  0.85870623  0.43087141  1
  O  O42  1  0.86007062  0.31087785  0.85618291  1
  O  O43  1  0.15733832  0.66604652  0.86035157  1
  O  O44  1  0.34407540  0.13434184  0.86896430  1
  O  O45  1  0.69588342  0.83035991  0.85341055  1
  O  O46  1  0.89108784  0.69097192  0.63575894  1
  O  O47  1  0.15478913  0.32117055  0.62800525  1
  O  O48  1  0.35846972  0.90468481  0.64869143  1
  O  O49  1  0.69996592  0.15577190  0.63764183  1
  O  O50  1  0.18606336  0.74907730  0.13659433  1
  O  O51  1  0.85310888  0.31836856  0.10770866  1
  O  O52  1  0.71500441  0.85820070  0.12104372  1
  O  O53  1  0.27001358  0.18633254  0.14696668  1
