# generated using pymatgen
data_Ba(HO)2
_symmetry_space_group_name_H-M   'P 1'
_cell_length_a   9.25155777
_cell_length_b   8.22762274
_cell_length_c   7.08655125
_cell_angle_alpha   90.00000000
_cell_angle_beta   101.57889491
_cell_angle_gamma   90.00000000
_symmetry_Int_Tables_number   1
_chemical_formula_structural   Ba(HO)2
_chemical_formula_sum   'Ba8 H16 O16'
_cell_volume   528.43889768
_cell_formula_units_Z   8
loop_
 _symmetry_equiv_pos_site_id
 _symmetry_equiv_pos_as_xyz
  1  'x, y, z'
loop_
 _atom_site_type_symbol
 _atom_site_label
 _atom_site_symmetry_multiplicity
 _atom_site_fract_x
 _atom_site_fract_y
 _atom_site_fract_z
 _atom_site_occupancy
  Ba  Ba0  1  0.92566149  0.11991342  0.25083366  1
  Ba  Ba1  1  0.42566149  0.38008658  0.75083366  1
  Ba  Ba2  1  0.07433851  0.88008658  0.74916634  1
  Ba  Ba3  1  0.57433851  0.61991342  0.24916634  1
  Ba  Ba4  1  0.34580769  0.03680555  0.27384776  1
  Ba  Ba5  1  0.84580769  0.46319445  0.77384776  1
  Ba  Ba6  1  0.65419231  0.96319445  0.72615224  1
  Ba  Ba7  1  0.15419231  0.53680555  0.22615224  1
  H  H8  1  0.71664507  0.89636012  0.36952551  1
  H  H9  1  0.21664507  0.60363988  0.86952551  1
  H  H10  1  0.28335493  0.10363988  0.63047449  1
  H  H11  1  0.78335493  0.39636012  0.13047449  1
  H  H12  1  0.19789284  0.80890957  0.42689075  1
  H  H13  1  0.69789284  0.69109043  0.92689075  1
  H  H14  1  0.80210716  0.19109043  0.57310925  1
  H  H15  1  0.30210716  0.30890957  0.07310925  1
  H  H16  1  0.92857847  0.80316662  0.10685762  1
  H  H17  1  0.42857847  0.69683338  0.60685762  1
  H  H18  1  0.07142153  0.19683338  0.89314238  1
  H  H19  1  0.57142153  0.30316662  0.39314238  1
  H  H20  1  0.37594131  0.82385784  0.93466186  1
  H  H21  1  0.87594131  0.67614216  0.43466186  1
  H  H22  1  0.62405869  0.17614216  0.06533814  1
  H  H23  1  0.12405869  0.32385784  0.56533814  1
  O  O24  1  0.62709222  0.95918439  0.31578341  1
  O  O25  1  0.12709222  0.54081561  0.81578341  1
  O  O26  1  0.37290778  0.04081561  0.68421659  1
  O  O27  1  0.87290778  0.45918439  0.18421659  1
  O  O28  1  0.10410215  0.85999055  0.36185510  1
  O  O29  1  0.60410215  0.64000945  0.86185510  1
  O  O30  1  0.89589785  0.14000945  0.63814490  1
  O  O31  1  0.39589785  0.35999055  0.13814490  1
  O  O32  1  0.87283147  0.83068954  0.97920551  1
  O  O33  1  0.37283147  0.66931046  0.47920551  1
  O  O34  1  0.12716853  0.16931046  0.02079449  1
  O  O35  1  0.62716853  0.33068954  0.52079449  1
  O  O36  1  0.32044228  0.78187065  0.02807911  1
  O  O37  1  0.82044228  0.71812935  0.52807911  1
  O  O38  1  0.67955772  0.21812935  0.97192089  1
  O  O39  1  0.17955772  0.28187065  0.47192089  1
