# generated using pymatgen
data_LiY2Ti2S2O5
_symmetry_space_group_name_H-M   'P 1'
_cell_length_a   11.50295716
_cell_length_b   11.50295716
_cell_length_c   11.50295716
_cell_angle_alpha   160.68567540
_cell_angle_beta   160.17035376
_cell_angle_gamma   27.81931988
_symmetry_Int_Tables_number   1
_chemical_formula_structural   LiY2Ti2S2O5
_chemical_formula_sum   'Li1 Y2 Ti2 S2 O5'
_cell_volume   170.69629613
_cell_formula_units_Z   1
loop_
 _symmetry_equiv_pos_site_id
 _symmetry_equiv_pos_as_xyz
  1  'x, y, z'
loop_
 _atom_site_type_symbol
 _atom_site_label
 _atom_site_symmetry_multiplicity
 _atom_site_fract_x
 _atom_site_fract_y
 _atom_site_fract_z
 _atom_site_occupancy
  Li  Li0  1  0.50000000  0.00000000  0.50000000  1
  Y  Y1  1  0.66510068  0.66510068  0.00000000  1
  Y  Y2  1  0.33489932  0.33489932  0.00000000  1
  Ti  Ti3  1  0.91485308  0.91485308  0.00000000  1
  Ti  Ti4  1  0.08514692  0.08514692  0.00000000  1
  S  S5  1  0.79528106  0.79528106  0.00000000  1
  S  S6  1  0.20471894  0.20471894  0.00000000  1
  O  O7  1  0.89749503  0.39749503  0.50000000  1
  O  O8  1  0.10250497  0.60250497  0.50000000  1
  O  O9  1  0.40666786  0.90666786  0.50000000  1
  O  O10  1  0.59333214  0.09333214  0.50000000  1
  O  O11  1  0.00000000  0.00000000  0.00000000  1
