# generated using pymatgen
data_Sr(H8O5)2
_symmetry_space_group_name_H-M   'P 1'
_cell_length_a   6.28713057
_cell_length_b   6.28713057
_cell_length_c   11.60724335
_cell_angle_alpha   91.24702648
_cell_angle_beta   91.24702648
_cell_angle_gamma   89.61885968
_symmetry_Int_Tables_number   1
_chemical_formula_structural   Sr(H8O5)2
_chemical_formula_sum   'Sr2 H32 O20'
_cell_volume   458.58517253
_cell_formula_units_Z   2
loop_
 _symmetry_equiv_pos_site_id
 _symmetry_equiv_pos_as_xyz
  1  'x, y, z'
loop_
 _atom_site_type_symbol
 _atom_site_label
 _atom_site_symmetry_multiplicity
 _atom_site_fract_x
 _atom_site_fract_y
 _atom_site_fract_z
 _atom_site_occupancy
  Sr  Sr0  1  0.00000000  0.00000000  0.50000000  1
  Sr  Sr1  1  0.00000000  0.00000000  0.00000000  1
  H  H2  1  0.08872682  0.30671262  0.29268989  1
  H  H3  1  0.26847724  0.38620458  0.38922879  1
  H  H4  1  0.72237595  0.61752958  0.39181459  1
  H  H5  1  0.96217969  0.55656857  0.38375747  1
  H  H6  1  0.61894748  0.27634343  0.38948386  1
  H  H7  1  0.55694293  0.03696979  0.38731066  1
  H  H8  1  0.31911643  0.91131943  0.29278893  1
  H  H9  1  0.38892718  0.72989494  0.38975613  1
  H  H10  1  0.91131943  0.31911643  0.79278893  1
  H  H11  1  0.72989494  0.38892718  0.88975613  1
  H  H12  1  0.03696979  0.55694293  0.88731066  1
  H  H13  1  0.27634343  0.61894748  0.88948386  1
  H  H14  1  0.38620458  0.26847724  0.88922879  1
  H  H15  1  0.30671262  0.08872682  0.79268989  1
  H  H16  1  0.55656857  0.96217969  0.88375747  1
  H  H17  1  0.61752958  0.72237595  0.89181459  1
  H  H18  1  0.91127318  0.69328738  0.70731011  1
  H  H19  1  0.73152276  0.61379542  0.61077121  1
  H  H20  1  0.27762405  0.38247042  0.60818541  1
  H  H21  1  0.03782031  0.44343143  0.61624253  1
  H  H22  1  0.38105252  0.72365657  0.61051614  1
  H  H23  1  0.44305707  0.96303021  0.61268934  1
  H  H24  1  0.61107282  0.27010506  0.61024387  1
  H  H25  1  0.68088357  0.08868057  0.70721107  1
  H  H26  1  0.08868057  0.68088357  0.20721107  1
  H  H27  1  0.27010506  0.61107282  0.11024387  1
  H  H28  1  0.96303021  0.44305707  0.11268934  1
  H  H29  1  0.72365657  0.38105252  0.11051614  1
  H  H30  1  0.69328738  0.91127318  0.20731011  1
  H  H31  1  0.61379542  0.73152276  0.11077121  1
  H  H32  1  0.38247042  0.27762405  0.10818541  1
  H  H33  1  0.44343143  0.03782031  0.11624253  1
  O  O34  1  0.49527594  0.50370549  0.43493551  1
  O  O35  1  0.50370549  0.49527594  0.93493551  1
  O  O36  1  0.50472406  0.49629451  0.56506449  1
  O  O37  1  0.49629451  0.50472406  0.06506449  1
  O  O38  1  0.11754983  0.33088066  0.37564287  1
  O  O39  1  0.86408968  0.67947621  0.37079698  1
  O  O40  1  0.67939054  0.13006847  0.37286230  1
  O  O41  1  0.32392201  0.87731949  0.37496196  1
  O  O42  1  0.87731949  0.32392201  0.87496196  1
  O  O43  1  0.13006847  0.67939054  0.87286230  1
  O  O44  1  0.33088066  0.11754983  0.87564287  1
  O  O45  1  0.67947621  0.86408968  0.87079698  1
  O  O46  1  0.88245017  0.66911934  0.62435713  1
  O  O47  1  0.13591032  0.32052379  0.62920302  1
  O  O48  1  0.32060946  0.86993153  0.62713770  1
  O  O49  1  0.67607799  0.12268051  0.62503804  1
  O  O50  1  0.12268051  0.67607799  0.12503804  1
  O  O51  1  0.86993153  0.32060946  0.12713770  1
  O  O52  1  0.66911934  0.88245017  0.12435713  1
  O  O53  1  0.32052379  0.13591032  0.12920302  1
