# generated using pymatgen
data_Cu2H3ClO3
_symmetry_space_group_name_H-M   'P 1'
_cell_length_a   6.14297081
_cell_length_b   6.14297081
_cell_length_c   6.14297067
_cell_angle_alpha   68.52442296
_cell_angle_beta   68.52442296
_cell_angle_gamma   68.52442652
_symmetry_Int_Tables_number   1
_chemical_formula_structural   Cu2H3ClO3
_chemical_formula_sum   'Cu4 H6 Cl2 O6'
_cell_volume   193.39851168
_cell_formula_units_Z   2
loop_
 _symmetry_equiv_pos_site_id
 _symmetry_equiv_pos_as_xyz
  1  'x, y, z'
loop_
 _atom_site_type_symbol
 _atom_site_label
 _atom_site_symmetry_multiplicity
 _atom_site_fract_x
 _atom_site_fract_y
 _atom_site_fract_z
 _atom_site_occupancy
  Cu  Cu0  1  0.50000000  0.50000000  0.50000000  1
  Cu  Cu1  1  0.50000000  0.50000000  0.00000000  1
  Cu  Cu2  1  0.50000000  0.00000000  0.50000000  1
  Cu  Cu3  1  0.00000000  0.50000000  0.50000000  1
  H  H4  1  0.77191117  0.77191117  0.17491847  1
  H  H5  1  0.77191117  0.17491847  0.77191117  1
  H  H6  1  0.17491847  0.77191117  0.77191117  1
  H  H7  1  0.22808883  0.22808883  0.82508153  1
  H  H8  1  0.22808883  0.82508153  0.22808883  1
  H  H9  1  0.82508153  0.22808883  0.22808883  1
  Cl  Cl10  1  0.81163747  0.81163747  0.81163747  1
  Cl  Cl11  1  0.18836253  0.18836253  0.18836253  1
  O  O12  1  0.35559255  0.73033401  0.73033401  1
  O  O13  1  0.73033401  0.73033401  0.35559255  1
  O  O14  1  0.73033401  0.35559255  0.73033401  1
  O  O15  1  0.64440745  0.26966599  0.26966599  1
  O  O16  1  0.26966599  0.26966599  0.64440745  1
  O  O17  1  0.26966599  0.64440745  0.26966599  1
