# generated using pymatgen
data_TaAg7S6
_symmetry_space_group_name_H-M   'P 1'
_cell_length_a   7.76273800
_cell_length_b   7.53614210
_cell_length_c   7.61987242
_cell_angle_alpha   62.09837459
_cell_angle_beta   60.06999205
_cell_angle_gamma   59.68617140
_symmetry_Int_Tables_number   1
_chemical_formula_structural   TaAg7S6
_chemical_formula_sum   'Ta1 Ag7 S6'
_cell_volume   319.28236478
_cell_formula_units_Z   1
loop_
 _symmetry_equiv_pos_site_id
 _symmetry_equiv_pos_as_xyz
  1  'x, y, z'
loop_
 _atom_site_type_symbol
 _atom_site_label
 _atom_site_symmetry_multiplicity
 _atom_site_fract_x
 _atom_site_fract_y
 _atom_site_fract_z
 _atom_site_occupancy
  Ta  Ta0  1  0.48623780  0.49741145  0.49459004  1
  Ag  Ag1  1  0.26218755  0.62338981  0.11694448  1
  Ag  Ag2  1  0.19450312  0.25924087  0.91230609  1
  Ag  Ag3  1  0.71827935  0.34530671  0.93532472  1
  Ag  Ag4  1  0.61938880  0.99707154  0.32439831  1
  Ag  Ag5  1  0.18434248  0.89982545  0.69836426  1
  Ag  Ag6  1  0.97118245  0.12143261  0.38048087  1
  Ag  Ag7  1  0.01742541  0.40212404  0.51445738  1
  S  S8  1  0.00348010  0.00255729  0.03634340  1
  S  S9  1  0.28588348  0.23550666  0.22139551  1
  S  S10  1  0.11404085  0.63433343  0.63016172  1
  S  S11  1  0.60017660  0.12899761  0.61392754  1
  S  S12  1  0.59795582  0.61774023  0.13528630  1
  S  S13  1  0.61291618  0.62906230  0.61401938  1
