# generated using pymatgen
data_LiCu(PO3)4
_symmetry_space_group_name_H-M   'P 1'
_cell_length_a   9.35659448
_cell_length_b   10.19890999
_cell_length_c   9.23825642
_cell_angle_alpha   90.00000000
_cell_angle_beta   90.00000000
_cell_angle_gamma   90.00000000
_symmetry_Int_Tables_number   1
_chemical_formula_structural   LiCu(PO3)4
_chemical_formula_sum   'Li4 Cu4 P16 O48'
_cell_volume   881.57969509
_cell_formula_units_Z   4
loop_
 _symmetry_equiv_pos_site_id
 _symmetry_equiv_pos_as_xyz
  1  'x, y, z'
loop_
 _atom_site_type_symbol
 _atom_site_label
 _atom_site_symmetry_multiplicity
 _atom_site_fract_x
 _atom_site_fract_y
 _atom_site_fract_z
 _atom_site_occupancy
  Li  Li0  1  0.00451047  0.83126750  0.10332476  1
  Li  Li1  1  0.99548953  0.16873250  0.60332476  1
  Li  Li2  1  0.49548953  0.33126750  0.89667524  1
  Li  Li3  1  0.50451047  0.66873250  0.39667524  1
  Cu  Cu4  1  0.49304612  0.70421890  0.75691776  1
  Cu  Cu5  1  0.99304612  0.79578110  0.74308224  1
  Cu  Cu6  1  0.50695388  0.29578110  0.25691776  1
  Cu  Cu7  1  0.00695388  0.20421890  0.24308224  1
  P  P8  1  0.20850565  0.60841445  0.95688532  1
  P  P9  1  0.28948344  0.10966481  0.45941607  1
  P  P10  1  0.78948344  0.39033519  0.04058393  1
  P  P11  1  0.27356406  0.97278750  0.74910783  1
  P  P12  1  0.69339730  0.10947572  0.74844369  1
  P  P13  1  0.77356406  0.52721250  0.75089217  1
  P  P14  1  0.29149435  0.10841445  0.04311468  1
  P  P15  1  0.79149435  0.39158555  0.45688532  1
  P  P16  1  0.80660270  0.60947572  0.25155631  1
  P  P17  1  0.70850565  0.89158555  0.54311468  1
  P  P18  1  0.72643594  0.02721250  0.24910783  1
  P  P19  1  0.30660270  0.89052428  0.24844369  1
  P  P20  1  0.71051656  0.89033519  0.95941607  1
  P  P21  1  0.19339730  0.39052428  0.75155631  1
  P  P22  1  0.21051656  0.60966481  0.54058393  1
  P  P23  1  0.22643494  0.47278750  0.25089217  1
  O  O24  1  0.14858430  0.87521528  0.23876893  1
  O  O25  1  0.68495829  0.93011113  0.37786179  1
  O  O26  1  0.38726823  0.45419465  0.25376137  1
  O  O27  1  0.38643865  0.22738564  0.06741175  1
  O  O28  1  0.11356135  0.72738564  0.93258825  1
  O  O29  1  0.14857639  0.48120311  0.61549379  1
  O  O30  1  0.38125153  0.22616020  0.42160373  1
  O  O31  1  0.64857639  0.01879689  0.88450621  1
  O  O32  1  0.63378014  0.14544455  0.24943960  1
  O  O33  1  0.61356135  0.77261436  0.56741175  1
  O  O34  1  0.86444607  0.51711298  0.38247395  1
  O  O35  1  0.61273177  0.54580535  0.75376137  1
  O  O36  1  0.12972871  0.12333857  0.43791947  1
  O  O37  1  0.63468870  0.38243088  0.42141471  1
  O  O38  1  0.67908608  0.92798047  0.12388431  1
  O  O39  1  0.37027129  0.62333857  0.56208053  1
  O  O40  1  0.13555393  0.48288702  0.88247395  1
  O  O41  1  0.31504171  0.06988887  0.87786179  1
  O  O42  1  0.60213871  0.22836348  0.75728813  1
  O  O43  1  0.88643865  0.27261436  0.43258825  1
  O  O44  1  0.86531130  0.88243088  0.57858529  1
  O  O45  1  0.85142361  0.51879689  0.11549379  1
  O  O46  1  0.88125153  0.27383980  0.07839627  1
  O  O47  1  0.32091392  0.07201953  0.62388431  1
  O  O48  1  0.36531130  0.61756912  0.92141471  1
  O  O49  1  0.10213871  0.27163652  0.74271187  1
  O  O50  1  0.17908608  0.57201953  0.37611569  1
  O  O51  1  0.11874847  0.72616020  0.57839627  1
  O  O52  1  0.64858430  0.62478472  0.26123107  1
  O  O53  1  0.39786129  0.77163652  0.25728813  1
  O  O54  1  0.86621986  0.64544455  0.75056040  1
  O  O55  1  0.11273177  0.95419465  0.74623863  1
  O  O56  1  0.63555393  0.01711298  0.61752605  1
  O  O57  1  0.36621986  0.85455545  0.74943960  1
  O  O58  1  0.82091392  0.42798047  0.87611569  1
  O  O59  1  0.81504171  0.43011113  0.62213821  1
  O  O60  1  0.87027129  0.87666143  0.93791947  1
  O  O61  1  0.13378014  0.35455545  0.25056040  1
  O  O62  1  0.18495829  0.56988887  0.12213821  1
  O  O63  1  0.35142361  0.98120311  0.38450621  1
  O  O64  1  0.88726823  0.04580535  0.24623863  1
  O  O65  1  0.85141570  0.12478472  0.73876893  1
  O  O66  1  0.13468870  0.11756912  0.07858529  1
  O  O67  1  0.61874847  0.77383980  0.92160373  1
  O  O68  1  0.62972871  0.37666143  0.06208053  1
  O  O69  1  0.89786129  0.72836348  0.24271187  1
  O  O70  1  0.35141570  0.37521528  0.76123107  1
  O  O71  1  0.36444607  0.98288702  0.11752605  1
