# generated using pymatgen
data_FeCl3
_symmetry_space_group_name_H-M   'P 1'
_cell_length_a   12.09837196
_cell_length_b   3.75502169
_cell_length_c   9.38906899
_cell_angle_alpha   109.42254773
_cell_angle_beta   140.52359799
_cell_angle_gamma   64.52572772
_symmetry_Int_Tables_number   1
_chemical_formula_structural   FeCl3
_chemical_formula_sum   'Fe2 Cl6'
_cell_volume   244.81407337
_cell_formula_units_Z   2
loop_
 _symmetry_equiv_pos_site_id
 _symmetry_equiv_pos_as_xyz
  1  'x, y, z'
loop_
 _atom_site_type_symbol
 _atom_site_label
 _atom_site_symmetry_multiplicity
 _atom_site_fract_x
 _atom_site_fract_y
 _atom_site_fract_z
 _atom_site_occupancy
  Fe  Fe0  1  0.49325381  0.78314162  0.35229953  1
  Fe  Fe1  1  0.78954113  0.16475201  0.12893550  1
  Cl  Cl2  1  0.23151985  0.74193745  0.02663280  1
  Cl  Cl3  1  0.99338757  0.17214326  0.48359695  1
  Cl  Cl4  1  0.67188047  0.12551532  0.45737055  1
  Cl  Cl5  1  0.45787040  0.06933520  0.55808783  1
  Cl  Cl6  1  0.84731160  0.50104448  0.03253280  1
  Cl  Cl7  1  0.52398617  0.47016566  -0.01276996  1
