# generated using pymatgen
data_Cr4(Ga2Se5)3
_symmetry_space_group_name_H-M   'P 1'
_cell_length_a   15.91802177
_cell_length_b   47.74634437
_cell_length_c   31.60717080
_cell_angle_alpha   6.79827327
_cell_angle_beta   12.17403434
_cell_angle_gamma   13.91862392
_symmetry_Int_Tables_number   1
_chemical_formula_structural   Cr4(Ga2Se5)3
_chemical_formula_sum   'Cr4 Ga6 Se15'
_cell_volume   599.66744630
_cell_formula_units_Z   1
loop_
 _symmetry_equiv_pos_site_id
 _symmetry_equiv_pos_as_xyz
  1  'x, y, z'
loop_
 _atom_site_type_symbol
 _atom_site_label
 _atom_site_symmetry_multiplicity
 _atom_site_fract_x
 _atom_site_fract_y
 _atom_site_fract_z
 _atom_site_occupancy
  Cr  Cr0  1  0.43920329  0.00001935  0.43543713  1
  Cr  Cr1  1  0.44016115  0.31362705  0.46525716  1
  Cr  Cr2  1  0.44011101  0.68642767  0.40607374  1
  Cr  Cr3  1  0.30069136  0.00000378  0.30586334  1
  Ga  Ga4  1  0.17129012  0.31991833  0.20918569  1
  Ga  Ga5  1  0.17129674  0.68006212  0.16897226  1
  Ga  Ga6  1  0.68754239  0.33701426  0.68648098  1
  Ga  Ga7  1  0.91756468  0.33943475  0.90855104  1
  Ga  Ga8  1  0.68754789  0.66297668  0.69753022  1
  Ga  Ga9  1  0.91757286  0.66054771  0.92687542  1
  Se  Se10  1  0.12394308  0.00001631  0.13524282  1
  Se  Se11  1  0.00644742  0.30489701  0.04919712  1
  Se  Se12  1  0.13430563  0.33705287  0.12363964  1
  Se  Se13  1  0.00644907  0.69509058  0.96390651  1
  Se  Se14  1  0.75027574  -0.00000006  0.73898319  1
  Se  Se15  1  0.13431993  0.66295393  0.13478351  1
  Se  Se16  1  0.83478099  0.99999458  0.88545894  1
  Se  Se17  1  0.59772602  0.30612397  0.64487005  1
  Se  Se18  1  0.97545375  0.00000189  0.01448286  1
  Se  Se19  1  0.75166170  0.33867893  0.73078252  1
  Se  Se20  1  0.88709238  0.30411521  0.89795760  1
  Se  Se21  1  0.59772762  0.69385600  0.56327195  1
  Se  Se22  1  0.75168248  0.66132986  0.74679386  1
  Se  Se23  1  0.88709907  0.69586950  0.81032289  1
  Se  Se24  1  0.63182162  0.99998772  0.59384757  1
