# generated using pymatgen
data_Cu2BiAsO6
_symmetry_space_group_name_H-M   'P 1'
_cell_length_a   5.29358290
_cell_length_b   7.75145730
_cell_length_c   12.48774510
_cell_angle_alpha   90.01534991
_cell_angle_beta   90.00000571
_cell_angle_gamma   90.00002787
_symmetry_Int_Tables_number   1
_chemical_formula_structural   Cu2BiAsO6
_chemical_formula_sum   'Cu8 Bi4 As4 O24'
_cell_volume   512.40939924
_cell_formula_units_Z   4
loop_
 _symmetry_equiv_pos_site_id
 _symmetry_equiv_pos_as_xyz
  1  'x, y, z'
loop_
 _atom_site_type_symbol
 _atom_site_label
 _atom_site_symmetry_multiplicity
 _atom_site_fract_x
 _atom_site_fract_y
 _atom_site_fract_z
 _atom_site_occupancy
  Cu  Cu0  1  0.74999973  0.21839013  0.87233050  1
  Cu  Cu1  1  0.74999981  0.54495708  0.19407471  1
  Cu  Cu2  1  0.25000034  0.78150561  0.12774162  1
  Cu  Cu3  1  0.75000553  0.28144414  0.37228121  1
  Cu  Cu4  1  0.25000041  0.04487057  0.30590721  1
  Cu  Cu5  1  0.24999979  0.71861915  0.62782777  1
  Cu  Cu6  1  0.24999963  0.45510529  0.80587531  1
  Cu  Cu7  1  0.74999978  0.95506890  0.69407152  1
  Bi  Bi8  1  0.74999952  0.64989432  0.94259274  1
  Bi  Bi9  1  0.25000048  0.14999559  0.55741740  1
  Bi  Bi10  1  0.74999913  0.85008719  0.44259869  1
  Bi  Bi11  1  0.24999954  0.35006695  0.05743006  1
  As  As12  1  0.25000118  0.52458851  0.37271615  1
  As  As13  1  0.74999958  0.47561682  0.62729278  1
  As  As14  1  0.24999958  0.97542335  0.87269454  1
  As  As15  1  0.74999964  0.02450453  0.12726585  1
  O  O16  1  0.24999957  0.75581092  0.87909769  1
  O  O17  1  0.98904173  0.05594267  0.79978062  1
  O  O18  1  0.48925324  0.55594923  0.70017121  1
  O  O19  1  0.49885656  0.38928505  0.91084341  1
  O  O20  1  0.50127038  0.61064772  0.08924374  1
  O  O21  1  0.49902428  0.11072678  0.41090416  1
  O  O22  1  0.24999960  0.74421703  0.37908587  1
  O  O23  1  0.74999951  0.25596570  0.62092978  1
  O  O24  1  0.51095706  0.05594303  0.79978055  1
  O  O25  1  0.74999949  0.56509728  0.50283123  1
  O  O26  1  0.01074544  0.55594920  0.70017131  1
  O  O27  1  0.51111611  0.44397872  0.29974013  1
  O  O28  1  0.98888580  0.44397978  0.29973966  1
  O  O29  1  0.00114286  0.38928510  0.91084329  1
  O  O30  1  0.99872915  0.61064789  0.08924373  1
  O  O31  1  0.48918328  0.94397397  0.20012893  1
  O  O32  1  0.74999992  0.24414704  0.12093309  1
  O  O33  1  0.74999936  0.93483064  0.00282164  1
  O  O34  1  0.50138260  0.88939799  0.58920080  1
  O  O35  1  0.99861713  0.88939762  0.58920071  1
  O  O36  1  0.01081587  0.94397388  0.20012896  1
  O  O37  1  0.24999926  0.43483565  0.49706360  1
  O  O38  1  0.24999949  0.06515401  0.99709340  1
  O  O39  1  0.00097864  0.11072501  0.41090446  1
