# generated using pymatgen
data_Mg5AlH21O17
_symmetry_space_group_name_H-M   'P 1'
_cell_length_a   8.04480938
_cell_length_b   8.03137016
_cell_length_c   48.25559561
_cell_angle_alpha   22.09733550
_cell_angle_beta   22.39222072
_cell_angle_gamma   22.34674019
_symmetry_Int_Tables_number   1
_chemical_formula_structural   Mg5AlH21O17
_chemical_formula_sum   'Mg5 Al1 H21 O17'
_cell_volume   392.92763891
_cell_formula_units_Z   1
loop_
 _symmetry_equiv_pos_site_id
 _symmetry_equiv_pos_as_xyz
  1  'x, y, z'
loop_
 _atom_site_type_symbol
 _atom_site_label
 _atom_site_symmetry_multiplicity
 _atom_site_fract_x
 _atom_site_fract_y
 _atom_site_fract_z
 _atom_site_occupancy
  Mg  Mg0  1  0.00255329  0.00855128  0.99912742  1
  Mg  Mg1  1  0.98461959  0.01064338  0.16698622  1
  Mg  Mg2  1  0.99828247  0.00933046  0.49941038  1
  Mg  Mg3  1  0.98170482  0.01314692  0.33416171  1
  Mg  Mg4  1  0.02868909  0.01516213  0.65840714  1
  Al  Al5  1  0.01503225  0.00966205  0.82825165  1
  H  H6  1  0.38234607  0.38584715  0.08102024  1
  H  H7  1  0.15994478  0.10353582  0.20751348  1
  H  H8  1  0.57167444  0.56452014  0.10122820  1
  H  H9  1  0.47057796  0.37190682  0.23496880  1
  H  H10  1  0.15695252  0.05002043  0.38294105  1
  H  H11  1  0.62512228  0.52245501  0.26589479  1
  H  H12  1  0.47056750  0.36352615  0.40353219  1
  H  H13  1  0.05761631  0.20128701  0.54069909  1
  H  H14  1  0.81897672  0.87770692  0.30000403  1
  H  H15  1  0.61945279  0.51467841  0.43565612  1
  H  H16  1  0.47761029  0.39111824  0.56553265  1
  H  H17  1  0.03898677  0.30023303  0.69327373  1
  H  H18  1  0.73333482  0.92575678  0.47351546  1
  H  H19  1  0.64036319  0.54424736  0.59210080  1
  H  H20  1  0.42627565  0.37663965  0.73998689  1
  H  H21  1  0.09836194  0.27027877  0.85540549  1
  H  H22  1  0.70414248  0.88284550  0.65259777  1
  H  H23  1  0.62182511  0.58780469  0.75572578  1
  H  H24  1  0.49409514  0.43076185  0.88751371  1
  H  H25  1  0.68869097  0.57671997  0.91533714  1
  H  H26  1  0.86371725  0.93285303  0.95100075  1
  O  O27  1  0.39760366  0.40752596  0.05541270  1
  O  O28  1  0.62428530  0.66175466  0.09637765  1
  O  O29  1  0.38732599  0.40968264  0.22247718  1
  O  O30  1  0.80797312  0.20408636  0.24751434  1
  O  O31  1  0.61045287  0.65420676  0.26626619  1
  O  O32  1  0.37251600  0.39817885  0.39406240  1
  O  O33  1  0.79493262  0.22493852  0.41339169  1
  O  O34  1  0.60984370  0.62979463  0.43814679  1
  O  O35  1  0.37393878  0.37346458  0.56518684  1
  O  O36  1  0.69970711  0.40158820  0.56691329  1
  O  O37  1  0.61609261  0.60103887  0.60732090  1
  O  O38  1  0.34512170  0.34662416  0.73787324  1
  O  O39  1  0.68961186  0.55061656  0.71118477  1
  O  O40  1  0.59876185  0.58818305  0.77973319  1
  O  O41  1  0.41827547  0.40416468  0.88388589  1
  O  O42  1  0.77829985  0.28167201  0.90661905  1
  O  O43  1  0.67040802  0.65790754  0.92528524  1
