# generated using pymatgen
data_Cs3Mo5P6O25
_symmetry_space_group_name_H-M   'P 1'
_cell_length_a   12.37672721
_cell_length_b   12.37672672
_cell_length_c   9.77411599
_cell_angle_alpha   90.00000000
_cell_angle_beta   90.00000000
_cell_angle_gamma   120.00000128
_symmetry_Int_Tables_number   1
_chemical_formula_structural   Cs3Mo5P6O25
_chemical_formula_sum   'Cs6 Mo10 P12 O50'
_cell_volume   1296.64095672
_cell_formula_units_Z   2
loop_
 _symmetry_equiv_pos_site_id
 _symmetry_equiv_pos_as_xyz
  1  'x, y, z'
loop_
 _atom_site_type_symbol
 _atom_site_label
 _atom_site_symmetry_multiplicity
 _atom_site_fract_x
 _atom_site_fract_y
 _atom_site_fract_z
 _atom_site_occupancy
  Cs  Cs0  1  0.39842046  0.08778708  0.40994595  1
  Cs  Cs1  1  0.08778708  0.39842046  0.90994595  1
  Cs  Cs2  1  0.31063338  0.91221292  0.90994595  1
  Cs  Cs3  1  0.91221292  0.31063338  0.40994595  1
  Cs  Cs4  1  0.60157954  0.68936662  0.90994595  1
  Cs  Cs5  1  0.68936662  0.60157954  0.40994595  1
  Mo  Mo6  1  0.81113592  0.48617913  0.81901680  1
  Mo  Mo7  1  0.00000000  0.00000000  0.45793301  1
  Mo  Mo8  1  0.66666700  0.33333300  0.07806951  1
  Mo  Mo9  1  0.33333300  0.66666700  0.57806951  1
  Mo  Mo10  1  0.67504321  0.18886408  0.81901680  1
  Mo  Mo11  1  0.18886408  0.67504321  0.31901680  1
  Mo  Mo12  1  0.51382087  0.32495679  0.81901680  1
  Mo  Mo13  1  0.32495679  0.51382087  0.31901680  1
  Mo  Mo14  1  0.48617913  0.81113592  0.31901680  1
  Mo  Mo15  1  0.00000000  0.00000000  0.95793301  1
  P  P16  1  0.08492489  0.85291374  0.20546579  1
  P  P17  1  0.76798885  0.91507511  0.20546579  1
  P  P18  1  0.65050044  0.06444823  0.13373994  1
  P  P19  1  0.93555177  0.58605221  0.13373994  1
  P  P20  1  0.85291374  0.08492489  0.70546579  1
  P  P21  1  0.34949956  0.41394779  0.63373994  1
  P  P22  1  0.58605221  0.93555177  0.63373994  1
  P  P23  1  0.91507511  0.76798885  0.70546579  1
  P  P24  1  0.23201115  0.14708626  0.70546579  1
  P  P25  1  0.14708626  0.23201115  0.20546579  1
  P  P26  1  0.06444823  0.65050044  0.63373994  1
  P  P27  1  0.41394779  0.34949956  0.13373994  1
  O  O28  1  0.80174216  0.34056439  0.93042916  1
  O  O29  1  0.19052440  0.67783403  0.69406244  1
  O  O30  1  0.36840401  0.17382714  0.70819633  1
  O  O31  1  0.92011388  0.83493034  0.83651295  1
  O  O32  1  0.06152541  0.66225260  0.47840165  1
  O  O33  1  0.17382714  0.36840401  0.20819633  1
  O  O34  1  0.82617286  0.19457687  0.70819633  1
  O  O35  1  0.19457687  0.82617286  0.20819633  1
  O  O36  1  0.39927281  0.33774740  0.97840165  1
  O  O37  1  0.52187555  0.95850992  0.18321304  1
  O  O38  1  0.93847459  0.60072719  0.97840165  1
  O  O39  1  0.24220388  0.28474462  0.70194552  1
  O  O40  1  0.04254074  0.75779612  0.70194552  1
  O  O41  1  0.07731431  0.16986913  0.07473051  1
  O  O42  1  0.47812445  0.43663437  0.68321304  1
  O  O43  1  0.90744518  0.83013087  0.57473051  1
  O  O44  1  0.33774740  0.39927281  0.47840165  1
  O  O45  1  0.66666700  0.33333300  0.70611724  1
  O  O46  1  0.33333300  0.66666700  0.20611724  1
  O  O47  1  0.53882223  0.19825784  0.93042916  1
  O  O48  1  0.16506966  0.08518354  0.83651295  1
  O  O49  1  0.92268569  0.09255482  0.57473051  1
  O  O50  1  0.43663437  0.47812445  0.18321304  1
  O  O51  1  0.46117777  0.65943561  0.43042916  1
  O  O52  1  0.80947560  0.48730963  0.19406244  1
  O  O53  1  0.51269037  0.32216597  0.19406244  1
  O  O54  1  0.95850992  0.52187555  0.68321304  1
  O  O55  1  0.07988612  0.91481646  0.33651295  1
  O  O56  1  0.28474462  0.24220388  0.20194552  1
  O  O57  1  0.75779612  0.04254074  0.20194552  1
  O  O58  1  0.67783403  0.19052440  0.19406244  1
  O  O59  1  0.83493034  0.92011388  0.33651295  1
  O  O60  1  0.60072719  0.93847459  0.47840165  1
  O  O61  1  0.09255482  0.92268569  0.07473051  1
  O  O62  1  0.71525538  0.95745926  0.70194552  1
  O  O63  1  0.95745926  0.71525538  0.20194552  1
  O  O64  1  0.08518354  0.16506966  0.33651295  1
  O  O65  1  0.80542313  0.63159599  0.70819633  1
  O  O66  1  0.56336563  0.04149008  0.68321304  1
  O  O67  1  0.16986913  0.07731431  0.57473051  1
  O  O68  1  0.65943561  0.46117777  0.93042916  1
  O  O69  1  0.48730963  0.80947560  0.69406244  1
  O  O70  1  0.34056439  0.80174216  0.43042916  1
  O  O71  1  0.19825784  0.53882223  0.43042916  1
  O  O72  1  0.83013087  0.90744518  0.07473051  1
  O  O73  1  0.91481646  0.07988612  0.83651295  1
  O  O74  1  0.32216597  0.51269037  0.69406244  1
  O  O75  1  0.63159599  0.80542313  0.20819633  1
  O  O76  1  0.04149008  0.56336563  0.18321304  1
  O  O77  1  0.66225260  0.06152541  0.97840165  1
