# generated using pymatgen
data_CaCu(GeO3)2
_symmetry_space_group_name_H-M   'P 1'
_cell_length_a   5.25975125
_cell_length_b   9.34291344
_cell_length_c   10.26017879
_cell_angle_alpha   90.00000000
_cell_angle_beta   103.70343254
_cell_angle_gamma   90.00000000
_symmetry_Int_Tables_number   1
_chemical_formula_structural   CaCu(GeO3)2
_chemical_formula_sum   'Ca4 Cu4 Ge8 O24'
_cell_volume   489.84748013
_cell_formula_units_Z   4
loop_
 _symmetry_equiv_pos_site_id
 _symmetry_equiv_pos_as_xyz
  1  'x, y, z'
loop_
 _atom_site_type_symbol
 _atom_site_label
 _atom_site_symmetry_multiplicity
 _atom_site_fract_x
 _atom_site_fract_y
 _atom_site_fract_z
 _atom_site_occupancy
  O  O0  1  0.30772661  0.25119806  0.40125528  1
  O  O1  1  0.19227339  0.75119806  0.59874472  1
  O  O2  1  0.69227339  0.74880194  0.59874472  1
  O  O3  1  0.80772661  0.24880194  0.40125528  1
  O  O4  1  0.19068490  0.30736469  0.10304750  1
  O  O5  1  0.30931510  0.80736469  0.89695250  1
  O  O6  1  0.80931510  0.69263531  0.89695250  1
  O  O7  1  0.69068490  0.19263531  0.10304750  1
  O  O8  1  0.67512948  0.97819562  0.43547797  1
  O  O9  1  0.82487052  0.47819562  0.56452203  1
  O  O10  1  0.32487052  0.02180438  0.56452203  1
  O  O11  1  0.17512948  0.52180438  0.43547797  1
  O  O12  1  0.27057496  0.01460568  0.15003451  1
  O  O13  1  0.22942504  0.51460568  0.84996549  1
  O  O14  1  0.72942504  0.98539432  0.84996549  1
  O  O15  1  0.77057496  0.48539432  0.15003451  1
  O  O16  1  0.76065593  0.36580952  0.87422334  1
  O  O17  1  0.73934407  0.86580952  0.12577666  1
  O  O18  1  0.23934407  0.63419048  0.12577666  1
  O  O19  1  0.26065593  0.13419048  0.87422334  1
  O  O20  1  0.27771712  0.32070980  0.66168514  1
  O  O21  1  0.22228288  0.82070980  0.33831486  1
  O  O22  1  0.72228288  0.67929020  0.33831486  1
  O  O23  1  0.77771712  0.17929020  0.66168514  1
  Ca  Ca24  1  0.47027587  0.45356452  0.28480756  1
  Ca  Ca25  1  0.02972413  0.95356452  0.71519244  1
  Ca  Ca26  1  0.52972413  0.54643548  0.71519244  1
  Ca  Ca27  1  0.97027587  0.04643548  0.28480756  1
  Cu  Cu28  1  0.97142163  0.65924645  0.22519230  1
  Cu  Cu29  1  0.52857837  0.15924645  0.77480770  1
  Cu  Cu30  1  0.02857837  0.34075355  0.77480770  1
  Cu  Cu31  1  0.47142163  0.84075355  0.22519230  1
  Ge  Ge32  1  0.84519602  0.34964251  0.05001480  1
  Ge  Ge33  1  0.65480398  0.84964251  0.94998520  1
  Ge  Ge34  1  0.15480398  0.65035749  0.94998520  1
  Ge  Ge35  1  0.34519602  0.15035749  0.05001480  1
  Ge  Ge36  1  0.08239966  0.35136823  0.49391074  1
  Ge  Ge37  1  0.41760034  0.85136823  0.50608926  1
  Ge  Ge38  1  0.91760034  0.64863177  0.50608926  1
  Ge  Ge39  1  0.58239966  0.14863177  0.49391074  1
