# generated using pymatgen
data_Bi(PO3)4
_symmetry_space_group_name_H-M   'P 1'
_cell_length_a   7.59266463
_cell_length_b   9.02289380
_cell_length_c   15.60718986
_cell_angle_alpha   90.00000000
_cell_angle_beta   95.27614961
_cell_angle_gamma   90.00000000
_symmetry_Int_Tables_number   1
_chemical_formula_structural   Bi(PO3)4
_chemical_formula_sum   'Bi4 P16 O48'
_cell_volume   1064.68415081
_cell_formula_units_Z   4
loop_
 _symmetry_equiv_pos_site_id
 _symmetry_equiv_pos_as_xyz
  1  'x, y, z'
loop_
 _atom_site_type_symbol
 _atom_site_label
 _atom_site_symmetry_multiplicity
 _atom_site_fract_x
 _atom_site_fract_y
 _atom_site_fract_z
 _atom_site_occupancy
  Bi  Bi0  1  0.45648477  0.15862436  0.14542561  1
  Bi  Bi1  1  0.95648477  0.34137564  0.64542561  1
  Bi  Bi2  1  0.54351523  0.84137564  0.85457439  1
  Bi  Bi3  1  0.04351523  0.65862436  0.35457439  1
  P  P4  1  0.12287599  0.05415113  0.78168277  1
  P  P5  1  0.93904744  0.73884237  0.57461126  1
  P  P6  1  0.56095256  0.23884237  0.92538874  1
  P  P7  1  0.82544344  0.76795757  0.05859460  1
  P  P8  1  0.78621728  0.97561460  0.68533758  1
  P  P9  1  0.62287599  0.44584887  0.28168277  1
  P  P10  1  0.87712401  0.94584887  0.21831723  1
  P  P11  1  0.17455656  0.23204243  0.94140540  1
  P  P12  1  0.06095256  0.26115763  0.42538874  1
  P  P13  1  0.21378272  0.02438540  0.31466242  1
  P  P14  1  0.43904744  0.76115763  0.07461126  1
  P  P15  1  0.71378272  0.47561460  0.81466242  1
  P  P16  1  0.37712401  0.55415113  0.71831723  1
  P  P17  1  0.28621728  0.52438540  0.18533758  1
  P  P18  1  0.67455656  0.26795757  0.44140540  1
  P  P19  1  0.32544344  0.73204243  0.55859460  1
  O  O20  1  0.60586327  0.11118047  0.86986425  1
  O  O21  1  0.05191399  0.04543031  0.23942904  1
  O  O22  1  0.27502104  0.95699546  0.80946967  1
  O  O23  1  0.93327938  0.85607507  0.13486151  1
  O  O24  1  0.72497896  0.04300454  0.19053033  1
  O  O25  1  0.90113345  0.72502357  0.47869066  1
  O  O26  1  0.64843500  0.39053267  0.89686542  1
  O  O27  1  0.64195007  0.33867332  0.20905434  1
  O  O28  1  0.36871534  0.10541434  0.28338944  1
  O  O29  1  0.43327938  0.64392493  0.63486151  1
  O  O30  1  0.77502104  0.54300454  0.30946967  1
  O  O31  1  0.09886655  0.27497643  0.52130934  1
  O  O32  1  0.06672062  0.14392493  0.86513849  1
  O  O33  1  0.22497896  0.45699546  0.69053033  1
  O  O34  1  0.55191399  0.45456969  0.73942904  1
  O  O35  1  0.10586327  0.38881953  0.36986425  1
  O  O36  1  0.14843500  0.10946733  0.39686542  1
  O  O37  1  0.89413673  0.61118047  0.63013575  1
  O  O38  1  0.13128466  0.60541434  0.21661056  1
  O  O39  1  0.26427194  0.36467750  0.16024435  1
  O  O40  1  0.93606760  0.63635584  0.03658192  1
  O  O41  1  0.56672062  0.35607507  0.36513849  1
  O  O42  1  0.94808601  0.95456969  0.76057096  1
  O  O43  1  0.78570409  0.86515275  0.98025710  1
  O  O44  1  0.73572806  0.63532250  0.83975565  1
  O  O45  1  0.40113345  0.77497643  0.97869066  1
  O  O46  1  0.06393240  0.36364416  0.96341808  1
  O  O47  1  0.35214364  0.28324611  0.90155047  1
  O  O48  1  0.44808601  0.54543031  0.26057096  1
  O  O49  1  0.35156500  0.60946733  0.10313458  1
  O  O50  1  0.64785636  0.71675389  0.09844953  1
  O  O51  1  0.63128466  0.89458566  0.71661056  1
  O  O52  1  0.86871534  0.39458566  0.78338944  1
  O  O53  1  0.56393240  0.13635584  0.46341808  1
  O  O54  1  0.85804993  0.83867332  0.29094566  1
  O  O55  1  0.85214364  0.21675389  0.40155047  1
  O  O56  1  0.14785636  0.78324611  0.59844953  1
  O  O57  1  0.43606760  0.86364416  0.53658192  1
  O  O58  1  0.39413673  0.88881953  0.13013575  1
  O  O59  1  0.21429591  0.13484725  0.01974290  1
  O  O60  1  0.28570409  0.63484725  0.48025710  1
  O  O61  1  0.59886655  0.22502357  0.02130934  1
  O  O62  1  0.14195007  0.16132668  0.70905434  1
  O  O63  1  0.76427194  0.13532250  0.66024435  1
  O  O64  1  0.85156500  0.89053267  0.60313458  1
  O  O65  1  0.71429591  0.36515275  0.51974290  1
  O  O66  1  0.23572806  0.86467750  0.33975565  1
  O  O67  1  0.35804993  0.66132668  0.79094566  1
