# generated using pymatgen
data_LiSb2P5O16
_symmetry_space_group_name_H-M   'P 1'
_cell_length_a   7.39223254
_cell_length_b   10.59382139
_cell_length_c   10.60526765
_cell_angle_alpha   90.00000000
_cell_angle_beta   114.57418632
_cell_angle_gamma   90.00000000
_symmetry_Int_Tables_number   1
_chemical_formula_structural   LiSb2P5O16
_chemical_formula_sum   'Li2 Sb4 P10 O32'
_cell_volume   755.29411964
_cell_formula_units_Z   2
loop_
 _symmetry_equiv_pos_site_id
 _symmetry_equiv_pos_as_xyz
  1  'x, y, z'
loop_
 _atom_site_type_symbol
 _atom_site_label
 _atom_site_symmetry_multiplicity
 _atom_site_fract_x
 _atom_site_fract_y
 _atom_site_fract_z
 _atom_site_occupancy
  Li  Li0  1  0.34438658  0.65323565  0.24315643  1
  Li  Li1  1  0.84438658  0.34676435  0.74315643  1
  Sb  Sb2  1  0.71286720  0.63295383  0.64368747  1
  Sb  Sb3  1  0.63040249  0.86249260  0.00336581  1
  Sb  Sb4  1  0.21286720  0.36704617  0.14368747  1
  Sb  Sb5  1  0.13040249  0.13750740  0.50336581  1
  P  P6  1  0.98994909  0.46933811  0.49485014  1
  P  P7  1  0.91496991  0.10672950  0.16984650  1
  P  P8  1  0.37024224  0.40073848  0.48205344  1
  P  P9  1  0.41496991  0.89327050  0.66984650  1
  P  P10  1  0.49460162  0.13676151  0.12188270  1
  P  P11  1  0.81682748  0.71297159  0.35779993  1
  P  P12  1  0.31682748  0.28702841  0.85779993  1
  P  P13  1  0.48994909  0.53066189  0.99485014  1
  P  P14  1  0.99460162  0.86323849  0.62188270  1
  P  P15  1  0.87024224  0.59926152  0.98205344  1
  O  O16  1  0.95681564  0.51902186  0.61894638  1
  O  O17  1  0.07878842  0.58716590  0.09568710  1
  O  O18  1  0.48617007  0.22201933  0.99305178  1
  O  O19  1  0.95987700  0.23302793  0.12134414  1
  O  O20  1  0.62237427  0.70748693  0.37396461  1
  O  O21  1  0.72820241  0.13023063  0.21265902  1
  O  O22  1  0.40590094  0.42874148  0.87068235  1
  O  O23  1  0.40934511  0.00834651  0.07485934  1
  O  O24  1  0.22823892  0.47646131  0.53965847  1
  O  O25  1  0.90590094  0.57125852  0.37068235  1
  O  O26  1  0.45681564  0.48097814  0.11894638  1
  O  O27  1  0.90934511  0.99165349  0.57485934  1
  O  O28  1  0.72823892  0.52353869  0.03965847  1
  O  O29  1  0.82365488  0.77069428  0.23120411  1
  O  O30  1  0.91480044  0.34056357  0.44229096  1
  O  O31  1  0.91275473  0.78576870  0.70815337  1
  O  O32  1  0.22820241  0.86976937  0.71265902  1
  O  O33  1  0.85246570  0.00398470  0.05721439  1
  O  O34  1  0.45987700  0.76697207  0.62134414  1
  O  O35  1  0.41275473  0.21423130  0.20815337  1
  O  O36  1  0.12237427  0.29251307  0.87396461  1
  O  O37  1  0.84025037  0.53113611  0.84388879  1
  O  O38  1  0.57878842  0.41283410  0.59568710  1
  O  O39  1  0.41480044  0.65943643  0.94229096  1
  O  O40  1  0.32365488  0.22930572  0.73120411  1
  O  O41  1  0.07635709  0.05892403  0.30697300  1
  O  O42  1  0.34025037  0.46886389  0.34388879  1
  O  O43  1  0.30145340  0.26401831  0.44470577  1
  O  O44  1  0.80145340  0.73598169  0.94470577  1
  O  O45  1  0.57635709  0.94107597  0.80697300  1
  O  O46  1  0.98617007  0.77798067  0.49305178  1
  O  O47  1  0.35246570  0.99601530  0.55721439  1
