# generated using pymatgen
data_Sm4Si3Pd4
_symmetry_space_group_name_H-M   'P 1'
_cell_length_a   5.60624892
_cell_length_b   7.92735243
_cell_length_c   11.02166125
_cell_angle_alpha   108.26007327
_cell_angle_beta   104.71196326
_cell_angle_gamma   89.99452386
_symmetry_Int_Tables_number   1
_chemical_formula_structural   Sm4Si3Pd4
_chemical_formula_sum   'Sm8 Si6 Pd8'
_cell_volume   448.22843256
_cell_formula_units_Z   2
loop_
 _symmetry_equiv_pos_site_id
 _symmetry_equiv_pos_as_xyz
  1  'x, y, z'
loop_
 _atom_site_type_symbol
 _atom_site_label
 _atom_site_symmetry_multiplicity
 _atom_site_fract_x
 _atom_site_fract_y
 _atom_site_fract_z
 _atom_site_occupancy
  Sm  Sm0  1  0.45532634  0.10359292  0.66064780  1
  Sm  Sm1  1  0.20759080  0.60320707  0.66153014  1
  Sm  Sm2  1  0.79506085  0.39809469  0.33881401  1
  Sm  Sm3  1  0.06668989  0.32944608  0.86498176  1
  Sm  Sm4  1  0.80041633  0.83134946  0.86476588  1
  Sm  Sm5  1  0.93656517  0.67101144  0.13419060  1
  Sm  Sm6  1  0.20319320  0.16904742  0.13454356  1
  Sm  Sm7  1  0.54744830  0.89729485  0.33900244  1
  Si  Si8  1  0.70889868  0.44966719  0.65779678  1
  Si  Si9  1  0.29303578  0.55085091  0.34091184  1
  Si  Si10  1  0.05191640  0.05141620  0.34202859  1
  Si  Si11  1  0.34833862  0.75048438  0.99980398  1
  Si  Si12  1  0.95009075  0.94926396  0.65701554  1
  Si  Si13  1  0.65583001  0.24930305  0.99932567  1
  Pd  Pd14  1  0.56542576  0.48181115  0.86764643  1
  Pd  Pd15  1  0.08566227  0.80579706  0.44874174  1
  Pd  Pd16  1  0.30448848  0.98158351  0.86649879  1
  Pd  Pd17  1  0.43848491  0.51772261  0.13118874  1
  Pd  Pd18  1  0.36654472  0.30659746  0.44853948  1
  Pd  Pd19  1  0.63429431  0.69448638  0.55070687  1
  Pd  Pd20  1  0.91830271  0.19532369  0.55108602  1
  Pd  Pd21  1  0.69828574  0.01851651  0.13247433  1
