# generated using pymatgen
data_PCN2Cl3
_symmetry_space_group_name_H-M   'P 1'
_cell_length_a   9.93951219
_cell_length_b   15.72010899
_cell_length_c   18.40951050
_cell_angle_alpha   112.47990366
_cell_angle_beta   90.00000000
_cell_angle_gamma   90.00000000
_symmetry_Int_Tables_number   1
_chemical_formula_structural   PCN2Cl3
_chemical_formula_sum   'P16 C16 N32 Cl48'
_cell_volume   2657.91614527
_cell_formula_units_Z   16
loop_
 _symmetry_equiv_pos_site_id
 _symmetry_equiv_pos_as_xyz
  1  'x, y, z'
loop_
 _atom_site_type_symbol
 _atom_site_label
 _atom_site_symmetry_multiplicity
 _atom_site_fract_x
 _atom_site_fract_y
 _atom_site_fract_z
 _atom_site_occupancy
  P  P0  1  0.86877091  0.40533310  0.33989267  1
  P  P1  1  0.56134727  0.73353800  0.59646093  1
  P  P2  1  0.63122909  0.90533310  0.33989267  1
  P  P3  1  0.38700000  0.40577706  0.83929583  1
  P  P4  1  0.67687714  0.77669879  0.90087792  1
  P  P5  1  0.32312286  0.22330121  0.09912208  1
  P  P6  1  0.06134727  0.76646200  0.40353907  1
  P  P7  1  0.88700000  0.09422294  0.16070417  1
  P  P8  1  0.61300000  0.59422294  0.16070417  1
  P  P9  1  0.82312286  0.27669879  0.90087792  1
  P  P10  1  0.93865273  0.23353800  0.59646093  1
  P  P11  1  0.36877091  0.09466690  0.66010733  1
  P  P12  1  0.17687714  0.72330121  0.09912208  1
  P  P13  1  0.43865273  0.26646200  0.40353907  1
  P  P14  1  0.11300000  0.90577706  0.83929583  1
  P  P15  1  0.13122909  0.59466690  0.66010733  1
  C  C16  1  0.60657825  0.33940517  0.87255171  1
  C  C17  1  0.94993493  0.08017364  0.60346913  1
  C  C18  1  0.70042192  0.92805211  0.89043895  1
  C  C19  1  0.89342175  0.83940517  0.87255171  1
  C  C20  1  0.44993493  0.41982636  0.39653087  1
  C  C21  1  0.10657825  0.16059483  0.12744829  1
  C  C22  1  0.20042192  0.57194789  0.10956105  1
  C  C23  1  0.64772124  0.33619367  0.37360076  1
  C  C24  1  0.39342175  0.66059483  0.12744829  1
  C  C25  1  0.85227876  0.83619367  0.37360076  1
  C  C26  1  0.35227876  0.66380633  0.62639924  1
  C  C27  1  0.14772124  0.16380633  0.62639924  1
  C  C28  1  0.29957808  0.07194789  0.10956105  1
  C  C29  1  0.55006507  0.58017364  0.60346913  1
  C  C30  1  0.79957808  0.42805211  0.89043895  1
  C  C31  1  0.05006507  0.91982636  0.39653087  1
  N  N32  1  0.09701654  0.23737117  0.61451492  1
  N  N33  1  0.16334180  0.23143299  0.11396470  1
  N  N34  1  0.78209981  0.33187642  0.35670359  1
  N  N35  1  0.07910025  0.08657704  0.62225822  1
  N  N36  1  0.71790019  0.83187642  0.35670359  1
  N  N37  1  0.21790019  0.66812358  0.64329641  1
  N  N38  1  0.36581787  0.36150660  0.41009645  1
  N  N39  1  0.88793451  0.37350749  0.90590420  1
  N  N40  1  0.92089975  0.91342296  0.37774178  1
  N  N41  1  0.63418213  0.63849340  0.58990355  1
  N  N42  1  0.38793451  0.12649251  0.09409580  1
  N  N43  1  0.40298346  0.73737117  0.61451492  1
  N  N44  1  0.66938095  0.41680060  0.87268401  1
  N  N45  1  0.61206549  0.87350749  0.90590420  1
  N  N46  1  0.83665820  0.76856701  0.88603530  1
  N  N47  1  0.02903472  0.83256926  0.85888605  1
  N  N48  1  0.86581787  0.13849340  0.58990355  1
  N  N49  1  0.83061905  0.91680060  0.87268401  1
  N  N50  1  0.11206549  0.62649251  0.09409580  1
  N  N51  1  0.97096528  0.16743074  0.14111395  1
  N  N52  1  0.59701654  0.26262883  0.38548508  1
  N  N53  1  0.42089975  0.58657704  0.62225822  1
  N  N54  1  0.13418213  0.86150660  0.41009645  1
  N  N55  1  0.16938095  0.08319940  0.12731599  1
  N  N56  1  0.28209981  0.16812358  0.64329641  1
  N  N57  1  0.90298346  0.76262883  0.38548508  1
  N  N58  1  0.47096528  0.33256926  0.85888605  1
  N  N59  1  0.57910025  0.41342296  0.37774178  1
  N  N60  1  0.52903472  0.66743074  0.14111395  1
  N  N61  1  0.33665820  0.73143299  0.11396470  1
  N  N62  1  0.33061905  0.58319940  0.12731599  1
  N  N63  1  0.66334180  0.26856701  0.88603530  1
  Cl  Cl64  1  0.92066038  0.08812379  0.26610360  1
  Cl  Cl65  1  0.06105164  0.37095186  0.34111800  1
  Cl  Cl66  1  0.19436076  0.37201285  0.83824684  1
  Cl  Cl67  1  0.63636536  0.03704549  0.41598487  1
  Cl  Cl68  1  0.34586703  0.08975953  0.76693291  1
  Cl  Cl69  1  0.88795972  0.96133323  0.08479977  1
  Cl  Cl70  1  0.07933962  0.91187621  0.73389640  1
  Cl  Cl71  1  0.11204028  0.03866677  0.91520023  1
  Cl  Cl72  1  0.60176582  0.75704398  0.49901739  1
  Cl  Cl73  1  0.91995986  0.17167397  0.81713692  1
  Cl  Cl74  1  0.43894836  0.87095186  0.34111800  1
  Cl  Cl75  1  0.63692388  0.03298677  0.89376980  1
  Cl  Cl76  1  0.84586703  0.41024047  0.23306709  1
  Cl  Cl77  1  0.84318658  0.34153939  0.67796470  1
  Cl  Cl78  1  0.13692388  0.46701323  0.10623020  1
  Cl  Cl79  1  0.86307612  0.53298677  0.89376980  1
  Cl  Cl80  1  0.36307612  0.96701323  0.10623020  1
  Cl  Cl81  1  0.93894836  0.62904814  0.65888200  1
  Cl  Cl82  1  0.12715635  0.74587830  0.00261484  1
  Cl  Cl83  1  0.87284365  0.25412170  0.99738516  1
  Cl  Cl84  1  0.57933962  0.58812379  0.26610360  1
  Cl  Cl85  1  0.12290135  0.02463436  0.40457268  1
  Cl  Cl86  1  0.89823418  0.25704398  0.49901739  1
  Cl  Cl87  1  0.15681342  0.65846061  0.32203530  1
  Cl  Cl88  1  0.69436076  0.12798715  0.16175316  1
  Cl  Cl89  1  0.37709865  0.52463436  0.40457268  1
  Cl  Cl90  1  0.42066038  0.41187621  0.73389640  1
  Cl  Cl91  1  0.37284365  0.24587830  0.00261484  1
  Cl  Cl92  1  0.62290135  0.47536564  0.59542732  1
  Cl  Cl93  1  0.08004014  0.82832603  0.18286308  1
  Cl  Cl94  1  0.30563924  0.87201285  0.83824684  1
  Cl  Cl95  1  0.15413297  0.58975953  0.76693291  1
  Cl  Cl96  1  0.36363464  0.96295451  0.58401513  1
  Cl  Cl97  1  0.41995986  0.32832603  0.18286308  1
  Cl  Cl98  1  0.13636536  0.46295451  0.58401513  1
  Cl  Cl99  1  0.87709865  0.97536564  0.59542732  1
  Cl  Cl100  1  0.10176582  0.74295602  0.50098261  1
  Cl  Cl101  1  0.62715635  0.75412170  0.99738516  1
  Cl  Cl102  1  0.80563924  0.62798715  0.16175316  1
  Cl  Cl103  1  0.65681342  0.84153939  0.67796470  1
  Cl  Cl104  1  0.38795972  0.53866677  0.91520023  1
  Cl  Cl105  1  0.34318658  0.15846061  0.32203530  1
  Cl  Cl106  1  0.58004014  0.67167397  0.81713692  1
  Cl  Cl107  1  0.86363464  0.53704549  0.41598487  1
  Cl  Cl108  1  0.65413297  0.91024047  0.23306709  1
  Cl  Cl109  1  0.39823418  0.24295602  0.50098261  1
  Cl  Cl110  1  0.61204028  0.46133323  0.08479977  1
  Cl  Cl111  1  0.56105164  0.12904814  0.65888200  1
