# generated using pymatgen
data_KEu2CuS6
_symmetry_space_group_name_H-M   'P 1'
_cell_length_a   6.80730710
_cell_length_b   6.80730663
_cell_length_c   21.71574236
_cell_angle_alpha   96.62970085
_cell_angle_beta   96.62970038
_cell_angle_gamma   105.27195374
_symmetry_Int_Tables_number   1
_chemical_formula_structural   KEu2CuS6
_chemical_formula_sum   'K4 Eu8 Cu4 S24'
_cell_volume   953.03089902
_cell_formula_units_Z   4
loop_
 _symmetry_equiv_pos_site_id
 _symmetry_equiv_pos_as_xyz
  1  'x, y, z'
loop_
 _atom_site_type_symbol
 _atom_site_label
 _atom_site_symmetry_multiplicity
 _atom_site_fract_x
 _atom_site_fract_y
 _atom_site_fract_z
 _atom_site_occupancy
  Eu  Eu0  1  0.71565618  0.46565618  0.93131236  1
  Eu  Eu1  1  0.28434382  0.53434382  0.06868764  1
  Eu  Eu2  1  0.96820661  0.21820661  0.43641321  1
  Eu  Eu3  1  0.21820661  0.96820661  0.93641321  1
  Eu  Eu4  1  0.46565618  0.71565618  0.43131236  1
  Eu  Eu5  1  0.53434382  0.28434382  0.56868764  1
  Eu  Eu6  1  0.78179339  0.03179339  0.06358679  1
  Eu  Eu7  1  0.03179339  0.78179339  0.56358679  1
  K  K8  1  0.87602591  0.12397409  0.75000000  1
  K  K9  1  0.37397409  0.62602591  0.75000000  1
  K  K10  1  0.62602591  0.37397409  0.25000000  1
  K  K11  1  0.12397409  0.87602591  0.25000000  1
  Cu  Cu12  1  0.20934608  0.45934608  0.91869216  1
  Cu  Cu13  1  0.45934608  0.20934608  0.41869216  1
  Cu  Cu14  1  0.79065392  0.54065392  0.08130784  1
  Cu  Cu15  1  0.54065392  0.79065392  0.58130784  1
  S  S16  1  0.27919840  0.53226745  0.53007870  1
  S  S17  1  0.32429300  0.26775551  0.84021943  1
  S  S18  1  0.75088030  -0.00218875  0.53007870  1
  S  S19  1  0.57246392  0.01592643  0.34021943  1
  S  S20  1  0.73224449  0.67570700  0.65978057  1
  S  S21  1  0.16043192  0.22556464  0.14644018  1
  S  S22  1  0.77443536  0.83956808  0.35355982  1
  S  S23  1  0.67570700  0.73224449  0.15978057  1
  S  S24  1  0.42753608  0.98407357  0.65978057  1
  S  S25  1  0.53226745  0.27919840  0.03007870  1
  S  S26  1  0.51399175  0.07912447  0.85355982  1
  S  S27  1  0.22556464  0.16043192  0.64644018  1
  S  S28  1  0.00218875  0.24911970  0.96992130  1
  S  S29  1  0.07912447  0.51399175  0.35355982  1
  S  S30  1  0.48600825  0.92087553  0.14644018  1
  S  S31  1  0.72080160  0.46773255  0.46992130  1
  S  S32  1  0.46773255  0.72080160  0.96992130  1
  S  S33  1  0.01592643  0.57246392  0.84021943  1
  S  S34  1  0.24911970  0.00218875  0.46992130  1
  S  S35  1  0.83956808  0.77443536  0.85355982  1
  S  S36  1  0.26775551  0.32429300  0.34021943  1
  S  S37  1  0.98407357  0.42753608  0.15978057  1
  S  S38  1  0.92087553  0.48600825  0.64644018  1
  S  S39  1  -0.00218875  0.75088030  0.03007870  1
