# generated using pymatgen
data_Li3Bi2(PO4)3
_symmetry_space_group_name_H-M   'P 1'
_cell_length_a   9.56421077
_cell_length_b   9.25402004
_cell_length_c   9.56421070
_cell_angle_alpha   123.74955903
_cell_angle_beta   121.69938685
_cell_angle_gamma   56.25043984
_symmetry_Int_Tables_number   1
_chemical_formula_structural   Li3Bi2(PO4)3
_chemical_formula_sum   'Li6 Bi4 P6 O24'
_cell_volume   555.70612671
_cell_formula_units_Z   2
loop_
 _symmetry_equiv_pos_site_id
 _symmetry_equiv_pos_as_xyz
  1  'x, y, z'
loop_
 _atom_site_type_symbol
 _atom_site_label
 _atom_site_symmetry_multiplicity
 _atom_site_fract_x
 _atom_site_fract_y
 _atom_site_fract_z
 _atom_site_occupancy
  Li  Li0  1  0.10817909  0.25000000  0.10817909  1
  Li  Li1  1  0.17804830  0.57139798  0.53915724  1
  Li  Li2  1  0.46084276  0.07139798  0.82195170  1
  Li  Li3  1  0.82195170  0.42860202  0.46084276  1
  Li  Li4  1  0.53915724  0.92860202  0.17804830  1
  Li  Li5  1  0.89182091  0.75000000  0.89182091  1
  Bi  Bi6  1  0.66248895  0.54190348  0.84747416  1
  Bi  Bi7  1  0.33751105  0.45809652  0.15252584  1
  Bi  Bi8  1  0.15252584  0.04190348  0.33751105  1
  Bi  Bi9  1  0.84747416  0.95809652  0.66248895  1
  P  P10  1  0.04325364  0.28555659  0.75325586  1
  P  P11  1  0.95674636  0.71444341  0.24674414  1
  P  P12  1  0.58251447  0.75000000  0.58251447  1
  P  P13  1  0.24674414  0.78555659  0.95674636  1
  P  P14  1  0.75325586  0.21444341  0.04325364  1
  P  P15  1  0.41748553  0.25000000  0.41748553  1
  O  O16  1  0.82110595  0.00370999  0.92683397  1
  O  O17  1  0.40498072  0.21969707  0.23232276  1
  O  O18  1  0.23232276  0.28030293  0.40498072  1
  O  O19  1  0.59501928  0.78030293  0.76767724  1
  O  O20  1  0.23978094  0.67552430  0.02709692  1
  O  O21  1  0.92683397  0.49629001  0.82110595  1
  O  O22  1  0.97290308  0.17552430  0.76021906  1
  O  O23  1  0.02709692  0.82447570  0.23978094  1
  O  O24  1  0.87224545  0.25069462  0.24093703  1
  O  O25  1  0.76021906  0.32447570  0.97290308  1
  O  O26  1  0.56481781  0.06641754  0.44546096  1
  O  O27  1  0.07316603  0.50370999  0.17889405  1
  O  O28  1  0.02726523  0.23506188  0.56175127  1
  O  O29  1  0.97273477  0.76493812  0.43824873  1
  O  O30  1  0.56175127  0.26493812  0.02726523  1
  O  O31  1  0.43518219  0.93358246  0.55453904  1
  O  O32  1  0.75906297  0.75069462  0.12775455  1
  O  O33  1  0.43824873  0.73506188  0.97273477  1
  O  O34  1  0.24093703  0.24930538  0.87224545  1
  O  O35  1  0.76767724  0.71969707  0.59501928  1
  O  O36  1  0.44546096  0.43358246  0.56481781  1
  O  O37  1  0.55453904  0.56641754  0.43518219  1
  O  O38  1  0.12775455  0.74930538  0.75906297  1
  O  O39  1  0.17889405  0.99629001  0.07316603  1
