# generated using pymatgen
data_LiBi(PO3)4
_symmetry_space_group_name_H-M   'P 1'
_cell_length_a   7.91236437
_cell_length_b   7.91236409
_cell_length_c   17.59899462
_cell_angle_alpha   90.00000000
_cell_angle_beta   90.00000000
_cell_angle_gamma   96.96909258
_symmetry_Int_Tables_number   1
_chemical_formula_structural   LiBi(PO3)4
_chemical_formula_sum   'Li4 Bi4 P16 O48'
_cell_volume   1093.65366047
_cell_formula_units_Z   4
loop_
 _symmetry_equiv_pos_site_id
 _symmetry_equiv_pos_as_xyz
  1  'x, y, z'
loop_
 _atom_site_type_symbol
 _atom_site_label
 _atom_site_symmetry_multiplicity
 _atom_site_fract_x
 _atom_site_fract_y
 _atom_site_fract_z
 _atom_site_occupancy
  Li  Li0  1  0.79463952  0.90860494  0.89202730  1
  Li  Li1  1  0.20536048  0.09139506  0.39202730  1
  Li  Li2  1  0.09139506  0.20536048  0.10797270  1
  Li  Li3  1  0.90860494  0.79463952  0.60797270  1
  Bi  Bi4  1  0.97741141  0.58788739  0.88999788  1
  Bi  Bi5  1  0.58788739  0.97741141  0.61000212  1
  Bi  Bi6  1  0.41211261  0.02258859  0.11000212  1
  Bi  Bi7  1  0.02258859  0.41211261  0.38999788  1
  P  P8  1  0.68933264  0.21387979  0.25919132  1
  P  P9  1  0.34908327  0.34908327  0.25000000  1
  P  P10  1  0.71545014  0.67962196  0.44296298  1
  P  P11  1  0.74477502  0.03424409  0.40496341  1
  P  P12  1  0.25522498  0.96575591  0.90496341  1
  P  P13  1  0.35991970  0.64008030  0.50000000  1
  P  P14  1  0.32037804  0.28454986  0.55703702  1
  P  P15  1  0.03424409  0.74477502  0.09503659  1
  P  P16  1  0.96575591  0.25522498  0.59503659  1
  P  P17  1  0.28454986  0.32037804  0.94296298  1
  P  P18  1  0.65091673  0.65091673  0.75000000  1
  P  P19  1  0.64008030  0.35991970  0.00000000  1
  P  P20  1  0.31066736  0.78612021  0.75919132  1
  P  P21  1  0.67962196  0.71545014  0.05703702  1
  P  P22  1  0.78612021  0.31066736  0.74080868  1
  P  P23  1  0.21387979  0.68933264  0.24080868  1
  O  O24  1  0.93936656  0.35565147  0.52518559  1
  O  O25  1  0.19543410  0.61455199  0.45716686  1
  O  O26  1  0.89885063  0.06737680  0.60085658  1
  O  O27  1  0.53417712  0.78549220  0.09578822  1
  O  O28  1  0.35565147  0.93936656  0.97481441  1
  O  O29  1  0.22203902  0.26085944  0.01967487  1
  O  O30  1  0.34925533  0.54975190  0.23854002  1
  O  O31  1  0.26085944  0.22203902  0.48032513  1
  O  O32  1  0.51199490  0.62299769  0.44146276  1
  O  O33  1  0.64434853  0.06063344  0.47481441  1
  O  O34  1  0.65074467  0.45024810  0.73854002  1
  O  O35  1  0.62299769  0.51199490  0.05853724  1
  O  O36  1  0.28524807  0.25728202  0.17820422  1
  O  O37  1  0.06737680  0.89885063  0.89914342  1
  O  O38  1  0.61455199  0.19543410  0.04283314  1
  O  O39  1  0.83412329  0.73277820  0.11701498  1
  O  O40  1  0.31044740  0.86329168  0.23224694  1
  O  O41  1  0.16587671  0.26722180  0.61701498  1
  O  O42  1  0.89968230  0.34893352  0.80873732  1
  O  O43  1  0.74271798  0.71475193  0.82179578  1
  O  O44  1  0.86329168  0.31044740  0.26775306  1
  O  O45  1  0.37700231  0.48800510  0.55853724  1
  O  O46  1  0.10114937  0.93262320  0.10085658  1
  O  O47  1  0.68955260  0.13670832  0.73224694  1
  O  O48  1  0.63901668  0.10387633  0.33548008  1
  O  O49  1  0.73277820  0.83412329  0.38298502  1
  O  O50  1  0.48800510  0.37700231  0.94146276  1
  O  O51  1  0.34893352  0.89968230  0.69126268  1
  O  O52  1  0.71475193  0.74271798  0.67820422  1
  O  O53  1  0.10387633  0.63901668  0.16451992  1
  O  O54  1  0.10031770  0.65106648  0.30873732  1
  O  O55  1  0.65106648  0.10031770  0.19126268  1
  O  O56  1  0.46582288  0.21450780  0.59578822  1
  O  O57  1  0.38544801  0.80456590  0.54283314  1
  O  O58  1  0.25728202  0.28524807  0.32179578  1
  O  O59  1  0.80456590  0.38544801  0.95716686  1
  O  O60  1  0.73914056  0.77796098  0.98032513  1
  O  O61  1  0.36098332  0.89612367  0.83548008  1
  O  O62  1  0.26722180  0.16587671  0.88298502  1
  O  O63  1  0.06063344  0.64434853  0.02518559  1
  O  O64  1  0.45024810  0.65074467  0.76145998  1
  O  O65  1  0.21450780  0.46582288  0.90421178  1
  O  O66  1  0.54975190  0.34925533  0.26145998  1
  O  O67  1  0.93262320  0.10114937  0.39914342  1
  O  O68  1  0.77796098  0.73914056  0.51967487  1
  O  O69  1  0.89612367  0.36098332  0.66451992  1
  O  O70  1  0.13670832  0.68955260  0.76775306  1
  O  O71  1  0.78549220  0.53417712  0.40421178  1
