# generated using pymatgen
data_Te5As2Br4O5F26
_symmetry_space_group_name_H-M   'P 1'
_cell_length_a   9.98995458
_cell_length_b   18.08544650
_cell_length_c   19.25502407
_cell_angle_alpha   103.57803142
_cell_angle_beta   103.54310125
_cell_angle_gamma   105.03945748
_symmetry_Int_Tables_number   1
_chemical_formula_structural   Te5As2Br4O5F26
_chemical_formula_sum   'Te20 As8 Br16 O20 F104'
_cell_volume   3100.24871788
_cell_formula_units_Z   4
loop_
 _symmetry_equiv_pos_site_id
 _symmetry_equiv_pos_as_xyz
  1  'x, y, z'
loop_
 _atom_site_type_symbol
 _atom_site_label
 _atom_site_symmetry_multiplicity
 _atom_site_fract_x
 _atom_site_fract_y
 _atom_site_fract_z
 _atom_site_occupancy
  Te  Te0  1  0.78614234  0.44334943  0.11087270  1
  Te  Te1  1  0.21385766  0.55665057  0.88912730  1
  Te  Te2  1  0.95005890  0.28580310  0.60464358  1
  Te  Te3  1  0.04994110  0.71419690  0.39535642  1
  Te  Te4  1  0.66372962  0.64652577  0.54654201  1
  Te  Te5  1  0.63474674  0.71530000  0.10209084  1
  Te  Te6  1  0.33627038  0.35347423  0.45345799  1
  Te  Te7  1  0.80650810  0.36339476  0.37818022  1
  Te  Te8  1  0.36525326  0.28470000  0.89790916  1
  Te  Te9  1  0.54979314  0.82379453  0.40691842  1
  Te  Te10  1  0.45020686  0.17620547  0.59308158  1
  Te  Te11  1  0.07795245  0.78918457  0.86240762  1
  Te  Te12  1  0.92204755  0.21081543  0.13759238  1
  Te  Te13  1  0.47557614  0.09957027  0.33551415  1
  Te  Te14  1  0.35928811  0.11353805  0.06118578  1
  Te  Te15  1  0.16864779  0.74877939  0.10941493  1
  Te  Te16  1  0.64071189  0.88646195  0.93881422  1
  Te  Te17  1  0.83135221  0.25122061  0.89058507  1
  Te  Te18  1  0.19349190  0.63660524  0.62181978  1
  Te  Te19  1  0.52442386  0.90042973  0.66448585  1
  As  As20  1  0.62859696  0.53023057  0.78210946  1
  As  As21  1  0.62002179  0.27752112  0.48676022  1
  As  As22  1  0.63025765  0.23533241  0.01430944  1
  As  As23  1  0.08308459  0.00642098  0.73701167  1
  As  As24  1  0.36974235  0.76466759  0.98569056  1
  As  As25  1  0.37997821  0.72247888  0.51323978  1
  As  As26  1  0.91691541  0.99357902  0.26298833  1
  As  As27  1  0.37140304  0.46976943  0.21789054  1
  Br  Br28  1  0.59037726  0.57060446  0.26427019  1
  Br  Br29  1  0.40422627  0.34863730  0.20916365  1
  Br  Br30  1  0.97622001  0.90387128  0.31923909  1
  Br  Br31  1  0.74582388  0.53075879  0.89859244  1
  Br  Br32  1  0.32866497  0.04332636  0.78895867  1
  Br  Br33  1  0.99953606  0.11703241  0.35167799  1
  Br  Br34  1  0.97097825  0.00305621  0.82684552  1
  Br  Br35  1  0.59577373  0.65136270  0.79083635  1
  Br  Br36  1  0.02377999  0.09612872  0.68076091  1
  Br  Br37  1  0.40962274  0.42939554  0.73572981  1
  Br  Br38  1  0.76036893  0.50711960  0.70310377  1
  Br  Br39  1  0.02902175  0.99694379  0.17315448  1
  Br  Br40  1  0.23963107  0.49288040  0.29689623  1
  Br  Br41  1  0.67133503  0.95667364  0.21104133  1
  Br  Br42  1  0.00046394  0.88296759  0.64832201  1
  Br  Br43  1  0.25417612  0.46924121  0.10140756  1
  O  O44  1  0.20914251  0.72884177  0.01623952  1
  O  O45  1  0.19084409  0.72813910  0.48677298  1
  O  O46  1  0.44459893  0.83338907  0.56228363  1
  O  O47  1  0.80915591  0.27186090  0.51322702  1
  O  O48  1  0.75351503  0.24011607  0.10578860  1
  O  O49  1  0.59183745  0.25461450  0.57285217  1
  O  O50  1  0.35988342  0.65848036  0.94333923  1
  O  O51  1  0.79085749  0.27115823  0.98376048  1
  O  O52  1  0.64011658  0.34151964  0.05666077  1
  O  O53  1  0.40816255  0.74538550  0.42714783  1
  O  O54  1  0.55540107  0.16661093  0.43771637  1
  O  O55  1  0.47474003  0.21014291  0.05184754  1
  O  O56  1  0.35274431  0.70072503  0.59961692  1
  O  O57  1  0.52525997  0.78985709  0.94815246  1
  O  O58  1  0.49705269  0.76740729  0.07560906  1
  O  O59  1  0.50294731  0.23259271  0.92439094  1
  O  O60  1  0.64725569  0.29927497  0.40038308  1
  O  O61  1  0.24648497  0.75988393  0.89421140  1
  O  O62  1  0.42766543  0.27341043  0.45154540  1
  O  O63  1  0.57233457  0.72658957  0.54845460  1
  F  F64  1  0.79041526  0.81186309  0.12574609  1
  F  F65  1  0.77438633  0.67079321  0.14024039  1
  F  F66  1  0.36291400  0.51195731  0.91007456  1
  F  F67  1  0.00282264  0.34025888  0.94074851  1
  F  F68  1  0.31957670  0.10485563  0.62327184  1
  F  F69  1  0.87464702  0.12291863  0.05103169  1
  F  F70  1  0.08754726  0.18496214  0.17876197  1
  F  F71  1  0.49159742  0.61545183  0.08157517  1
  F  F72  1  0.37495854  0.25201694  0.79950071  1
  F  F73  1  0.83476268  0.45877030  0.02510154  1
  F  F74  1  0.26504112  0.68036144  0.14137247  1
  F  F75  1  0.90729062  0.28907388  0.37889675  1
  F  F76  1  0.11050566  0.76093907  0.19600065  1
  F  F77  1  0.89867995  0.70224393  0.30926107  1
  F  F78  1  0.63549495  0.14591930  0.30611861  1
  F  F79  1  0.05531420  0.59335748  0.86482719  1
  F  F80  1  0.70365418  0.30805217  0.27604637  1
  F  F81  1  0.56726778  0.02810141  0.36369663  1
  F  F82  1  0.12535298  0.87708137  0.94896831  1
  F  F83  1  0.16453450  0.79898851  0.37120921  1
  F  F84  1  0.91650440  0.42181362  0.47832647  1
  F  F85  1  0.98372349  0.79015494  0.44957622  1
  F  F86  1  0.69173602  0.95677638  0.64539370  1
  F  F87  1  0.68042330  0.89514437  0.37672816  1
  F  F88  1  0.93173743  0.18214817  0.91646609  1
  F  F89  1  0.60391405  0.97422559  0.76255309  1
  F  F90  1  0.30560117  0.13841662  0.49875040  1
  F  F91  1  0.89508061  0.36123044  0.66699372  1
  F  F92  1  0.95240797  0.42468256  0.34851010  1
  F  F93  1  0.73495888  0.31963856  0.85862753  1
  F  F94  1  0.47547505  0.90661334  0.43762335  1
  F  F95  1  0.66079090  0.68061438  0.00790993  1
  F  F96  1  0.60445901  0.13298284  0.97044501  1
  F  F97  1  0.41991882  0.79122511  0.30921312  1
  F  F98  1  0.91507053  0.63042823  0.41006777  1
  F  F99  1  0.43273222  0.97189859  0.63630337  1
  F  F100  1  0.60187248  0.82952056  0.83701822  1
  F  F101  1  0.76706528  0.97397650  0.92344923  1
  F  F102  1  0.23102585  0.42536567  0.45216211  1
  F  F103  1  0.22561367  0.32920679  0.85975961  1
  F  F104  1  0.63581562  0.74656756  0.37458073  1
  F  F105  1  0.08492947  0.36957177  0.58993223  1
  F  F106  1  0.48987771  0.92792136  0.91206976  1
  F  F107  1  0.17780642  0.85764230  0.81741991  1
  F  F108  1  0.83546550  0.20101149  0.62879079  1
  F  F109  1  0.68342457  0.38093625  0.53996431  1
  F  F110  1  0.75021903  0.43669964  0.20098028  1
  F  F111  1  0.33920910  0.31938562  0.99209007  1
  F  F112  1  0.33605359  0.83919436  0.16483674  1
  F  F113  1  0.20958474  0.18813691  0.87425391  1
  F  F114  1  0.50840258  0.38454817  0.91842483  1
  F  F115  1  0.82190711  0.71878966  0.53350478  1
  F  F116  1  0.52452495  0.09338666  0.56237665  1
  F  F117  1  0.88949434  0.23906093  0.80399935  1
  F  F118  1  0.71654566  0.44197944  0.37279398  1
  F  F119  1  0.24978097  0.56330036  0.79901972  1
  F  F120  1  0.48505348  0.42811479  0.43679966  1
  F  F121  1  0.36418438  0.25343244  0.62541927  1
  F  F122  1  0.04759203  0.57531744  0.65148990  1
  F  F123  1  0.62563417  0.83534351  0.69913702  1
  F  F124  1  0.29634582  0.69194783  0.72395363  1
  F  F125  1  0.75397516  0.69162675  0.65109498  1
  F  F126  1  0.17809289  0.28121034  0.46649522  1
  F  F127  1  0.28345434  0.55802056  0.62720602  1
  F  F128  1  0.36450505  0.85408070  0.69388139  1
  F  F129  1  0.76897415  0.57463433  0.54783789  1
  F  F130  1  0.58008118  0.20877489  0.69078688  1
  F  F131  1  0.62504146  0.74798306  0.20049929  1
  F  F132  1  0.08349560  0.57818638  0.52167353  1
  F  F133  1  0.51494652  0.57188521  0.56320034  1
  F  F134  1  0.30824685  0.05065087  0.96034693  1
  F  F135  1  0.39554099  0.86701716  0.02955499  1
  F  F136  1  0.95918608  0.72359111  0.90240660  1
  F  F137  1  0.51012229  0.07207864  0.08793024  1
  F  F138  1  0.08448682  0.45200984  0.83515582  1
  F  F139  1  0.30826398  0.04322362  0.35460630  1
  F  F140  1  0.01627651  0.20984506  0.55042378  1
  F  F141  1  0.91551318  0.54799016  0.16484418  1
  F  F142  1  0.39608595  0.02577441  0.23744691  1
  F  F143  1  0.31657543  0.61906375  0.46003569  1
  F  F144  1  0.39812752  0.17047944  0.16298178  1
  F  F145  1  0.10132005  0.29775607  0.69073893  1
  F  F146  1  0.82219358  0.14235770  0.18258009  1
  F  F147  1  0.69439883  0.86158338  0.50124960  1
  F  F148  1  0.04081392  0.27640889  0.09759340  1
  F  F149  1  0.94468580  0.40664252  0.13517281  1
  F  F150  1  0.66394641  0.16080564  0.83516326  1
  F  F151  1  0.69175315  0.94934913  0.03965307  1
  F  F152  1  0.80261948  0.85206036  0.96437697  1
  F  F153  1  0.09270938  0.71092612  0.62110325  1
  F  F154  1  0.91245274  0.81503786  0.82123803  1
  F  F155  1  0.10491939  0.63876956  0.33300628  1
  F  F156  1  0.58506605  0.59785613  0.44167218  1
  F  F157  1  0.19738052  0.14793964  0.03562303  1
  F  F158  1  0.24602484  0.30837325  0.34890502  1
  F  F159  1  0.37436583  0.16465649  0.30086298  1
  F  F160  1  0.98289036  0.29632497  0.22718370  1
  F  F161  1  0.41493395  0.40214387  0.55832782  1
  F  F162  1  0.01710964  0.70367503  0.77281630  1
  F  F163  1  0.63708600  0.48804269  0.08992544  1
  F  F164  1  0.99717736  0.65974112  0.05925149  1
  F  F165  1  0.06826257  0.81785183  0.08353391  1
  F  F166  1  0.23293472  0.02602350  0.07655077  1
  F  F167  1  0.16523732  0.54122970  0.97489846  1
