# generated using pymatgen
data_LiSb(PO3)4
_symmetry_space_group_name_H-M   'P 1'
_cell_length_a   5.53612567
_cell_length_b   10.64720217
_cell_length_c   10.64720228
_cell_angle_alpha   69.21348067
_cell_angle_beta   99.24843779
_cell_angle_gamma   99.24843623
_symmetry_Int_Tables_number   1
_chemical_formula_structural   LiSb(PO3)4
_chemical_formula_sum   'Li2 Sb2 P8 O24'
_cell_volume   575.44661105
_cell_formula_units_Z   2
loop_
 _symmetry_equiv_pos_site_id
 _symmetry_equiv_pos_as_xyz
  1  'x, y, z'
loop_
 _atom_site_type_symbol
 _atom_site_label
 _atom_site_symmetry_multiplicity
 _atom_site_fract_x
 _atom_site_fract_y
 _atom_site_fract_z
 _atom_site_occupancy
  Li  Li0  1  0.61175654  0.56212164  0.56212164  1
  Li  Li1  1  0.38824346  0.43787836  0.43787836  1
  Sb  Sb2  1  0.00000000  0.00000000  0.50000000  1
  Sb  Sb3  1  0.00000000  0.50000000  0.00000000  1
  P  P4  1  0.17864093  0.76925638  0.37613444  1
  P  P5  1  0.54588847  0.94635748  0.70814528  1
  P  P6  1  0.45411153  0.05364252  0.29185472  1
  P  P7  1  0.17864093  0.37613444  0.76925638  1
  P  P8  1  0.82135907  0.23074362  0.62386556  1
  P  P9  1  0.45411153  0.29185472  0.05364252  1
  P  P10  1  0.54588847  0.70814528  0.94635748  1
  P  P11  1  0.82135907  0.62386556  0.23074362  1
  O  O12  1  0.02733861  0.46599131  0.80094266  1
  O  O13  1  0.33220222  0.38379414  0.09904858  1
  O  O14  1  0.66930545  0.34571147  0.56297512  1
  O  O15  1  0.26852154  0.69010659  0.93432962  1
  O  O16  1  0.64955642  0.70260475  0.09614793  1
  O  O17  1  0.00000000  0.24485517  0.75514483  1
  O  O18  1  0.26852154  0.93432962  0.69010659  1
  O  O19  1  0.35044358  0.90385207  0.29739525  1
  O  O20  1  0.64955642  0.09614793  0.70260475  1
  O  O21  1  0.63670917  0.86410405  0.86410405  1
  O  O22  1  0.33069455  0.43702488  0.65428853  1
  O  O23  1  0.36329083  0.13589595  0.13589595  1
  O  O24  1  0.35044358  0.29739525  0.90385207  1
  O  O25  1  0.66779778  0.61620586  0.90095142  1
  O  O26  1  0.73147846  0.30989341  0.06567038  1
  O  O27  1  0.02733861  0.80094266  0.46599131  1
  O  O28  1  1.00000000  0.75514483  0.24485517  1
  O  O29  1  0.33220222  0.09904858  0.38379414  1
  O  O30  1  0.97266039  0.53400869  0.19905734  1
  O  O31  1  0.66779778  0.90095142  0.61620586  1
  O  O32  1  0.97266039  0.19905734  0.53400869  1
  O  O33  1  0.73147846  0.06567038  0.30989341  1
  O  O34  1  0.66930545  0.56297512  0.34571147  1
  O  O35  1  0.33069455  0.65428853  0.43702488  1
