# generated using pymatgen
data_LiSbP2O7
_symmetry_space_group_name_H-M   'P 1'
_cell_length_a   7.16725200
_cell_length_b   8.69620593
_cell_length_c   9.90846372
_cell_angle_alpha   90.00000000
_cell_angle_beta   109.08648854
_cell_angle_gamma   90.00000000
_symmetry_Int_Tables_number   1
_chemical_formula_structural   LiSbP2O7
_chemical_formula_sum   'Li4 Sb4 P8 O28'
_cell_volume   583.62326227
_cell_formula_units_Z   4
loop_
 _symmetry_equiv_pos_site_id
 _symmetry_equiv_pos_as_xyz
  1  'x, y, z'
loop_
 _atom_site_type_symbol
 _atom_site_label
 _atom_site_symmetry_multiplicity
 _atom_site_fract_x
 _atom_site_fract_y
 _atom_site_fract_z
 _atom_site_occupancy
  Li  Li0  1  0.70045489  0.95985905  0.21513147  1
  Li  Li1  1  0.70045489  0.54014095  0.71513147  1
  Li  Li2  1  0.29954511  0.04014095  0.78486853  1
  Li  Li3  1  0.29954511  0.45985905  0.28486853  1
  Sb  Sb4  1  0.25400396  0.49115615  0.75041255  1
  Sb  Sb5  1  0.74599604  0.50884385  0.24958745  1
  Sb  Sb6  1  0.74599604  0.99115615  0.74958745  1
  Sb  Sb7  1  0.25400396  0.00884385  0.25041255  1
  P  P8  1  0.09872838  0.24208435  0.96704959  1
  P  P9  1  0.09872838  0.25791565  0.46704959  1
  P  P10  1  0.65224496  0.22053164  0.44207733  1
  P  P11  1  0.90127162  0.75791565  0.03295041  1
  P  P12  1  0.34775504  0.72053164  0.05792267  1
  P  P13  1  0.34775504  0.77946836  0.55792267  1
  P  P14  1  0.65224496  0.27946836  0.94207733  1
  P  P15  1  0.90127162  0.74208435  0.53295041  1
  O  O16  1  0.44842380  0.87199154  0.11723601  1
  O  O17  1  0.82289336  0.74247834  0.36929524  1
  O  O18  1  0.86244522  0.27876304  0.91391609  1
  O  O19  1  0.87591954  0.90849800  0.10346650  1
  O  O20  1  0.17710664  0.25752166  0.63070476  1
  O  O21  1  0.55063577  0.08074250  0.34602781  1
  O  O22  1  0.17710664  0.24247834  0.13070476  1
  O  O23  1  0.17967701  0.38490321  0.91232124  1
  O  O24  1  0.31579989  0.69762573  0.90008682  1
  O  O25  1  0.12408046  0.09150200  0.89653350  1
  O  O26  1  0.68420011  0.19762573  0.59991318  1
  O  O27  1  0.82032299  0.61509679  0.08767876  1
  O  O28  1  0.55157620  0.37199154  0.38276399  1
  O  O29  1  0.55063577  0.41925750  0.84602781  1
  O  O30  1  0.87591954  0.59150200  0.60346650  1
  O  O31  1  0.82032299  0.88490321  0.58767876  1
  O  O32  1  0.55157620  0.12800846  0.88276399  1
  O  O33  1  0.31579989  0.80237427  0.40008682  1
  O  O34  1  0.13755478  0.72123696  0.08608391  1
  O  O35  1  0.44936423  0.58074250  0.15397219  1
  O  O36  1  0.17967701  0.11509679  0.41232124  1
  O  O37  1  0.44842380  0.62800846  0.61723601  1
  O  O38  1  0.82289336  0.75752166  0.86929524  1
  O  O39  1  0.12408046  0.40849800  0.39653350  1
  O  O40  1  0.68420011  0.30237427  0.09991318  1
  O  O41  1  0.44936423  0.91925750  0.65397219  1
  O  O42  1  0.86244522  0.22123696  0.41391609  1
  O  O43  1  0.13755478  0.77876304  0.58608391  1
