# generated using pymatgen
data_NdH4C3O8
_symmetry_space_group_name_H-M   'P 1'
_cell_length_a   8.87488885
_cell_length_b   9.40646366
_cell_length_c   17.10482245
_cell_angle_alpha   90.00000000
_cell_angle_beta   90.00000003
_cell_angle_gamma   90.00000000
_symmetry_Int_Tables_number   1
_chemical_formula_structural   NdH4C3O8
_chemical_formula_sum   'Nd8 H32 C24 O64'
_cell_volume   1427.93314715
_cell_formula_units_Z   8
loop_
 _symmetry_equiv_pos_site_id
 _symmetry_equiv_pos_as_xyz
  1  'x, y, z'
loop_
 _atom_site_type_symbol
 _atom_site_label
 _atom_site_symmetry_multiplicity
 _atom_site_fract_x
 _atom_site_fract_y
 _atom_site_fract_z
 _atom_site_occupancy
  Nd  Nd0  1  0.36944972  0.24204457  0.35648028  1
  Nd  Nd1  1  0.13055037  0.75795552  0.85648036  1
  Nd  Nd2  1  0.86944963  0.25795552  0.64351964  1
  Nd  Nd3  1  0.63055028  0.74204457  0.14351972  1
  Nd  Nd4  1  0.12408420  0.24011847  0.13785695  1
  Nd  Nd5  1  0.37591574  0.75988164  0.63785680  1
  Nd  Nd6  1  0.62408426  0.25988164  0.86214320  1
  Nd  Nd7  1  0.87591580  0.74011847  0.36214305  1
  H  H8  1  0.36417514  0.40977736  0.51324645  1
  H  H9  1  0.13582484  0.59022280  0.01324647  1
  H  H10  1  0.86417516  0.09022280  0.48675353  1
  H  H11  1  0.63582486  0.90977736  0.98675355  1
  H  H12  1  0.69213499  0.32153593  0.28714854  1
  H  H13  1  0.80786506  0.67846412  0.78714860  1
  H  H14  1  0.19213494  0.17846412  0.71285140  1
  H  H15  1  0.30786501  0.82153593  0.21285146  1
  H  H16  1  0.41589119  0.05914478  0.10494889  1
  H  H17  1  0.08410880  0.94085518  0.60494889  1
  H  H18  1  0.91589120  0.44085518  0.89505111  1
  H  H19  1  0.58410881  0.55914478  0.39505111  1
  H  H20  1  0.43639003  0.19819191  0.05517046  1
  H  H21  1  0.06360991  0.80180808  0.55517042  1
  H  H22  1  0.93639009  0.30180808  0.94482958  1
  H  H23  1  0.56360997  0.69819191  0.44482954  1
  H  H24  1  0.14209152  0.09977259  0.97176674  1
  H  H25  1  0.35790843  0.90022751  0.47176676  1
  H  H26  1  0.64209157  0.40022751  0.02823324  1
  H  H27  1  0.85790848  0.59977259  0.52823326  1
  H  H28  1  0.18077001  0.25827145  0.95789279  1
  H  H29  1  0.31923024  0.74172868  0.45789285  1
  H  H30  1  0.68076976  0.24172868  0.04210715  1
  H  H31  1  0.81922999  0.75827145  0.54210721  1
  H  H32  1  0.72368898  0.33026749  0.37647728  1
  H  H33  1  0.77631089  0.66973250  0.87647734  1
  H  H34  1  0.22368911  0.16973250  0.62352266  1
  H  H35  1  0.27631102  0.83026749  0.12352272  1
  H  H36  1  0.47766378  0.27897111  0.53015520  1
  H  H37  1  0.02233624  0.72102889  0.03015521  1
  H  H38  1  0.97766376  0.22102889  0.46984479  1
  H  H39  1  0.52233622  0.77897111  0.96984480  1
  C  C40  1  0.63836866  0.00483833  0.39658319  1
  C  C41  1  0.86163111  0.99516156  0.89658330  1
  C  C42  1  0.13836889  0.49516156  0.60341670  1
  C  C43  1  0.36163134  0.50483833  0.10341681  1
  C  C44  1  0.59167169  0.96225455  0.31167471  1
  C  C45  1  0.90832831  0.03774530  0.81167478  1
  C  C46  1  0.09167169  0.53774530  0.68832522  1
  C  C47  1  0.40832831  0.46225455  0.18832529  1
  C  C48  1  0.13555194  0.98271105  0.39191631  1
  C  C49  1  0.36444786  0.01728898  0.89191632  1
  C  C50  1  0.63555214  0.51728898  0.60808368  1
  C  C51  1  0.86444806  0.48271105  0.10808369  1
  C  C52  1  0.08773452  0.01793623  0.30644572  1
  C  C53  1  0.41226543  0.98206374  0.80644581  1
  C  C54  1  0.58773457  0.48206374  0.69355419  1
  C  C55  1  0.91226548  0.51793623  0.19355428  1
  C  C56  1  0.05548681  0.43620363  0.38628413  1
  C  C57  1  0.44451336  0.56379665  0.88628436  1
  C  C58  1  0.55548664  0.06379665  0.61371564  1
  C  C59  1  0.94451319  0.93620363  0.11371587  1
  C  C60  1  0.18204787  0.54326085  0.36327600  1
  C  C61  1  0.31795208  0.45673908  0.86327587  1
  C  C62  1  0.68204792  0.95673908  0.63672413  1
  C  C63  1  0.81795213  0.04326085  0.13672400  1
  O  O64  1  0.56200003  0.10144040  0.42845557  1
  O  O65  1  0.93799977  0.89855939  0.92845587  1
  O  O66  1  0.06200023  0.39855939  0.57154413  1
  O  O67  1  0.43799997  0.60144040  0.07154443  1
  O  O68  1  0.49057683  0.03698467  0.28062419  1
  O  O69  1  0.00942324  0.96301545  0.78062432  1
  O  O70  1  0.99057676  0.46301545  0.71937568  1
  O  O71  1  0.50942317  0.53698467  0.21937581  1
  O  O72  1  0.25535976  0.03959019  0.41842518  1
  O  O73  1  0.24463973  0.96040991  0.91842517  1
  O  O74  1  0.75536027  0.46040991  0.58157483  1
  O  O75  1  0.74464024  0.53959019  0.08157482  1
  O  O76  1  0.15880592  0.11874465  0.27178193  1
  O  O77  1  0.34119422  0.88125551  0.77178195  1
  O  O78  1  0.65880578  0.38125551  0.72821805  1
  O  O79  1  0.84119408  0.61874465  0.22821807  1
  O  O80  1  0.09694382  0.30856725  0.39775848  1
  O  O81  1  0.40305624  0.69143282  0.89775926  1
  O  O82  1  0.59694376  0.19143282  0.60224074  1
  O  O83  1  0.90305618  0.80856725  0.10224152  1
  O  O84  1  0.31650852  0.49871647  0.36670831  1
  O  O85  1  0.18349162  0.50128351  0.86670826  1
  O  O86  1  0.81650838  0.00128351  0.63329174  1
  O  O87  1  0.68349148  0.99871647  0.13329169  1
  O  O88  1  0.41564051  0.32747884  0.48990003  1
  O  O89  1  0.08435959  0.67252113  0.98990002  1
  O  O90  1  0.91564041  0.17252113  0.51009998  1
  O  O91  1  0.58435949  0.82747884  0.01009997  1
  O  O92  1  0.64302048  0.33348495  0.33755134  1
  O  O93  1  0.85697960  0.66651492  0.83755131  1
  O  O94  1  0.14302040  0.16651492  0.66244869  1
  O  O95  1  0.35697952  0.83348495  0.16244866  1
  O  O96  1  0.75002256  0.94150990  0.42783299  1
  O  O97  1  0.74997743  0.05849018  0.92783300  1
  O  O98  1  0.25002257  0.55849018  0.57216700  1
  O  O99  1  0.24997744  0.44150990  0.07216701  1
  O  O100  1  0.65881933  0.85481688  0.28107490  1
  O  O101  1  0.84118070  0.14518298  0.78107489  1
  O  O102  1  0.15881930  0.64518298  0.71892511  1
  O  O103  1  0.34118067  0.35481688  0.21892510  1
  O  O104  1  0.36876535  0.14948085  0.09194469  1
  O  O105  1  0.13123466  0.85051917  0.59194473  1
  O  O106  1  0.86876534  0.35051917  0.90805527  1
  O  O107  1  0.63123465  0.64948085  0.40805531  1
  O  O108  1  0.10877958  0.19749351  0.98534285  1
  O  O109  1  0.39122047  0.80250657  0.48534286  1
  O  O110  1  0.60877953  0.30250657  0.01465714  1
  O  O111  1  0.89122042  0.69749351  0.51465715  1
  O  O112  1  0.05446680  0.89623612  0.42849231  1
  O  O113  1  0.44553304  0.10376368  0.92849236  1
  O  O114  1  0.55446696  0.60376368  0.57150764  1
  O  O115  1  0.94553320  0.39623612  0.07150769  1
  O  O116  1  0.98471493  0.94137882  0.27859541  1
  O  O117  1  0.51528515  0.05862105  0.77859549  1
  O  O118  1  0.48471485  0.55862105  0.72140451  1
  O  O119  1  0.01528507  0.44137882  0.22140459  1
  O  O120  1  0.92265480  0.48408224  0.39305330  1
  O  O121  1  0.57734532  0.51591753  0.89305328  1
  O  O122  1  0.42265468  0.01591853  0.60694672  1
  O  O123  1  0.07734520  0.98408224  0.10694670  1
  O  O124  1  0.14184565  0.66809641  0.34462561  1
  O  O125  1  0.35815401  0.33190353  0.84462565  1
  O  O126  1  0.64184599  0.83190353  0.65537435  1
  O  O127  1  0.85815435  0.16809641  0.15537439  1
