# generated using pymatgen
data_La13Al12Si18(N13O5)3
_symmetry_space_group_name_H-M   'P 1'
_cell_length_a   11.72912362
_cell_length_b   11.76760015
_cell_length_c   11.76760016
_cell_angle_alpha   109.53735976
_cell_angle_beta   109.40500113
_cell_angle_gamma   109.40500103
_symmetry_Int_Tables_number   1
_chemical_formula_structural   La13Al12Si18(N13O5)3
_chemical_formula_sum   'La13 Al12 Si18 N39 O15'
_cell_volume   1251.33543951
_cell_formula_units_Z   1
loop_
 _symmetry_equiv_pos_site_id
 _symmetry_equiv_pos_as_xyz
  1  'x, y, z'
loop_
 _atom_site_type_symbol
 _atom_site_label
 _atom_site_symmetry_multiplicity
 _atom_site_fract_x
 _atom_site_fract_y
 _atom_site_fract_z
 _atom_site_occupancy
  La  La0  1  0.99263391  0.31554374  0.57260750  1
  La  La1  1  0.99263391  0.57260750  0.31554374  1
  La  La2  1  0.32457396  1.00000000  0.57701426  1
  La  La3  1  0.25951355  0.66975307  0.66975307  1
  La  La4  1  0.99220361  0.00000000  0.00000000  1
  La  La5  1  0.42002642  0.74293624  0.42739250  1
  La  La6  1  0.42002642  0.42739250  0.74293624  1
  La  La7  1  0.32457396  0.57701426  1.00000000  1
  La  La8  1  0.67709018  0.68445626  0.25706376  1
  La  La9  1  0.67709018  0.25706376  0.68445626  1
  La  La10  1  0.74755970  0.42298574  0.42298574  1
  La  La11  1  0.58976048  1.00000000  0.33024693  1
  La  La12  1  0.58976048  0.33024693  1.00000000  1
  Al  Al13  1  0.00032124  0.83947123  0.24659016  1
  Al  Al14  1  0.00032124  0.24659016  0.83947123  1
  Al  Al15  1  0.24561043  0.00000000  0.83842166  1
  Al  Al16  1  0.16085001  0.16052877  0.40711893  1
  Al  Al17  1  0.16085001  0.40711893  0.16052877  1
  Al  Al18  1  0.24561043  0.83842166  0.00000000  1
  Al  Al19  1  0.59038412  0.75229649  0.75229649  1
  Al  Al20  1  0.75373108  0.59288107  0.75340984  1
  Al  Al21  1  0.75373108  0.75340984  0.59288107  1
  Al  Al22  1  0.40718877  0.16157834  0.16157834  1
  Al  Al23  1  0.83808763  1.00000000  0.24770351  1
  Al  Al24  1  0.83808763  0.24770351  1.00000000  1
  Si  Si25  1  0.00103586  0.70005554  0.70005554  1
  Si  Si26  1  0.99945958  0.54009125  0.83990304  1
  Si  Si27  1  0.99945958  0.83990304  0.54009125  1
  Si  Si28  1  0.15955654  0.16009696  0.70018820  1
  Si  Si29  1  0.15955654  0.70018820  0.16009696  1
  Si  Si30  1  0.54010199  1.00000000  0.84227260  1
  Si  Si31  1  0.30185211  0.46107129  0.46107129  1
  Si  Si32  1  0.30098032  0.00000000  0.29994446  1
  Si  Si33  1  0.30098032  0.29994446  0.00000000  1
  Si  Si34  1  0.45936833  0.29981180  0.45990875  1
  Si  Si35  1  0.45936833  0.45990875  0.29981180  1
  Si  Si36  1  0.54010199  0.84227260  1.00000000  1
  Si  Si37  1  0.84078082  0.00000000  0.53892871  1
  Si  Si38  1  0.70240213  1.00000000  0.70363603  1
  Si  Si39  1  0.70240213  0.70363603  1.00000000  1
  Si  Si40  1  0.69782939  0.15772740  0.15772740  1
  Si  Si41  1  0.84078082  0.53892871  0.00000000  1
  Si  Si42  1  0.99876610  0.29636397  0.29636397  1
  N  N43  1  0.00025118  0.69688514  0.55110837  1
  N  N44  1  0.00025118  0.55110837  0.69688514  1
  N  N45  1  0.14992647  0.00000000  0.67368218  1
  N  N46  1  0.14882115  0.84618092  0.84618092  1
  N  N47  1  0.15667063  1.00000000  0.30830785  1
  N  N48  1  0.00113523  0.67806019  0.14959388  1
  N  N49  1  0.00113523  0.14959388  0.67806019  1
  N  N50  1  0.14176999  0.44449488  0.44449488  1
  N  N51  1  0.00015285  0.15192526  0.29973207  1
  N  N52  1  0.00015285  0.29973207  0.15192526  1
  N  N53  1  0.30336604  0.85422323  0.30311486  1
  N  N54  1  0.30336604  0.30311486  0.85422323  1
  N  N55  1  0.14992647  0.67368218  0.00000000  1
  N  N56  1  0.30264022  0.00000000  0.15381908  1
  N  N57  1  0.52713355  0.85333263  0.85333263  1
  N  N58  1  0.42117619  0.61053347  0.61053347  1
  N  N59  1  0.15667063  0.30830785  1.00000000  1
  N  N60  1  0.32307504  0.32193981  0.47153370  1
  N  N61  1  0.32307504  0.47153370  0.32193981  1
  N  N62  1  0.69727512  0.00000000  0.55550512  1
  N  N63  1  0.70042078  0.85219319  0.70026793  1
  N  N64  1  0.70042078  0.70026793  0.85219319  1
  N  N65  1  0.44914281  0.44889163  0.14577677  1
  N  N66  1  0.44914281  0.14577677  0.44889163  1
  N  N67  1  0.47624429  0.32631782  0.32631782  1
  N  N68  1  0.30264022  0.15381908  0.00000000  1
  N  N69  1  0.55239501  0.00000000  0.69958997  1
  N  N70  1  0.55239501  0.69958997  0.00000000  1
  N  N71  1  0.81064272  0.00000000  0.38946653  1
  N  N72  1  0.84836278  0.69169215  0.69169215  1
  N  N73  1  0.85154134  0.85040612  0.52846630  1
  N  N74  1  0.85154134  0.52846630  0.85040612  1
  N  N75  1  0.69727512  0.55550512  0.00000000  1
  N  N76  1  0.84822759  0.14780681  0.84807474  1
  N  N77  1  0.84822759  0.84807474  0.14780681  1
  N  N78  1  0.67380092  0.00000000  0.14666737  1
  N  N79  1  0.67380092  0.14666737  0.00000000  1
  N  N80  1  0.85280504  0.30041003  0.30041003  1
  N  N81  1  0.81064272  0.38946653  0.00000000  1
  O  O82  1  0.24919441  0.75227368  0.49539618  1
  O  O83  1  0.24919441  0.49539618  0.75227368  1
  O  O84  1  0.18374159  0.57621534  0.18578039  1
  O  O85  1  0.18374159  0.18578039  0.57621534  1
  O  O86  1  0.39059303  1.00000000  0.81470810  1
  O  O87  1  0.39059303  0.81470810  1.00000000  1
  O  O88  1  0.49692074  0.24772632  0.74312250  1
  O  O89  1  0.49692074  0.74312250  0.24772632  1
  O  O90  1  0.60752625  0.60956505  0.42378466  1
  O  O91  1  0.60752625  0.42378466  0.60956505  1
  O  O92  1  0.57588493  0.18529190  0.18529190  1
  O  O93  1  0.75379823  0.50460382  0.25687750  1
  O  O94  1  0.75379823  0.25687750  0.50460382  1
  O  O95  1  0.99796120  0.81421961  0.39043495  1
  O  O96  1  0.99796120  0.39043495  0.81421961  1
