# generated using pymatgen
data_Ba9La3Mg5Nb7O36
_symmetry_space_group_name_H-M   'P 1'
_cell_length_a   5.81651727
_cell_length_b   34.90856531
_cell_length_c   10.07880495
_cell_angle_alpha   29.98453715
_cell_angle_beta   54.75289798
_cell_angle_gamma   60.00896553
_symmetry_Int_Tables_number   1
_chemical_formula_structural   Ba9La3Mg5Nb7O36
_chemical_formula_sum   'Ba9 La3 Mg5 Nb7 O36'
_cell_volume   835.25290571
_cell_formula_units_Z   1
loop_
 _symmetry_equiv_pos_site_id
 _symmetry_equiv_pos_as_xyz
  1  'x, y, z'
loop_
 _atom_site_type_symbol
 _atom_site_label
 _atom_site_symmetry_multiplicity
 _atom_site_fract_x
 _atom_site_fract_y
 _atom_site_fract_z
 _atom_site_occupancy
  Ba  Ba0  1  0.24195824  1.00000000  0.25804176  1
  Ba  Ba1  1  0.25721490  0.16998361  0.23283527  1
  Ba  Ba2  1  0.74344389  0.17043142  0.74526284  1
  Ba  Ba3  1  0.75140621  0.33692646  0.73781340  1
  Ba  Ba4  1  0.75232600  0.50000000  0.74767400  1
  Ba  Ba5  1  0.25721490  0.83001639  0.25273494  1
  Ba  Ba6  1  0.75140621  0.66307354  0.75937418  1
  Ba  Ba7  1  0.74344389  0.82956858  0.76784937  1
  Ba  Ba8  1  0.75714831  0.00000000  0.74285169  1
  La  La9  1  0.23147302  0.33460080  0.26472358  1
  La  La10  1  0.24656363  0.50000000  0.25343637  1
  La  La11  1  0.23147302  0.66539920  0.27233039  1
  Mg  Mg12  1  0.00043518  0.16676823  0.99926113  1
  Mg  Mg13  1  0.99909981  0.33631838  0.99194406  1
  Mg  Mg14  1  0.99909981  0.66368162  0.00985633  1
  Mg  Mg15  1  0.00078430  0.50000000  0.99921570  1
  Mg  Mg16  1  0.00043518  0.83323177  -0.00013148  1
  Nb  Nb17  1  -0.00061113  0.00000000  0.00061113  1
  Nb  Nb18  1  0.50109328  0.00000000  0.49890672  1
  Nb  Nb19  1  0.49796928  0.17480051  0.47763019  1
  Nb  Nb20  1  0.50168572  0.33632481  0.48933884  1
  Nb  Nb21  1  0.49801556  0.50000000  0.50198444  1
  Nb  Nb22  1  0.50168572  0.66367519  0.50728971  1
  Nb  Nb23  1  0.49796928  0.82519949  0.52643124  1
  O  O24  1  0.25787531  0.08125493  0.25732582  1
  O  O25  1  0.24629183  1.00000000  0.75370817  1
  O  O26  1  0.73994549  0.08125493  0.25732582  1
  O  O27  1  0.25046878  0.25045039  0.25558474  1
  O  O28  1  0.24348393  0.08176194  0.75624328  1
  O  O29  1  0.73896645  0.16550597  0.26451664  1
  O  O30  1  0.25719106  0.16831908  0.73785271  1
  O  O31  1  0.73565740  0.25045039  0.25558474  1
  O  O32  1  0.75345790  0.08176194  0.75624328  1
  O  O33  1  0.25694911  0.41615843  0.24704854  1
  O  O34  1  0.25752995  0.25645467  0.71887040  1
  O  O35  1  0.25750884  0.34071336  0.72035008  1
  O  O36  1  0.74669751  0.33547066  0.24688951  1
  O  O37  1  0.75200324  0.41615843  0.24704854  1
  O  O38  1  0.76600325  0.25645467  0.71887040  1
  O  O39  1  0.25641342  0.58102549  0.25452168  1
  O  O40  1  0.25641342  0.41897451  0.74067264  1
  O  O41  1  0.74694495  0.50000000  0.25305505  1
  O  O42  1  0.25519610  0.50000000  0.74480390  1
  O  O43  1  0.74839225  0.58102549  0.25452168  1
  O  O44  1  0.74839225  0.41897451  0.74067264  1
  O  O45  1  0.25752995  0.74354533  0.25759641  1
  O  O46  1  0.25694911  0.58384157  0.74399910  1
  O  O47  1  0.74669751  0.66452934  0.25971548  1
  O  O48  1  0.25750884  0.65928664  0.76463224  1
  O  O49  1  0.76600325  0.74354533  0.25759641  1
  O  O50  1  0.75200324  0.58384157  0.74399910  1
  O  O51  1  0.25046878  0.74954961  0.75828909  1
  O  O52  1  0.24348393  0.91823806  0.24681489  1
  O  O53  1  0.73896645  0.83449403  0.25755046  1
  O  O54  1  0.25719106  0.83168092  0.74776518  1
  O  O55  1  0.73565740  0.74954961  0.75828909  1
  O  O56  1  0.75345790  0.91823806  0.24681489  1
  O  O57  1  0.25787531  0.91874507  0.74485338  1
  O  O58  1  0.75174515  0.00000000  0.24825485  1
  O  O59  1  0.73994549  0.91874507  0.74485338  1
