# generated using pymatgen
data_Fe24N11
_symmetry_space_group_name_H-M   'P 1'
_cell_length_a   8.62662100
_cell_length_b   14.15973522
_cell_length_c   6.96164053
_cell_angle_alpha   90.04222603
_cell_angle_beta   51.71434881
_cell_angle_gamma   90.06815246
_symmetry_Int_Tables_number   1
_chemical_formula_structural   Fe24N11
_chemical_formula_sum   'Fe48 N22'
_cell_volume   667.48103214
_cell_formula_units_Z   2
loop_
 _symmetry_equiv_pos_site_id
 _symmetry_equiv_pos_as_xyz
  1  'x, y, z'
loop_
 _atom_site_type_symbol
 _atom_site_label
 _atom_site_symmetry_multiplicity
 _atom_site_fract_x
 _atom_site_fract_y
 _atom_site_fract_z
 _atom_site_occupancy
  Fe  Fe0  1  0.06203476  0.02775606  0.12162171  1
  Fe  Fe1  1  0.06481333  0.36174307  0.12620089  1
  Fe  Fe2  1  0.06870089  0.69626452  0.12503063  1
  Fe  Fe3  1  0.06626798  0.13891119  0.62173572  1
  Fe  Fe4  1  0.18641644  0.30573360  0.37844048  1
  Fe  Fe5  1  0.06229726  0.47275827  0.62307208  1
  Fe  Fe6  1  0.18561098  0.64095953  0.37937331  1
  Fe  Fe7  1  0.06701122  0.80185196  0.61902723  1
  Fe  Fe8  1  0.18976696  0.97012740  0.37633648  1
  Fe  Fe9  1  0.31829904  0.14023719  0.11873501  1
  Fe  Fe10  1  0.31426147  0.47262146  0.12129169  1
  Fe  Fe11  1  0.31280549  0.80480149  0.13664383  1
  Fe  Fe12  1  0.56444684  0.02737854  0.12129169  1
  Fe  Fe13  1  0.19373152  0.19626452  0.87496937  1
  Fe  Fe14  1  0.56296594  0.35976281  0.11873501  1
  Fe  Fe15  1  0.18365648  0.52775606  0.87837829  1
  Fe  Fe16  1  0.55055068  0.69519851  0.13664383  1
  Fe  Fe17  1  0.19101423  0.86174307  0.87379911  1
  Fe  Fe18  1  0.31463067  0.02724173  0.62307208  1
  Fe  Fe19  1  0.43514308  0.19426640  0.37844048  1
  Fe  Fe20  1  0.31199630  0.36108881  0.62173572  1
  Fe  Fe21  1  0.43389656  0.52987260  0.37633648  1
  Fe  Fe22  1  0.31396155  0.69814804  0.61902723  1
  Fe  Fe23  1  0.43501571  0.85904047  0.37937331  1
  Fe  Fe24  1  0.68603845  0.30185196  0.38097277  1
  Fe  Fe25  1  0.56498429  0.14095953  0.62062669  1
  Fe  Fe26  1  0.56610344  0.47012740  0.62366352  1
  Fe  Fe27  1  0.68800370  0.63891119  0.37826428  1
  Fe  Fe28  1  0.56485692  0.80573360  0.62155952  1
  Fe  Fe29  1  0.68536933  0.97275827  0.37692792  1
  Fe  Fe30  1  0.80898577  0.13825693  0.12620089  1
  Fe  Fe31  1  0.81634352  0.47224394  0.12162171  1
  Fe  Fe32  1  0.44944932  0.30480149  0.86335617  1
  Fe  Fe33  1  0.43703406  0.64023719  0.88126499  1
  Fe  Fe34  1  0.80626848  0.80373548  0.12503063  1
  Fe  Fe35  1  0.43555316  0.97262146  0.87870831  1
  Fe  Fe36  1  0.68719451  0.19519851  0.86335617  1
  Fe  Fe37  1  0.68573853  0.52737854  0.87870831  1
  Fe  Fe38  1  0.68170096  0.85976281  0.88126499  1
  Fe  Fe39  1  0.81023304  0.02987260  0.62366352  1
  Fe  Fe40  1  0.93298878  0.19814804  0.38097277  1
  Fe  Fe41  1  0.81438902  0.35904047  0.62062669  1
  Fe  Fe42  1  0.93770274  0.52724173  0.37692792  1
  Fe  Fe43  1  0.93373202  0.86108881  0.37826428  1
  Fe  Fe44  1  0.81358356  0.69426640  0.62155952  1
  Fe  Fe45  1  0.93129911  0.30373548  0.87496937  1
  Fe  Fe46  1  0.93518667  0.63825693  0.87379911  1
  Fe  Fe47  1  0.93796524  0.97224394  0.87837829  1
  N  N48  1  0.18377645  0.25152083  0.13544192  1
  N  N49  1  0.18358897  0.58382128  0.13448714  1
  N  N50  1  0.17804389  0.91777106  0.14043505  1
  N  N51  1  0.31961465  0.08215302  0.35938533  1
  N  N52  1  0.17893486  0.25000000  0.64213027  1
  N  N53  1  0.32100002  0.41784698  0.35938533  1
  N  N54  1  0.18079473  0.91277383  0.63466975  1
  N  N55  1  0.18453552  0.58722617  0.63466975  1
  N  N56  1  0.68078163  0.24847917  0.13544192  1
  N  N57  1  0.68192389  0.91617872  0.13448714  1
  N  N58  1  0.68152106  0.58222894  0.14043505  1
  N  N59  1  0.31807611  0.08382128  0.86551286  1
  N  N60  1  0.31847894  0.41777106  0.85956495  1
  N  N61  1  0.31921837  0.75152083  0.86455808  1
  N  N62  1  0.67899998  0.58215302  0.64061467  1
  N  N63  1  0.68038535  0.91784698  0.64061467  1
  N  N64  1  0.81920527  0.08722617  0.36533025  1
  N  N65  1  0.81546448  0.41277383  0.36533025  1
  N  N66  1  0.82106514  0.75000000  0.35786973  1
  N  N67  1  0.82195611  0.08222894  0.85956495  1
  N  N68  1  0.81641103  0.41617872  0.86551286  1
  N  N69  1  0.81622355  0.74847917  0.86455808  1
