# generated using pymatgen
data_NiH10C4(SN4)2
_symmetry_space_group_name_H-M   'P 1'
_cell_length_a   8.50605414
_cell_length_b   8.50605414
_cell_length_c   9.20461949
_cell_angle_alpha   71.39701408
_cell_angle_beta   108.60298592
_cell_angle_gamma   123.39275942
_symmetry_Int_Tables_number   1
_chemical_formula_structural   NiH10C4(SN4)2
_chemical_formula_sum   'Ni2 H20 C8 S4 N16'
_cell_volume   518.25748646
_cell_formula_units_Z   2
loop_
 _symmetry_equiv_pos_site_id
 _symmetry_equiv_pos_as_xyz
  1  'x, y, z'
loop_
 _atom_site_type_symbol
 _atom_site_label
 _atom_site_symmetry_multiplicity
 _atom_site_fract_x
 _atom_site_fract_y
 _atom_site_fract_z
 _atom_site_occupancy
  Ni  Ni0  1  0.89034544  0.89034544  0.25000000  1
  Ni  Ni1  1  0.10965456  0.10965456  0.75000000  1
  H  H2  1  0.23564087  0.11377957  0.22055371  1
  H  H3  1  0.11377957  0.23564087  0.27944629  1
  H  H4  1  0.76435913  0.88622043  0.77944629  1
  H  H5  1  0.88622043  0.76435913  0.72055371  1
  H  H6  1  0.09626037  0.66917440  0.04528014  1
  H  H7  1  0.66917440  0.09626037  0.45471986  1
  H  H8  1  0.90373963  0.33082560  0.95471986  1
  H  H9  1  0.33082560  0.90373963  0.54528014  1
  H  H10  1  0.63430234  0.58882869  0.15124633  1
  H  H11  1  0.58882869  0.63430234  0.34875367  1
  H  H12  1  0.36569766  0.41117131  0.84875367  1
  H  H13  1  0.41117131  0.36569766  0.65124633  1
  H  H14  1  0.45310661  0.12055861  0.12358162  1
  H  H15  1  0.12055861  0.45310661  0.37641838  1
  H  H16  1  0.54689339  0.87944139  0.87641838  1
  H  H17  1  0.87944139  0.54689339  0.62358162  1
  H  H18  1  0.40008578  0.89767113  0.10255732  1
  H  H19  1  0.89767113  0.40008578  0.39744268  1
  H  H20  1  0.59991422  0.10232887  0.89744268  1
  H  H21  1  0.10232887  0.59991422  0.60255732  1
  C  C22  1  0.17477924  0.90234989  0.13472106  1
  C  C23  1  0.90234989  0.17477924  0.36527894  1
  C  C24  1  0.82522076  0.09765011  0.86527894  1
  C  C25  1  0.09765011  0.82522076  0.63472106  1
  C  C26  1  0.85205685  0.62701492  0.08904060  1
  C  C27  1  0.62701492  0.85205685  0.41095940  1
  C  C28  1  0.14794315  0.37298508  0.91095940  1
  C  C29  1  0.37298508  0.14794315  0.58904060  1
  S  S30  1  0.71257257  0.44671242  0.98058562  1
  S  S31  1  0.44671242  0.71257257  0.51941438  1
  S  S32  1  0.28742743  0.55328758  0.01941438  1
  S  S33  1  0.55328758  0.28742743  0.48058562  1
  N  N34  1  0.12211460  0.98650205  0.19062943  1
  N  N35  1  0.98650205  0.12211460  0.30937057  1
  N  N36  1  0.87788540  0.01349795  0.80937057  1
  N  N37  1  0.01349795  0.87788540  0.69062943  1
  N  N38  1  0.04667953  0.72712987  0.09068131  1
  N  N39  1  0.72712987  0.04667953  0.40931869  1
  N  N40  1  0.95332047  0.27287013  0.90931869  1
  N  N41  1  0.27287013  0.95332047  0.59068131  1
  N  N42  1  0.78053289  0.67359893  0.16534121  1
  N  N43  1  0.67359893  0.78053289  0.33465879  1
  N  N44  1  0.21946711  0.32640107  0.83465879  1
  N  N45  1  0.32640107  0.21946711  0.66534121  1
  N  N46  1  0.35499240  0.98213614  0.11092066  1
  N  N47  1  0.98213614  0.35499240  0.38907934  1
  N  N48  1  0.64500760  0.01786386  0.88907934  1
  N  N49  1  0.01786386  0.64500760  0.61092066  1
