# generated using pymatgen
data_LiAl3Si9(N7O)2
_symmetry_space_group_name_H-M   'P 1'
_cell_length_a   7.91468097
_cell_length_b   7.86513613
_cell_length_c   5.71185110
_cell_angle_alpha   90.12584439
_cell_angle_beta   90.10774142
_cell_angle_gamma   120.11043206
_symmetry_Int_Tables_number   1
_chemical_formula_structural   LiAl3Si9(N7O)2
_chemical_formula_sum   'Li1 Al3 Si9 N14 O2'
_cell_volume   307.58077361
_cell_formula_units_Z   1
loop_
 _symmetry_equiv_pos_site_id
 _symmetry_equiv_pos_as_xyz
  1  'x, y, z'
loop_
 _atom_site_type_symbol
 _atom_site_label
 _atom_site_symmetry_multiplicity
 _atom_site_fract_x
 _atom_site_fract_y
 _atom_site_fract_z
 _atom_site_occupancy
  Li  Li0  1  0.33757995  0.66959027  0.72324129  1
  Al  Al1  1  0.16640662  0.92139082  0.45573698  1
  Al  Al2  1  0.49826704  0.92103731  0.15640137  1
  Al  Al3  1  0.90873766  0.48503238  0.66103111  1
  Si  Si4  1  0.08002201  0.56252245  0.14986238  1
  Si  Si5  1  0.08192638  0.25300314  0.45627143  1
  Si  Si6  1  0.42732811  0.51101346  0.16157465  1
  Si  Si7  1  0.25290505  0.08479513  0.94679760  1
  Si  Si8  1  0.51389265  0.42482305  0.65947121  1
  Si  Si9  1  0.74108074  0.83534669  0.46036798  1
  Si  Si10  1  0.83199827  0.74819830  0.96108240  1
  Si  Si11  1  0.57223508  0.08432632  0.66751673  1
  Si  Si12  1  0.92261483  0.17220150  0.94758937  1
  N  N13  1  0.00421707  0.00045947  0.95513481  1
  N  N14  1  0.00113120  0.31666529  0.20303394  1
  N  N15  1  0.32429809  0.65648921  0.08669109  1
  N  N16  1  0.98775390  0.00172828  0.45330601  1
  N  N17  1  0.59197884  0.93772942  0.45682282  1
  N  N18  1  0.34268922  0.39392824  0.43650500  1
  N  N19  1  0.39195864  0.34195217  0.93418502  1
  N  N20  1  0.32121840  0.98941066  0.71744547  1
  N  N21  1  0.67557719  0.69044099  0.20112904  1
  N  N22  1  0.68480959  0.67738349  0.70293313  1
  N  N23  1  0.65277795  0.32320816  0.58617569  1
  N  N24  1  0.67238209  0.05810766  0.92532944  1
  N  N25  1  0.95509947  0.61840129  0.94728452  1
  N  N26  1  0.01940092  0.32855287  0.70691590  1
  O  O27  1  0.05811824  0.65398694  0.41929660  1
  O  O28  1  0.31492781  0.00494203  0.19206700  1
