# generated using pymatgen
data_Ca4MgB4H6(CO9)2
_symmetry_space_group_name_H-M   'P 1'
_cell_length_a   9.96588774
_cell_length_b   9.96588774
_cell_length_c   4.52442056
_cell_angle_alpha   79.23568829
_cell_angle_beta   100.76431171
_cell_angle_gamma   128.17019448
_symmetry_Int_Tables_number   1
_chemical_formula_structural   Ca4MgB4H6(CO9)2
_chemical_formula_sum   'Ca4 Mg1 B4 H6 C2 O18'
_cell_volume   345.57728821
_cell_formula_units_Z   1
loop_
 _symmetry_equiv_pos_site_id
 _symmetry_equiv_pos_as_xyz
  1  'x, y, z'
loop_
 _atom_site_type_symbol
 _atom_site_label
 _atom_site_symmetry_multiplicity
 _atom_site_fract_x
 _atom_site_fract_y
 _atom_site_fract_z
 _atom_site_occupancy
  Ca  Ca0  1  0.07479988  0.38658176  0.84145165  1
  Ca  Ca1  1  0.61341824  0.92520012  0.84145165  1
  Ca  Ca2  1  0.92520012  0.61341824  0.15854835  1
  Ca  Ca3  1  0.38658176  0.07479988  0.15854835  1
  Mg  Mg4  1  0.00000000  0.00000000  0.00000000  1
  B  B5  1  0.22417984  0.22417984  0.50000000  1
  B  B6  1  0.77582016  0.77582016  0.50000000  1
  B  B7  1  0.90317682  0.09682318  0.38141772  1
  B  B8  1  0.09682318  0.90317682  0.61858228  1
  H  H9  1  0.38052614  0.39330750  0.79447970  1
  H  H10  1  0.60669250  0.61947386  0.79447970  1
  H  H11  1  0.61947386  0.60669250  0.20552030  1
  H  H12  1  0.39330750  0.38052614  0.20552030  1
  H  H13  1  0.78662612  0.21337388  0.30087473  1
  H  H14  1  0.21337388  0.78662612  0.69912527  1
  C  C15  1  0.69500079  0.30499921  0.75133509  1
  C  C16  1  0.30499921  0.69500079  0.24866491  1
  O  O17  1  0.89890222  0.10109778  0.68943708  1
  O  O18  1  0.10109778  0.89890222  0.31056292  1
  O  O19  1  0.08019593  0.19175728  0.27981116  1
  O  O20  1  0.80824272  0.91980407  0.27981116  1
  O  O21  1  0.91980407  0.80824272  0.72018884  1
  O  O22  1  0.19175728  0.08019593  0.72018884  1
  O  O23  1  0.27692514  0.36525477  0.67394024  1
  O  O24  1  0.63474523  0.72307486  0.67394024  1
  O  O25  1  0.72307486  0.63474523  0.32605976  1
  O  O26  1  0.36525477  0.27692514  0.32605976  1
  O  O27  1  0.15394909  0.58480184  0.35085228  1
  O  O28  1  0.41519816  0.84605091  0.35085228  1
  O  O29  1  0.84605091  0.41519816  0.64914772  1
  O  O30  1  0.58480184  0.15394909  0.64914772  1
  O  O31  1  0.82490513  0.17509487  0.17586677  1
  O  O32  1  0.17509487  0.82490513  0.82413323  1
  O  O33  1  0.65657950  0.34342050  0.96470015  1
  O  O34  1  0.34342050  0.65657950  0.03529985  1
