# generated using pymatgen
data_La10Mg(Ga3O10)3
_symmetry_space_group_name_H-M   'P 1'
_cell_length_a   27.71297224
_cell_length_b   14.60284156
_cell_length_c   9.55362865
_cell_angle_alpha   29.77462333
_cell_angle_beta   30.48056977
_cell_angle_gamma   19.37929066
_symmetry_Int_Tables_number   1
_chemical_formula_structural   La10Mg(Ga3O10)3
_chemical_formula_sum   'La10 Mg1 Ga9 O30'
_cell_volume   615.00562763
_cell_formula_units_Z   1
loop_
 _symmetry_equiv_pos_site_id
 _symmetry_equiv_pos_as_xyz
  1  'x, y, z'
loop_
 _atom_site_type_symbol
 _atom_site_label
 _atom_site_symmetry_multiplicity
 _atom_site_fract_x
 _atom_site_fract_y
 _atom_site_fract_z
 _atom_site_occupancy
  La  La0  1  0.09575531  0.25476056  0.25958857  1
  La  La1  1  0.29798131  0.25507332  0.25473593  1
  La  La2  1  0.09463076  0.76135701  0.75506361  1
  La  La3  1  0.50099742  0.24974344  0.25505651  1
  La  La4  1  0.29762719  0.75546279  0.75550600  1
  La  La5  1  0.69812120  0.25810193  0.24926756  1
  La  La6  1  0.50054516  0.75507371  0.75085028  1
  La  La7  1  0.89660385  0.25866745  0.25785424  1
  La  La8  1  0.69882673  0.75279912  0.75401646  1
  La  La9  1  0.89744525  0.75261110  0.76192793  1
  Mg  Mg10  1  0.79831356  0.50420944  0.50448965  1
  Ga  Ga11  1  0.99867882  0.50342719  0.50412233  1
  Ga  Ga12  1  0.19882922  0.50365961  0.50293023  1
  Ga  Ga13  1  0.99878552  0.00330128  0.00487870  1
  Ga  Ga14  1  0.39825363  0.50384868  0.50463276  1
  Ga  Ga15  1  0.19983918  0.00279489  0.00203979  1
  Ga  Ga16  1  0.59789682  0.50487531  0.50387063  1
  Ga  Ga17  1  0.39742373  0.00459060  0.00540485  1
  Ga  Ga18  1  0.59781893  0.00523690  0.00271550  1
  Ga  Ga19  1  0.79821786  0.00357811  0.00485627  1
  O  O20  1  0.04230173  0.18155847  0.75190109  1
  O  O21  1  0.18443133  0.32479581  0.17952707  1
  O  O22  1  0.12986599  0.24780781  0.67991001  1
  O  O23  1  0.07087019  0.75025694  0.32480435  1
  O  O24  1  0.24509237  0.17927378  0.74444846  1
  O  O25  1  0.01380873  0.67894787  0.82207737  1
  O  O26  1  0.38266588  0.32617922  0.18086955  1
  O  O27  1  0.15680920  0.82334988  0.25043716  1
  O  O28  1  0.32894331  0.24979897  0.68004802  1
  O  O29  1  0.27112695  0.74994145  0.32598874  1
  O  O30  1  0.44221817  0.18220208  0.74955304  1
  O  O31  1  0.21421030  0.67916590  0.82520120  1
  O  O32  1  0.58274791  0.32729487  0.18360000  1
  O  O33  1  0.35341408  0.82670348  0.25673741  1
  O  O34  1  0.52955410  0.24896636  0.68073650  1
  O  O35  1  0.46994232  0.75236441  0.32639902  1
  O  O36  1  0.64111863  0.18384051  0.75033686  1
  O  O37  1  0.41209047  0.68103657  0.82622158  1
  O  O38  1  0.78285107  0.32488836  0.18272916  1
  O  O39  1  0.55647287  0.82526241  0.24650574  1
  O  O40  1  0.72565719  0.25756182  0.67875485  1
  O  O41  1  0.66949220  0.75884586  0.31387084  1
  O  O42  1  0.83944393  0.17904240  0.75865975  1
  O  O43  1  0.60564850  0.69165766  0.82938122  1
  O  O44  1  0.99037622  0.31422594  0.17819769  1
  O  O45  1  0.75867505  0.82890191  0.24079632  1
  O  O46  1  0.93107445  0.24017089  0.69262059  1
  O  O47  1  0.87386075  0.74396755  0.32653166  1
  O  O48  1  0.81322152  0.68124981  0.82327049  1
  O  O49  1  0.95782311  0.82156859  0.25007647  1
