# generated using pymatgen
data_LiSn2P3O10
_symmetry_space_group_name_H-M   'P 1'
_cell_length_a   12.30863217
_cell_length_b   7.84913599
_cell_length_c   10.30806481
_cell_angle_alpha   90.00000000
_cell_angle_beta   101.51371800
_cell_angle_gamma   90.00000000
_symmetry_Int_Tables_number   1
_chemical_formula_structural   LiSn2P3O10
_chemical_formula_sum   'Li4 Sn8 P12 O40'
_cell_volume   975.84384218
_cell_formula_units_Z   4
loop_
 _symmetry_equiv_pos_site_id
 _symmetry_equiv_pos_as_xyz
  1  'x, y, z'
loop_
 _atom_site_type_symbol
 _atom_site_label
 _atom_site_symmetry_multiplicity
 _atom_site_fract_x
 _atom_site_fract_y
 _atom_site_fract_z
 _atom_site_occupancy
  Li  Li0  1  0.15992068  0.84606184  0.61731565  1
  Li  Li1  1  0.84007932  0.34606184  0.88268435  1
  Li  Li2  1  0.15992068  0.65393816  0.11731565  1
  Li  Li3  1  0.84007932  0.15393816  0.38268435  1
  Sn  Sn4  1  0.87208146  0.50718036  0.56733698  1
  Sn  Sn5  1  0.12791854  0.00718036  0.93266302  1
  Sn  Sn6  1  0.12791854  0.49281964  0.43266302  1
  Sn  Sn7  1  0.87208146  0.99281964  0.06733698  1
  Sn  Sn8  1  0.42473685  0.10553927  0.80283886  1
  Sn  Sn9  1  0.57526315  0.60553927  0.69716114  1
  Sn  Sn10  1  0.57526315  0.89446073  0.19716114  1
  Sn  Sn11  1  0.42473685  0.39446073  0.30283886  1
  P  P12  1  0.26759663  0.06393668  0.42558601  1
  P  P13  1  0.26759663  0.43606332  0.92558601  1
  P  P14  1  0.05453586  0.90525996  0.30150234  1
  P  P15  1  0.65134846  0.29123012  0.53141640  1
  P  P16  1  0.94546414  0.09474004  0.69849766  1
  P  P17  1  0.73240337  0.93606332  0.57441399  1
  P  P18  1  0.34865154  0.79123012  0.96858360  1
  P  P19  1  0.73240337  0.56393668  0.07441399  1
  P  P20  1  0.65134846  0.20876988  0.03141640  1
  P  P21  1  0.34865154  0.70876988  0.46858360  1
  P  P22  1  0.05453586  0.59474004  0.80150234  1
  P  P23  1  0.94546414  0.40525996  0.19849766  1
  O  O24  1  0.52525846  0.18790179  0.00918539  1
  O  O25  1  0.29538501  0.93035306  0.86377249  1
  O  O26  1  0.70467406  0.29588790  0.41207784  1
  O  O27  1  0.07094203  0.64948639  0.66517014  1
  O  O28  1  0.13990181  0.43710314  0.84891027  1
  O  O29  1  0.68033135  0.11280998  0.61298009  1
  O  O30  1  0.08354486  0.77127076  0.41208805  1
  O  O31  1  0.70467406  0.20411210  0.91207784  1
  O  O32  1  0.27035942  0.42310345  0.07154005  1
  O  O33  1  0.47474154  0.81209821  0.99081461  1
  O  O34  1  0.91645514  0.22872924  0.58791195  1
  O  O35  1  0.29532594  0.70411210  0.58792216  1
  O  O36  1  0.68077697  0.70100260  0.14536952  1
  O  O37  1  0.31966865  0.88719002  0.38701991  1
  O  O38  1  0.31922303  0.29899740  0.85463048  1
  O  O39  1  0.31966865  0.61280998  0.88701991  1
  O  O40  1  0.31922303  0.20100260  0.35463048  1
  O  O41  1  0.07094203  0.85051361  0.16517014  1
  O  O42  1  0.86009819  0.93710314  0.65108973  1
  O  O43  1  0.68077697  0.79899740  0.64536952  1
  O  O44  1  0.27035942  0.07689655  0.57154005  1
  O  O45  1  0.29532594  0.79588790  0.08792216  1
  O  O46  1  0.68033135  0.38719002  0.11298009  1
  O  O47  1  0.86009819  0.56289686  0.15108973  1
  O  O48  1  0.06186539  0.01604388  0.70952825  1
  O  O49  1  0.06186539  0.48395612  0.20952725  1
  O  O50  1  0.13990181  0.06289686  0.34891027  1
  O  O51  1  0.72964058  0.92310345  0.42845995  1
  O  O52  1  0.08354486  0.72872924  0.91208805  1
  O  O53  1  0.52525846  0.31209821  0.50918539  1
  O  O54  1  0.72964058  0.57689655  0.92845995  1
  O  O55  1  0.70461499  0.43035306  0.63622751  1
  O  O56  1  0.93813461  0.98395612  0.29047275  1
  O  O57  1  0.47474154  0.68790179  0.49081461  1
  O  O58  1  0.92905797  0.35051361  0.33482986  1
  O  O59  1  0.70461499  0.06964694  0.13622751  1
  O  O60  1  0.93813461  0.51604388  0.79047175  1
  O  O61  1  0.29538501  0.56964694  0.36377249  1
  O  O62  1  0.92905797  0.14948639  0.83482986  1
  O  O63  1  0.91645514  0.27127076  0.08791195  1
