# generated using pymatgen
data_CaSmMnSnO6
_symmetry_space_group_name_H-M   'P 1'
_cell_length_a   5.51119789
_cell_length_b   5.85179729
_cell_length_c   7.77473514
_cell_angle_alpha   90.00000000
_cell_angle_beta   89.64382376
_cell_angle_gamma   90.00000000
_symmetry_Int_Tables_number   1
_chemical_formula_structural   CaSmMnSnO6
_chemical_formula_sum   'Ca2 Sm2 Mn2 Sn2 O12'
_cell_volume   250.73357336
_cell_formula_units_Z   2
loop_
 _symmetry_equiv_pos_site_id
 _symmetry_equiv_pos_as_xyz
  1  'x, y, z'
loop_
 _atom_site_type_symbol
 _atom_site_label
 _atom_site_symmetry_multiplicity
 _atom_site_fract_x
 _atom_site_fract_y
 _atom_site_fract_z
 _atom_site_occupancy
  Ca  Ca0  1  0.48644974  0.44098383  0.74809049  1
  Ca  Ca1  1  0.98644974  0.05901617  0.24809049  1
  Sm  Sm2  1  0.01844018  0.92856236  0.75158784  1
  Sm  Sm3  1  0.51844018  0.57143764  0.25158784  1
  Mn  Mn4  1  0.00247114  0.49595517  0.50024418  1
  Mn  Mn5  1  0.50247114  0.00404483  0.00024418  1
  Sn  Sn6  1  0.00184470  0.49068876  0.99907675  1
  Sn  Sn7  1  0.50184470  0.00931124  0.49907675  1
  O  O8  1  0.10989468  0.46291268  0.25830500  1
  O  O9  1  0.19734396  0.18566360  0.55888611  1
  O  O10  1  0.19889024  0.18542278  0.94934563  1
  O  O11  1  0.29243884  0.69703646  0.54861078  1
  O  O12  1  0.29311668  0.69085782  0.94460442  1
  O  O13  1  0.39910984  0.96564846  0.24124879  1
  O  O14  1  0.60989468  0.03708732  0.75830500  1
  O  O15  1  0.69734396  0.31433640  0.05888611  1
  O  O16  1  0.69889024  0.31457722  0.44934563  1
  O  O17  1  0.79243884  0.80296354  0.04861078  1
  O  O18  1  0.79311668  0.80914218  0.44460442  1
  O  O19  1  0.89910984  0.53435154  0.74124879  1
