# generated using pymatgen
data_Li2VP4O13
_symmetry_space_group_name_H-M   'P 1'
_cell_length_a   5.08160622
_cell_length_b   7.94173451
_cell_length_c   13.74487623
_cell_angle_alpha   80.31637258
_cell_angle_beta   82.53432569
_cell_angle_gamma   81.24837664
_symmetry_Int_Tables_number   1
_chemical_formula_structural   Li2VP4O13
_chemical_formula_sum   'Li4 V2 P8 O26'
_cell_volume   537.32089096
_cell_formula_units_Z   2
loop_
 _symmetry_equiv_pos_site_id
 _symmetry_equiv_pos_as_xyz
  1  'x, y, z'
loop_
 _atom_site_type_symbol
 _atom_site_label
 _atom_site_symmetry_multiplicity
 _atom_site_fract_x
 _atom_site_fract_y
 _atom_site_fract_z
 _atom_site_occupancy
  Li  Li0  1  0.07925906  0.32151431  0.00453132  1
  Li  Li1  1  0.64495432  0.64805731  0.51545880  1
  Li  Li2  1  0.92074094  0.67848569  0.99546868  1
  Li  Li3  1  0.35504568  0.35194269  0.48454120  1
  V  V4  1  0.43831508  0.05423032  0.25838662  1
  V  V5  1  0.56168492  0.94576968  0.74161338  1
  P  P6  1  0.29682809  0.66737146  0.29912564  1
  P  P7  1  0.66001463  0.42254172  0.18166159  1
  P  P8  1  0.33998537  0.57745828  0.81833841  1
  P  P9  1  0.99265495  0.10052132  0.84950423  1
  P  P10  1  0.70317191  0.33262854  0.70087436  1
  P  P11  1  0.00734505  0.89947868  0.15049577  1
  P  P12  1  0.86389051  0.21113380  0.36215683  1
  P  P13  1  0.13610949  0.78886620  0.63784317  1
  O  O14  1  0.49929567  0.39865772  0.79139984  1
  O  O15  1  0.74260914  0.29014241  0.45161661  1
  O  O16  1  0.70510483  0.96981914  0.16255240  1
  O  O17  1  0.70910656  0.07001360  0.34105144  1
  O  O18  1  0.29089344  0.92998640  0.65894856  1
  O  O19  1  0.41929590  0.81593759  0.32604723  1
  O  O20  1  0.96602746  0.25588725  0.75362859  1
  O  O21  1  0.85946630  0.36160171  0.26454783  1
  O  O22  1  0.17071276  0.03786959  0.16993878  1
  O  O23  1  0.76103420  0.47397763  0.61949575  1
  O  O24  1  0.14053370  0.63839829  0.73545217  1
  O  O25  1  0.53702999  0.70743031  0.81025748  1
  O  O26  1  0.18430572  0.53391118  0.91683158  1
  O  O27  1  0.46297001  0.29256969  0.18974252  1
  O  O28  1  0.25739086  0.70985759  0.54838339  1
  O  O29  1  0.23896580  0.52602237  0.38050425  1
  O  O30  1  0.29489517  0.03018086  0.83744760  1
  O  O31  1  0.83400197  0.85910629  0.63962254  1
  O  O32  1  0.50070433  0.60134228  0.20860016  1
  O  O33  1  0.81569428  0.46608882  0.08316742  1
  O  O34  1  0.91059094  0.17575559  0.94240057  1
  O  O35  1  0.03397254  0.74411275  0.24637141  1
  O  O36  1  0.16599803  0.14089371  0.36037746  1
  O  O37  1  0.58070410  0.18406241  0.67395277  1
  O  O38  1  0.82928724  0.96213041  0.83006122  1
  O  O39  1  0.08940906  0.82424441  0.05759943  1
