# generated using pymatgen
data_Na6U(SO5)4
_symmetry_space_group_name_H-M   'P 1'
_cell_length_a   5.61619651
_cell_length_b   11.41531282
_cell_length_c   14.19182711
_cell_angle_alpha   90.73281403
_cell_angle_beta   93.26595295
_cell_angle_gamma   100.25887533
_symmetry_Int_Tables_number   1
_chemical_formula_structural   Na6U(SO5)4
_chemical_formula_sum   'Na12 U2 S8 O40'
_cell_volume   893.60376468
_cell_formula_units_Z   2
loop_
 _symmetry_equiv_pos_site_id
 _symmetry_equiv_pos_as_xyz
  1  'x, y, z'
loop_
 _atom_site_type_symbol
 _atom_site_label
 _atom_site_symmetry_multiplicity
 _atom_site_fract_x
 _atom_site_fract_y
 _atom_site_fract_z
 _atom_site_occupancy
  Na  Na0  1  0.85404405  0.76492412  0.42106279  1
  Na  Na1  1  0.14595595  0.23507588  0.57893721  1
  Na  Na2  1  0.23492029  0.76908628  0.24736068  1
  Na  Na3  1  0.76507971  0.23091372  0.75263932  1
  Na  Na4  1  0.25310342  0.46385913  0.41482608  1
  Na  Na5  1  0.74689658  0.53614087  0.58517392  1
  Na  Na6  1  0.28398561  0.04244433  0.10790426  1
  Na  Na7  1  0.71601439  0.95755567  0.89209574  1
  Na  Na8  1  0.65239892  0.77137076  0.09368352  1
  Na  Na9  1  0.34760108  0.22862924  0.90631648  1
  Na  Na10  1  0.50000000  0.00000000  0.50000000  1
  Na  Na11  1  0.00000000  0.50000000  0.00000000  1
  U  U12  1  0.25949424  0.70952488  0.75726064  1
  U  U13  1  0.74050576  0.29047512  0.24273936  1
  S  S14  1  0.30052012  0.43700249  0.74890860  1
  S  S15  1  0.69947988  0.56299751  0.25109140  1
  S  S16  1  0.31375177  0.71358926  0.50718967  1
  S  S17  1  0.68624823  0.28641074  0.49281033  1
  S  S18  1  0.14946755  0.79073771  0.99521079  1
  S  S19  1  0.85053245  0.20926229  0.00478921  1
  S  S20  1  0.77829487  0.97018245  0.25619661  1
  S  S21  1  0.22170513  0.02981755  0.74380339  1
  O  O22  1  0.96015040  0.64724447  0.70608341  1
  O  O23  1  0.03984960  0.35275553  0.29391659  1
  O  O24  1  0.55675274  0.77610685  0.80702298  1
  O  O25  1  0.44324726  0.22389315  0.19297702  1
  O  O26  1  0.23829110  0.50567017  0.83372170  1
  O  O27  1  0.76170890  0.49432983  0.16627830  1
  O  O28  1  0.40668885  0.53453063  0.68448001  1
  O  O29  1  0.59331115  0.46546937  0.31551999  1
  O  O30  1  0.77021489  0.95021522  0.36012993  1
  O  O31  1  0.22978511  0.04978478  0.63987007  1
  O  O32  1  0.84991608  0.10177164  0.24042084  1
  O  O33  1  0.15008392  0.89822836  0.75957916  1
  O  O34  1  0.37973259  0.76621239  0.60637527  1
  O  O35  1  0.62026741  0.23378761  0.39362473  1
  O  O36  1  0.50877302  0.64916160  0.48066620  1
  O  O37  1  0.49122698  0.35083840  0.51933380  1
  O  O38  1  0.07866136  0.63196810  0.50452503  1
  O  O39  1  0.92133864  0.36803190  0.49547497  1
  O  O40  1  0.10134916  0.71304715  0.90538215  1
  O  O41  1  0.89865084  0.28695285  0.09461785  1
  O  O42  1  0.07788111  0.36628990  0.70294159  1
  O  O43  1  0.92211889  0.63371010  0.29705841  1
  O  O44  1  0.53374779  0.92701717  0.20943382  1
  O  O45  1  0.46625221  0.07298283  0.79056618  1
  O  O46  1  0.29842575  0.81353290  0.44197724  1
  O  O47  1  0.70157425  0.18646710  0.55802276  1
  O  O48  1  0.47567822  0.35994857  0.77600198  1
  O  O49  1  0.52432178  0.64005143  0.22399802  1
  O  O50  1  0.95906174  0.86419891  0.99906913  1
  O  O51  1  0.04093826  0.13580109  0.00093087  1
  O  O52  1  0.13822754  0.70729705  0.07539661  1
  O  O53  1  0.86177246  0.29270295  0.92460339  1
  O  O54  1  0.95873334  0.90821288  0.21457895  1
  O  O55  1  0.04126666  0.09178712  0.78542105  1
  O  O56  1  0.39184319  0.86676544  0.99499129  1
  O  O57  1  0.60815681  0.13323456  0.00500871  1
  O  O58  1  0.84183615  0.90933983  0.56465470  1
  O  O59  1  0.15816385  0.09066017  0.43534530  1
  O  O60  1  0.64244251  0.59728431  0.96932176  1
  O  O61  1  0.35755749  0.40271569  0.03067824  1
