# generated using pymatgen
data_Ba2La3Ti2Cr3O15
_symmetry_space_group_name_H-M   'P 1'
_cell_length_a   3.97560635
_cell_length_b   19.85146719
_cell_length_c   5.64384631
_cell_angle_alpha   44.70326674
_cell_angle_beta   90.00000000
_cell_angle_gamma   90.00000000
_symmetry_Int_Tables_number   1
_chemical_formula_structural   Ba2La3Ti2Cr3O15
_chemical_formula_sum   'Ba2 La3 Ti2 Cr3 O15'
_cell_volume   313.32516618
_cell_formula_units_Z   1
loop_
 _symmetry_equiv_pos_site_id
 _symmetry_equiv_pos_as_xyz
  1  'x, y, z'
loop_
 _atom_site_type_symbol
 _atom_site_label
 _atom_site_symmetry_multiplicity
 _atom_site_fract_x
 _atom_site_fract_y
 _atom_site_fract_z
 _atom_site_occupancy
  Ba  Ba0  1  0.00000000  0.99688061  0.00779847  1
  Ba  Ba1  1  0.00000000  0.20311939  0.99220153  1
  La  La2  1  0.00000000  0.40664885  0.98337788  1
  La  La3  1  0.00000000  0.60000000  0.00000000  1
  La  La4  1  0.00000000  0.79335115  0.01662212  1
  Ti  Ti5  1  0.50000000  0.20352073  0.49119816  1
  Ti  Ti6  1  0.50000000  0.99647927  0.50880184  1
  Cr  Cr7  1  0.50000000  0.60000000  0.50000000  1
  Cr  Cr8  1  0.50000000  0.40176724  0.49558191  1
  Cr  Cr9  1  0.50000000  0.79823276  0.50441809  1
  O  O10  1  0.50000000  0.10000000  0.50000000  1
  O  O11  1  0.50000000  0.30573185  0.47136296  1
  O  O12  1  0.50000000  0.50092100  0.49887711  1
  O  O13  1  0.50000000  0.10000000  0.00000000  1
  O  O14  1  0.50000000  0.69907900  0.50112289  1
  O  O15  1  0.50000000  0.30573185  -0.00002219  1
  O  O16  1  0.50000000  0.89426815  0.52863704  1
  O  O17  1  0.50000000  0.50092100  0.99651790  1
  O  O18  1  0.50000000  0.69907900  0.00348210  1
  O  O19  1  0.50000000  0.89426815  0.00002219  1
  O  O20  1  0.00000000  0.99294642  0.51763395  1
  O  O21  1  0.00000000  0.20705358  0.48236605  1
  O  O22  1  0.00000000  0.41096935  0.47257663  1
  O  O23  1  0.00000000  0.60000000  0.50000000  1
  O  O24  1  0.00000000  0.78903065  0.52742337  1
