# generated using pymatgen
data_NaNb14O36
_symmetry_space_group_name_H-M   'P 1'
_cell_length_a   15.33090188
_cell_length_b   15.33090188
_cell_length_c   15.33090188
_cell_angle_alpha   123.52014565
_cell_angle_beta   58.65830969
_cell_angle_gamma   165.44584542
_symmetry_Int_Tables_number   1
_chemical_formula_structural   NaNb14O36
_chemical_formula_sum   'Na1 Nb14 O36'
_cell_volume   753.12754471
_cell_formula_units_Z   1
loop_
 _symmetry_equiv_pos_site_id
 _symmetry_equiv_pos_as_xyz
  1  'x, y, z'
loop_
 _atom_site_type_symbol
 _atom_site_label
 _atom_site_symmetry_multiplicity
 _atom_site_fract_x
 _atom_site_fract_y
 _atom_site_fract_z
 _atom_site_occupancy
  Na  Na0  1  0.00000000  0.00000000  0.00000000  1
  Nb  Nb1  1  0.60200317  0.61967035  0.22167352  1
  Nb  Nb2  1  0.39799683  0.61967035  0.01766719  1
  Nb  Nb3  1  0.60200317  0.38032965  0.98233281  1
  Nb  Nb4  1  0.39799683  0.38032965  0.77832648  1
  Nb  Nb5  1  0.70709250  0.80555278  0.51264528  1
  Nb  Nb6  1  0.29290750  0.80555278  0.09846028  1
  Nb  Nb7  1  0.70709250  0.19444722  0.90153972  1
  Nb  Nb8  1  0.29290750  0.19444722  0.48735472  1
  Nb  Nb9  1  0.50000000  0.81708488  0.31708488  1
  Nb  Nb10  1  0.50000000  0.18291512  0.68291512  1
  Nb  Nb11  1  0.18820441  0.00000000  0.18820441  1
  Nb  Nb12  1  0.81179559  0.00000000  0.81179559  1
  Nb  Nb13  1  0.39443012  0.00000000  0.39443012  1
  Nb  Nb14  1  0.60556988  0.00000000  0.60556988  1
  O  O15  1  0.55123937  0.70166030  0.25289967  1
  O  O16  1  0.44876063  0.70166030  0.15042093  1
  O  O17  1  0.55123937  0.29833970  0.84957907  1
  O  O18  1  0.44876063  0.29833970  0.74710033  1
  O  O19  1  0.55519437  0.90141889  0.45661326  1
  O  O20  1  0.44480563  0.90141889  0.34622452  1
  O  O21  1  0.55519437  0.09858111  0.65377548  1
  O  O22  1  0.44480563  0.09858111  0.54338674  1
  O  O23  1  0.66032765  0.70730911  0.36763675  1
  O  O24  1  0.33967235  0.70730911  0.04698146  1
  O  O25  1  0.66032765  0.29269089  0.95301854  1
  O  O26  1  0.33967235  0.29269089  0.63236325  1
  O  O27  1  0.66228163  0.90141471  0.56369634  1
  O  O28  1  0.33771837  0.90141471  0.23913309  1
  O  O29  1  0.66228163  0.09858529  0.76086691  1
  O  O30  1  0.33771837  0.09858529  0.43630366  1
  O  O31  1  0.76847208  0.90363055  0.67210264  1
  O  O32  1  0.23152792  0.90363055  0.13515847  1
  O  O33  1  0.76847208  0.09636945  0.86484153  1
  O  O34  1  0.23152792  0.09636945  0.32789736  1
  O  O35  1  0.11712234  0.09764355  0.21476590  1
  O  O36  1  0.88287766  0.09764355  0.98052121  1
  O  O37  1  0.11712234  0.90235645  0.01947879  1
  O  O38  1  0.88287766  0.90235645  0.78523410  1
  O  O39  1  0.22576068  0.29218443  0.51794510  1
  O  O40  1  0.77423932  0.29218443  0.06642375  1
  O  O41  1  0.22576068  0.70781557  0.93357625  1
  O  O42  1  0.77423932  0.70781557  0.48205490  1
  O  O43  1  0.56208999  0.50000000  0.06208999  1
  O  O44  1  0.43791001  0.50000000  0.93791001  1
  O  O45  1  0.66414488  0.50000000  0.16414488  1
  O  O46  1  0.33585512  0.50000000  0.83585512  1
  O  O47  1  0.88591868  0.50000000  0.38591868  1
  O  O48  1  0.11408132  0.50000000  0.61408132  1
  O  O49  1  0.00000000  0.29825164  0.29825164  1
  O  O50  1  0.00000000  0.70174836  0.70174836  1
