# generated using pymatgen
data_Li2Ni4P4O15
_symmetry_space_group_name_H-M   'P 1'
_cell_length_a   8.58090032
_cell_length_b   8.58090111
_cell_length_c   17.93278862
_cell_angle_alpha   82.89800106
_cell_angle_beta   97.10199953
_cell_angle_gamma   73.34963098
_symmetry_Int_Tables_number   1
_chemical_formula_structural   Li2Ni4P4O15
_chemical_formula_sum   'Li8 Ni16 P16 O60'
_cell_volume   1237.66020636
_cell_formula_units_Z   4
loop_
 _symmetry_equiv_pos_site_id
 _symmetry_equiv_pos_as_xyz
  1  'x, y, z'
loop_
 _atom_site_type_symbol
 _atom_site_label
 _atom_site_symmetry_multiplicity
 _atom_site_fract_x
 _atom_site_fract_y
 _atom_site_fract_z
 _atom_site_occupancy
  Li  Li0  1  0.29496997  0.53922887  0.04684505  1
  Li  Li1  1  0.99595074  0.52768595  0.75543069  1
  Li  Li2  1  0.46077113  0.70503003  0.54684505  1
  Li  Li3  1  0.70503003  0.46077113  0.95315495  1
  Li  Li4  1  0.00404926  0.47231405  0.24456931  1
  Li  Li5  1  0.53922887  0.29496997  0.45315495  1
  Li  Li6  1  0.52768595  0.99595074  0.74456931  1
  Li  Li7  1  0.47231405  0.00404926  0.25543069  1
  Ni  Ni8  1  0.95903989  0.14625487  0.43102811  1
  Ni  Ni9  1  0.04096011  0.85374513  0.56897189  1
  Ni  Ni10  1  0.73600582  0.90491532  0.43673998  1
  Ni  Ni11  1  0.04876145  0.04876145  0.25000000  1
  Ni  Ni12  1  0.85374513  0.04096011  0.93102811  1
  Ni  Ni13  1  0.47609019  0.47609019  0.75000000  1
  Ni  Ni14  1  0.09508468  0.26399418  0.93673998  1
  Ni  Ni15  1  0.52390981  0.52390981  0.25000000  1
  Ni  Ni16  1  0.82357224  0.82357224  0.25000000  1
  Ni  Ni17  1  0.50000000  0.00000000  0.00000000  1
  Ni  Ni18  1  0.90491532  0.73600582  0.06326002  1
  Ni  Ni19  1  0.26399418  0.09508468  0.56326002  1
  Ni  Ni20  1  0.14625487  0.95903989  0.06897189  1
  Ni  Ni21  1  0.00000000  0.50000000  0.50000000  1
  Ni  Ni22  1  0.17642776  0.17642776  0.75000000  1
  Ni  Ni23  1  0.95123855  0.95123855  0.75000000  1
  P  P24  1  0.22175939  0.45426502  0.62407625  1
  P  P25  1  0.01920022  0.68013678  0.89947389  1
  P  P26  1  0.71080154  0.15483751  0.32110419  1
  P  P27  1  0.77824061  0.54573498  0.37592375  1
  P  P28  1  0.68013678  0.01920022  0.60052611  1
  P  P29  1  0.84516249  0.28919846  0.82110419  1
  P  P30  1  0.31986322  0.98079978  0.39947389  1
  P  P31  1  0.45426502  0.22175939  0.87592375  1
  P  P32  1  0.10602205  0.76909259  0.40128593  1
  P  P33  1  0.23090741  0.89397795  0.90128593  1
  P  P34  1  0.76909259  0.10602205  0.09871407  1
  P  P35  1  0.54573498  0.77824061  0.12407625  1
  P  P36  1  0.15483751  0.71080154  0.17889581  1
  P  P37  1  0.98079978  0.31986322  0.10052611  1
  P  P38  1  0.89397795  0.23090741  0.59871407  1
  P  P39  1  0.28919846  0.84516249  0.67889581  1
  O  O40  1  0.61470947  0.09116547  0.92079878  1
  O  O41  1  0.58877106  0.13849272  0.07233498  1
  O  O42  1  0.66575174  0.78368631  0.06576153  1
  O  O43  1  0.40595603  0.16094608  0.80152420  1
  O  O44  1  0.78368631  0.66575174  0.43423847  1
  O  O45  1  0.28106121  0.57044647  0.23385721  1
  O  O46  1  0.49803352  0.93608415  0.43336261  1
  O  O47  1  0.47244413  0.39587274  0.85833140  1
  O  O48  1  0.60412726  0.52755587  0.35833140  1
  O  O49  1  0.21631369  0.33424826  0.56576153  1
  O  O50  1  0.57044647  0.28106121  0.26614279  1
  O  O51  1  0.83905392  0.59404397  0.30152420  1
  O  O52  1  0.30473448  0.02131583  0.68405761  1
  O  O53  1  0.59404397  0.83905392  0.19847580  1
  O  O54  1  0.89875322  0.79072162  0.94286406  1
  O  O55  1  0.86150728  0.41122894  0.57233498  1
  O  O56  1  0.06391585  0.50196648  0.93336261  1
  O  O57  1  0.16094608  0.40595603  0.69847580  1
  O  O58  1  0.70226630  0.16191579  0.40896658  1
  O  O59  1  0.28271218  0.80264480  0.41984747  1
  O  O60  1  0.71728782  0.19735520  0.58015253  1
  O  O61  1  0.16876064  0.88597291  0.18477816  1
  O  O62  1  0.16776317  0.95898876  0.81649965  1
  O  O63  1  0.09116547  0.61470947  0.57920122  1
  O  O64  1  0.16191579  0.70226630  0.09103342  1
  O  O65  1  0.97868417  0.69526552  0.18405761  1
  O  O66  1  0.00672093  0.11516713  0.55096894  1
  O  O67  1  0.33424826  0.21631369  0.93423847  1
  O  O68  1  0.19735520  0.71728782  0.91984747  1
  O  O69  1  0.03475404  0.27769617  0.18704854  1
  O  O70  1  0.11516713  0.00672093  0.94903106  1
  O  O71  1  0.29773370  0.83808421  0.59103342  1
  O  O72  1  0.80264480  0.28271218  0.08015253  1
  O  O73  1  0.41122894  0.86150728  0.92766502  1
  O  O74  1  0.69526552  0.97868417  0.31594239  1
  O  O75  1  0.02131583  0.30473448  0.81594239  1
  O  O76  1  0.50196648  0.06391585  0.56663739  1
  O  O77  1  0.83123936  0.11402709  0.81522184  1
  O  O78  1  0.90883453  0.38529053  0.42079878  1
  O  O79  1  0.93608415  0.49803352  0.06663739  1
  O  O80  1  0.10124678  0.20927838  0.05713594  1
  O  O81  1  0.79072162  0.89875322  0.55713594  1
  O  O82  1  0.39587274  0.47244413  0.64166860  1
  O  O83  1  0.38529053  0.90883453  0.07920122  1
  O  O84  1  0.96524596  0.72230383  0.81295146  1
  O  O85  1  0.27769617  0.03475404  0.31295146  1
  O  O86  1  0.04101124  0.83223683  0.31649965  1
  O  O87  1  0.52755587  0.60412726  0.14166860  1
  O  O88  1  0.83223683  0.04101124  0.18350035  1
  O  O89  1  0.99327907  0.88483287  0.44903106  1
  O  O90  1  0.72230383  0.96524596  0.68704854  1
  O  O91  1  0.71893879  0.42955353  0.76614279  1
  O  O92  1  0.42955353  0.71893879  0.73385721  1
  O  O93  1  0.88483287  0.99327907  0.05096894  1
  O  O94  1  0.83808421  0.29773370  0.90896658  1
  O  O95  1  0.95898876  0.16776317  0.68350035  1
  O  O96  1  0.20927838  0.10124678  0.44286406  1
  O  O97  1  0.11402709  0.83123936  0.68477816  1
  O  O98  1  0.88597291  0.16876064  0.31522184  1
  O  O99  1  0.13849272  0.58877106  0.42766502  1
