# generated using pymatgen
data_Li3V3P8O29
_symmetry_space_group_name_H-M   'P 1'
_cell_length_a   9.75475723
_cell_length_b   9.72827014
_cell_length_c   13.99752570
_cell_angle_alpha   90.00093981
_cell_angle_beta   90.58928536
_cell_angle_gamma   60.08860406
_symmetry_Int_Tables_number   1
_chemical_formula_structural   Li3V3P8O29
_chemical_formula_sum   'Li6 V6 P16 O58'
_cell_volume   1151.30536586
_cell_formula_units_Z   2
loop_
 _symmetry_equiv_pos_site_id
 _symmetry_equiv_pos_as_xyz
  1  'x, y, z'
loop_
 _atom_site_type_symbol
 _atom_site_label
 _atom_site_symmetry_multiplicity
 _atom_site_fract_x
 _atom_site_fract_y
 _atom_site_fract_z
 _atom_site_occupancy
  Li  Li0  1  0.66734733  0.23591803  0.43965922  1
  Li  Li1  1  0.33267016  0.76406239  0.56032746  1
  Li  Li2  1  0.00015861  0.99882637  0.99996727  1
  Li  Li3  1  0.33264448  0.90326370  0.06033963  1
  Li  Li4  1  0.66733957  0.09673681  0.93966964  1
  Li  Li5  1  0.99982275  0.99901448  0.50004480  1
  V  V6  1  0.56898212  0.43747838  0.24428973  1
  V  V7  1  0.00001710  0.56279725  0.24999879  1
  V  V8  1  0.99997968  0.43717018  0.74999601  1
  V  V9  1  0.43108642  0.56254312  0.75572520  1
  V  V10  1  0.56885670  0.99366330  0.74429011  1
  V  V11  1  0.43104763  0.00642151  0.25569061  1
  P  P12  1  0.91740552  0.30543262  0.34438357  1
  P  P13  1  0.31544262  0.91337349  0.84383381  1
  P  P14  1  0.22094875  0.69080215  0.15945313  1
  P  P15  1  0.68451942  0.22883643  0.65617126  1
  P  P16  1  0.33593806  0.32706056  0.87144927  1
  P  P17  1  0.08260247  0.22282614  0.15561924  1
  P  P18  1  0.77906931  0.91175360  0.34054725  1
  P  P19  1  0.68455167  0.08667932  0.15618473  1
  P  P20  1  0.31546350  0.77120640  0.34381216  1
  P  P21  1  0.77907205  0.30916791  0.84054284  1
  P  P22  1  0.66403353  0.66303433  0.62855810  1
  P  P23  1  0.33598115  0.33703796  0.37144622  1
  P  P24  1  0.66403980  0.67302800  0.12853608  1
  P  P25  1  0.91733615  0.77725222  0.84436053  1
  P  P26  1  0.08264764  0.69459659  0.65564946  1
  P  P27  1  0.22089400  0.08824735  0.65944737  1
  O  O28  1  0.61917730  0.46785169  0.82761093  1
  O  O29  1  0.08260767  0.53557063  0.67175858  1
  O  O30  1  0.52722302  0.38398881  0.67365170  1
  O  O31  1  0.61915663  0.91307349  0.32762478  1
  O  O32  1  0.76211967  0.01671359  0.06411488  1
  O  O33  1  0.91738790  0.61818154  0.82824524  1
  O  O34  1  0.08407540  0.65503359  0.16435332  1
  O  O35  1  0.91728511  0.46453766  0.32815695  1
  O  O36  1  0.33509356  0.18638655  0.32484122  1
  O  O37  1  0.99482399  0.21288670  0.43169375  1
  O  O38  1  0.65346890  0.08737162  0.66806899  1
  O  O39  1  0.38088226  0.53219629  0.17237188  1
  O  O40  1  0.08272009  0.38180752  0.17183572  1
  O  O41  1  0.34647142  0.91269737  0.33194202  1
  O  O42  1  0.23789658  0.77879611  0.43587761  1
  O  O43  1  0.78306507  0.00484475  0.42373553  1
  O  O44  1  0.20032703  0.00815593  0.75603430  1
  O  O45  1  0.18711058  0.48002826  0.32396917  1
  O  O46  1  0.79964241  0.99190013  0.24399052  1
  O  O47  1  0.25879532  0.08375414  0.16383934  1
  O  O48  1  0.99469543  0.79267170  0.93162974  1
  O  O49  1  0.65353304  0.25919778  0.16805705  1
  O  O50  1  0.48700979  0.33210681  0.33002667  1
  O  O51  1  0.91598700  0.34491169  0.83563460  1
  O  O52  1  0.51299739  0.81910533  0.16998487  1
  O  O53  1  0.33509890  0.47863261  0.82486570  1
  O  O54  1  0.23794816  0.98329671  0.93591335  1
  O  O55  1  0.52724253  0.08884073  0.17361746  1
  O  O56  1  0.00530014  0.78737776  0.56838021  1
  O  O57  1  0.47274871  0.91121318  0.82635674  1
  O  O58  1  0.48696723  0.18095495  0.83002803  1
  O  O59  1  0.66490604  0.52141963  0.17516272  1
  O  O60  1  0.18708976  0.33297583  0.82388348  1
  O  O61  1  0.00000482  0.79720945  0.75001057  1
  O  O62  1  0.78292998  0.21213146  0.92372101  1
  O  O63  1  0.76202468  0.22124581  0.56409790  1
  O  O64  1  0.20036807  0.79152676  0.25599998  1
  O  O65  1  0.79965687  0.20849258  0.74396609  1
  O  O66  1  0.47277836  0.61607987  0.32636748  1
  O  O67  1  0.34019764  0.33134393  0.97703165  1
  O  O68  1  0.34033785  0.32842263  0.47702985  1
  O  O69  1  0.34648373  0.74085358  0.83194817  1
  O  O70  1  0.51301062  0.66795202  0.66997455  1
  O  O71  1  0.21695015  0.78789508  0.07625171  1
  O  O72  1  0.65965085  0.66875940  0.02295917  1
  O  O73  1  0.21704501  0.99505709  0.57627677  1
  O  O74  1  0.08399569  0.26090322  0.66435499  1
  O  O75  1  0.00002480  0.20281092  0.25000696  1
  O  O76  1  0.81290403  0.52007996  0.67611223  1
  O  O77  1  0.00515714  0.20770050  0.06832507  1
  O  O78  1  0.25883706  0.65746294  0.66386623  1
  O  O79  1  0.81289028  0.66712950  0.17602060  1
  O  O80  1  0.91593566  0.73911764  0.33563448  1
  O  O81  1  0.74120711  0.34254273  0.33616123  1
  O  O82  1  0.65981582  0.67152690  0.52297332  1
  O  O83  1  0.66489037  0.81372324  0.67513549  1
  O  O84  1  0.38078779  0.08702973  0.67238492  1
  O  O85  1  0.74115041  0.91629441  0.83614105  1
