# generated using pymatgen
data_Li4Fe3P4O15
_symmetry_space_group_name_H-M   'P 1'
_cell_length_a   17.60136663
_cell_length_b   6.50377193
_cell_length_c   10.57120292
_cell_angle_alpha   90.00000000
_cell_angle_beta   90.00000000
_cell_angle_gamma   90.00000000
_symmetry_Int_Tables_number   1
_chemical_formula_structural   Li4Fe3P4O15
_chemical_formula_sum   'Li16 Fe12 P16 O60'
_cell_volume   1210.14135308
_cell_formula_units_Z   4
loop_
 _symmetry_equiv_pos_site_id
 _symmetry_equiv_pos_as_xyz
  1  'x, y, z'
loop_
 _atom_site_type_symbol
 _atom_site_label
 _atom_site_symmetry_multiplicity
 _atom_site_fract_x
 _atom_site_fract_y
 _atom_site_fract_z
 _atom_site_occupancy
  Li  Li0  1  0.99548140  0.82410754  0.51905867  1
  Li  Li1  1  0.49548140  0.82410754  0.98094133  1
  Li  Li2  1  0.50451860  0.32410754  0.01905867  1
  Li  Li3  1  0.59433830  0.93658871  0.68090462  1
  Li  Li4  1  0.20540208  0.35901214  0.24022417  1
  Li  Li5  1  0.53432339  0.20308817  0.44808581  1
  Li  Li6  1  0.90566170  0.43658871  0.18090462  1
  Li  Li7  1  0.96567661  0.70308817  0.94808581  1
  Li  Li8  1  0.46567661  0.70308817  0.55191419  1
  Li  Li9  1  0.00451860  0.32410754  0.48094133  1
  Li  Li10  1  0.03432339  0.20308817  0.05191419  1
  Li  Li11  1  0.70540208  0.35901214  0.25977583  1
  Li  Li12  1  0.79459792  0.85901214  0.75977583  1
  Li  Li13  1  0.09433830  0.93658871  0.81909538  1
  Li  Li14  1  0.40566170  0.43658871  0.31909538  1
  Li  Li15  1  0.29459792  0.85901214  0.74022417  1
  Fe  Fe16  1  0.33559913  0.10455765  0.50089616  1
  Fe  Fe17  1  0.86425134  0.09192869  0.50680979  1
  Fe  Fe18  1  0.66440087  0.60455765  0.49910384  1
  Fe  Fe19  1  0.26030651  0.82645424  0.24243138  1
  Fe  Fe20  1  0.36425134  0.09192869  0.99319021  1
  Fe  Fe21  1  0.23969349  0.32645424  0.74243138  1
  Fe  Fe22  1  0.73969349  0.32645424  0.75756862  1
  Fe  Fe23  1  0.63574866  0.59192869  0.00680979  1
  Fe  Fe24  1  0.76030651  0.82645424  0.25756862  1
  Fe  Fe25  1  0.16440087  0.60455765  0.00089616  1
  Fe  Fe26  1  0.83559913  0.10455765  0.99910384  1
  Fe  Fe27  1  0.13574866  0.59192869  0.49319021  1
  P  P28  1  0.44022624  0.96114728  0.25512612  1
  P  P29  1  0.44977874  0.13574877  0.72571111  1
  P  P30  1  0.05977376  0.46114728  0.75512612  1
  P  P31  1  0.05022126  0.63574877  0.22571111  1
  P  P32  1  0.70258186  0.09870025  0.49504074  1
  P  P33  1  0.94977874  0.13574877  0.77428889  1
  P  P34  1  0.20258186  0.09870025  0.00495926  1
  P  P35  1  0.94022624  0.96114728  0.24487388  1
  P  P36  1  0.29741814  0.59870025  0.50495926  1
  P  P37  1  0.79741814  0.59870025  0.99504074  1
  P  P38  1  0.32809075  0.58606774  0.98314022  1
  P  P39  1  0.82809075  0.58606774  0.51685978  1
  P  P40  1  0.55977376  0.46114728  0.74487388  1
  P  P41  1  0.67190925  0.08606774  0.01685978  1
  P  P42  1  0.55022126  0.63574877  0.27428889  1
  P  P43  1  0.17190925  0.08606774  0.48314022  1
  O  O44  1  0.54397328  0.55347691  0.87518995  1
  O  O45  1  0.38110849  0.40064514  -0.00243207  1
  O  O46  1  0.95602672  0.05347691  0.37518995  1
  O  O47  1  0.11889151  0.90064514  0.49756793  1
  O  O48  1  0.84827860  0.78672752  0.96486469  1
  O  O49  1  0.50778218  0.49962658  0.37038819  1
  O  O50  1  0.99221782  0.99962658  0.87038819  1
  O  O51  1  0.27480271  0.60040185  0.10249457  1
  O  O52  1  0.45602672  0.05347691  0.12481005  1
  O  O53  1  0.61690702  0.28471593  0.74180971  1
  O  O54  1  0.49221782  0.99962658  0.62961181  1
  O  O55  1  0.65172140  0.28672752  0.46486469  1
  O  O56  1  0.42311651  0.12927486  0.35447488  1
  O  O57  1  0.97822446  0.37124054  0.80528031  1
  O  O58  1  0.63585936  0.63935357  0.30243849  1
  O  O59  1  0.73908550  0.57323228  0.88472374  1
  O  O60  1  0.85143546  0.41611966  0.01492963  1
  O  O61  1  0.53171575  0.59118732  0.13622909  1
  O  O62  1  0.75487089  0.11443369  0.61458871  1
  O  O63  1  0.36414064  0.13935357  0.69756151  1
  O  O64  1  0.47822446  0.37124054  0.69471969  1
  O  O65  1  0.23060355  0.06655400  0.37000142  1
  O  O66  1  0.88110849  0.40064514  0.50243207  1
  O  O67  1  0.76091450  0.07323228  0.38472374  1
  O  O68  1  0.76939645  0.56655400  0.62999858  1
  O  O69  1  0.62480160  0.28128900  0.04198943  1
  O  O70  1  0.46828425  0.09118732  0.86377091  1
  O  O71  1  0.87519840  0.78128900  0.54198943  1
  O  O72  1  0.52177554  0.87124054  0.30528031  1
  O  O73  1  0.64856454  0.91611966  0.51492963  1
  O  O74  1  0.02177554  0.87124054  0.19471969  1
  O  O75  1  0.92311651  0.12927486  0.14552512  1
  O  O76  1  0.13585936  0.63935357  0.19756151  1
  O  O77  1  0.34827860  0.78672752  0.53513531  1
  O  O78  1  0.57688349  0.62927486  0.64552512  1
  O  O79  1  0.74512911  0.61443369  0.11458871  1
  O  O80  1  0.88309298  0.78471593  0.24180971  1
  O  O81  1  0.96828425  0.09118732  0.63622909  1
  O  O82  1  0.38309298  0.78471593  0.25819029  1
  O  O83  1  0.14856454  0.91611966  0.98507037  1
  O  O84  1  0.86414064  0.13935357  0.80243849  1
  O  O85  1  0.73060355  0.06655400  0.12999858  1
  O  O86  1  0.22519729  0.10040185  0.60249457  1
  O  O87  1  0.37519840  0.78128900  0.95801057  1
  O  O88  1  0.00778218  0.49962658  0.12961181  1
  O  O89  1  0.24512911  0.61443369  0.38541129  1
  O  O90  1  0.12480160  0.28128900  0.45801057  1
  O  O91  1  0.61889151  0.90064514  0.00243207  1
  O  O92  1  0.03171575  0.59118732  0.36377091  1
  O  O93  1  0.23908550  0.57323228  0.61527626  1
  O  O94  1  0.26091450  0.07323228  0.11527626  1
  O  O95  1  0.15172140  0.28672752  0.03513531  1
  O  O96  1  0.25487089  0.11443369  0.88541129  1
  O  O97  1  0.35143546  0.41611966  0.48507037  1
  O  O98  1  0.26939645  0.56655400  0.87000142  1
  O  O99  1  0.72519729  0.10040185  0.89750543  1
  O  O100  1  0.77480271  0.60040185  0.39750543  1
  O  O101  1  0.07688349  0.62927486  0.85447488  1
  O  O102  1  0.04397328  0.55347691  0.62481005  1
  O  O103  1  0.11690702  0.28471593  0.75819029  1
