# generated using pymatgen
data_La5Mn7Co(PbO8)3
_symmetry_space_group_name_H-M   'P 1'
_cell_length_a   5.51434360
_cell_length_b   22.21495470
_cell_length_c   9.61982140
_cell_angle_alpha   30.05087987
_cell_angle_beta   55.77664756
_cell_angle_gamma   60.85399266
_symmetry_Int_Tables_number   1
_chemical_formula_structural   La5Mn7Co(PbO8)3
_chemical_formula_sum   'La5 Mn7 Co1 Pb3 O24'
_cell_volume   487.94512795
_cell_formula_units_Z   1
loop_
 _symmetry_equiv_pos_site_id
 _symmetry_equiv_pos_as_xyz
  1  'x, y, z'
loop_
 _atom_site_type_symbol
 _atom_site_label
 _atom_site_symmetry_multiplicity
 _atom_site_fract_x
 _atom_site_fract_y
 _atom_site_fract_z
 _atom_site_occupancy
  La  La0  1  0.74745913  0.99901433  0.75389841  1
  La  La1  1  0.24595217  0.74998311  0.25231173  1
  La  La2  1  0.74982517  0.24978530  0.75019822  1
  La  La3  1  0.74616062  0.50006199  0.75239582  1
  La  La4  1  0.75641771  0.75215778  0.74158968  1
  Mn  Mn5  1  0.99776112  0.99972152  0.00106797  1
  Mn  Mn6  1  0.50003543  0.24976796  0.50036387  1
  Mn  Mn7  1  -0.00010426  0.24997463  0.00022251  1
  Mn  Mn8  1  0.50108407  0.49994658  0.49904044  1
  Mn  Mn9  1  0.00228774  0.50053327  0.99767017  1
  Mn  Mn10  1  0.00058043  0.74990112  0.00048494  1
  Mn  Mn11  1  0.49849837  0.00000273  0.50044358  1
  Co  Co12  1  0.49944533  0.75009237  0.50027178  1
  Pb  Pb13  1  0.25171930  0.25068009  0.24746692  1
  Pb  Pb14  1  0.25061958  0.50122635  0.24690580  1
  Pb  Pb15  1  0.24799476  0.99955639  0.25122152  1
  O  O16  1  0.19056317  0.10823569  0.31214111  1
  O  O17  1  0.75187125  0.02602028  0.19668043  1
  O  O18  1  0.18852315  0.35973698  0.31148108  1
  O  O19  1  0.70454022  0.13569809  0.24924488  1
  O  O20  1  0.31110011  0.10989098  0.75060224  1
  O  O21  1  0.25166108  0.22658127  0.79582962  1
  O  O22  1  0.74769294  0.27908961  0.19262248  1
  O  O23  1  0.18360398  0.61338135  0.31410922  1
  O  O24  1  0.70058016  0.38710228  0.24920026  1
  O  O25  1  0.31283341  0.36157660  0.74544078  1
  O  O26  1  0.79742396  0.13785890  0.70107568  1
  O  O27  1  0.25101288  0.47999571  0.79060771  1
  O  O28  1  0.75219658  0.53254868  0.18331689  1
  O  O29  1  0.19429981  0.85973886  0.29885566  1
  O  O30  1  0.68944885  0.63984542  0.25301986  1
  O  O31  1  0.30347106  0.61268342  0.73809961  1
  O  O32  1  0.79719924  0.38792145  0.70087931  1
  O  O33  1  0.23919799  0.72851464  0.80181824  1
  O  O34  1  0.75834340  0.77924286  0.18516297  1
  O  O35  1  0.72308336  0.88507554  0.24393599  1
  O  O36  1  0.30872026  0.85328440  0.77403680  1
  O  O37  1  0.81041685  0.63557322  0.69717159  1
  O  O38  1  0.24846697  0.97299768  0.80475603  1
  O  O39  1  0.78801266  0.88500058  0.71435822  1
