# generated using pymatgen
data_SrCa2I6
_symmetry_space_group_name_H-M   'P 1'
_cell_length_a   13.76067078
_cell_length_b   13.76172737
_cell_length_c   7.22462952
_cell_angle_alpha   89.99273026
_cell_angle_beta   90.00000000
_cell_angle_gamma   119.99746027
_symmetry_Int_Tables_number   1
_chemical_formula_structural   SrCa2I6
_chemical_formula_sum   'Sr3 Ca6 I18'
_cell_volume   1184.86774360
_cell_formula_units_Z   3
loop_
 _symmetry_equiv_pos_site_id
 _symmetry_equiv_pos_as_xyz
  1  'x, y, z'
loop_
 _atom_site_type_symbol
 _atom_site_label
 _atom_site_symmetry_multiplicity
 _atom_site_fract_x
 _atom_site_fract_y
 _atom_site_fract_z
 _atom_site_occupancy
  Sr  Sr0  1  0.33326923  0.66667032  0.49705442  1
  Sr  Sr1  1  0.00007000  0.00000000  0.00000000  1
  Sr  Sr2  1  0.66659892  0.33332968  0.50294558  1
  Ca  Ca3  1  -0.00000644  0.65037737  0.00005349  1
  Ca  Ca4  1  0.99994304  0.31614064  0.49994986  1
  Ca  Ca5  1  0.34961719  0.34962263  0.99994651  1
  Ca  Ca6  1  0.31616955  0.00000000  0.50000000  1
  Ca  Ca7  1  0.68380240  0.68385936  0.50005014  1
  Ca  Ca8  1  0.65045074  0.00000000  0.00000000  1
  I  I9  1  0.09862367  0.86934073  0.74907007  1
  I  I10  1  0.21989192  0.78353459  0.24823075  1
  I  I11  1  0.10453157  0.53666869  0.74914127  1
  I  I12  1  0.43215031  0.89542940  0.74918002  1
  I  I13  1  0.21660144  0.43631513  0.24856123  1
  I  I14  1  0.13053849  0.22923334  0.74917382  1
  I  I15  1  0.56350685  0.78007091  0.24824404  1
  I  I16  1  0.22928293  0.13065927  0.25092993  1
  I  I17  1  0.46327713  0.56792094  0.74925284  1
  I  I18  1  0.77085520  0.90145208  0.74901702  1
  I  I19  1  0.43635734  0.21646541  0.75176925  1
  I  I20  1  0.56786287  0.46333131  0.25085873  1
  I  I21  1  0.53671991  0.10457060  0.25081998  1
  I  I22  1  0.78028731  0.56368487  0.75143877  1
  I  I23  1  0.90130515  0.77076666  0.25082618  1
  I  I24  1  0.78343595  0.21992909  0.75175596  1
  I  I25  1  0.89535518  0.43207906  0.25074716  1
  I  I26  1  0.86940412  0.09854792  0.25098298  1
