# generated using pymatgen
data_ZrCrCu2(PO4)3
_symmetry_space_group_name_H-M   'P 1'
_cell_length_a   8.86895050
_cell_length_b   8.94319048
_cell_length_c   8.94035240
_cell_angle_alpha   60.53821581
_cell_angle_beta   59.55511511
_cell_angle_gamma   60.09518677
_symmetry_Int_Tables_number   1
_chemical_formula_structural   ZrCrCu2(PO4)3
_chemical_formula_sum   'Zr2 Cr2 Cu4 P6 O24'
_cell_volume   502.06327343
_cell_formula_units_Z   2
loop_
 _symmetry_equiv_pos_site_id
 _symmetry_equiv_pos_as_xyz
  1  'x, y, z'
loop_
 _atom_site_type_symbol
 _atom_site_label
 _atom_site_symmetry_multiplicity
 _atom_site_fract_x
 _atom_site_fract_y
 _atom_site_fract_z
 _atom_site_occupancy
  Zr  Zr0  1  0.14270856  0.14505300  0.13770490  1
  Zr  Zr1  1  0.86588712  0.85489786  0.85831458  1
  Cr  Cr2  1  0.36092563  0.35642769  0.35696752  1
  Cr  Cr3  1  0.63768539  0.64461647  0.64369069  1
  Cu  Cu4  1  0.05044865  0.27102590  0.78501173  1
  Cu  Cu5  1  0.44302406  0.64779589  0.38924370  1
  Cu  Cu6  1  0.55369309  0.35241865  0.61458737  1
  Cu  Cu7  1  0.95042051  0.88467492  0.14143266  1
  P  P8  1  0.03964352  0.73873115  0.46084786  1
  P  P9  1  0.46683166  0.03507011  0.73946452  1
  P  P10  1  0.73569196  0.46963103  0.03255333  1
  P  P11  1  0.26228895  0.53459329  0.96692266  1
  P  P12  1  0.53605017  0.96288783  0.26265926  1
  P  P13  1  0.95537796  0.25870544  0.54373046  1
  O  O14  1  0.11135657  0.30716640  0.52662224  1
  O  O15  1  0.29892006  0.49871591  0.13206817  1
  O  O16  1  0.05519503  0.90587365  0.27651701  1
  O  O17  1  0.49735616  0.11997379  0.31230879  1
  O  O18  1  0.00774955  0.79424590  0.61525584  1
  O  O19  1  0.23408895  0.58604997  0.43023684  1
  O  O20  1  0.27913405  0.06322941  0.90286103  1
  O  O21  1  0.44883960  0.22461791  0.58136676  1
  O  O22  1  0.20965559  0.37756785  0.99541013  1
  O  O23  1  0.58087822  0.44061961  0.22072597  1
  O  O24  1  0.09432799  0.71673072  0.94805051  1
  O  O25  1  0.38542627  0.99242562  0.20037821  1
  O  O26  1  0.62259026  0.00492719  0.79428414  1
  O  O27  1  0.91277697  0.28988817  0.03858451  1
  O  O28  1  0.42334759  0.55269902  0.78114351  1
  O  O29  1  0.78781086  0.62537842  0.00464398  1
  O  O30  1  0.55051078  0.77508594  0.42028544  1
  O  O31  1  0.72709700  0.93697116  0.09983569  1
  O  O32  1  0.76499917  0.41555053  0.56716323  1
  O  O33  1  0.00583174  0.21408148  0.37472938  1
  O  O34  1  0.49895272  0.87973107  0.69098170  1
  O  O35  1  0.93628717  0.09131310  0.71762442  1
  O  O36  1  0.69446649  0.50311909  0.87126793  1
  O  O37  1  0.88312398  0.68690886  0.49492332  1
