# generated using pymatgen
data_Ca3Cu5Si9O26
_symmetry_space_group_name_H-M   'P 1'
_cell_length_a   7.19479969
_cell_length_b   7.19479969
_cell_length_c   20.20673001
_cell_angle_alpha   88.95710818
_cell_angle_beta   91.04289182
_cell_angle_gamma   90.79726246
_symmetry_Int_Tables_number   1
_chemical_formula_structural   Ca3Cu5Si9O26
_chemical_formula_sum   'Ca6 Cu10 Si18 O52'
_cell_volume   1045.56121647
_cell_formula_units_Z   2
loop_
 _symmetry_equiv_pos_site_id
 _symmetry_equiv_pos_as_xyz
  1  'x, y, z'
loop_
 _atom_site_type_symbol
 _atom_site_label
 _atom_site_symmetry_multiplicity
 _atom_site_fract_x
 _atom_site_fract_y
 _atom_site_fract_z
 _atom_site_occupancy
  Ca  Ca0  1  0.27380418  0.27380418  0.75000000  1
  Ca  Ca1  1  0.72619582  0.72619582  0.25000000  1
  Ca  Ca2  1  0.71101989  0.76241499  0.92984866  1
  Ca  Ca3  1  0.76241499  0.71101989  0.57015134  1
  Ca  Ca4  1  0.28898011  0.23758501  0.07015134  1
  Ca  Ca5  1  0.23758501  0.28898011  0.42984866  1
  Cu  Cu6  1  0.00000000  0.50000000  0.00000000  1
  Cu  Cu7  1  0.50000000  0.00000000  0.50000000  1
  Cu  Cu8  1  0.97392871  0.51047800  0.83954835  1
  Cu  Cu9  1  0.51047800  0.97392871  0.66045165  1
  Cu  Cu10  1  0.02607129  0.48952200  0.16045165  1
  Cu  Cu11  1  0.48952200  0.02607129  0.33954835  1
  Cu  Cu12  1  0.96097620  0.01769059  0.82862892  1
  Cu  Cu13  1  0.01769059  0.96097620  0.67137108  1
  Cu  Cu14  1  0.03902380  0.98230941  0.17137108  1
  Cu  Cu15  1  0.98230941  0.03902380  0.32862892  1
  Si  Si16  1  0.24328085  0.24777045  0.91147572  1
  Si  Si17  1  0.24777045  0.24328085  0.58852428  1
  Si  Si18  1  0.75671915  0.75222955  0.08852428  1
  Si  Si19  1  0.75222955  0.75671915  0.41147572  1
  Si  Si20  1  0.65464994  0.25609867  0.90690337  1
  Si  Si21  1  0.25609867  0.65464994  0.59309663  1
  Si  Si22  1  0.34535006  0.74390133  0.09309663  1
  Si  Si23  1  0.74390133  0.34535006  0.40690337  1
  Si  Si24  1  0.69313941  0.23723274  0.19570222  1
  Si  Si25  1  0.23723274  0.69313941  0.30429778  1
  Si  Si26  1  0.30686059  0.76276726  0.80429778  1
  Si  Si27  1  0.76276726  0.30686059  0.69570222  1
  Si  Si28  1  0.28019947  0.28019947  0.25000000  1
  Si  Si29  1  0.71980053  0.71980053  0.75000000  1
  Si  Si30  1  0.75031223  0.18054831  0.05127890  1
  Si  Si31  1  0.18054831  0.75031223  0.44872110  1
  Si  Si32  1  0.24968777  0.81945169  0.94872110  1
  Si  Si33  1  0.81945169  0.24968777  0.55127890  1
  O  O34  1  0.44268240  0.26423652  0.87166320  1
  O  O35  1  0.26423652  0.44268240  0.62833680  1
  O  O36  1  0.55731760  0.73576348  0.12833680  1
  O  O37  1  0.73576348  0.55731760  0.37166320  1
  O  O38  1  0.08291083  0.25742973  0.85221188  1
  O  O39  1  0.25742973  0.08291083  0.64778812  1
  O  O40  1  0.91708917  0.74257027  0.14778812  1
  O  O41  1  0.74257027  0.91708917  0.35221188  1
  O  O42  1  0.15209682  0.23507474  0.18394098  1
  O  O43  1  0.23507474  0.15209682  0.31605902  1
  O  O44  1  0.84790318  0.76492526  0.81605902  1
  O  O45  1  0.76492526  0.84790318  0.68394098  1
  O  O46  1  0.22966072  0.40121072  0.96803337  1
  O  O47  1  0.40121072  0.22966072  0.53196663  1
  O  O48  1  0.77033928  0.59878928  0.03196663  1
  O  O49  1  0.59878928  0.77033928  0.46803337  1
  O  O50  1  0.80556406  0.43007764  0.20938939  1
  O  O51  1  0.43007764  0.80556406  0.29061061  1
  O  O52  1  0.19443594  0.56992236  0.79061061  1
  O  O53  1  0.56992236  0.19443594  0.70938939  1
  O  O54  1  0.76345609  0.45234457  0.89458257  1
  O  O55  1  0.45234457  0.76345609  0.60541743  1
  O  O56  1  0.23654391  0.54765543  0.10541743  1
  O  O57  1  0.54765543  0.23654391  0.39458257  1
  O  O58  1  0.80614200  0.04931049  0.21550010  1
  O  O59  1  0.04931049  0.80614200  0.28449990  1
  O  O60  1  0.19385800  0.95068951  0.78449990  1
  O  O61  1  0.95068951  0.19385800  0.71550010  1
  O  O62  1  0.61180854  0.23460077  0.98816506  1
  O  O63  1  0.23460077  0.61180854  0.51183494  1
  O  O64  1  0.38819146  0.76539923  0.01183494  1
  O  O65  1  0.76539923  0.38819146  0.48816506  1
  O  O66  1  0.61960608  0.22764579  0.11596913  1
  O  O67  1  0.22764579  0.61960608  0.38403087  1
  O  O68  1  0.38039392  0.77235421  0.88403087  1
  O  O69  1  0.77235421  0.38039392  0.61596913  1
  O  O70  1  0.50112178  0.24444921  0.23811583  1
  O  O71  1  0.24444921  0.50112178  0.26188417  1
  O  O72  1  0.49887822  0.75555079  0.76188417  1
  O  O73  1  0.75555079  0.49887822  0.73811583  1
  O  O74  1  0.95631182  0.27087147  0.05420107  1
  O  O75  1  0.27087147  0.95631182  0.44579893  1
  O  O76  1  0.04368818  0.72912853  0.94579893  1
  O  O77  1  0.72912853  0.04368818  0.55420107  1
  O  O78  1  0.23376511  0.04737140  0.95213273  1
  O  O79  1  0.04737140  0.23376511  0.54786727  1
  O  O80  1  0.76623489  0.95262860  0.04786727  1
  O  O81  1  0.95262860  0.76623489  0.45213273  1
  O  O82  1  0.06639103  0.75331711  0.61496830  1
  O  O83  1  0.75331711  0.06639103  0.88503170  1
  O  O84  1  0.93360897  0.24668289  0.38503170  1
  O  O85  1  0.24668289  0.93360897  0.11496830  1
