# generated using pymatgen
data_SrLa7TiGa7O24
_symmetry_space_group_name_H-M   'P 1'
_cell_length_a   5.53913897
_cell_length_b   5.53913908
_cell_length_c   44.34266761
_cell_angle_alpha   60.65523175
_cell_angle_beta   60.65523111
_cell_angle_gamma   60.62630183
_symmetry_Int_Tables_number   1
_chemical_formula_structural   SrLa7TiGa7O24
_chemical_formula_sum   'Sr2 La14 Ti2 Ga14 O48'
_cell_volume   976.05880355
_cell_formula_units_Z   2
loop_
 _symmetry_equiv_pos_site_id
 _symmetry_equiv_pos_as_xyz
  1  'x, y, z'
loop_
 _atom_site_type_symbol
 _atom_site_label
 _atom_site_symmetry_multiplicity
 _atom_site_fract_x
 _atom_site_fract_y
 _atom_site_fract_z
 _atom_site_occupancy
  Sr  Sr0  1  0.25269790  0.25114710  0.03033166  1
  Sr  Sr1  1  0.24885290  0.24730210  0.15716834  1
  La  La2  1  0.24949462  0.25076853  0.28118966  1
  La  La3  1  0.75068966  0.74931034  0.09375000  1
  La  La4  1  0.24991715  0.25003850  0.40625642  1
  La  La5  1  0.74837548  0.74722404  0.21966479  1
  La  La6  1  0.25005856  0.25005752  0.53122915  1
  La  La7  1  0.75001014  0.75044651  0.34367440  1
  La  La8  1  0.24994248  0.24994144  0.65627085  1
  La  La9  1  0.75006772  0.75006400  0.46872593  1
  La  La10  1  0.24996150  0.25008285  0.78124358  1
  La  La11  1  0.74999875  0.75000125  0.59375000  1
  La  La12  1  0.24923147  0.25050538  0.90631034  1
  La  La13  1  0.74993600  0.74993228  0.71877407  1
  La  La14  1  0.74955349  0.74998986  0.84382560  1
  La  La15  1  0.75277596  0.75162452  0.96783521  1
  Ti  Ti16  1  0.99589813  0.99570452  0.12622303  1
  Ti  Ti17  1  0.50429548  0.50410187  0.06127697  1
  Ga  Ga18  1  0.99949691  0.00379080  0.99931963  1
  Ga  Ga19  1  0.00311816  0.99927885  0.24942137  1
  Ga  Ga20  1  0.49620920  0.50050309  0.18818037  1
  Ga  Ga21  1  0.00002767  0.00003251  0.49998856  1
  Ga  Ga22  1  0.50001643  0.49962362  0.31257572  1
  Ga  Ga23  1  0.50003110  0.50003013  0.43748980  1
  Ga  Ga24  1  0.00010506  0.99991335  0.37499138  1
  Ga  Ga25  1  0.99998493  0.99998706  0.62500485  1
  Ga  Ga26  1  0.50001294  0.50001507  0.56249515  1
  Ga  Ga27  1  0.49996749  0.49997233  0.68751144  1
  Ga  Ga28  1  0.00037638  -0.00001643  0.87492428  1
  Ga  Ga29  1  0.50008665  0.49989494  0.81250862  1
  Ga  Ga30  1  0.99996987  0.99996890  0.75001020  1
  Ga  Ga31  1  0.50072115  0.49688184  0.93807863  1
  O  O32  1  0.18731465  0.31268535  0.09375000  1
  O  O33  1  0.31169192  0.74496388  0.02431496  1
  O  O34  1  0.25030561  0.80197444  0.08722290  1
  O  O35  1  0.74578436  0.18669090  0.04008842  1
  O  O36  1  0.18399139  0.31652487  0.21919491  1
  O  O37  1  0.69802556  0.24969439  0.10027710  1
  O  O38  1  0.31330910  0.75421564  0.14741158  1
  O  O39  1  0.79851332  0.69382593  0.03236109  1
  O  O40  1  0.25170903  0.80294028  0.21178287  1
  O  O41  1  0.75503612  0.18830808  0.16318504  1
  O  O42  1  0.18440352  0.31563169  0.34375359  1
  O  O43  1  0.68573747  0.24927698  0.22672039  1
  O  O44  1  0.31595290  0.75016467  0.27311234  1
  O  O45  1  0.80617407  0.70148668  0.15513891  1
  O  O46  1  0.24979015  0.81542701  0.33559712  1
  O  O47  1  0.75054583  0.18489795  0.28919556  1
  O  O48  1  0.18446639  0.31550924  0.46875358  1
  O  O49  1  0.68455259  0.24989192  0.35194500  1
  O  O50  1  0.31556001  0.75003316  0.39805580  1
  O  O51  1  0.81436825  0.68528492  0.28122570  1
  O  O52  1  0.24998168  0.81552429  0.46056314  1
  O  O53  1  0.75000036  0.18446555  0.41443893  1
  O  O54  1  0.18447303  0.31552697  0.59375000  1
  O  O55  1  0.68446484  0.24997005  0.47694717  1
  O  O56  1  0.31551742  0.75000196  0.52306141  1
  O  O57  1  0.81546546  0.68447316  0.40625788  1
  O  O58  1  0.25000314  0.81553432  0.58555767  1
  O  O59  1  0.74997695  0.18448004  0.53944448  1
  O  O60  1  0.18449076  0.31553361  0.71874642  1
  O  O61  1  0.68446568  0.24999686  0.60194233  1
  O  O62  1  0.31551996  0.75002305  0.64805552  1
  O  O63  1  0.81550585  0.68447021  0.53125300  1
  O  O64  1  0.25002995  0.81553516  0.71055283  1
  O  O65  1  0.74999804  0.18448258  0.66443859  1
  O  O66  1  0.18436831  0.31559648  0.84374641  1
  O  O67  1  0.68447571  0.25001832  0.72693686  1
  O  O68  1  0.31553445  0.74999964  0.77306107  1
  O  O69  1  0.81552979  0.68449415  0.65624700  1
  O  O70  1  0.25010808  0.81544741  0.83555500  1
  O  O71  1  0.74996684  0.18443999  0.78944420  1
  O  O72  1  0.18347513  0.31600861  0.96830509  1
  O  O73  1  0.68457299  0.25020985  0.85190288  1
  O  O74  1  0.31510205  0.74945417  0.89830444  1
  O  O75  1  0.81552684  0.68453454  0.78124212  1
  O  O76  1  0.25072302  0.81426253  0.96077961  1
  O  O77  1  0.74983533  0.18404710  0.91438766  1
  O  O78  1  0.69705972  0.24829097  0.97571713  1
  O  O79  1  0.81471508  0.68563175  0.90627430  1
