# generated using pymatgen
data_Sr2HfO4
_symmetry_space_group_name_H-M   'P 1'
_cell_length_a   6.07776946
_cell_length_b   10.34224049
_cell_length_c   3.37030611
_cell_angle_alpha   90.00000000
_cell_angle_beta   90.00000000
_cell_angle_gamma   90.00000000
_symmetry_Int_Tables_number   1
_chemical_formula_structural   Sr2HfO4
_chemical_formula_sum   'Sr4 Hf2 O8'
_cell_volume   211.84987034
_cell_formula_units_Z   2
loop_
 _symmetry_equiv_pos_site_id
 _symmetry_equiv_pos_as_xyz
  1  'x, y, z'
loop_
 _atom_site_type_symbol
 _atom_site_label
 _atom_site_symmetry_multiplicity
 _atom_site_fract_x
 _atom_site_fract_y
 _atom_site_fract_z
 _atom_site_occupancy
  Sr  Sr0  1  0.06606770  0.67937887  0.50000000  1
  Sr  Sr1  1  0.43393230  0.17937887  0.50000000  1
  Sr  Sr2  1  0.56606770  0.82062113  0.50000000  1
  Sr  Sr3  1  0.93393230  0.32062113  0.50000000  1
  Hf  Hf4  1  0.00000000  0.00000000  0.00000000  1
  Hf  Hf5  1  0.50000000  0.50000000  0.00000000  1
  O  O6  1  0.13096462  0.18425495  0.00000000  1
  O  O7  1  0.21238034  0.95448052  0.50000000  1
  O  O8  1  0.28761966  0.45448052  0.50000000  1
  O  O9  1  0.36903538  0.68425495  0.00000000  1
  O  O10  1  0.63096462  0.31574505  0.00000000  1
  O  O11  1  0.71238034  0.54551948  0.50000000  1
  O  O12  1  0.78761966  0.04551948  0.50000000  1
  O  O13  1  0.86903538  0.81574505  0.00000000  1
