# generated using pymatgen
data_K2CaH8(N3O)4
_symmetry_space_group_name_H-M   'P 1'
_cell_length_a   10.96504914
_cell_length_b   10.96504914
_cell_length_c   6.21654247
_cell_angle_alpha   90.00000000
_cell_angle_beta   90.00000000
_cell_angle_gamma   118.86556411
_symmetry_Int_Tables_number   1
_chemical_formula_structural   K2CaH8(N3O)4
_chemical_formula_sum   'K4 Ca2 H16 N24 O8'
_cell_volume   654.56474590
_cell_formula_units_Z   2
loop_
 _symmetry_equiv_pos_site_id
 _symmetry_equiv_pos_as_xyz
  1  'x, y, z'
loop_
 _atom_site_type_symbol
 _atom_site_label
 _atom_site_symmetry_multiplicity
 _atom_site_fract_x
 _atom_site_fract_y
 _atom_site_fract_z
 _atom_site_occupancy
  K  K0  1  0.08149497  0.41850503  0.75000000  1
  K  K1  1  0.91850503  0.58149497  0.25000000  1
  K  K2  1  0.58149497  0.91850503  0.25000000  1
  K  K3  1  0.41850503  0.08149497  0.75000000  1
  Ca  Ca4  1  0.75000000  0.75000000  0.75000000  1
  Ca  Ca5  1  0.25000000  0.25000000  0.25000000  1
  H  H6  1  0.64169375  0.47084802  0.58403399  1
  H  H7  1  0.97084802  0.14169375  0.08403399  1
  H  H8  1  0.52915198  0.35830625  0.08403399  1
  H  H9  1  0.85830625  0.02915198  0.58403399  1
  H  H10  1  0.35830625  0.52915198  0.41596601  1
  H  H11  1  0.02915198  0.85830625  0.91596601  1
  H  H12  1  0.47084802  0.64169375  0.91596601  1
  H  H13  1  0.14169375  0.97084802  0.41596601  1
  H  H14  1  0.76258673  0.47907077  0.72968360  1
  H  H15  1  0.97907077  0.26258673  0.22968360  1
  H  H16  1  0.52092923  0.23741327  0.22968360  1
  H  H17  1  0.73741327  0.02092923  0.72968360  1
  H  H18  1  0.23741327  0.52092923  0.27031640  1
  H  H19  1  0.02092923  0.73741327  0.77031640  1
  H  H20  1  0.47907077  0.76258673  0.77031640  1
  H  H21  1  0.26258673  0.97907077  0.27031640  1
  N  N22  1  0.80521551  0.37367035  0.91831961  1
  N  N23  1  0.87367035  0.30521551  0.41831961  1
  N  N24  1  0.62632965  0.19478449  0.41831961  1
  N  N25  1  0.69478449  0.12632965  0.91831961  1
  N  N26  1  0.19478449  0.62632965  0.08168039  1
  N  N27  1  0.12632965  0.69478449  0.58168039  1
  N  N28  1  0.37367035  0.80521551  0.58168039  1
  N  N29  1  0.30521551  0.87367035  0.08168039  1
  N  N30  1  0.75000000  0.25000000  0.91701072  1
  N  N31  1  0.75000000  0.25000000  0.41701072  1
  N  N32  1  0.25000000  0.75000000  0.08298928  1
  N  N33  1  0.25000000  0.75000000  0.58298928  1
  N  N34  1  0.34370502  0.41912662  0.90332017  1
  N  N35  1  0.91912662  0.84370502  0.40332017  1
  N  N36  1  0.58087338  0.65629498  0.40332017  1
  N  N37  1  0.15629498  0.08087338  0.90332017  1
  N  N38  1  0.65629498  0.58087338  0.09667983  1
  N  N39  1  0.08087338  0.15629498  0.59667983  1
  N  N40  1  0.41912662  0.34370502  0.59667983  1
  N  N41  1  0.84370502  0.91912662  0.09667983  1
  N  N42  1  0.88107950  0.88107950  0.25000000  1
  N  N43  1  0.38107950  0.38107950  0.75000000  1
  N  N44  1  0.11892050  0.11892050  0.75000000  1
  N  N45  1  0.61892050  0.61892050  0.25000000  1
  O  O46  1  0.73939655  0.53364067  0.62383564  1
  O  O47  1  0.03364067  0.23939655  0.12383564  1
  O  O48  1  0.46635933  0.26060345  0.12383564  1
  O  O49  1  0.76060345  0.96635933  0.62383564  1
  O  O50  1  0.26060345  0.46635933  0.37616436  1
  O  O51  1  0.96635933  0.76060345  0.87616436  1
  O  O52  1  0.53364067  0.73939655  0.87616436  1
  O  O53  1  0.23939655  0.03364067  0.37616436  1
