# generated using pymatgen
data_LiAgF3
_symmetry_space_group_name_H-M   'P 1'
_cell_length_a   5.49420144
_cell_length_b   5.64040250
_cell_length_c   8.38114412
_cell_angle_alpha   90.09754039
_cell_angle_beta   92.56637116
_cell_angle_gamma   89.77958698
_symmetry_Int_Tables_number   1
_chemical_formula_structural   LiAgF3
_chemical_formula_sum   'Li4 Ag4 F12'
_cell_volume   259.46480392
_cell_formula_units_Z   4
loop_
 _symmetry_equiv_pos_site_id
 _symmetry_equiv_pos_as_xyz
  1  'x, y, z'
loop_
 _atom_site_type_symbol
 _atom_site_label
 _atom_site_symmetry_multiplicity
 _atom_site_fract_x
 _atom_site_fract_y
 _atom_site_fract_z
 _atom_site_occupancy
  Li  Li0  1  0.02756963  0.01834225  0.27000972  1
  Li  Li1  1  0.47309570  0.51695065  0.22935440  1
  Li  Li2  1  0.52690430  0.48304935  0.77064560  1
  Li  Li3  1  0.97243037  0.98165775  0.72999028  1
  Ag  Ag4  1  0.00000000  0.50000000  0.50000000  1
  Ag  Ag5  1  0.00000000  0.50000000  0.00000000  1
  Ag  Ag6  1  0.50000000  0.00000000  0.50000000  1
  Ag  Ag7  1  0.50000000  0.00000000  0.00000000  1
  F  F8  1  0.15338266  0.16195670  0.55185664  1
  F  F9  1  0.18126574  0.13672382  0.89036073  1
  F  F10  1  0.16554665  0.33864497  0.21580338  1
  F  F11  1  0.31641953  0.63808599  0.61087326  1
  F  F12  1  0.34548116  0.66255641  0.94947691  1
  F  F13  1  0.33663515  0.83869778  0.28425735  1
  F  F14  1  0.66336485  0.16130222  0.71574265  1
  F  F15  1  0.65451884  0.33744359  0.05052309  1
  F  F16  1  0.68358047  0.36191401  0.38912674  1
  F  F17  1  0.83445335  0.66135503  0.78419662  1
  F  F18  1  0.81873426  0.86327618  0.10963927  1
  F  F19  1  0.84661734  0.83804330  0.44814336  1
