# generated using pymatgen
data_LiAgF3
_symmetry_space_group_name_H-M   'P 1'
_cell_length_a   6.53679341
_cell_length_b   6.53679287
_cell_length_c   10.92356824
_cell_angle_alpha   40.20395385
_cell_angle_beta   40.20395598
_cell_angle_gamma   73.95413394
_symmetry_Int_Tables_number   1
_chemical_formula_structural   LiAgF3
_chemical_formula_sum   'Li2 Ag2 F6'
_cell_volume   131.55013210
_cell_formula_units_Z   2
loop_
 _symmetry_equiv_pos_site_id
 _symmetry_equiv_pos_as_xyz
  1  'x, y, z'
loop_
 _atom_site_type_symbol
 _atom_site_label
 _atom_site_symmetry_multiplicity
 _atom_site_fract_x
 _atom_site_fract_y
 _atom_site_fract_z
 _atom_site_occupancy
  Li  Li0  1  0.99694147  0.49774202  0.99957455  1
  Li  Li1  1  0.49774202  0.99694147  0.99957455  1
  Ag  Ag2  1  0.49860803  0.49860803  0.49937854  1
  Ag  Ag3  1  0.99625488  0.99625488  0.49966588  1
  F  F4  1  0.14152027  0.14152027  0.99941870  1
  F  F5  1  0.67033642  0.04758057  0.49982126  1
  F  F6  1  0.04758057  0.67033642  0.49982126  1
  F  F7  1  0.94684344  0.32349488  0.49938141  1
  F  F8  1  0.32349488  0.94684344  0.49938141  1
  F  F9  1  0.85595004  0.85595004  0.99911242  1
