# generated using pymatgen
data_VH5Se2NO7
_symmetry_space_group_name_H-M   'P 1'
_cell_length_a   4.05603935
_cell_length_b   10.67105189
_cell_length_c   8.06411775
_cell_angle_alpha   90.00000000
_cell_angle_beta   98.54454489
_cell_angle_gamma   90.00000000
_symmetry_Int_Tables_number   1
_chemical_formula_structural   VH5Se2NO7
_chemical_formula_sum   'V2 H10 Se4 N2 O14'
_cell_volume   345.15877148
_cell_formula_units_Z   2
loop_
 _symmetry_equiv_pos_site_id
 _symmetry_equiv_pos_as_xyz
  1  'x, y, z'
loop_
 _atom_site_type_symbol
 _atom_site_label
 _atom_site_symmetry_multiplicity
 _atom_site_fract_x
 _atom_site_fract_y
 _atom_site_fract_z
 _atom_site_occupancy
  V  V0  1  0.56764245  0.25000000  0.54562622  1
  V  V1  1  0.43235755  0.75000000  0.45437378  1
  H  H2  1  0.50000000  0.00000000  0.00000000  1
  H  H3  1  0.50000000  0.50000000  0.00000000  1
  H  H4  1  0.02184391  0.82941154  0.98898748  1
  H  H5  1  0.97815609  0.32941154  0.01101252  1
  H  H6  1  0.97815609  0.17058846  0.01101252  1
  H  H7  1  0.02184391  0.67058846  0.98898748  1
  H  H8  1  0.68772622  0.75000000  0.89773370  1
  H  H9  1  0.31227378  0.25000000  0.10226630  1
  H  H10  1  0.77344425  0.75000000  0.10807787  1
  H  H11  1  0.22655575  0.25000000  0.89192213  1
  Se  Se12  1  0.29825638  0.99021802  0.68996397  1
  Se  Se13  1  0.70174362  0.49021802  0.31003603  1
  Se  Se14  1  0.70174362  0.00978198  0.31003603  1
  Se  Se15  1  0.29825638  0.50978198  0.68996397  1
  N  N16  1  0.87638728  0.75000000  0.99777895  1
  N  N17  1  0.12361272  0.25000000  0.00222105  1
  O  O18  1  0.58173579  0.88304831  0.62963877  1
  O  O19  1  0.41826421  0.38304831  0.37036123  1
  O  O20  1  0.41826421  0.11695169  0.37036123  1
  O  O21  1  0.58173579  0.61695169  0.62963877  1
  O  O22  1  0.54305222  0.12416707  0.72938306  1
  O  O23  1  0.45694778  0.62416707  0.27061694  1
  O  O24  1  0.45694778  0.87583293  0.27061694  1
  O  O25  1  0.54305222  0.37583293  0.72938306  1
  O  O26  1  0.29985030  0.94540155  0.89773548  1
  O  O27  1  0.70014970  0.44540155  0.10226452  1
  O  O28  1  0.70014970  0.05459845  0.10226452  1
  O  O29  1  0.29985030  0.55459845  0.89773548  1
  O  O30  1  0.97891992  0.25000000  0.53857860  1
  O  O31  1  0.02108008  0.75000000  0.46142140  1
