# generated using pymatgen
data_SrLaI5
_symmetry_space_group_name_H-M   'P 1'
_cell_length_a   8.69908565
_cell_length_b   4.61446395
_cell_length_c   15.22021319
_cell_angle_alpha   90.00000000
_cell_angle_beta   92.77647068
_cell_angle_gamma   90.00000000
_symmetry_Int_Tables_number   1
_chemical_formula_structural   SrLaI5
_chemical_formula_sum   'Sr2 La2 I10'
_cell_volume   610.24676851
_cell_formula_units_Z   2
loop_
 _symmetry_equiv_pos_site_id
 _symmetry_equiv_pos_as_xyz
  1  'x, y, z'
loop_
 _atom_site_type_symbol
 _atom_site_label
 _atom_site_symmetry_multiplicity
 _atom_site_fract_x
 _atom_site_fract_y
 _atom_site_fract_z
 _atom_site_occupancy
  Sr  Sr0  1  0.45270371  0.25000000  0.64590988  1
  Sr  Sr1  1  0.54729629  0.75000000  0.35409012  1
  La  La2  1  0.05307222  0.75000000  0.84094698  1
  La  La3  1  0.94692778  0.25000000  0.15905302  1
  I  I4  1  0.04827691  0.25000000  0.68552172  1
  I  I5  1  0.15064206  0.75000000  0.06480302  1
  I  I6  1  0.29878036  0.75000000  0.51780154  1
  I  I7  1  0.32810027  0.25000000  0.87918210  1
  I  I8  1  0.31938348  0.25000000  0.26275484  1
  I  I9  1  0.68061652  0.75000000  0.73724516  1
  I  I10  1  0.67189873  0.75000000  0.12081790  1
  I  I11  1  0.70121964  0.25000000  0.48219846  1
  I  I12  1  0.84935794  0.25000000  0.93519698  1
  I  I13  1  0.95172309  0.75000000  0.31447828  1
