# generated using pymatgen
data_GdAsO4
_symmetry_space_group_name_H-M   'P 1'
_cell_length_a   6.89461826
_cell_length_b   7.07727573
_cell_length_c   6.70887161
_cell_angle_alpha   90.00000000
_cell_angle_beta   105.43776572
_cell_angle_gamma   90.00000000
_symmetry_Int_Tables_number   1
_chemical_formula_structural   GdAsO4
_chemical_formula_sum   'Gd4 As4 O16'
_cell_volume   315.54905522
_cell_formula_units_Z   4
loop_
 _symmetry_equiv_pos_site_id
 _symmetry_equiv_pos_as_xyz
  1  'x, y, z'
loop_
 _atom_site_type_symbol
 _atom_site_label
 _atom_site_symmetry_multiplicity
 _atom_site_fract_x
 _atom_site_fract_y
 _atom_site_fract_z
 _atom_site_occupancy
  Gd  Gd0  1  0.21828489  0.14716991  0.40840229  1
  Gd  Gd1  1  0.28171511  0.64716991  0.09159771  1
  Gd  Gd2  1  0.71828489  0.35283009  0.90840229  1
  Gd  Gd3  1  0.78171511  0.85283009  0.59159771  1
  As  As4  1  0.19885155  0.16129555  0.88785691  1
  As  As5  1  0.30114845  0.66129555  0.61214309  1
  As  As6  1  0.69885155  0.33870445  0.38785691  1
  As  As7  1  0.80114845  0.83870445  0.11214309  1
  O  O8  1  0.01822197  0.10528333  0.66270836  1
  O  O9  1  0.10463688  0.34750145  0.99723006  1
  O  O10  1  0.11223918  0.71254485  0.72725267  1
  O  O11  1  0.25405952  0.49366250  0.42013997  1
  O  O12  1  0.38776082  0.21254485  0.77274733  1
  O  O13  1  0.24594048  0.99366250  0.07986003  1
  O  O14  1  0.39536312  0.84750145  0.50276994  1
  O  O15  1  0.48177803  0.60528333  0.83729164  1
  O  O16  1  0.51822197  0.39471667  0.16270836  1
  O  O17  1  0.60463688  0.15249855  0.49723006  1
  O  O18  1  0.75405952  0.00633750  0.92013997  1
  O  O19  1  0.61223918  0.78745515  0.22725267  1
  O  O20  1  0.74594048  0.50633750  0.57986003  1
  O  O21  1  0.88776082  0.28745515  0.27274733  1
  O  O22  1  0.89536312  0.65249855  0.00276994  1
  O  O23  1  0.98177803  0.89471667  0.33729164  1
