# generated using pymatgen
data_Lu2Pb2O7
_symmetry_space_group_name_H-M   'P 1'
_cell_length_a   7.52835668
_cell_length_b   7.52835668
_cell_length_c   7.52835668
_cell_angle_alpha   60.00000000
_cell_angle_beta   90.00000000
_cell_angle_gamma   120.00000000
_symmetry_Int_Tables_number   1
_chemical_formula_structural   Lu2Pb2O7
_chemical_formula_sum   'Lu4 Pb4 O14'
_cell_volume   301.70712280
_cell_formula_units_Z   2
loop_
 _symmetry_equiv_pos_site_id
 _symmetry_equiv_pos_as_xyz
  1  'x, y, z'
loop_
 _atom_site_type_symbol
 _atom_site_label
 _atom_site_symmetry_multiplicity
 _atom_site_fract_x
 _atom_site_fract_y
 _atom_site_fract_z
 _atom_site_occupancy
  Lu  Lu0  1  0.50000000  0.00000000  0.00000000  1
  Lu  Lu1  1  0.50000000  0.00000000  0.50000000  1
  Lu  Lu2  1  0.50000000  0.50000000  0.50000000  1
  Lu  Lu3  1  0.00000000  0.50000000  0.50000000  1
  Pb  Pb4  1  0.00000000  0.00000000  0.00000000  1
  Pb  Pb5  1  0.50000000  0.50000000  0.00000000  1
  Pb  Pb6  1  0.00000000  0.00000000  0.50000000  1
  Pb  Pb7  1  0.00000000  0.50000000  0.00000000  1
  O  O8  1  0.89613666  0.25000000  0.35386334  1
  O  O9  1  0.64613666  0.29227433  0.10386334  1
  O  O10  1  0.64613666  0.75000000  0.10386334  1
  O  O11  1  0.35386334  0.25000000  0.35386334  1
  O  O12  1  0.62500000  0.25000000  0.62500000  1
  O  O13  1  0.89613666  0.25000000  0.89613666  1
  O  O14  1  0.89613666  0.79227433  0.35386334  1
  O  O15  1  0.10386334  0.75000000  0.10386334  1
  O  O16  1  0.10386334  0.20772567  0.64613666  1
  O  O17  1  0.64613666  0.75000000  0.64613666  1
  O  O18  1  0.37500000  0.75000000  0.37500000  1
  O  O19  1  0.35386334  0.25000000  0.89613666  1
  O  O20  1  0.35386334  0.70772567  0.89613666  1
  O  O21  1  0.10386334  0.75000000  0.64613666  1
