# generated using pymatgen
data_Li3(CuO)4
_symmetry_space_group_name_H-M   'P 1'
_cell_length_a   3.73006202
_cell_length_b   6.34290703
_cell_length_c   6.34292553
_cell_angle_alpha   92.74822084
_cell_angle_beta   107.09431250
_cell_angle_gamma   72.90411084
_symmetry_Int_Tables_number   1
_chemical_formula_structural   Li3(CuO)4
_chemical_formula_sum   'Li3 Cu4 O4'
_cell_volume   136.98067295
_cell_formula_units_Z   1
loop_
 _symmetry_equiv_pos_site_id
 _symmetry_equiv_pos_as_xyz
  1  'x, y, z'
loop_
 _atom_site_type_symbol
 _atom_site_label
 _atom_site_symmetry_multiplicity
 _atom_site_fract_x
 _atom_site_fract_y
 _atom_site_fract_z
 _atom_site_occupancy
  Li  Li0  1  0.73952934  0.86887510  0.84802631  1
  Li  Li1  1  0.37334137  0.87674005  0.12325095  1
  Li  Li2  1  0.73952211  0.15195254  0.13109765  1
  Cu  Cu3  1  0.09179490  0.81665348  0.49994428  1
  Cu  Cu4  1  0.41837516  0.48336893  0.82052508  1
  Cu  Cu5  1  0.09180728  0.50003826  0.18335101  1
  Cu  Cu6  1  0.41833784  0.17948899  0.51662752  1
  O  O7  1  0.25920764  0.78493573  0.80362493  1
  O  O8  1  0.94266785  0.80742998  0.19255155  1
  O  O9  1  0.56442114  0.18543683  0.81459919  1
  O  O10  1  0.25926237  0.19637010  0.21511354  1
