# generated using pymatgen
data_Sn3(OF)2
_symmetry_space_group_name_H-M   'P 1'
_cell_length_a   11.50599170
_cell_length_b   5.53556071
_cell_length_c   9.35303732
_cell_angle_alpha   90.00000000
_cell_angle_beta   90.00000000
_cell_angle_gamma   90.00000000
_symmetry_Int_Tables_number   1
_chemical_formula_structural   Sn3(OF)2
_chemical_formula_sum   'Sn12 O8 F8'
_cell_volume   595.71473405
_cell_formula_units_Z   4
loop_
 _symmetry_equiv_pos_site_id
 _symmetry_equiv_pos_as_xyz
  1  'x, y, z'
loop_
 _atom_site_type_symbol
 _atom_site_label
 _atom_site_symmetry_multiplicity
 _atom_site_fract_x
 _atom_site_fract_y
 _atom_site_fract_z
 _atom_site_occupancy
  Sn  Sn0  1  0.07652509  0.25000000  0.69863782  1
  Sn  Sn1  1  0.07919927  0.25000000  0.08051653  1
  Sn  Sn2  1  0.22319349  0.75000000  0.85439230  1
  Sn  Sn3  1  0.27680651  0.25000000  0.35439230  1
  Sn  Sn4  1  0.42080073  0.75000000  0.58051653  1
  Sn  Sn5  1  0.42347491  0.75000000  0.19863782  1
  Sn  Sn6  1  0.57652509  0.25000000  0.80136218  1
  Sn  Sn7  1  0.57919927  0.25000000  0.41948347  1
  Sn  Sn8  1  0.72319349  0.75000000  0.64560770  1
  Sn  Sn9  1  0.77680651  0.25000000  0.14560770  1
  Sn  Sn10  1  0.92080073  0.75000000  0.91948347  1
  Sn  Sn11  1  0.92347491  0.75000000  0.30136218  1
  O  O12  1  0.07972895  0.00505737  0.88916653  1
  O  O13  1  0.07972895  0.49494263  0.88916653  1
  O  O14  1  0.42027105  0.50505737  0.38916653  1
  O  O15  1  0.42027105  0.99494263  0.38916653  1
  O  O16  1  0.57972895  0.00505737  0.61083347  1
  O  O17  1  0.57972895  0.49494263  0.61083347  1
  O  O18  1  0.92027105  0.50505737  0.11083347  1
  O  O19  1  0.92027105  0.99494263  0.11083347  1
  F  F20  1  0.14923498  0.75000000  0.64739462  1
  F  F21  1  0.24080527  0.75000000  0.20433050  1
  F  F22  1  0.25919473  0.25000000  0.70433050  1
  F  F23  1  0.35076502  0.25000000  0.14739562  1
  F  F24  1  0.64923498  0.75000000  0.85260538  1
  F  F25  1  0.74080527  0.75000000  0.29566950  1
  F  F26  1  0.75919473  0.25000000  0.79566950  1
  F  F27  1  0.85076502  0.25000000  0.35260438  1
