# generated using pymatgen
data_Cu3(TeO5)2
_symmetry_space_group_name_H-M   'P 1'
_cell_length_a   5.20733082
_cell_length_b   5.50715177
_cell_length_c   7.77722231
_cell_angle_alpha   108.47334415
_cell_angle_beta   97.50461285
_cell_angle_gamma   105.17910067
_symmetry_Int_Tables_number   1
_chemical_formula_structural   Cu3(TeO5)2
_chemical_formula_sum   'Cu3 Te2 O10'
_cell_volume   198.52446678
_cell_formula_units_Z   1
loop_
 _symmetry_equiv_pos_site_id
 _symmetry_equiv_pos_as_xyz
  1  'x, y, z'
loop_
 _atom_site_type_symbol
 _atom_site_label
 _atom_site_symmetry_multiplicity
 _atom_site_fract_x
 _atom_site_fract_y
 _atom_site_fract_z
 _atom_site_occupancy
  Cu  Cu0  1  0.00000000  0.50000000  0.00000000  1
  Cu  Cu1  1  0.69912818  0.88387606  0.90392775  1
  Cu  Cu2  1  0.30087182  0.11612394  0.09607225  1
  Te  Te3  1  0.11428603  0.70775386  0.69480201  1
  Te  Te4  1  0.88571397  0.29224614  0.30519799  1
  O  O5  1  0.06404551  0.04795662  0.84481677  1
  O  O6  1  0.31369069  0.71880447  0.94394070  1
  O  O7  1  0.09621496  0.32856207  0.54344739  1
  O  O8  1  0.19772789  0.45440833  0.20574782  1
  O  O9  1  0.47302661  0.86909582  0.68032001  1
  O  O10  1  0.52697339  0.13090418  0.31967999  1
  O  O11  1  0.80227211  0.54559167  0.79425118  1
  O  O12  1  0.90378504  0.67143793  0.45655261  1
  O  O13  1  0.68630931  0.28119553  0.05605930  1
  O  O14  1  0.93595449  0.95204338  0.15518323  1
