# generated using pymatgen
data_YBiO3
_symmetry_space_group_name_H-M   'P 1'
_cell_length_a   6.15131477
_cell_length_b   6.15131449
_cell_length_c   6.15131421
_cell_angle_alpha   58.73188021
_cell_angle_beta   58.73188805
_cell_angle_gamma   58.73188648
_symmetry_Int_Tables_number   1
_chemical_formula_structural   YBiO3
_chemical_formula_sum   'Y2 Bi2 O6'
_cell_volume   159.81624866
_cell_formula_units_Z   2
loop_
 _symmetry_equiv_pos_site_id
 _symmetry_equiv_pos_as_xyz
  1  'x, y, z'
loop_
 _atom_site_type_symbol
 _atom_site_label
 _atom_site_symmetry_multiplicity
 _atom_site_fract_x
 _atom_site_fract_y
 _atom_site_fract_z
 _atom_site_occupancy
  Y  Y0  1  0.14079499  0.14079499  0.14079499  1
  Y  Y1  1  0.85920501  0.85920501  0.85920501  1
  Bi  Bi2  1  0.35629167  0.35629167  0.35629167  1
  Bi  Bi3  1  0.64370833  0.64370833  0.64370833  1
  O  O4  1  0.01076529  0.77979357  0.45658518  1
  O  O5  1  0.54341482  0.98923471  0.22020643  1
  O  O6  1  0.22020643  0.54341482  0.98923471  1
  O  O7  1  0.77979357  0.45658518  0.01076529  1
  O  O8  1  0.45658518  0.01076529  0.77979357  1
  O  O9  1  0.98923471  0.22020643  0.54341482  1
