# generated using pymatgen
data_Ca3Zr2O7
_symmetry_space_group_name_H-M   'P 1'
_cell_length_a   10.43677827
_cell_length_b   10.43677827
_cell_length_c   5.82143404
_cell_angle_alpha   90.00000000
_cell_angle_beta   90.00000000
_cell_angle_gamma   147.70452989
_symmetry_Int_Tables_number   1
_chemical_formula_structural   Ca3Zr2O7
_chemical_formula_sum   'Ca6 Zr4 O14'
_cell_volume   338.79445910
_cell_formula_units_Z   2
loop_
 _symmetry_equiv_pos_site_id
 _symmetry_equiv_pos_as_xyz
  1  'x, y, z'
loop_
 _atom_site_type_symbol
 _atom_site_label
 _atom_site_symmetry_multiplicity
 _atom_site_fract_x
 _atom_site_fract_y
 _atom_site_fract_z
 _atom_site_occupancy
  Ca  Ca0  1  0.55273917  0.93806248  0.25000000  1
  Ca  Ca1  1  0.06193752  0.44726083  0.75000000  1
  Ca  Ca2  1  0.72260035  0.72260035  0.25000000  1
  Ca  Ca3  1  0.27739965  0.27739965  0.75000000  1
  Ca  Ca4  1  0.93806248  0.55273917  0.25000000  1
  Ca  Ca5  1  0.44726083  0.06193752  0.75000000  1
  Zr  Zr6  1  0.65261007  0.85576424  0.75000000  1
  Zr  Zr7  1  0.14423576  0.34738993  0.25000000  1
  Zr  Zr8  1  0.34738993  0.14423576  0.25000000  1
  Zr  Zr9  1  0.85576424  0.65261007  0.75000000  1
  O  O10  1  0.12806935  0.87193065  0.50000000  1
  O  O11  1  0.12806935  0.87193065  0.00000000  1
  O  O12  1  0.44329792  0.84541457  0.75000000  1
  O  O13  1  0.15458543  0.55670208  0.25000000  1
  O  O14  1  0.42408073  0.57591927  0.50000000  1
  O  O15  1  0.42408073  0.57591927  0.00000000  1
  O  O16  1  0.87158944  0.87158944  0.75000000  1
  O  O17  1  0.12841056  0.12841056  0.25000000  1
  O  O18  1  0.57591927  0.42408073  0.00000000  1
  O  O19  1  0.57591927  0.42408073  0.50000000  1
  O  O20  1  0.55670208  0.15458543  0.25000000  1
  O  O21  1  0.84541457  0.44329792  0.75000000  1
  O  O22  1  0.87193065  0.12806935  0.00000000  1
  O  O23  1  0.87193065  0.12806935  0.50000000  1
