# generated using pymatgen
data_Rb2SnO3
_symmetry_space_group_name_H-M   'P 1'
_cell_length_a   7.06682664
_cell_length_b   7.06682664
_cell_length_c   13.66465461
_cell_angle_alpha   90.00000000
_cell_angle_beta   90.00000000
_cell_angle_gamma   51.73454368
_symmetry_Int_Tables_number   1
_chemical_formula_structural   Rb2SnO3
_chemical_formula_sum   'Rb8 Sn4 O12'
_cell_volume   535.79679242
_cell_formula_units_Z   4
loop_
 _symmetry_equiv_pos_site_id
 _symmetry_equiv_pos_as_xyz
  1  'x, y, z'
loop_
 _atom_site_type_symbol
 _atom_site_label
 _atom_site_symmetry_multiplicity
 _atom_site_fract_x
 _atom_site_fract_y
 _atom_site_fract_z
 _atom_site_occupancy
  Rb  Rb0  1  0.05197104  0.05197104  0.13604460  1
  Rb  Rb1  1  0.12672829  0.12672829  0.57622581  1
  Rb  Rb2  1  0.37327171  0.37327171  0.07622581  1
  Rb  Rb3  1  0.55197104  0.55197104  0.36395540  1
  Rb  Rb4  1  0.94802896  0.94802896  0.86395540  1
  Rb  Rb5  1  0.62672829  0.62672829  0.92377419  1
  Rb  Rb6  1  0.44802896  0.44802896  0.63604460  1
  Rb  Rb7  1  0.87327171  0.87327171  0.42377419  1
  Sn  Sn8  1  0.24121787  0.24121787  0.33683956  1
  Sn  Sn9  1  0.25878213  0.25878213  0.83683956  1
  Sn  Sn10  1  0.74121787  0.74121787  0.16316044  1
  Sn  Sn11  1  0.75878213  0.75878213  0.66316044  1
  O  O12  1  0.03530024  0.53530024  0.25000000  1
  O  O13  1  0.46469976  0.96469976  0.75000000  1
  O  O14  1  0.08923698  0.08923698  0.35914603  1
  O  O15  1  0.34096760  0.34096760  0.44521720  1
  O  O16  1  0.65903240  0.65903240  0.55478280  1
  O  O17  1  0.84096760  0.84096760  0.05478280  1
  O  O18  1  0.15903240  0.15903240  0.94521720  1
  O  O19  1  0.41076302  0.41076302  0.85914603  1
  O  O20  1  0.58923698  0.58923698  0.14085397  1
  O  O21  1  0.91076302  0.91076302  0.64085397  1
  O  O22  1  0.53530024  0.03530024  0.25000000  1
  O  O23  1  0.96469976  0.46469976  0.75000000  1
