# generated using pymatgen
data_LiTi4O8
_symmetry_space_group_name_H-M   'P 1'
_cell_length_a   5.06662592
_cell_length_b   9.63663855
_cell_length_c   2.97440986
_cell_angle_alpha   90.00000000
_cell_angle_beta   90.00000000
_cell_angle_gamma   91.11676437
_symmetry_Int_Tables_number   1
_chemical_formula_structural   LiTi4O8
_chemical_formula_sum   'Li1 Ti4 O8'
_cell_volume   145.19869775
_cell_formula_units_Z   1
loop_
 _symmetry_equiv_pos_site_id
 _symmetry_equiv_pos_as_xyz
  1  'x, y, z'
loop_
 _atom_site_type_symbol
 _atom_site_label
 _atom_site_symmetry_multiplicity
 _atom_site_fract_x
 _atom_site_fract_y
 _atom_site_fract_z
 _atom_site_occupancy
  Li  Li0  1  0.93453887  0.46488875  0.25000000  1
  Ti  Ti1  1  0.03851813  0.86140740  0.75000000  1
  Ti  Ti2  1  0.46507113  0.35648737  0.75000000  1
  Ti  Ti3  1  0.52622368  0.64425487  0.25000000  1
  Ti  Ti4  1  0.95846469  0.13291695  0.25000000  1
  O  O5  1  0.16993491  0.22879164  0.75000000  1
  O  O6  1  0.19213493  0.96468902  0.25000000  1
  O  O7  1  0.30279281  0.46756613  0.25000000  1
  O  O8  1  0.32160689  0.72642539  0.75000000  1
  O  O9  1  0.69174972  0.28247112  0.25000000  1
  O  O10  1  0.70898416  0.53232710  0.75000000  1
  O  O11  1  0.80125781  0.03541094  0.75000000  1
  O  O12  1  0.82772128  0.77186333  0.25000000  1
