# generated using pymatgen
data_La3Ce4O12
_symmetry_space_group_name_H-M   'P 1'
_cell_length_a   3.85410641
_cell_length_b   14.47207069
_cell_length_c   5.63139828
_cell_angle_alpha   101.66652680
_cell_angle_beta   90.00000000
_cell_angle_gamma   82.34795564
_symmetry_Int_Tables_number   1
_chemical_formula_structural   La3Ce4O12
_chemical_formula_sum   'La3 Ce4 O12'
_cell_volume   304.75631608
_cell_formula_units_Z   1
loop_
 _symmetry_equiv_pos_site_id
 _symmetry_equiv_pos_as_xyz
  1  'x, y, z'
loop_
 _atom_site_type_symbol
 _atom_site_label
 _atom_site_symmetry_multiplicity
 _atom_site_fract_x
 _atom_site_fract_y
 _atom_site_fract_z
 _atom_site_occupancy
  La  La0  1  0.57142900  0.85714300  0.42857100  1
  La  La1  1  0.99847928  0.00304144  0.04838285  1
  La  La2  1  0.14437772  0.71124456  0.80876015  1
  Ce  Ce3  1  0.72312428  0.55375144  0.28948158  1
  Ce  Ce4  1  0.85731583  0.28536734  0.14231121  1
  Ce  Ce5  1  0.41973272  0.16053456  0.56766042  1
  Ce  Ce6  1  0.28554117  0.42891866  0.71483179  1
  O  O7  1  0.20734574  0.58530851  0.04925203  1
  O  O8  1  0.08463540  0.83072820  0.16396364  1
  O  O9  1  0.92163223  0.15673555  0.33139871  1
  O  O10  1  0.78790824  0.42418252  0.46711004  1
  O  O11  1  0.22122477  0.55755045  0.52574429  1
  O  O12  1  0.64611479  0.70776943  0.57135725  1
  O  O13  1  0.49674221  0.00651557  0.28578575  1
  O  O14  1  0.05822160  0.88355680  0.69317936  1
  O  O15  1  0.35494876  0.29010348  0.39003196  1
  O  O16  1  0.78542102  0.42915697  0.96965423  1
  O  O17  1  0.35743598  0.28512903  0.88748877  1
  O  O18  1  0.93551126  0.12897749  0.80789097  1
