# generated using pymatgen
data_K2Eu2O3
_symmetry_space_group_name_H-M   'P 1'
_cell_length_a   7.03851124
_cell_length_b   7.15194383
_cell_length_c   7.08311191
_cell_angle_alpha   90.00000000
_cell_angle_beta   117.50658266
_cell_angle_gamma   90.00000000
_symmetry_Int_Tables_number   1
_chemical_formula_structural   K2Eu2O3
_chemical_formula_sum   'K4 Eu4 O6'
_cell_volume   316.25103338
_cell_formula_units_Z   2
loop_
 _symmetry_equiv_pos_site_id
 _symmetry_equiv_pos_as_xyz
  1  'x, y, z'
loop_
 _atom_site_type_symbol
 _atom_site_label
 _atom_site_symmetry_multiplicity
 _atom_site_fract_x
 _atom_site_fract_y
 _atom_site_fract_z
 _atom_site_occupancy
  Eu  Eu0  1  0.32959163  0.37632693  0.56961016  1
  Eu  Eu1  1  0.67040837  0.87632693  0.93038984  1
  Eu  Eu2  1  0.32959163  0.12367307  0.06961016  1
  Eu  Eu3  1  0.67040837  0.62367307  0.43038984  1
  K  K4  1  0.17520962  0.64706008  0.92637081  1
  K  K5  1  0.17520962  0.85293992  0.42637081  1
  K  K6  1  0.82479038  0.14706008  0.57362919  1
  K  K7  1  0.82479038  0.35293992  0.07362919  1
  O  O8  1  0.00000000  0.50000000  0.50000000  1
  O  O9  1  0.00000000  0.00000000  0.00000000  1
  O  O10  1  0.40127051  0.10294766  0.77193172  1
  O  O11  1  0.59872949  0.60294766  0.72806828  1
  O  O12  1  0.40127051  0.39705234  0.27193172  1
  O  O13  1  0.59872949  0.89705234  0.22806828  1
