# generated using pymatgen
data_BSbO3
_symmetry_space_group_name_H-M   'P 1'
_cell_length_a   5.02028335
_cell_length_b   5.02099801
_cell_length_c   13.02491162
_cell_angle_alpha   82.20894268
_cell_angle_beta   97.74287989
_cell_angle_gamma   77.72164026
_symmetry_Int_Tables_number   1
_chemical_formula_structural   BSbO3
_chemical_formula_sum   'B4 Sb4 O12'
_cell_volume   313.27661628
_cell_formula_units_Z   4
loop_
 _symmetry_equiv_pos_site_id
 _symmetry_equiv_pos_as_xyz
  1  'x, y, z'
loop_
 _atom_site_type_symbol
 _atom_site_label
 _atom_site_symmetry_multiplicity
 _atom_site_fract_x
 _atom_site_fract_y
 _atom_site_fract_z
 _atom_site_occupancy
  B  B0  1  0.06130450  0.34357505  0.85270772  1
  B  B1  1  0.34241017  0.06295520  0.64710311  1
  B  B2  1  0.65758983  0.93704480  0.35289689  1
  B  B3  1  0.93869550  0.65642495  0.14729228  1
  Sb  Sb4  1  0.33175718  0.01472458  0.12832025  1
  Sb  Sb5  1  0.98424328  0.66970953  0.62804603  1
  Sb  Sb6  1  0.66824282  0.98527542  0.87167975  1
  Sb  Sb7  1  0.01575672  0.33029047  0.37195397  1
  O  O8  1  0.12601851  0.28458111  0.59666540  1
  O  O9  1  0.28333690  0.12732014  0.90325510  1
  O  O10  1  0.10082719  0.56256976  0.78564885  1
  O  O11  1  0.56124749  0.10245569  0.71408572  1
  O  O12  1  0.20022410  0.66322421  0.12576183  1
  O  O13  1  0.33590693  0.80109760  0.62550093  1
  O  O14  1  0.66409307  0.19890240  0.37449907  1
  O  O15  1  0.79977590  0.33677579  0.87423817  1
  O  O16  1  0.43875251  0.89754431  0.28591428  1
  O  O17  1  0.89917281  0.43743024  0.21435115  1
  O  O18  1  0.71666310  0.87267986  0.09674490  1
  O  O19  1  0.87398149  0.71541889  0.40333460  1
