# generated using pymatgen
data_CuH16C4(N5O)2
_symmetry_space_group_name_H-M   'P 1'
_cell_length_a   7.24181436
_cell_length_b   22.53060343
_cell_length_c   7.14899407
_cell_angle_alpha   89.99997178
_cell_angle_beta   89.99995127
_cell_angle_gamma   89.99993939
_symmetry_Int_Tables_number   1
_chemical_formula_structural   CuH16C4(N5O)2
_chemical_formula_sum   'Cu4 H64 C16 N40 O8'
_cell_volume   1166.44736933
_cell_formula_units_Z   4
loop_
 _symmetry_equiv_pos_site_id
 _symmetry_equiv_pos_as_xyz
  1  'x, y, z'
loop_
 _atom_site_type_symbol
 _atom_site_label
 _atom_site_symmetry_multiplicity
 _atom_site_fract_x
 _atom_site_fract_y
 _atom_site_fract_z
 _atom_site_occupancy
  Cu  Cu0  1  0.00001251  0.00000140  0.99999371  1
  Cu  Cu1  1  0.00000058  0.49999933  0.50000078  1
  Cu  Cu2  1  0.49999887  -0.00000099  0.50000010  1
  Cu  Cu3  1  0.50000250  0.50000072  0.00000257  1
  H  H4  1  0.04604247  0.78402744  0.13973048  1
  H  H5  1  0.04604276  0.71597266  0.63973089  1
  H  H6  1  0.03865163  0.63800149  0.08405635  1
  H  H7  1  0.03865123  0.86199852  0.58405647  1
  H  H8  1  0.07217222  0.56441887  0.14979598  1
  H  H9  1  0.07217182  0.93558105  0.64979598  1
  H  H10  1  0.14779570  0.17908750  0.78908130  1
  H  H11  1  0.14779574  0.32091265  0.28908129  1
  H  H12  1  0.17883263  0.08455601  0.83638647  1
  H  H13  1  0.17883153  0.41544380  0.33638661  1
  H  H14  1  0.16209591  0.00084356  0.36997317  1
  H  H15  1  0.16209573  0.49915638  0.86997358  1
  H  H16  1  0.21848128  0.69196559  0.30209670  1
  H  H17  1  0.21848124  0.80803440  0.80209683  1
  H  H18  1  0.20086637  0.20485507  0.09909646  1
  H  H19  1  0.20086657  0.29514485  0.59909635  1
  H  H20  1  0.29913307  0.70485522  0.09909664  1
  H  H21  1  0.29913306  0.79514493  0.59909657  1
  H  H22  1  0.28151829  0.19196553  0.30209714  1
  H  H23  1  0.28151842  0.30803441  0.80209626  1
  H  H24  1  0.33790393  0.50084359  0.36997350  1
  H  H25  1  0.33790391  0.99915652  0.86997332  1
  H  H26  1  0.32116735  0.58455606  0.83638656  1
  H  H27  1  0.32116799  0.91544379  0.33638686  1
  H  H28  1  0.35220433  0.67908743  0.78908137  1
  H  H29  1  0.35220391  0.82091256  0.28908096  1
  H  H30  1  0.42782700  0.06441938  0.14979635  1
  H  H31  1  0.42782789  0.43558101  0.64979566  1
  H  H32  1  0.46134910  0.13800149  0.08405594  1
  H  H33  1  0.46134850  0.36199870  0.58405651  1
  H  H34  1  0.45395691  0.28402743  0.13973065  1
  H  H35  1  0.45395719  0.21597252  0.63973038  1
  H  H36  1  0.54604297  0.78402728  0.36026985  1
  H  H37  1  0.54604262  0.71597251  0.86026970  1
  H  H38  1  0.53865147  0.63800143  0.41594343  1
  H  H39  1  0.53865143  0.86199869  0.91594383  1
  H  H40  1  0.57217188  0.93558110  0.85020438  1
  H  H41  1  0.57217199  0.56441889  0.35020413  1
  H  H42  1  0.64779564  0.32091256  0.21091874  1
  H  H43  1  0.64779587  0.17908743  0.71091893  1
  H  H44  1  0.67883217  0.08455603  0.66361369  1
  H  H45  1  0.67883215  0.41544396  0.16361334  1
  H  H46  1  0.66209597  0.00084360  0.13002649  1
  H  H47  1  0.66209535  0.49915641  0.63002683  1
  H  H48  1  0.71848122  0.69196556  0.19790347  1
  H  H49  1  0.71848121  0.80803440  0.69790385  1
  H  H50  1  0.70086608  0.29514477  0.90090381  1
  H  H51  1  0.70086628  0.20485505  0.40090375  1
  H  H52  1  0.79913357  0.70485509  0.40090391  1
  H  H53  1  0.79913333  0.79514473  0.90090347  1
  H  H54  1  0.78151829  0.30803446  0.69790345  1
  H  H55  1  0.78151844  0.19196548  0.19790300  1
  H  H56  1  0.83790348  0.50084366  0.13002657  1
  H  H57  1  0.83790412  0.99915649  0.63002684  1
  H  H58  1  0.82116728  0.58455604  0.66361356  1
  H  H59  1  0.82116768  0.91544401  0.16361338  1
  H  H60  1  0.85220426  0.67908745  0.71091837  1
  H  H61  1  0.85220342  0.82091257  0.21091912  1
  H  H62  1  0.92782700  0.06441948  0.35020356  1
  H  H63  1  0.92782780  0.43558106  0.85020428  1
  H  H64  1  0.96134919  0.13800167  0.41594402  1
  H  H65  1  0.96134817  0.36199858  0.91594364  1
  H  H66  1  0.95395712  0.28402733  0.36026930  1
  H  H67  1  0.95395679  0.21597263  0.86026960  1
  C  C68  1  0.04044136  0.62733084  0.57631352  1
  C  C69  1  0.04044192  0.87266932  0.07631093  1
  C  C70  1  0.18821337  0.08403064  0.45090499  1
  C  C71  1  0.18821371  0.41596918  0.95090384  1
  C  C72  1  0.31178702  0.58403103  0.45090381  1
  C  C73  1  0.31178570  0.91596921  0.95090408  1
  C  C74  1  0.45955801  0.12733049  0.57631308  1
  C  C75  1  0.45955898  0.37266969  0.07631299  1
  C  C76  1  0.54044010  0.87266942  0.42368680  1
  C  C77  1  0.54043972  0.62733027  0.92368737  1
  C  C78  1  0.68821456  0.08403104  0.04909726  1
  C  C79  1  0.68821373  0.41596965  0.54909619  1
  C  C80  1  0.81178744  0.58403087  0.04909644  1
  C  C81  1  0.81178630  0.91596906  0.54909580  1
  C  C82  1  0.95955869  0.12733020  0.92368808  1
  C  C83  1  0.95956042  0.37266966  0.42368608  1
  N  N84  1  0.00547963  0.09498802  0.42062315  1
  N  N85  1  0.00547856  0.40501285  0.92062218  1
  N  N86  1  0.04359655  0.18138260  0.88602102  1
  N  N87  1  0.04359532  0.31861763  0.38602040  1
  N  N88  1  0.05223241  0.07732678  0.89592815  1
  N  N89  1  0.05223192  0.42267106  0.39592734  1
  N  N90  1  0.21526405  0.63228955  0.51058078  1
  N  N91  1  0.21526554  0.86771054  0.01057990  1
  N  N92  1  0.24170137  0.53012728  0.42100401  1
  N  N93  1  0.24169908  0.96987279  0.92100483  1
  N  N94  1  0.25829893  0.03012693  0.42100358  1
  N  N95  1  0.25829736  0.46987314  0.92100354  1
  N  N96  1  0.28473292  0.13229006  0.51057935  1
  N  N97  1  0.28473376  0.36771027  0.01058028  1
  N  N98  1  0.44776643  0.57732746  0.89592578  1
  N  N99  1  0.44776729  0.92267130  0.39592811  1
  N  N100  1  0.45640343  0.68138220  0.88602116  1
  N  N101  1  0.45640314  0.81861828  0.38602111  1
  N  N102  1  0.49451989  0.59498736  0.42062160  1
  N  N103  1  0.49452144  0.90501266  0.92062274  1
  N  N104  1  0.50548054  0.09498848  0.07937651  1
  N  N105  1  0.50547953  0.40501266  0.57937777  1
  N  N106  1  0.54359603  0.31861788  0.11397836  1
  N  N107  1  0.54359660  0.18138239  0.61397836  1
  N  N108  1  0.55223350  0.42267292  0.10407265  1
  N  N109  1  0.55223164  0.07732757  0.60407247  1
  N  N110  1  0.71526677  0.63228906  0.98942106  1
  N  N111  1  0.71526679  0.86770991  0.48942034  1
  N  N112  1  0.74170279  0.53012697  0.07899630  1
  N  N113  1  0.74170029  0.96987292  0.57899596  1
  N  N114  1  0.75829937  0.03012683  0.07899492  1
  N  N115  1  0.75829875  0.46987298  0.57899635  1
  N  N116  1  0.78473590  0.13228959  0.98941986  1
  N  N117  1  0.78473595  0.36771058  0.48941998  1
  N  N118  1  0.94776649  0.57732720  0.60407297  1
  N  N119  1  0.94776716  0.92267319  0.10407277  1
  N  N120  1  0.95640312  0.68138208  0.61398014  1
  N  N121  1  0.95640467  0.81861716  0.11397985  1
  N  N122  1  0.99451999  0.90501290  0.57937783  1
  N  N123  1  0.99452071  0.59498734  0.07937650  1
  O  O124  1  0.19202872  0.71263781  0.18247184  1
  O  O125  1  0.19202884  0.78736211  0.68247144  1
  O  O126  1  0.30797075  0.21263801  0.18247185  1
  O  O127  1  0.30797017  0.28736217  0.68247219  1
  O  O128  1  0.69202810  0.71263798  0.31752788  1
  O  O129  1  0.69202944  0.78736250  0.81752670  1
  O  O130  1  0.80797095  0.28736243  0.81752744  1
  O  O131  1  0.80797207  0.21263781  0.31752841  1
