# generated using pymatgen
data_NbO2F
_symmetry_space_group_name_H-M   'P 1'
_cell_length_a   5.67911847
_cell_length_b   5.56281994
_cell_length_c   13.83828910
_cell_angle_alpha   90.81476471
_cell_angle_beta   92.79826698
_cell_angle_gamma   61.52466077
_symmetry_Int_Tables_number   1
_chemical_formula_structural   NbO2F
_chemical_formula_sum   'Nb6 O12 F6'
_cell_volume   383.81064387
_cell_formula_units_Z   6
loop_
 _symmetry_equiv_pos_site_id
 _symmetry_equiv_pos_as_xyz
  1  'x, y, z'
loop_
 _atom_site_type_symbol
 _atom_site_label
 _atom_site_symmetry_multiplicity
 _atom_site_fract_x
 _atom_site_fract_y
 _atom_site_fract_z
 _atom_site_occupancy
  Nb  Nb0  1  0.66116367  0.67747192  0.33330486  1
  Nb  Nb1  1  0.98353131  0.02814190  0.50045417  1
  Nb  Nb2  1  0.29294206  0.37821185  0.66764452  1
  Nb  Nb3  1  0.33883633  0.32252808  0.16669514  1
  Nb  Nb4  1  0.70705794  0.62178815  0.83235548  1
  Nb  Nb5  1  0.01646869  0.97185810  0.99954583  1
  O  O6  1  0.83396697  0.33187108  0.41615561  1
  O  O7  1  0.83399060  0.33352648  0.91875285  1
  O  O8  1  0.50000000  0.00000000  0.25000000  1
  O  O9  1  0.83611620  0.82752020  0.41614348  1
  O  O10  1  0.16388380  0.17247980  0.08385652  1
  O  O11  1  0.17624222  0.15431171  0.58291945  1
  O  O12  1  0.82375778  0.84568829  0.91708055  1
  O  O13  1  0.50000000  0.50000000  0.75000000  1
  O  O14  1  0.50000000  0.50000000  0.25000000  1
  O  O15  1  0.16603303  0.66812892  0.08384439  1
  O  O16  1  0.16600940  0.66647352  0.58124715  1
  O  O17  1  0.00000000  0.50000000  0.75000000  1
  F  F18  1  0.50000000  0.00000000  0.75000000  1
  F  F19  1  0.66737188  0.16717143  0.08378929  1
  F  F20  1  0.66778249  0.16401320  0.58388114  1
  F  F21  1  0.00000000  0.50000000  0.25000000  1
  F  F22  1  0.33221751  0.83598680  0.91611886  1
  F  F23  1  0.33262812  0.83282857  0.41621071  1
