# generated using pymatgen
data_LiSn(PO3)3
_symmetry_space_group_name_H-M   'P 1'
_cell_length_a   8.80316407
_cell_length_b   9.00997419
_cell_length_c   9.55339750
_cell_angle_alpha   90.00000000
_cell_angle_beta   90.00000000
_cell_angle_gamma   90.00000000
_symmetry_Int_Tables_number   1
_chemical_formula_structural   LiSn(PO3)3
_chemical_formula_sum   'Li4 Sn4 P12 O36'
_cell_volume   757.73996120
_cell_formula_units_Z   4
loop_
 _symmetry_equiv_pos_site_id
 _symmetry_equiv_pos_as_xyz
  1  'x, y, z'
loop_
 _atom_site_type_symbol
 _atom_site_label
 _atom_site_symmetry_multiplicity
 _atom_site_fract_x
 _atom_site_fract_y
 _atom_site_fract_z
 _atom_site_occupancy
  Li  Li0  1  0.09714564  0.88857996  0.41750353  1
  Li  Li1  1  0.40285436  0.11142004  0.91750353  1
  Li  Li2  1  0.59714564  0.61142004  0.58249647  1
  Li  Li3  1  0.90285436  0.38857996  0.08249647  1
  Sn  Sn4  1  0.11875707  0.09402206  0.14576793  1
  Sn  Sn5  1  0.38124293  0.90597794  0.64576793  1
  Sn  Sn6  1  0.61875707  0.40597794  0.85423207  1
  Sn  Sn7  1  0.88124293  0.59402206  0.35423207  1
  P  P8  1  0.05344417  0.94256030  0.81863071  1
  P  P9  1  0.07007201  0.71237915  0.05304673  1
  P  P10  1  0.23179599  0.54945930  0.55597334  1
  P  P11  1  0.26820401  0.45054070  0.05597334  1
  P  P12  1  0.42992799  0.28762085  0.55304673  1
  P  P13  1  0.44655583  0.05743970  0.31863071  1
  P  P14  1  0.55344417  0.55743970  0.18136929  1
  P  P15  1  0.57007201  0.78762085  0.94695327  1
  P  P16  1  0.73179599  0.95054070  0.44402666  1
  P  P17  1  0.76820401  0.04945930  0.94402666  1
  P  P18  1  0.92992799  0.21237915  0.44695327  1
  P  P19  1  0.94655583  0.44256030  0.68136929  1
  O  O20  1  0.03052323  0.79098454  0.90667284  1
  O  O21  1  0.05982189  0.11174322  0.40985982  1
  O  O22  1  0.09677049  0.90109150  0.67182828  1
  O  O23  1  0.11792796  0.50721983  0.68433036  1
  O  O24  1  0.11736016  0.82444811  0.16176210  1
  O  O25  1  0.13434480  0.36869720  0.11630554  1
  O  O26  1  0.14322775  0.62499017  0.44139735  1
  O  O27  1  0.15766489  0.04763817  0.89720657  1
  O  O28  1  0.21520084  0.61295166  0.00310733  1
  O  O29  1  0.28479916  0.38704834  0.50310733  1
  O  O30  1  0.34233511  0.95236183  0.39720657  1
  O  O31  1  0.35677225  0.37500983  0.94139735  1
  O  O32  1  0.36565520  0.63130280  0.61630554  1
  O  O33  1  0.38263984  0.17555189  0.66176210  1
  O  O34  1  0.38207204  0.49278017  0.18433036  1
  O  O35  1  0.40322951  0.09890850  0.17182828  1
  O  O36  1  0.44017811  0.88825678  0.90985982  1
  O  O37  1  0.46947677  0.20901546  0.40667284  1
  O  O38  1  0.53052323  0.70901546  0.09332716  1
  O  O39  1  0.55982189  0.38825678  0.59014018  1
  O  O40  1  0.59677049  0.59890850  0.32817172  1
  O  O41  1  0.61792796  0.99278017  0.31566964  1
  O  O42  1  0.61736016  0.67555189  0.83823790  1
  O  O43  1  0.63434480  0.13130280  0.88369446  1
  O  O44  1  0.64322775  0.87500983  0.55860265  1
  O  O45  1  0.65766489  0.45236183  0.10279343  1
  O  O46  1  0.71520084  0.88704834  0.99689267  1
  O  O47  1  0.78479916  0.11295166  0.49689267  1
  O  O48  1  0.84233511  0.54763817  0.60279343  1
  O  O49  1  0.85677225  0.12499017  0.05860265  1
  O  O50  1  0.86565520  0.86869720  0.38369446  1
  O  O51  1  0.88263984  0.32444811  0.33823790  1
  O  O52  1  0.88207204  0.00721983  0.81566964  1
  O  O53  1  0.90322951  0.40109150  0.82817172  1
  O  O54  1  0.94017811  0.61174322  0.09014018  1
  O  O55  1  0.96947677  0.29098454  0.59332716  1
