# generated using pymatgen
data_Ti11O14
_symmetry_space_group_name_H-M   'P 1'
_cell_length_a   5.10822353
_cell_length_b   10.70393697
_cell_length_c   5.07661824
_cell_angle_alpha   103.77124143
_cell_angle_beta   109.12321089
_cell_angle_gamma   85.35480655
_symmetry_Int_Tables_number   1
_chemical_formula_structural   Ti11O14
_chemical_formula_sum   'Ti11 O14'
_cell_volume   254.72158879
_cell_formula_units_Z   1
loop_
 _symmetry_equiv_pos_site_id
 _symmetry_equiv_pos_as_xyz
  1  'x, y, z'
loop_
 _atom_site_type_symbol
 _atom_site_label
 _atom_site_symmetry_multiplicity
 _atom_site_fract_x
 _atom_site_fract_y
 _atom_site_fract_z
 _atom_site_occupancy
  Ti  Ti0  1  0.01393854  0.71890141  0.87071158  1
  Ti  Ti1  1  0.99457750  0.14477879  0.57122768  1
  Ti  Ti2  1  0.99957594  0.42585779  0.71283469  1
  Ti  Ti3  1  0.50592488  0.01583827  0.50407173  1
  Ti  Ti4  1  0.49912390  0.86687614  0.93627151  1
  Ti  Ti5  1  0.49996564  0.55570233  0.77954168  1
  Ti  Ti6  1  0.99811490  0.28561572  0.14201969  1
  Ti  Ti7  1  0.00573657  0.85036672  0.42212613  1
  Ti  Ti8  1  0.49942242  0.43153364  0.21678990  1
  Ti  Ti9  1  0.50271070  0.13837059  0.07810456  1
  Ti  Ti10  1  0.49095814  0.70538059  0.33805713  1
  O  O11  1  0.25487073  0.28458184  0.89584276  1
  O  O12  1  0.24302549  0.00252534  0.74408257  1
  O  O13  1  0.75134344  0.42509514  0.96586586  1
  O  O14  1  0.75124353  0.14545839  0.82767944  1
  O  O15  1  0.24682108  0.14661680  0.32208723  1
  O  O16  1  0.24660815  0.42525080  0.46055142  1
  O  O17  1  0.26602208  0.71212220  0.61625919  1
  O  O18  1  0.74233563  0.28630218  0.39397158  1
  O  O19  1  0.26203601  0.86394267  0.19056374  1
  O  O20  1  0.76830257  0.99890264  0.25117218  1
  O  O21  1  0.75891200  0.57209911  0.53915303  1
  O  O22  1  0.23564940  0.56669339  0.03169709  1
  O  O23  1  0.73921791  0.85494069  0.66574582  1
  O  O24  1  0.74172385  0.71199185  0.09480980  1
