# generated using pymatgen
data_GdAsO4
_symmetry_space_group_name_H-M   'P 1'
_cell_length_a   4.84904217
_cell_length_b   7.19941362
_cell_length_c   4.84867984
_cell_angle_alpha   90.00000000
_cell_angle_beta   96.81200108
_cell_angle_gamma   90.00000000
_symmetry_Int_Tables_number   1
_chemical_formula_structural   GdAsO4
_chemical_formula_sum   'Gd2 As2 O8'
_cell_volume   168.07375448
_cell_formula_units_Z   2
loop_
 _symmetry_equiv_pos_site_id
 _symmetry_equiv_pos_as_xyz
  1  'x, y, z'
loop_
 _atom_site_type_symbol
 _atom_site_label
 _atom_site_symmetry_multiplicity
 _atom_site_fract_x
 _atom_site_fract_y
 _atom_site_fract_z
 _atom_site_occupancy
  Gd  Gd0  1  0.13556194  0.25000000  0.61774687  1
  Gd  Gd1  1  0.86443806  0.75000000  0.38225313  1
  As  As2  1  0.35699071  0.75000000  0.87296468  1
  As  As3  1  0.64300929  0.25000000  0.12703532  1
  O  O4  1  0.18601895  0.56590623  0.70111404  1
  O  O5  1  0.18601895  0.93409377  0.70111404  1
  O  O6  1  0.33290504  0.75000000  0.22197712  1
  O  O7  1  0.29502358  0.25000000  0.15654839  1
  O  O8  1  0.70497642  0.75000000  0.84345161  1
  O  O9  1  0.66709496  0.25000000  0.77802288  1
  O  O10  1  0.81398105  0.06590623  0.29888596  1
  O  O11  1  0.81398105  0.43409377  0.29888596  1
