# generated using pymatgen
data_LiTi6O12
_symmetry_space_group_name_H-M   'P 1'
_cell_length_a   7.80208895
_cell_length_b   9.60697719
_cell_length_c   5.86189679
_cell_angle_alpha   90.00000000
_cell_angle_beta   80.31734336
_cell_angle_gamma   90.00000000
_symmetry_Int_Tables_number   1
_chemical_formula_structural   LiTi6O12
_chemical_formula_sum   'Li2 Ti12 O24'
_cell_volume   433.11633143
_cell_formula_units_Z   2
loop_
 _symmetry_equiv_pos_site_id
 _symmetry_equiv_pos_as_xyz
  1  'x, y, z'
loop_
 _atom_site_type_symbol
 _atom_site_label
 _atom_site_symmetry_multiplicity
 _atom_site_fract_x
 _atom_site_fract_y
 _atom_site_fract_z
 _atom_site_occupancy
  Li  Li0  1  0.43737884  0.96354666  0.12539233  1
  Li  Li1  1  0.89595416  0.46354666  0.04127467  1
  Ti  Ti2  1  0.24222149  0.35445494  0.22579915  1
  Ti  Ti3  1  0.10033108  0.63752096  0.44732741  1
  Ti  Ti4  1  0.43031918  0.63306409  0.11211639  1
  Ti  Ti5  1  0.58012793  0.14529034  0.40896417  1
  Ti  Ti6  1  0.90301482  0.13306409  0.05455061  1
  Ti  Ti7  1  0.23300192  0.13752096  0.71933959  1
  Ti  Ti8  1  0.76605259  0.86319563  0.27595350  1
  Ti  Ti9  1  0.09111151  0.85445494  0.94086785  1
  Ti  Ti10  1  0.42869926  0.86316326  0.60524201  1
  Ti  Ti11  1  0.56728041  0.36319563  0.89071350  1
  Ti  Ti12  1  0.90463474  0.36316326  0.56142499  1
  Ti  Ti13  1  0.75320507  0.64529034  0.75770283  1
  O  O14  1  0.13885236  0.22816937  0.02878547  1
  O  O15  1  0.01798437  0.46555641  0.28821999  1
  O  O16  1  0.19448064  0.72816937  0.13788053  1
  O  O17  1  0.14133259  0.27397677  0.53157671  1
  O  O18  1  0.47474266  0.27107786  0.19967859  1
  O  O19  1  0.65420258  0.53556747  0.04515730  1
  O  O20  1  0.31572315  0.53425079  0.38150680  1
  O  O21  1  0.67913142  0.03556747  0.12150870  1
  O  O22  1  0.35433591  0.03523359  0.44569006  1
  O  O23  1  0.01760985  0.03425079  0.78516020  1
  O  O24  1  0.19200141  0.77397677  0.63509029  1
  O  O25  1  0.52015338  0.78348868  0.28978834  1
  O  O26  1  0.81112537  0.22830529  0.36435446  1
  O  O27  1  0.47359263  0.22456273  0.70487908  1
  O  O28  1  0.64986678  0.96492586  0.54943329  1
  O  O29  1  0.98095158  0.96414930  0.21146135  1
  O  O30  1  0.31534863  0.96555641  0.87844701  1
  O  O31  1  0.68346722  0.46492586  0.61723371  1
  O  O32  1  0.35238142  0.46414930  0.95520465  1
  O  O33  1  0.52220863  0.72830529  0.80231154  1
  O  O34  1  0.85974037  0.72456273  0.46178792  1
  O  O35  1  0.81317962  0.28348868  0.87687866  1
  O  O36  1  0.97899709  0.53523359  0.72097694  1
  O  O37  1  0.85859134  0.77107786  0.96698841  1
