# generated using pymatgen
data_TiNbO4
_symmetry_space_group_name_H-M   'P 1'
_cell_length_a   7.40348764
_cell_length_b   5.66377354
_cell_length_c   5.66377354
_cell_angle_alpha   73.73762174
_cell_angle_beta   70.90167143
_cell_angle_gamma   70.90167143
_symmetry_Int_Tables_number   1
_chemical_formula_structural   TiNbO4
_chemical_formula_sum   'Ti3 Nb3 O12'
_cell_volume   208.04994218
_cell_formula_units_Z   3
loop_
 _symmetry_equiv_pos_site_id
 _symmetry_equiv_pos_as_xyz
  1  'x, y, z'
loop_
 _atom_site_type_symbol
 _atom_site_label
 _atom_site_symmetry_multiplicity
 _atom_site_fract_x
 _atom_site_fract_y
 _atom_site_fract_z
 _atom_site_occupancy
  Ti  Ti0  1  0.67113420  0.32795005  0.32795005  1
  Ti  Ti1  1  0.15864929  0.33732905  0.33732905  1
  Ti  Ti2  1  0.00217597  0.00846288  0.00846288  1
  Nb  Nb3  1  0.83495598  0.66418137  0.66418137  1
  Nb  Nb4  1  0.32807919  0.66178554  0.66178554  1
  Nb  Nb5  1  0.50548472  0.99791880  0.99791880  1
  O  O6  1  0.66475312  0.04206510  0.62772603  1
  O  O7  1  0.33019475  0.36739661  0.97260281  1
  O  O8  1  0.63063050  0.56624689  0.56624689  1
  O  O9  1  0.96444640  0.23229136  0.23229136  1
  O  O10  1  0.29826722  0.90006348  0.90006348  1
  O  O11  1  0.70690282  0.10079977  0.10079977  1
  O  O12  1  0.02950724  0.77245551  0.77245551  1
  O  O13  1  0.36940261  0.43032901  0.43032901  1
  O  O14  1  0.33019475  0.97260281  0.36739661  1
  O  O15  1  0.66475312  0.62772603  0.04206510  1
  O  O16  1  0.00523406  0.29437759  0.69601713  1
  O  O17  1  0.00523406  0.69601713  0.29437759  1
