# generated using pymatgen
data_LiSiBiO4
_symmetry_space_group_name_H-M   'P 1'
_cell_length_a   22.33826944
_cell_length_b   8.85058355
_cell_length_c   5.28222144
_cell_angle_alpha   90.00000000
_cell_angle_beta   90.00000000
_cell_angle_gamma   90.00000000
_symmetry_Int_Tables_number   1
_chemical_formula_structural   LiSiBiO4
_chemical_formula_sum   'Li12 Si12 Bi12 O48'
_cell_volume   1044.33067543
_cell_formula_units_Z   12
loop_
 _symmetry_equiv_pos_site_id
 _symmetry_equiv_pos_as_xyz
  1  'x, y, z'
loop_
 _atom_site_type_symbol
 _atom_site_label
 _atom_site_symmetry_multiplicity
 _atom_site_fract_x
 _atom_site_fract_y
 _atom_site_fract_z
 _atom_site_occupancy
  Li  Li0  1  0.08676696  0.57931942  0.02203681  1
  Li  Li1  1  0.08125985  0.07409544  0.49763567  1
  Li  Li2  1  0.24965268  0.92164482  0.99086580  1
  Li  Li3  1  0.25034732  0.42164482  0.49086580  1
  Li  Li4  1  0.41874015  0.57409544  0.99763567  1
  Li  Li5  1  0.41323304  0.07931942  0.52203681  1
  Li  Li6  1  0.58676696  0.92068058  0.02203681  1
  Li  Li7  1  0.58125985  0.42590456  0.49763567  1
  Li  Li8  1  0.74965268  0.57835518  0.99086580  1
  Li  Li9  1  0.75034732  0.07835518  0.49086580  1
  Li  Li10  1  0.91874015  0.92590456  0.99763567  1
  Li  Li11  1  0.91323304  0.42068058  0.52203681  1
  Si  Si12  1  0.07742383  0.91804917  0.99377677  1
  Si  Si13  1  0.09114020  0.41463720  0.52924078  1
  Si  Si14  1  0.24397420  0.58052494  0.99487793  1
  Si  Si15  1  0.25602580  0.08052494  0.49487793  1
  Si  Si16  1  0.40885980  0.91463720  0.02924078  1
  Si  Si17  1  0.42257617  0.41804917  0.49377677  1
  Si  Si18  1  0.57742383  0.58195083  0.99377677  1
  Si  Si19  1  0.59114020  0.08536280  0.52924078  1
  Si  Si20  1  0.74397420  0.91947506  0.99487793  1
  Si  Si21  1  0.75602580  0.41947506  0.49487793  1
  Si  Si22  1  0.90885980  0.58536280  0.02924078  1
  Si  Si23  1  0.92257617  0.08195083  0.49377677  1
  Bi  Bi24  1  0.00457436  0.21979533  0.04210896  1
  Bi  Bi25  1  0.99542564  0.78020467  0.54210896  1
  Bi  Bi26  1  0.16583254  0.72827901  0.49564724  1
  Bi  Bi27  1  0.16728352  0.28284657  0.96787478  1
  Bi  Bi28  1  0.33271648  0.78284657  0.46787478  1
  Bi  Bi29  1  0.33416746  0.22827901  0.99564724  1
  Bi  Bi30  1  0.50457436  0.28020467  0.04210896  1
  Bi  Bi31  1  0.49542564  0.71979533  0.54210896  1
  Bi  Bi32  1  0.66583254  0.77172099  0.49564724  1
  Bi  Bi33  1  0.66728352  0.21715343  0.96787478  1
  Bi  Bi34  1  0.83271648  0.71715343  0.46787478  1
  Bi  Bi35  1  0.83416746  0.27172099  0.99564724  1
  O  O36  1  0.99421908  0.06295547  0.41638261  1
  O  O37  1  0.00578092  0.93704453  0.91638261  1
  O  O38  1  0.06650069  0.57491030  0.64921552  1
  O  O39  1  0.07412096  0.26566038  0.70772679  1
  O  O40  1  0.06980205  0.39050735  0.23317429  1
  O  O41  1  0.08449414  0.77628530  0.19194481  1
  O  O42  1  0.10964536  0.89415978  0.71333416  1
  O  O43  1  0.09898701  0.07751692  0.12713252  1
  O  O44  1  0.16478383  0.41682434  0.56144914  1
  O  O45  1  0.17249568  0.55112622  0.05207562  1
  O  O46  1  0.22744298  0.92577486  0.36077480  1
  O  O47  1  0.25221900  0.22672708  0.30121729  1
  O  O48  1  0.22654330  0.10683191  0.77750870  1
  O  O49  1  0.24778100  0.72672708  0.80121729  1
  O  O50  1  0.27345670  0.60683191  0.27750870  1
  O  O51  1  0.27255702  0.42577486  0.86077480  1
  O  O52  1  0.32750432  0.05112622  0.55207562  1
  O  O53  1  0.33521617  0.91682434  0.06144914  1
  O  O54  1  0.40101299  0.57751692  0.62713252  1
  O  O55  1  0.39035464  0.39415978  0.21333416  1
  O  O56  1  0.41550586  0.27628530  0.69194481  1
  O  O57  1  0.43019795  0.89050735  0.73317429  1
  O  O58  1  0.42587904  0.76566038  0.20772679  1
  O  O59  1  0.43349931  0.07491030  0.14921552  1
  O  O60  1  0.49421908  0.43704453  0.41638261  1
  O  O61  1  0.50578092  0.56295547  0.91638261  1
  O  O62  1  0.56650069  0.92508970  0.64921552  1
  O  O63  1  0.57412096  0.23433962  0.70772679  1
  O  O64  1  0.56980205  0.10949265  0.23317429  1
  O  O65  1  0.58449414  0.72371470  0.19194481  1
  O  O66  1  0.60964536  0.60584022  0.71333416  1
  O  O67  1  0.59898701  0.42248308  0.12713252  1
  O  O68  1  0.66478383  0.08317566  0.56144914  1
  O  O69  1  0.67249568  0.94887378  0.05207562  1
  O  O70  1  0.72744298  0.57422514  0.36077480  1
  O  O71  1  0.72654330  0.39316809  0.77750870  1
  O  O72  1  0.75221900  0.27327292  0.30121729  1
  O  O73  1  0.77345670  0.89316809  0.27750870  1
  O  O74  1  0.74778100  0.77327292  0.80121729  1
  O  O75  1  0.77255702  0.07422514  0.86077480  1
  O  O76  1  0.82750432  0.44887378  0.55207562  1
  O  O77  1  0.83521617  0.58317566  0.06144914  1
  O  O78  1  0.90101299  0.92248308  0.62713252  1
  O  O79  1  0.89035464  0.10584022  0.21333416  1
  O  O80  1  0.91550586  0.22371470  0.69194481  1
  O  O81  1  0.93019795  0.60949265  0.73317429  1
  O  O82  1  0.92587904  0.73433962  0.20772679  1
  O  O83  1  0.93349931  0.42508970  0.14921552  1
