# generated using pymatgen
data_Li3Mn2(PO4)3
_symmetry_space_group_name_H-M   'P 1'
_cell_length_a   9.82764427
_cell_length_b   9.82764427
_cell_length_c   9.75425324
_cell_angle_alpha   86.56673365
_cell_angle_beta   93.43326635
_cell_angle_gamma   95.21888111
_symmetry_Int_Tables_number   1
_chemical_formula_structural   Li3Mn2(PO4)3
_chemical_formula_sum   'Li12 Mn8 P12 O48'
_cell_volume   935.09640649
_cell_formula_units_Z   4
loop_
 _symmetry_equiv_pos_site_id
 _symmetry_equiv_pos_as_xyz
  1  'x, y, z'
loop_
 _atom_site_type_symbol
 _atom_site_label
 _atom_site_symmetry_multiplicity
 _atom_site_fract_x
 _atom_site_fract_y
 _atom_site_fract_z
 _atom_site_occupancy
  Li  Li0  1  0.01365297  0.50587873  0.23022566  1
  Li  Li1  1  0.38044912  0.75037546  0.79757069  1
  Li  Li2  1  0.21364074  0.56216786  0.46348348  1
  Li  Li3  1  0.23489516  0.73115124  0.17887303  1
  Li  Li4  1  0.70115759  0.92643043  0.98430514  1
  Li  Li5  1  0.99080923  0.25676085  0.38072064  1
  Li  Li6  1  0.25676085  0.99080923  0.61927936  1
  Li  Li7  1  0.92643043  0.70115759  0.01569486  1
  Li  Li8  1  0.73115124  0.23489516  0.82112697  1
  Li  Li9  1  0.56216786  0.21364074  0.53651652  1
  Li  Li10  1  0.75037546  0.38044912  0.20242931  1
  Li  Li11  1  0.50587873  0.01365297  0.76977434  1
  Mn  Mn12  1  0.02750038  0.26907042  0.77891467  1
  Mn  Mn13  1  0.76547655  0.96838650  0.28317543  1
  Mn  Mn14  1  0.52718008  0.52718008  0.50000000  1
  Mn  Mn15  1  0.74332382  0.74332382  0.50000000  1
  Mn  Mn16  1  0.24473250  0.24473250  0.00000000  1
  Mn  Mn17  1  0.46899784  0.46899784  0.00000000  1
  Mn  Mn18  1  0.96838650  0.76547655  0.71682457  1
  Mn  Mn19  1  0.26907042  0.02750038  0.22108533  1
  P  P20  1  0.17873082  0.94456880  0.91341357  1
  P  P21  1  0.05290741  0.82711463  0.39844160  1
  P  P22  1  0.14965648  0.56123040  0.91435006  1
  P  P23  1  0.44595630  0.82771914  0.44133238  1
  P  P24  1  0.65534797  0.67642868  0.80757480  1
  P  P25  1  0.34189920  0.31344781  0.70394009  1
  P  P26  1  0.31344781  0.34189920  0.29605991  1
  P  P27  1  0.67642868  0.65534797  0.19242520  1
  P  P28  1  0.82771914  0.44595630  0.55866762  1
  P  P29  1  0.56123040  0.14965648  0.08564994  1
  P  P30  1  0.82711463  0.05290741  0.60155840  1
  P  P31  1  0.94456880  0.17873082  0.08658643  1
  O  O32  1  0.03430664  0.87508970  0.88196288  1
  O  O33  1  0.11981318  0.96383349  0.33665452  1
  O  O34  1  0.08383176  0.82960648  0.55700620  1
  O  O35  1  0.21209176  0.90612303  0.06906031  1
  O  O36  1  0.28642578  0.90809937  0.81830609  1
  O  O37  1  0.09996993  0.69900020  0.33910425  1
  O  O38  1  0.08404216  0.62495893  0.77893329  1
  O  O39  1  0.40355346  0.89497123  0.56561261  1
  O  O40  1  0.38002382  0.87129971  0.30089249  1
  O  O41  1  0.09231896  0.60476068  0.04682184  1
  O  O42  1  0.11636683  0.40079008  0.90695785  1
  O  O43  1  0.30619502  0.59559437  0.91431242  1
  O  O44  1  0.58521136  0.79832077  0.85192902  1
  O  O45  1  0.40524524  0.66707905  0.45300023  1
  O  O46  1  0.60754075  0.86117664  0.43283678  1
  O  O47  1  0.18734457  0.40640897  0.33947753  1
  O  O48  1  0.18510139  0.30232153  0.66988512  1
  O  O49  1  0.69256049  0.81252444  0.15956734  1
  O  O50  1  0.39476512  0.45124689  0.63739698  1
  O  O51  1  0.62167794  0.66400206  0.64813183  1
  O  O52  1  0.83272671  0.89195663  0.63412515  1
  O  O53  1  0.17285009  0.10424867  0.88407597  1
  O  O54  1  0.53541235  0.60121534  0.12709903  1
  O  O55  1  0.37692820  0.32482614  0.86735381  1
  O  O56  1  0.32482614  0.37692820  0.13264619  1
  O  O57  1  0.60121534  0.53541235  0.87290097  1
  O  O58  1  0.10424867  0.17285009  0.11592403  1
  O  O59  1  0.89195663  0.83272671  0.36587485  1
  O  O60  1  0.66400206  0.62167794  0.35186817  1
  O  O61  1  0.45124689  0.39476512  0.36260302  1
  O  O62  1  0.81252444  0.69256049  0.84043266  1
  O  O63  1  0.30232153  0.18510139  0.33011488  1
  O  O64  1  0.40640897  0.18734457  0.66052247  1
  O  O65  1  0.86117664  0.60754075  0.56716322  1
  O  O66  1  0.66707905  0.40524524  0.54699977  1
  O  O67  1  0.79832077  0.58521136  0.14807098  1
  O  O68  1  0.59559437  0.30619502  0.08568758  1
  O  O69  1  0.40079008  0.11636683  0.09304215  1
  O  O70  1  0.60476068  0.09231896  0.95317816  1
  O  O71  1  0.87129971  0.38002382  0.69910751  1
  O  O72  1  0.89497123  0.40355346  0.43438739  1
  O  O73  1  0.62495893  0.08404216  0.22106671  1
  O  O74  1  0.69900020  0.09996993  0.66089575  1
  O  O75  1  0.90809937  0.28642578  0.18169391  1
  O  O76  1  0.90612303  0.21209176  0.93093969  1
  O  O77  1  0.82960648  0.08383176  0.44299380  1
  O  O78  1  0.96383349  0.11981318  0.66334548  1
  O  O79  1  0.87508970  0.03430664  0.11803712  1
