# generated using pymatgen
data_LiCrPO4
_symmetry_space_group_name_H-M   'P 1'
_cell_length_a   9.41634308
_cell_length_b   9.41633430
_cell_length_c   6.58279814
_cell_angle_alpha   89.99936174
_cell_angle_beta   90.00073282
_cell_angle_gamma   119.99872976
_symmetry_Int_Tables_number   1
_chemical_formula_structural   LiCrPO4
_chemical_formula_sum   'Li6 Cr6 P6 O24'
_cell_volume   505.48802337
_cell_formula_units_Z   6
loop_
 _symmetry_equiv_pos_site_id
 _symmetry_equiv_pos_as_xyz
  1  'x, y, z'
loop_
 _atom_site_type_symbol
 _atom_site_label
 _atom_site_symmetry_multiplicity
 _atom_site_fract_x
 _atom_site_fract_y
 _atom_site_fract_z
 _atom_site_occupancy
  Li  Li0  1  0.33334520  0.66669175  0.21862007  1
  Li  Li1  1  0.33334452  0.66668740  0.76031960  1
  Li  Li2  1  0.00001445  0.00000882  0.11371303  1
  Li  Li3  1  0.99998207  0.99998817  0.61369986  1
  Li  Li4  1  0.66665000  0.33331408  0.71861143  1
  Li  Li5  1  0.66664580  0.33332111  0.26032744  1
  Cr  Cr6  1  0.10825046  0.71836329  0.49057057  1
  Cr  Cr7  1  0.28162992  0.38991295  0.49055449  1
  Cr  Cr8  1  0.61004938  0.89168709  0.49055361  1
  Cr  Cr9  1  0.39005691  0.10843995  0.99056979  1
  Cr  Cr10  1  0.71835451  0.61002152  0.99058112  1
  Cr  Cr11  1  0.89167996  0.28165109  0.99057542  1
  P  P12  1  0.05331846  0.69076594  0.99127739  1
  P  P13  1  0.30921929  0.36255817  0.99127485  1
  P  P14  1  0.63745148  0.94668494  0.99124689  1
  P  P15  1  0.36254254  0.05329128  0.49123410  1
  P  P16  1  0.69074568  0.63743804  0.49126535  1
  P  P17  1  0.94667300  0.30923359  0.49123687  1
  O  O18  1  0.17097527  0.96331281  0.49251656  1
  O  O19  1  0.16586054  0.73281443  0.17981456  1
  O  O20  1  0.16482787  0.73242675  0.80200204  1
  O  O21  1  0.08417777  0.49229483  0.49112957  1
  O  O22  1  0.40811234  0.91580211  0.49114208  1
  O  O23  1  0.03664510  0.20764783  0.49252401  1
  O  O24  1  0.26753729  0.43241332  0.80197558  1
  O  O25  1  0.26715530  0.43307195  0.17979353  1
  O  O26  1  0.20767037  0.17102871  0.99251428  1
  O  O27  1  0.56697121  0.83414444  0.17976944  1
  O  O28  1  0.56762475  0.83516769  0.80197226  1
  O  O29  1  0.50768657  0.59186204  0.49113678  1
  O  O30  1  0.49230300  0.40814728  0.99111345  1
  O  O31  1  0.43237192  0.16481591  0.30199135  1
  O  O32  1  0.43302186  0.16587850  0.67977388  1
  O  O33  1  0.79233725  0.82897037  0.49251291  1
  O  O34  1  0.73283780  0.56693206  0.67980502  1
  O  O35  1  0.73243232  0.56757882  0.30198138  1
  O  O36  1  0.96333731  0.79234372  0.99251812  1
  O  O37  1  0.59190079  0.08420066  0.99108260  1
  O  O38  1  0.91579114  0.50769051  0.99112930  1
  O  O39  1  0.83514104  0.26754796  0.30199611  1
  O  O40  1  0.83410618  0.26716920  0.67981305  1
  O  O41  1  0.82902038  0.03667891  0.99250029  1
