# generated using pymatgen
data_Li6VFe3(PO4)6
_symmetry_space_group_name_H-M   'P 1'
_cell_length_a   8.59986367
_cell_length_b   8.64599614
_cell_length_c   8.62984122
_cell_angle_alpha   61.53641782
_cell_angle_beta   61.37435026
_cell_angle_gamma   61.41683272
_symmetry_Int_Tables_number   1
_chemical_formula_structural   Li6VFe3(PO4)6
_chemical_formula_sum   'Li6 V1 Fe3 P6 O24'
_cell_volume   468.42296058
_cell_formula_units_Z   1
loop_
 _symmetry_equiv_pos_site_id
 _symmetry_equiv_pos_as_xyz
  1  'x, y, z'
loop_
 _atom_site_type_symbol
 _atom_site_label
 _atom_site_symmetry_multiplicity
 _atom_site_fract_x
 _atom_site_fract_y
 _atom_site_fract_z
 _atom_site_occupancy
  Li  Li0  1  0.02603706  0.00714602  0.99745675  1
  Li  Li1  1  0.74988780  0.15255770  0.34852697  1
  Li  Li2  1  0.47528541  0.50299298  0.49444766  1
  Li  Li3  1  0.25723038  0.84230506  0.65300335  1
  Li  Li4  1  0.65252924  0.26245077  0.83905523  1
  Li  Li5  1  0.84094815  0.65326787  0.25750385  1
  V  V6  1  0.85681634  0.85366926  0.85347038  1
  Fe  Fe7  1  0.14594105  0.14605770  0.13718871  1
  Fe  Fe8  1  0.35327120  0.36227763  0.35503048  1
  Fe  Fe9  1  0.64722107  0.64850947  0.64927142  1
  P  P10  1  0.04902655  0.75117287  0.44970261  1
  P  P11  1  0.45067998  0.05049780  0.74821077  1
  P  P12  1  0.75018301  0.45223772  0.04697184  1
  P  P13  1  0.25117351  0.54071002  0.95825370  1
  P  P14  1  0.54251769  0.96126850  0.25172039  1
  P  P15  1  0.95514655  0.25014213  0.53695485  1
  O  O16  1  0.12750740  0.29148837  0.49522499  1
  O  O17  1  0.30352826  0.50806398  0.11916477  1
  O  O18  1  0.04651703  0.92268525  0.26962729  1
  O  O19  1  0.52997621  0.12026167  0.29614510  1
  O  O20  1  0.23826402  0.59279144  0.43010748  1
  O  O21  1  0.01592571  0.80625412  0.61299072  1
  O  O22  1  0.26129632  0.07028000  0.90756235  1
  O  O23  1  0.45082962  0.23204882  0.57702401  1
  O  O24  1  0.59231256  0.43081981  0.24038175  1
  O  O25  1  0.19677032  0.38101509  0.99128134  1
  O  O26  1  0.09250470  0.73474625  0.93276546  1
  O  O27  1  0.37179832  0.00406651  0.20779402  1
  O  O28  1  0.61287631  0.01497716  0.80455027  1
  O  O29  1  0.90677699  0.25859656  0.06939100  1
  O  O30  1  0.81046068  0.60949620  0.01189945  1
  O  O31  1  0.41360287  0.56305639  0.76481151  1
  O  O32  1  0.56266613  0.76939464  0.41373211  1
  O  O33  1  0.73313914  0.92873851  0.08910703  1
  O  O34  1  0.97013344  0.20120484  0.37966214  1
  O  O35  1  0.76647514  0.41590793  0.56362568  1
  O  O36  1  0.48259855  0.88719481  0.69322618  1
  O  O37  1  0.93175116  0.09219252  0.73046690  1
  O  O38  1  0.69195411  0.48469080  0.88690548  1
  O  O39  1  0.88643701  0.69176282  0.48677903  1
