# generated using pymatgen
data_Sn13(O5F3)2
_symmetry_space_group_name_H-M   'P 1'
_cell_length_a   7.14868998
_cell_length_b   8.35513883
_cell_length_c   23.03688588
_cell_angle_alpha   86.83078826
_cell_angle_beta   90.00000000
_cell_angle_gamma   64.67185444
_symmetry_Int_Tables_number   1
_chemical_formula_structural   Sn13(O5F3)2
_chemical_formula_sum   'Sn26 O20 F12'
_cell_volume   1241.35840177
_cell_formula_units_Z   2
loop_
 _symmetry_equiv_pos_site_id
 _symmetry_equiv_pos_as_xyz
  1  'x, y, z'
loop_
 _atom_site_type_symbol
 _atom_site_label
 _atom_site_symmetry_multiplicity
 _atom_site_fract_x
 _atom_site_fract_y
 _atom_site_fract_z
 _atom_site_occupancy
  Sn  Sn0  1  0.86931321  0.79577623  0.79371020  1
  Sn  Sn1  1  0.27344059  0.91822872  0.51403143  1
  Sn  Sn2  1  0.22859411  0.70082302  0.91703764  1
  Sn  Sn3  1  0.00644784  0.82969322  0.63469325  1
  Sn  Sn4  1  0.83961292  0.53663765  0.93730774  1
  Sn  Sn5  1  0.59261275  0.67175962  0.65462618  1
  Sn  Sn6  1  0.33491056  0.79577623  0.29371020  1
  Sn  Sn7  1  0.80833069  0.91822872  0.01403143  1
  Sn  Sn8  1  0.07058287  0.70082302  0.41703764  1
  Sn  Sn9  1  0.16385893  0.82969322  0.13469325  1
  Sn  Sn10  1  0.62374943  0.53663765  0.43730774  1
  Sn  Sn11  1  0.26437138  0.32824038  0.84537382  1
  Sn  Sn12  1  0.73562862  0.67175962  0.15462618  1
  Sn  Sn13  1  0.37625057  0.46336235  0.56269226  1
  Sn  Sn14  1  0.83614107  0.17030678  0.86530675  1
  Sn  Sn15  1  0.92941713  0.29917698  0.58296236  1
  Sn  Sn16  1  0.19166931  0.08177128  0.98596857  1
  Sn  Sn17  1  0.66508944  0.20422377  0.70628980  1
  Sn  Sn18  1  0.40738725  0.32824038  0.34537382  1
  Sn  Sn19  1  0.16038708  0.46336235  0.06269226  1
  Sn  Sn20  1  0.99355216  0.17030678  0.36530675  1
  Sn  Sn21  1  0.22164159  0.00000000  0.75000000  1
  Sn  Sn22  1  0.77140589  0.29917698  0.08296236  1
  Sn  Sn23  1  0.72655941  0.08177128  0.48596857  1
  Sn  Sn24  1  0.13068679  0.20422377  0.20628980  1
  Sn  Sn25  1  0.77835841  1.00000000  0.25000000  1
  O  O26  1  0.97802017  0.99284539  0.94150122  1
  O  O27  1  0.03748363  0.94659459  0.81613356  1
  O  O28  1  0.02913444  0.99284539  0.44150122  1
  O  O29  1  0.01592177  0.94659459  0.31613356  1
  O  O30  1  0.02882640  0.65254525  0.98248227  1
  O  O31  1  0.04867986  0.60617681  0.86123358  1
  O  O32  1  0.33287873  0.72325074  0.59803408  1
  O  O33  1  0.31862835  0.65254525  0.48248227  1
  O  O34  1  0.34514333  0.60617681  0.36123358  1
  O  O35  1  0.94387053  0.72325074  0.09803408  1
  O  O36  1  0.05612947  0.27674926  0.90196592  1
  O  O37  1  0.65485667  0.39382319  0.63876642  1
  O  O38  1  0.68137165  0.34745475  0.51751773  1
  O  O39  1  0.66712127  0.27674926  0.40196592  1
  O  O40  1  0.95132014  0.39382319  0.13876642  1
  O  O41  1  0.97117360  0.34745475  0.01751773  1
  O  O42  1  0.98407823  0.05340541  0.68386644  1
  O  O43  1  0.97086556  0.00715461  0.55849878  1
  O  O44  1  0.96251637  0.05340541  0.18386644  1
  O  O45  1  0.02197983  0.00715461  0.05849878  1
  F  F46  1  0.66392450  0.92634355  0.85857203  1
  F  F47  1  0.40973295  0.92634355  0.35857203  1
  F  F48  1  0.30242995  0.71272382  0.72395167  1
  F  F49  1  0.76799334  0.61729096  0.57098451  1
  F  F50  1  0.98484623  0.71272382  0.22395167  1
  F  F51  1  0.38528430  0.38270904  0.92901549  1
  F  F52  1  0.61471570  0.61729096  0.07098451  1
  F  F53  1  0.01515377  0.28727618  0.77604833  1
  F  F54  1  0.23200666  0.38270904  0.42901549  1
  F  F55  1  0.69757005  0.28727618  0.27604833  1
  F  F56  1  0.59026705  0.07365645  0.64142797  1
  F  F57  1  0.33607550  0.07365645  0.14142797  1
