# generated using pymatgen
data_LiFePO4
_symmetry_space_group_name_H-M   'P 1'
_cell_length_a   11.04879185
_cell_length_b   6.31651744
_cell_length_c   5.20311135
_cell_angle_alpha   90.00000000
_cell_angle_beta   90.00000000
_cell_angle_gamma   90.00000000
_symmetry_Int_Tables_number   1
_chemical_formula_structural   LiFePO4
_chemical_formula_sum   'Li4 Fe4 P4 O16'
_cell_volume   363.12455010
_cell_formula_units_Z   4
loop_
 _symmetry_equiv_pos_site_id
 _symmetry_equiv_pos_as_xyz
  1  'x, y, z'
loop_
 _atom_site_type_symbol
 _atom_site_label
 _atom_site_symmetry_multiplicity
 _atom_site_fract_x
 _atom_site_fract_y
 _atom_site_fract_z
 _atom_site_occupancy
  Li  Li0  1  0.16597512  0.51838421  0.24976682  1
  Li  Li1  1  0.33402488  0.01838421  0.74976682  1
  Li  Li2  1  0.66597512  0.98161579  0.24976682  1
  Li  Li3  1  0.83402488  0.48161579  0.74976682  1
  Fe  Fe4  1  0.08360116  0.78924100  0.74462777  1
  Fe  Fe5  1  0.41639884  0.28924100  0.24462777  1
  Fe  Fe6  1  0.58360116  0.71075900  0.74462777  1
  Fe  Fe7  1  0.91639884  0.21075900  0.24462777  1
  P  P8  1  0.17626049  0.01875759  0.24923375  1
  P  P9  1  0.32373951  0.51875759  0.74923375  1
  P  P10  1  0.67626049  0.48124241  0.24923375  1
  P  P11  1  0.82373951  0.98124241  0.74923375  1
  O  O12  1  0.09625313  0.21814837  0.19234800  1
  O  O13  1  0.11496886  0.81741719  0.13390707  1
  O  O14  1  0.19572185  0.54811035  0.63127802  1
  O  O15  1  0.18668021  0.99336655  0.54468957  1
  O  O16  1  0.31331979  0.49336655  0.04468957  1
  O  O17  1  0.30427815  0.04811035  0.13127802  1
  O  O18  1  0.38503114  0.31741719  0.63390707  1
  O  O19  1  0.40374687  0.71814837  0.69234800  1
  O  O20  1  0.59625313  0.28185163  0.19234800  1
  O  O21  1  0.61496886  0.68258281  0.13390707  1
  O  O22  1  0.69572185  0.95188965  0.63127802  1
  O  O23  1  0.68668021  0.50663345  0.54468957  1
  O  O24  1  0.81331979  0.00663345  0.04468957  1
  O  O25  1  0.80427815  0.45188965  0.13127802  1
  O  O26  1  0.88503114  0.18258281  0.63390707  1
  O  O27  1  0.90374687  0.78185163  0.69234800  1
