# generated using pymatgen
data_Li4Cu(PO3)6
_symmetry_space_group_name_H-M   'P 1'
_cell_length_a   7.65673170
_cell_length_b   7.25358981
_cell_length_c   7.49222905
_cell_angle_alpha   66.35207170
_cell_angle_beta   107.71133155
_cell_angle_gamma   80.70628313
_symmetry_Int_Tables_number   1
_chemical_formula_structural   Li4Cu(PO3)6
_chemical_formula_sum   'Li4 Cu1 P6 O18'
_cell_volume   343.40012744
_cell_formula_units_Z   1
loop_
 _symmetry_equiv_pos_site_id
 _symmetry_equiv_pos_as_xyz
  1  'x, y, z'
loop_
 _atom_site_type_symbol
 _atom_site_label
 _atom_site_symmetry_multiplicity
 _atom_site_fract_x
 _atom_site_fract_y
 _atom_site_fract_z
 _atom_site_occupancy
  Li  Li0  1  0.11282495  0.21590817  0.93704611  1
  Li  Li1  1  0.16093253  0.62826759  0.55435101  1
  Li  Li2  1  0.47184338  0.48719410  0.00169444  1
  Li  Li3  1  0.84952725  0.36379737  0.45698397  1
  Cu  Cu4  1  0.86732096  0.79569914  0.05679013  1
  P  P5  1  0.22050361  0.98693511  0.68495045  1
  P  P6  1  0.21729021  0.34029744  0.31366600  1
  P  P7  1  0.50227774  0.20732808  0.73713537  1
  P  P8  1  0.50106098  0.77494242  0.27706412  1
  P  P9  1  0.79315232  0.67294479  0.68066170  1
  P  P10  1  0.76465280  0.02165694  0.29911100  1
  O  O11  1  0.06817673  0.11146551  0.71717829  1
  O  O12  1  0.06530683  0.51025458  0.30877147  1
  O  O13  1  0.18839829  0.11398825  0.43507701  1
  O  O14  1  0.25212895  0.75788812  0.74382053  1
  O  O15  1  0.40202595  0.37071004  0.77923371  1
  O  O16  1  0.42886383  0.00356417  0.79985557  1
  O  O17  1  0.23454567  0.36145281  0.11450277  1
  O  O18  1  0.28724012  0.83732609  0.18650395  1
  O  O19  1  0.43012498  0.30672619  0.47996215  1
  O  O20  1  0.57805622  0.69559818  0.53480873  1
  O  O21  1  0.72091003  0.11202103  0.83840742  1
  O  O22  1  0.78799849  0.66096196  0.88414755  1
  O  O23  1  0.55965457  0.99425982  0.19995232  1
  O  O24  1  0.62470505  0.62087611  0.24122765  1
  O  O25  1  0.73813170  0.25093802  0.23093521  1
  O  O26  1  0.81259093  0.90278570  0.55094224  1
  O  O27  1  0.93837808  0.50272073  0.68546573  1
  O  O28  1  0.92137687  0.89149151  0.26975340  1
