# generated using pymatgen
data_Li2Cr4Si4O13
_symmetry_space_group_name_H-M   'P 1'
_cell_length_a   10.34148923
_cell_length_b   7.87320959
_cell_length_c   6.93987594
_cell_angle_alpha   80.20031419
_cell_angle_beta   91.71898408
_cell_angle_gamma   108.07467422
_symmetry_Int_Tables_number   1
_chemical_formula_structural   Li2Cr4Si4O13
_chemical_formula_sum   'Li4 Cr8 Si8 O26'
_cell_volume   529.17130274
_cell_formula_units_Z   2
loop_
 _symmetry_equiv_pos_site_id
 _symmetry_equiv_pos_as_xyz
  1  'x, y, z'
loop_
 _atom_site_type_symbol
 _atom_site_label
 _atom_site_symmetry_multiplicity
 _atom_site_fract_x
 _atom_site_fract_y
 _atom_site_fract_z
 _atom_site_occupancy
  Li  Li0  1  0.11142880  0.59802378  0.22118995  1
  Li  Li1  1  0.41217226  0.41004413  0.75248090  1
  Li  Li2  1  0.58782774  0.58995587  0.24751910  1
  Li  Li3  1  0.88857120  0.40197622  0.77881005  1
  Cr  Cr4  1  0.99735337  0.81342769  0.91763710  1
  Cr  Cr5  1  0.00712584  0.81146259  0.43343882  1
  Cr  Cr6  1  0.37979957  0.78863432  0.42830478  1
  Cr  Cr7  1  0.37639804  0.78490583  0.93130128  1
  Cr  Cr8  1  0.62360196  0.21509417  0.06869872  1
  Cr  Cr9  1  0.62020043  0.21136568  0.57169522  1
  Cr  Cr10  1  0.99287416  0.18853741  0.56656118  1
  Cr  Cr11  1  0.00264663  0.18657231  0.08236290  1
  Si  Si12  1  0.16695524  0.57466922  0.72318914  1
  Si  Si13  1  0.29756350  0.39202942  0.28062464  1
  Si  Si14  1  0.27695612  0.09152530  0.62342108  1
  Si  Si15  1  0.28123402  0.08409645  0.07221999  1
  Si  Si16  1  0.71876598  0.91590355  0.92778001  1
  Si  Si17  1  0.72304388  0.90847470  0.37657892  1
  Si  Si18  1  0.70243650  0.60797058  0.71937536  1
  Si  Si19  1  0.83304476  0.42533078  0.27681086  1
  O  O20  1  0.11774768  0.00254234  0.11445033  1
  O  O21  1  0.07381169  0.36151813  0.76950415  1
  O  O22  1  0.14132908  0.66768613  0.50003656  1
  O  O23  1  0.14555113  0.68170704  0.90327288  1
  O  O24  1  0.13556343  0.35663553  0.25802107  1
  O  O25  1  0.11406487  0.01052731  0.59808871  1
  O  O26  1  0.36955013  0.94604891  0.14436793  1
  O  O27  1  0.37452130  0.97182499  0.60045067  1
  O  O28  1  0.33653873  0.60887320  0.72660241  1
  O  O29  1  0.39058731  0.60525365  0.23721597  1
  O  O30  1  0.30984964  0.14978859  0.83842874  1
  O  O31  1  0.33692518  0.30278367  0.49949335  1
  O  O32  1  0.35573773  0.28344656  0.13670493  1
  O  O33  1  0.64426227  0.71655344  0.86329507  1
  O  O34  1  0.66307482  0.69721633  0.50050665  1
  O  O35  1  0.69015036  0.85021141  0.16157126  1
  O  O36  1  0.60941269  0.39474635  0.76278403  1
  O  O37  1  0.66346127  0.39112680  0.27339759  1
  O  O38  1  0.62547870  0.02817501  0.39954933  1
  O  O39  1  0.63044987  0.05395109  0.85563207  1
  O  O40  1  0.88593513  0.98947269  0.40191129  1
  O  O41  1  0.86443657  0.64336447  0.74197893  1
  O  O42  1  0.85444887  0.31829296  0.09672712  1
  O  O43  1  0.85867092  0.33231387  0.49996344  1
  O  O44  1  0.92618831  0.63848187  0.23049585  1
  O  O45  1  0.88225232  0.99745766  0.88554967  1
