# generated using pymatgen
data_Na4TiO4
_symmetry_space_group_name_H-M   'P 1'
_cell_length_a   6.18900495
_cell_length_b   6.18900495
_cell_length_c   6.79332911
_cell_angle_alpha   90.00000000
_cell_angle_beta   90.00000000
_cell_angle_gamma   90.86480463
_symmetry_Int_Tables_number   1
_chemical_formula_structural   Na4TiO4
_chemical_formula_sum   'Na8 Ti2 O8'
_cell_volume   260.18055932
_cell_formula_units_Z   2
loop_
 _symmetry_equiv_pos_site_id
 _symmetry_equiv_pos_as_xyz
  1  'x, y, z'
loop_
 _atom_site_type_symbol
 _atom_site_label
 _atom_site_symmetry_multiplicity
 _atom_site_fract_x
 _atom_site_fract_y
 _atom_site_fract_z
 _atom_site_occupancy
  Na  Na0  1  0.16360014  0.83639986  0.50000000  1
  Na  Na1  1  0.16360014  0.83639986  0.00000000  1
  Na  Na2  1  0.55998289  0.86552004  0.25000000  1
  Na  Na3  1  0.13447996  0.44001711  0.75000000  1
  Na  Na4  1  0.44001711  0.13447996  0.75000000  1
  Na  Na5  1  0.86552004  0.55998289  0.25000000  1
  Na  Na6  1  0.83639986  0.16360014  0.00000000  1
  Na  Na7  1  0.83639986  0.16360014  0.50000000  1
  Ti  Ti8  1  0.66917324  0.66917324  0.75000000  1
  Ti  Ti9  1  0.33082676  0.33082676  0.25000000  1
  O  O10  1  0.26474100  0.62015098  0.25000000  1
  O  O11  1  0.37984902  0.73525900  0.75000000  1
  O  O12  1  0.79195970  0.79195970  0.97418246  1
  O  O13  1  0.20804030  0.20804030  0.47418246  1
  O  O14  1  0.20804030  0.20804030  0.02581754  1
  O  O15  1  0.79195970  0.79195970  0.52581754  1
  O  O16  1  0.73525900  0.37984902  0.75000000  1
  O  O17  1  0.62015098  0.26474100  0.25000000  1
