# generated using pymatgen
data_Li3V3P8O29
_symmetry_space_group_name_H-M   'P 1'
_cell_length_a   9.76247528
_cell_length_b   9.74966817
_cell_length_c   14.42393116
_cell_angle_alpha   90.61533399
_cell_angle_beta   90.89579644
_cell_angle_gamma   60.23578255
_symmetry_Int_Tables_number   1
_chemical_formula_structural   Li3V3P8O29
_chemical_formula_sum   'Li6 V6 P16 O58'
_cell_volume   1191.61335441
_cell_formula_units_Z   2
loop_
 _symmetry_equiv_pos_site_id
 _symmetry_equiv_pos_as_xyz
  1  'x, y, z'
loop_
 _atom_site_type_symbol
 _atom_site_label
 _atom_site_symmetry_multiplicity
 _atom_site_fract_x
 _atom_site_fract_y
 _atom_site_fract_z
 _atom_site_occupancy
  Li  Li0  1  0.91944878  0.30562408  0.55964646  1
  Li  Li1  1  0.32024098  0.91412172  0.06222403  1
  Li  Li2  1  0.68697083  0.22146131  0.44128584  1
  Li  Li3  1  0.28742946  0.78336365  0.55172561  1
  Li  Li4  1  0.22539277  0.67816400  0.95054658  1
  Li  Li5  1  0.91393666  0.08156913  0.01376724  1
  V  V6  1  0.57185113  0.43525564  0.24397816  1
  V  V7  1  0.43467156  0.56395074  0.75083310  1
  V  V8  1  0.56844321  0.99919533  0.75208333  1
  V  V9  1  0.43768507  0.00099708  0.25132994  1
  V  V10  1  0.99587302  0.56638693  0.24748405  1
  V  V11  1  0.00730160  0.43559305  0.75337143  1
  P  P12  1  0.91992507  0.77955214  0.83625667  1
  P  P13  1  0.77882595  0.91031860  0.33879729  1
  P  P14  1  0.91361846  0.31588499  0.34331991  1
  P  P15  1  0.66274410  0.67023639  0.13007412  1
  P  P16  1  0.66572545  0.66529815  0.63480546  1
  P  P17  1  0.77948229  0.30990913  0.83641467  1
  P  P18  1  0.68012900  0.22744808  0.65872234  1
  P  P19  1  0.31759016  0.91206241  0.84576183  1
  P  P20  1  0.69468769  0.07974267  0.15838244  1
  P  P21  1  0.32402541  0.76995565  0.33887801  1
  P  P22  1  0.22544009  0.68343959  0.16247084  1
  P  P23  1  0.33620764  0.33777016  0.36495620  1
  P  P24  1  0.33750780  0.33340722  0.86706167  1
  P  P25  1  0.08547860  0.68685711  0.65416986  1
  P  P26  1  0.22582850  0.08529667  0.66653278  1
  P  P27  1  0.08213956  0.21822213  0.16303855  1
  O  O28  1  0.01083291  0.76082479  0.56580457  1
  O  O29  1  0.91859264  0.73869298  0.33211604  1
  O  O30  1  0.78850652  0.01172419  0.07394136  1
  O  O31  1  0.74602254  0.91452848  0.83226991  1
  O  O32  1  0.92089307  0.61850717  0.82562016  1
  O  O33  1  0.80932152  0.67180620  0.17560508  1
  O  O34  1  0.90412221  0.47586596  0.32027070  1
  O  O35  1  0.99964263  0.19127477  0.08408829  1
  O  O36  1  0.91308423  0.35151133  0.82782250  1
  O  O37  1  0.65980922  0.81545343  0.68037743  1
  O  O38  1  0.62349051  0.90321847  0.31998391  1
  O  O39  1  0.81944927  0.51801795  0.67130435  1
  O  O40  1  0.65805908  0.66576344  0.02748747  1
  O  O41  1  0.64520244  0.66985682  0.53274386  1
  O  O42  1  0.66930220  0.51645198  0.17441565  1
  O  O43  1  0.47456955  0.91081814  0.82758124  1
  O  O44  1  0.50937005  0.81448824  0.17025579  1
  O  O45  1  0.74484032  0.33604435  0.33382719  1
  O  O46  1  0.79825835  0.21081599  0.74185858  1
  O  O47  1  0.74946372  0.24053489  0.56966243  1
  O  O48  1  0.79550973  0.21372890  0.91785497  1
  O  O49  1  0.61714387  0.46436910  0.82676978  1
  O  O50  1  0.52156479  0.65892316  0.68220491  1
  O  O51  1  0.65158689  0.25645832  0.17229012  1
  O  O52  1  0.48296533  0.61948343  0.31735188  1
  O  O53  1  0.34589487  0.91653611  0.32824031  1
  O  O54  1  0.80061891  0.99418981  0.24876826  1
  O  O55  1  0.77192019  0.00128866  0.42277126  1
  O  O56  1  0.22787630  0.99052620  0.58522156  1
  O  O57  1  0.65767967  0.08228651  0.66724265  1
  O  O58  1  0.51963637  0.37867077  0.67953367  1
  O  O59  1  0.34156328  0.74126073  0.83461743  1
  O  O60  1  0.48367406  0.34282324  0.32908092  1
  O  O61  1  0.38211737  0.52427759  0.17504431  1
  O  O62  1  0.22859215  0.76655502  0.07601434  1
  O  O63  1  0.25425136  0.76407943  0.42759564  1
  O  O64  1  0.20707799  0.78906547  0.25260102  1
  O  O65  1  0.25843129  0.65971543  0.66503650  1
  O  O66  1  0.48506223  0.18727001  0.82479531  1
  O  O67  1  0.54094378  0.07223922  0.16820077  1
  O  O68  1  0.32694047  0.48828234  0.82499268  1
  O  O69  1  0.32969842  0.34510551  0.96947438  1
  O  O70  1  0.33344950  0.32998410  0.46719140  1
  O  O71  1  0.18430815  0.47391493  0.31695376  1
  O  O72  1  0.37991627  0.09293434  0.68163078  1
  O  O73  1  0.34849395  0.18310543  0.31657256  1
  O  O74  1  0.08379538  0.65486921  0.16523861  1
  O  O75  1  0.99586177  0.79857145  0.74256304  1
  O  O76  1  0.00903295  0.78775037  0.91828660  1
  O  O77  1  0.09378193  0.52608779  0.67821806  1
  O  O78  1  0.19038716  0.32777842  0.82174673  1
  O  O79  1  0.07168107  0.38240744  0.16983809  1
  O  O80  1  0.25973764  0.08518722  0.16455754  1
  O  O81  1  0.24596940  0.97713738  0.93730646  1
  O  O82  1  0.20147596  0.01182373  0.76179815  1
  O  O83  1  0.08186371  0.25615412  0.66436163  1
  O  O84  1  0.98279326  0.25147786  0.43573536  1
  O  O85  1  0.01439372  0.19726394  0.26123560  1
