# generated using pymatgen
data_Li3V3P8O29
_symmetry_space_group_name_H-M   'P 1'
_cell_length_a   9.75071833
_cell_length_b   9.73966132
_cell_length_c   14.40838412
_cell_angle_alpha   91.01957822
_cell_angle_beta   90.43592284
_cell_angle_gamma   60.40616773
_symmetry_Int_Tables_number   1
_chemical_formula_structural   Li3V3P8O29
_chemical_formula_sum   'Li6 V6 P16 O58'
_cell_volume   1189.65268028
_cell_formula_units_Z   2
loop_
 _symmetry_equiv_pos_site_id
 _symmetry_equiv_pos_as_xyz
  1  'x, y, z'
loop_
 _atom_site_type_symbol
 _atom_site_label
 _atom_site_symmetry_multiplicity
 _atom_site_fract_x
 _atom_site_fract_y
 _atom_site_fract_z
 _atom_site_occupancy
  Li  Li0  1  0.91911572  0.30035235  0.55665864  1
  Li  Li1  1  0.32106455  0.91287996  0.06095309  1
  Li  Li2  1  0.30658169  0.77749822  0.54997268  1
  Li  Li3  1  0.22439668  0.67960722  0.94824839  1
  Li  Li4  1  0.07870338  0.69647391  0.43577066  1
  Li  Li5  1  0.91497992  0.07661455  0.01398409  1
  V  V6  1  0.57297733  0.42961325  0.24844699  1
  V  V7  1  0.43890296  0.56010077  0.75158569  1
  V  V8  1  0.56852263  0.99979848  0.75001184  1
  V  V9  1  0.43818266  0.00140392  0.25395694  1
  V  V10  1  0.99219397  0.56680679  0.24076402  1
  V  V11  1  0.00703789  0.43229909  0.75500486  1
  P  P12  1  0.91743840  0.78135792  0.83339928  1
  P  P13  1  0.77689064  0.91358512  0.34243031  1
  P  P14  1  0.91287057  0.31831421  0.34168528  1
  P  P15  1  0.65874595  0.66824808  0.13127370  1
  P  P16  1  0.66948485  0.66252557  0.63488342  1
  P  P17  1  0.77733450  0.30804520  0.84025543  1
  P  P18  1  0.68698845  0.22340550  0.65968477  1
  P  P19  1  0.31768338  0.91206971  0.84503623  1
  P  P20  1  0.69670182  0.07877947  0.16093023  1
  P  P21  1  0.32109554  0.77139923  0.33809808  1
  P  P22  1  0.23040583  0.68144737  0.15995349  1
  P  P23  1  0.32842692  0.34448168  0.36442921  1
  P  P24  1  0.33578411  0.33431161  0.86757634  1
  P  P25  1  0.09391345  0.67587783  0.65459405  1
  P  P26  1  0.22645023  0.08322816  0.66610180  1
  P  P27  1  0.08667187  0.21412290  0.16230489  1
  O  O28  1  0.02616613  0.73701906  0.56227186  1
  O  O29  1  0.91845957  0.74058633  0.33225825  1
  O  O30  1  0.79293024  0.00381804  0.07696069  1
  O  O31  1  0.74463743  0.91676599  0.83145411  1
  O  O32  1  0.91953199  0.61924950  0.82555068  1
  O  O33  1  0.80891732  0.67249133  0.17332212  1
  O  O34  1  0.90294980  0.47804123  0.31624235  1
  O  O35  1  0.00505746  0.18847174  0.08250109  1
  O  O36  1  0.91150863  0.34936121  0.82795736  1
  O  O37  1  0.66262928  0.81464401  0.67928147  1
  O  O38  1  0.62093339  0.90666033  0.32152397  1
  O  O39  1  0.82261154  0.51773177  0.67180005  1
  O  O40  1  0.65419410  0.66867997  0.02846460  1
  O  O41  1  0.65037680  0.66643225  0.53260603  1
  O  O42  1  0.66832571  0.51763640  0.17623341  1
  O  O43  1  0.47416630  0.91171164  0.82612694  1
  O  O44  1  0.50808988  0.81479937  0.17367156  1
  O  O45  1  0.74487320  0.34007487  0.32947534  1
  O  O46  1  0.79443912  0.20170627  0.75016502  1
  O  O47  1  0.76733909  0.23447863  0.57638168  1
  O  O48  1  0.79211552  0.21991928  0.92482461  1
  O  O49  1  0.61687762  0.46389542  0.82854968  1
  O  O50  1  0.52436682  0.65736212  0.68241124  1
  O  O51  1  0.65475836  0.25539385  0.17041258  1
  O  O52  1  0.48014003  0.62051708  0.32172664  1
  O  O53  1  0.34296240  0.91822544  0.33349549  1
  O  O54  1  0.79785519  0.99863503  0.25278043  1
  O  O55  1  0.77659416  0.99190999  0.43039770  1
  O  O56  1  0.22909861  0.98796849  0.58406897  1
  O  O57  1  0.65671181  0.08202391  0.66578452  1
  O  O58  1  0.52486564  0.37674030  0.68034010  1
  O  O59  1  0.34265702  0.74065942  0.83451481  1
  O  O60  1  0.47358246  0.34811365  0.32075160  1
  O  O61  1  0.38614977  0.52639851  0.17179839  1
  O  O62  1  0.22706229  0.76802235  0.07375252  1
  O  O63  1  0.23990882  0.76597074  0.42482962  1
  O  O64  1  0.20836683  0.79110654  0.25033009  1
  O  O65  1  0.26184553  0.65801267  0.66504160  1
  O  O66  1  0.48300364  0.18832550  0.82437403  1
  O  O67  1  0.54126814  0.07285151  0.17168808  1
  O  O68  1  0.32573134  0.48876863  0.82542659  1
  O  O69  1  0.32664938  0.34785657  0.97019985  1
  O  O70  1  0.32554084  0.34834617  0.46711434  1
  O  O71  1  0.17717422  0.48516121  0.32094461  1
  O  O72  1  0.38058348  0.09118095  0.68030266  1
  O  O73  1  0.34135417  0.18758103  0.31930863  1
  O  O74  1  0.08785957  0.65225748  0.16447331  1
  O  O75  1  0.98983937  0.79778073  0.73601203  1
  O  O76  1  0.00964391  0.79191058  0.91295964  1
  O  O77  1  0.10134935  0.51778060  0.67975665  1
  O  O78  1  0.18797921  0.32824576  0.82349141  1
  O  O79  1  0.07770186  0.37930383  0.16874367  1
  O  O80  1  0.26311303  0.08201298  0.16494522  1
  O  O81  1  0.24480912  0.97906881  0.93689497  1
  O  O82  1  0.20205984  0.00948547  0.76115597  1
  O  O83  1  0.08250805  0.25358979  0.66479279  1
  O  O84  1  0.98420833  0.25803439  0.43326705  1
  O  O85  1  0.01609336  0.19695623  0.25998791  1
