# generated using pymatgen
data_Li3V3P8O29
_symmetry_space_group_name_H-M   'P 1'
_cell_length_a   9.76891028
_cell_length_b   9.75860060
_cell_length_c   14.21974031
_cell_angle_alpha   90.00537445
_cell_angle_beta   90.37468131
_cell_angle_gamma   60.05061535
_symmetry_Int_Tables_number   1
_chemical_formula_structural   Li3V3P8O29
_chemical_formula_sum   'Li6 V6 P16 O58'
_cell_volume   1174.53252082
_cell_formula_units_Z   2
loop_
 _symmetry_equiv_pos_site_id
 _symmetry_equiv_pos_as_xyz
  1  'x, y, z'
loop_
 _atom_site_type_symbol
 _atom_site_label
 _atom_site_symmetry_multiplicity
 _atom_site_fract_x
 _atom_site_fract_y
 _atom_site_fract_z
 _atom_site_occupancy
  Li  Li0  1  0.76636575  0.32818239  0.05809005  1
  Li  Li1  1  0.32734620  0.90629739  0.05999372  1
  Li  Li2  1  0.32771296  0.76960035  0.55802284  1
  Li  Li3  1  0.33337600  0.32690845  0.60407115  1
  Li  Li4  1  0.98473585  0.95991445  0.00216035  1
  Li  Li5  1  0.94876871  0.03599578  0.50060582  1
  V  V6  1  0.56560207  0.43475412  0.25441284  1
  V  V7  1  0.43186138  0.56639917  0.75370611  1
  V  V8  1  0.57241710  0.99634161  0.75178502  1
  V  V9  1  0.44064467  0.00287214  0.25211929  1
  V  V10  1  0.99652385  0.56458756  0.24867832  1
  V  V11  1  0.99925176  0.43554106  0.74891678  1
  P  P12  1  0.92284075  0.77532505  0.84078316  1
  P  P13  1  0.78243427  0.91471840  0.34181770  1
  P  P14  1  0.91996252  0.30408368  0.34496448  1
  P  P15  1  0.66327477  0.66488953  0.13168505  1
  P  P16  1  0.66202798  0.66871022  0.63143723  1
  P  P17  1  0.77579900  0.31158370  0.84085311  1
  P  P18  1  0.68995699  0.22072175  0.65922629  1
  P  P19  1  0.31213038  0.91686889  0.84390567  1
  P  P20  1  0.69534587  0.08561067  0.15705497  1
  P  P21  1  0.31553266  0.77547218  0.34283306  1
  P  P22  1  0.22197070  0.69129460  0.16286234  1
  P  P23  1  0.33088922  0.33673666  0.36771813  1
  P  P24  1  0.33400749  0.32965281  0.86811802  1
  P  P25  1  0.08717232  0.69311769  0.65508258  1
  P  P26  1  0.22114207  0.08912991  0.66147219  1
  P  P27  1  0.08421870  0.22189069  0.15975121  1
  O  O28  1  0.01046407  0.78984232  0.57066367  1
  O  O29  1  0.91248917  0.73952593  0.32970286  1
  O  O30  1  0.78804186  0.01125626  0.07153899  1
  O  O31  1  0.74630872  0.91044870  0.83010987  1
  O  O32  1  0.92765661  0.61534245  0.82725878  1
  O  O33  1  0.81042907  0.66393216  0.17889211  1
  O  O34  1  0.92377935  0.46018712  0.33034337  1
  O  O35  1  0.99414902  0.21294176  0.07736202  1
  O  O36  1  0.91349409  0.34638119  0.82847001  1
  O  O37  1  0.65410269  0.81859477  0.67860847  1
  O  O38  1  0.61934889  0.91979022  0.32682559  1
  O  O39  1  0.81426569  0.52892675  0.67784942  1
  O  O40  1  0.66341532  0.65978677  0.02713050  1
  O  O41  1  0.65553206  0.67430459  0.52748527  1
  O  O42  1  0.66872702  0.51234014  0.17321762  1
  O  O43  1  0.46761088  0.91710043  0.82663841  1
  O  O44  1  0.51349052  0.81495454  0.17170092  1
  O  O45  1  0.74311846  0.34717113  0.32935323  1
  O  O46  1  0.79063431  0.19919602  0.75544536  1
  O  O47  1  0.78717121  0.20492602  0.57675452  1
  O  O48  1  0.78039136  0.23846501  0.93314777  1
  O  O49  1  0.61822382  0.46901645  0.82249875  1
  O  O50  1  0.51609872  0.66213524  0.67243894  1
  O  O51  1  0.65221929  0.26235612  0.16465302  1
  O  O52  1  0.47352208  0.61814902  0.32558721  1
  O  O53  1  0.34986660  0.91310411  0.32742094  1
  O  O54  1  0.79875314  0.00274591  0.25021799  1
  O  O55  1  0.79374303  0.99207740  0.42804681  1
  O  O56  1  0.21212337  0.99421063  0.58252506  1
  O  O57  1  0.65179168  0.08325761  0.66713859  1
  O  O58  1  0.52775552  0.37573347  0.66893006  1
  O  O59  1  0.34516218  0.74365682  0.82844957  1
  O  O60  1  0.47905512  0.33758087  0.32519493  1
  O  O61  1  0.38313776  0.53726565  0.17375598  1
  O  O62  1  0.20874181  0.79437398  0.08173109  1
  O  O63  1  0.24487471  0.77974561  0.43527604  1
  O  O64  1  0.19833638  0.79111581  0.25929583  1
  O  O65  1  0.26504737  0.65315355  0.66219257  1
  O  O66  1  0.47873455  0.18321262  0.82223250  1
  O  O67  1  0.54027940  0.07820147  0.17119798  1
  O  O68  1  0.33816920  0.47659721  0.82124190  1
  O  O69  1  0.33488751  0.33250384  0.97183923  1
  O  O70  1  0.33462928  0.33334692  0.47229936  1
  O  O71  1  0.18428551  0.48041414  0.32376129  1
  O  O72  1  0.37479903  0.09885850  0.66882749  1
  O  O73  1  0.33663839  0.18570121  0.32269375  1
  O  O74  1  0.08789174  0.65055558  0.16684597  1
  O  O75  1  0.00877138  0.79311538  0.74946894  1
  O  O76  1  0.99698746  0.79453420  0.92674997  1
  O  O77  1  0.09478216  0.52993169  0.66714743  1
  O  O78  1  0.18573739  0.33539924  0.82014010  1
  O  O79  1  0.07839695  0.38320851  0.17200862  1
  O  O80  1  0.26018105  0.08692672  0.16117423  1
  O  O81  1  0.23703947  0.97900755  0.93632862  1
  O  O82  1  0.19692782  0.01707140  0.75940292  1
  O  O83  1  0.08241332  0.26402184  0.66397863  1
  O  O84  1  0.98835548  0.21181966  0.43185532  1
  O  O85  1  0.00981798  0.19658589  0.25467813  1
