# generated using pymatgen
data_Ba4Li4Ti19O44
_symmetry_space_group_name_H-M   'P 1'
_cell_length_a   5.88236288
_cell_length_b   10.06909304
_cell_length_c   14.17872696
_cell_angle_alpha   89.71125888
_cell_angle_beta   90.33547467
_cell_angle_gamma   90.21424110
_symmetry_Int_Tables_number   1
_chemical_formula_structural   Ba4Li4Ti19O44
_chemical_formula_sum   'Ba4 Li4 Ti19 O44'
_cell_volume   839.77599866
_cell_formula_units_Z   1
loop_
 _symmetry_equiv_pos_site_id
 _symmetry_equiv_pos_as_xyz
  1  'x, y, z'
loop_
 _atom_site_type_symbol
 _atom_site_label
 _atom_site_symmetry_multiplicity
 _atom_site_fract_x
 _atom_site_fract_y
 _atom_site_fract_z
 _atom_site_occupancy
  Ba  Ba0  1  0.24344040  0.39396634  0.90566358  1
  Ba  Ba1  1  0.24819310  0.08867590  0.41081227  1
  Ba  Ba2  1  0.74474987  0.90695668  0.59139263  1
  Ba  Ba3  1  0.75283630  0.60484151  0.10133965  1
  Li  Li4  1  0.02533595  0.49968833  0.47898969  1
  Li  Li5  1  0.25728564  0.39571277  0.34723363  1
  Li  Li6  1  0.70612493  0.58505329  0.55601588  1
  Li  Li7  1  0.75055669  0.92634391  0.03758692  1
  Ti  Ti8  1  0.24021491  0.61250722  0.66739645  1
  Ti  Ti9  1  0.23434858  0.75660502  0.48832785  1
  Ti  Ti10  1  0.23722453  0.42525696  0.15596970  1
  Ti  Ti11  1  0.24403392  0.06252000  0.66920369  1
  Ti  Ti12  1  0.25058267  0.74076308  0.00285416  1
  Ti  Ti13  1  0.25349949  0.88527987  0.17605418  1
  Ti  Ti14  1  0.49421352  0.65711763  0.33174948  1
  Ti  Ti15  1  0.49183318  0.83634885  0.82896332  1
  Ti  Ti16  1  0.49428855  0.33536623  0.66455628  1
  Ti  Ti17  1  0.50413446  0.15448534  0.17670760  1
  Ti  Ti18  1  0.73533872  0.23333908  0.48520852  1
  Ti  Ti19  1  0.73811069  0.26827196  0.99924567  1
  Ti  Ti20  1  0.74598614  0.56633128  0.83021534  1
  Ti  Ti21  1  0.74785000  0.11381131  0.83475948  1
  Ti  Ti22  1  0.76232632  0.40862967  0.32419300  1
  Ti  Ti23  1  0.77056114  0.90361773  0.33551398  1
  Ti  Ti24  1  0.99410889  0.32810351  0.66711655  1
  Ti  Ti25  1  0.99450720  0.83619696  0.83145616  1
  Ti  Ti26  1  0.00237011  0.15536412  0.17138217  1
  O  O27  1  0.99827280  0.99296719  0.25108327  1
  O  O28  1  0.99942925  0.84897406  0.42389912  1
  O  O29  1  0.00596442  0.47045164  0.24188031  1
  O  O30  1  0.01260503  0.32168404  0.08391947  1
  O  O31  1  0.01799407  0.66965442  0.57896059  1
  O  O32  1  0.03361980  0.82029635  0.08271962  1
  O  O33  1  0.23790882  0.75975039  0.75315291  1
  O  O34  1  0.24894520  0.25107194  0.73632161  1
  O  O35  1  0.23964898  0.43133758  0.60462358  1
  O  O36  1  0.24612854  0.89125159  0.90964028  1
  O  O37  1  0.24525229  0.56442491  0.06789957  1
  O  O38  1  0.24994924  0.93863258  0.57739775  1
  O  O39  1  0.25386773  0.24997800  0.23865841  1
  O  O40  1  0.25092508  0.07276296  0.10922038  1
  O  O41  1  0.25816295  0.60337664  0.41761004  1
  O  O42  1  0.27715348  0.74437006  0.25006052  1
  O  O43  1  0.45286448  0.68761568  0.59053334  1
  O  O44  1  0.46897026  0.82131663  0.08011110  1
  O  O45  1  0.49136407  0.49259098  0.25148767  1
  O  O46  1  0.49157269  0.00145375  0.74877753  1
  O  O47  1  0.49251227  0.18009995  0.58717441  1
  O  O48  1  0.49864522  0.50374668  0.74971198  1
  O  O49  1  0.49886587  0.67703309  0.90929825  1
  O  O50  1  0.49939368  0.32767987  0.08700660  1
  O  O51  1  0.50307611  0.99661274  0.25124685  1
  O  O52  1  0.50245182  0.82372201  0.41710864  1
  O  O53  1  0.52897427  0.31081563  0.40641790  1
  O  O54  1  0.53366045  0.18614383  0.91419770  1
  O  O55  1  0.73236702  0.55781131  0.40068474  1
  O  O56  1  0.73523106  0.75516058  0.26776087  1
  O  O57  1  0.74869988  0.39836252  0.58544176  1
  O  O58  1  0.74060473  0.06849809  0.43200037  1
  O  O59  1  0.74428506  0.92976226  0.89553193  1
  O  O60  1  0.74320552  0.74920866  0.76205507  1
  O  O61  1  0.74332787  0.26042586  0.74384359  1
  O  O62  1  0.74695686  0.43880508  0.92969392  1
  O  O63  1  0.74989042  0.10659125  0.08718477  1
  O  O64  1  0.75520713  0.23621468  0.24458687  1
  O  O65  1  0.95636324  0.18520320  0.91370439  1
  O  O66  1  0.97157351  0.32520453  0.41451755  1
  O  O67  1  0.98596691  0.50357970  0.75251488  1
  O  O68  1  0.98638080  0.67808501  0.91065324  1
  O  O69  1  0.99759472  0.00238115  0.74867620  1
  O  O70  1  0.00243951  0.17642539  0.59003161  1
