# generated using pymatgen
data_Lu2TcAu
_symmetry_space_group_name_H-M   'P 1'
_cell_length_a   4.85694238
_cell_length_b   4.85702329
_cell_length_c   4.85700355
_cell_angle_alpha   59.99920846
_cell_angle_beta   60.00124862
_cell_angle_gamma   59.99913203
_symmetry_Int_Tables_number   1
_chemical_formula_structural   Lu2TcAu
_chemical_formula_sum   'Lu2 Tc1 Au1'
_cell_volume   81.01868893
_cell_formula_units_Z   1
loop_
 _symmetry_equiv_pos_site_id
 _symmetry_equiv_pos_as_xyz
  1  'x, y, z'
loop_
 _atom_site_type_symbol
 _atom_site_label
 _atom_site_symmetry_multiplicity
 _atom_site_fract_x
 _atom_site_fract_y
 _atom_site_fract_z
 _atom_site_occupancy
  Lu  Lu0  1  0.00000024  -0.00000034  0.00000027  1
  Lu  Lu1  1  0.49999138  0.49999744  0.49999493  1
  Tc  Tc2  1  0.75000528  0.74999876  0.75000360  1
  Au  Au3  1  0.25000310  0.25000414  0.25000120  1
