# generated using pymatgen
data_LiCoPO4
_symmetry_space_group_name_H-M   'P 1'
_cell_length_a   5.15950207
_cell_length_b   7.74646201
_cell_length_c   8.68032483
_cell_angle_alpha   91.17648968
_cell_angle_beta   91.91454550
_cell_angle_gamma   78.80438986
_symmetry_Int_Tables_number   1
_chemical_formula_structural   LiCoPO4
_chemical_formula_sum   'Li4 Co4 P4 O16'
_cell_volume   340.10720210
_cell_formula_units_Z   4
loop_
 _symmetry_equiv_pos_site_id
 _symmetry_equiv_pos_as_xyz
  1  'x, y, z'
loop_
 _atom_site_type_symbol
 _atom_site_label
 _atom_site_symmetry_multiplicity
 _atom_site_fract_x
 _atom_site_fract_y
 _atom_site_fract_z
 _atom_site_occupancy
  Li  Li0  1  0.13009526  0.96188562  0.34190208  1
  Li  Li1  1  0.19335843  0.46053815  0.21779590  1
  Li  Li2  1  0.80664157  0.53946185  0.78220410  1
  Li  Li3  1  0.86990474  0.03811438  0.65809792  1
  Co  Co4  1  0.25748290  0.18912519  0.90588282  1
  Co  Co5  1  0.31163660  0.67820715  0.56700915  1
  Co  Co6  1  0.68836340  0.32179285  0.43299085  1
  Co  Co7  1  0.74251710  0.81087481  0.09411718  1
  P  P8  1  0.23900330  0.28165511  0.56700506  1
  P  P9  1  0.23133677  0.77909168  0.90090522  1
  P  P10  1  0.76866323  0.22090832  0.09909478  1
  P  P11  1  0.76099670  0.71834489  0.43299494  1
  O  O12  1  0.05604503  0.17446797  0.47650154  1
  O  O13  1  0.02838098  0.29267046  0.07951266  1
  O  O14  1  0.11558586  0.33722862  0.72469281  1
  O  O15  1  0.26477938  0.44417272  0.46725851  1
  O  O16  1  0.15850490  0.96657899  0.82877862  1
  O  O17  1  0.41270549  0.65529040  0.78803098  1
  O  O18  1  0.37586995  0.78475851  0.05898982  1
  O  O19  1  0.52605146  0.17596242  0.58385107  1
  O  O20  1  0.47394854  0.82403758  0.41614893  1
  O  O21  1  0.62413005  0.21524149  0.94101018  1
  O  O22  1  0.58729451  0.34470960  0.21196902  1
  O  O23  1  0.84149510  0.03342201  0.17122138  1
  O  O24  1  0.73522062  0.55582728  0.53274149  1
  O  O25  1  0.88441414  0.66277138  0.27530719  1
  O  O26  1  0.97161902  0.70732954  0.92048734  1
  O  O27  1  0.94395497  0.82553203  0.52349846  1
