# generated using pymatgen
data_Na4Cu6O5
_symmetry_space_group_name_H-M   'P 1'
_cell_length_a   7.81177400
_cell_length_b   7.81030474
_cell_length_c   8.05252347
_cell_angle_alpha   89.99909075
_cell_angle_beta   89.98954543
_cell_angle_gamma   120.00790354
_symmetry_Int_Tables_number   1
_chemical_formula_structural   Na4Cu6O5
_chemical_formula_sum   'Na8 Cu12 O10'
_cell_volume   425.44720687
_cell_formula_units_Z   2
loop_
 _symmetry_equiv_pos_site_id
 _symmetry_equiv_pos_as_xyz
  1  'x, y, z'
loop_
 _atom_site_type_symbol
 _atom_site_label
 _atom_site_symmetry_multiplicity
 _atom_site_fract_x
 _atom_site_fract_y
 _atom_site_fract_z
 _atom_site_occupancy
  Na  Na0  1  0.12082898  0.40842476  0.74999751  1
  Na  Na1  1  0.28759709  0.87918827  0.74999986  1
  Na  Na2  1  -0.00000030  0.00000574  0.00000446  1
  Na  Na3  1  0.00000281  0.99999548  0.50000205  1
  Na  Na4  1  0.59157572  0.71240345  0.75000617  1
  Na  Na5  1  0.71241585  0.59159391  0.25000221  1
  Na  Na6  1  0.40841918  0.12083936  0.25000158  1
  Na  Na7  1  0.87918595  0.28760021  0.24999923  1
  Cu  Cu8  1  0.16791838  0.71240628  0.40936449  1
  Cu  Cu9  1  0.16790347  0.71243073  0.09066766  1
  Cu  Cu10  1  0.28760322  0.45550504  0.40934686  1
  Cu  Cu11  1  0.28761298  0.45550973  0.09062140  1
  Cu  Cu12  1  0.54447385  0.83209681  0.09064429  1
  Cu  Cu13  1  0.54450554  0.83211229  0.40935000  1
  Cu  Cu14  1  0.45551729  0.28760668  0.59065206  1
  Cu  Cu15  1  0.45553185  0.28759758  0.90934001  1
  Cu  Cu16  1  0.83211897  0.54450198  0.59063964  1
  Cu  Cu17  1  0.83211106  0.54451159  0.90936893  1
  Cu  Cu18  1  0.71240516  0.16790981  0.59064911  1
  Cu  Cu19  1  0.71239220  0.16789762  0.90934466  1
  O  O20  1  0.05150728  0.78994700  0.25003508  1
  O  O21  1  0.33332616  0.66672764  0.94580558  1
  O  O22  1  0.33332903  0.66667004  0.55419293  1
  O  O23  1  0.21003217  0.26153463  0.25001851  1
  O  O24  1  0.26157861  0.21007109  0.75003650  1
  O  O25  1  0.73844009  0.94848362  0.24995210  1
  O  O26  1  0.66663205  0.33332261  0.05418986  1
  O  O27  1  0.66666203  0.33332669  0.44580116  1
  O  O28  1  0.94851512  0.73846837  0.74999303  1
  O  O29  1  0.78995820  0.05151000  0.74997404  1
