# generated using pymatgen
data_SrCd2H16(Br3O4)2
_symmetry_space_group_name_H-M   'P 1'
_cell_length_a   26.10246680
_cell_length_b   4.18570069
_cell_length_c   8.73339038
_cell_angle_alpha   90.00000000
_cell_angle_beta   90.00000000
_cell_angle_gamma   90.00000000
_symmetry_Int_Tables_number   1
_chemical_formula_structural   SrCd2H16(Br3O4)2
_chemical_formula_sum   'Sr2 Cd4 H32 Br12 O16'
_cell_volume   954.18502220
_cell_formula_units_Z   2
loop_
 _symmetry_equiv_pos_site_id
 _symmetry_equiv_pos_as_xyz
  1  'x, y, z'
loop_
 _atom_site_type_symbol
 _atom_site_label
 _atom_site_symmetry_multiplicity
 _atom_site_fract_x
 _atom_site_fract_y
 _atom_site_fract_z
 _atom_site_occupancy
  Sr  Sr0  1  0.00000000  0.50000000  0.67004916  1
  Sr  Sr1  1  0.50000000  0.00000000  0.32995084  1
  Cd  Cd2  1  0.19310370  0.03533162  0.13667679  1
  Cd  Cd3  1  0.30689630  0.53533162  0.86332321  1
  Cd  Cd4  1  0.69310370  0.46466838  0.86332321  1
  Cd  Cd5  1  0.80689630  0.96466838  0.13667679  1
  H  H6  1  0.02546548  0.90973815  0.38882197  1
  H  H7  1  0.02987644  0.49831255  0.03108397  1
  H  H8  1  0.06708563  0.96655135  0.87334378  1
  H  H9  1  0.09138337  0.27471547  0.48704041  1
  H  H10  1  0.09510970  0.96959408  0.71296456  1
  H  H11  1  0.09378083  0.59415642  0.40003209  1
  H  H12  1  0.17286948  0.20037909  0.56575960  1
  H  H13  1  0.17790556  0.88105408  0.65410710  1
  H  H14  1  0.32209444  0.38105408  0.34589290  1
  H  H15  1  0.32713052  0.70037909  0.43424040  1
  H  H16  1  0.40621917  0.09415642  0.59996791  1
  H  H17  1  0.40489030  0.46959408  0.28703544  1
  H  H18  1  0.40861663  0.77471547  0.51295959  1
  H  H19  1  0.43291437  0.46655135  0.12665622  1
  H  H20  1  0.47012356  0.99831255  0.96891603  1
  H  H21  1  0.47453452  0.40973815  0.61117803  1
  H  H22  1  0.52546548  0.59026185  0.61117803  1
  H  H23  1  0.52987644  0.00168745  0.96891603  1
  H  H24  1  0.56708563  0.53344865  0.12665622  1
  H  H25  1  0.59138337  0.22528453  0.51295959  1
  H  H26  1  0.59510970  0.53040592  0.28703544  1
  H  H27  1  0.59378083  0.90584358  0.59996791  1
  H  H28  1  0.67286948  0.29962091  0.43424040  1
  H  H29  1  0.67790556  0.61894592  0.34589290  1
  H  H30  1  0.82209444  0.11894592  0.65410710  1
  H  H31  1  0.82713052  0.79962091  0.56575960  1
  H  H32  1  0.90621917  0.40584358  0.40003209  1
  H  H33  1  0.90489030  0.03040592  0.71296456  1
  H  H34  1  0.90861663  0.72528453  0.48704041  1
  H  H35  1  0.93291437  0.03344865  0.87334378  1
  H  H36  1  0.97012356  0.50168745  0.03108397  1
  H  H37  1  0.97453452  0.09026185  0.38882197  1
  Br  Br38  1  0.08731257  0.99451641  0.16136293  1
  Br  Br39  1  0.19310991  0.54343943  0.91600324  1
  Br  Br40  1  0.21020551  0.52261631  0.34172715  1
  Br  Br41  1  0.28979449  0.02261631  0.65827285  1
  Br  Br42  1  0.30689009  0.04343943  0.08399676  1
  Br  Br43  1  0.41268743  0.49451541  0.83863707  1
  Br  Br44  1  0.58731257  0.50548359  0.83863707  1
  Br  Br45  1  0.69310991  0.95656057  0.08399676  1
  Br  Br46  1  0.71020551  0.97738369  0.65827285  1
  Br  Br47  1  0.78979449  0.47738369  0.34172715  1
  Br  Br48  1  0.80689009  0.45656057  0.91600324  1
  Br  Br49  1  0.91268743  0.00548359  0.16136293  1
  O  O50  1  0.00000000  0.00000000  0.45979597  1
  O  O51  1  0.00000000  0.50000000  0.96296673  1
  O  O52  1  0.06055647  0.96604630  0.76214893  1
  O  O53  1  0.07872477  0.49511962  0.49096233  1
  O  O54  1  0.15242071  0.02963674  0.61262616  1
  O  O55  1  0.34757929  0.52963674  0.38737384  1
  O  O56  1  0.42127523  0.99511962  0.50903767  1
  O  O57  1  0.43944353  0.46604630  0.23785107  1
  O  O58  1  0.50000000  0.00000000  0.03703327  1
  O  O59  1  0.50000000  0.50000000  0.54020403  1
  O  O60  1  0.56055647  0.53395370  0.23785107  1
  O  O61  1  0.57872477  0.00488038  0.50903767  1
  O  O62  1  0.65242071  0.47036326  0.38737384  1
  O  O63  1  0.84757929  0.97036326  0.61262616  1
  O  O64  1  0.92127523  0.50488038  0.49096233  1
  O  O65  1  0.93944353  0.03395370  0.76214893  1
