# generated using pymatgen
data_Li4V5O10
_symmetry_space_group_name_H-M   'P 1'
_cell_length_a   5.24448408
_cell_length_b   5.15323020
_cell_length_c   7.93113680
_cell_angle_alpha   110.02780041
_cell_angle_beta   102.24444232
_cell_angle_gamma   99.52691617
_symmetry_Int_Tables_number   1
_chemical_formula_structural   Li4V5O10
_chemical_formula_sum   'Li4 V5 O10'
_cell_volume   190.06853053
_cell_formula_units_Z   1
loop_
 _symmetry_equiv_pos_site_id
 _symmetry_equiv_pos_as_xyz
  1  'x, y, z'
loop_
 _atom_site_type_symbol
 _atom_site_label
 _atom_site_symmetry_multiplicity
 _atom_site_fract_x
 _atom_site_fract_y
 _atom_site_fract_z
 _atom_site_occupancy
  Li  Li0  1  0.23254230  0.92426311  0.42515448  1
  Li  Li1  1  0.50585953  0.48907430  0.51008734  1
  Li  Li2  1  0.61136964  0.71355656  0.22224404  1
  Li  Li3  1  0.77955556  0.09203200  0.59822673  1
  V  V4  1  0.10123109  0.70994488  0.68912298  1
  V  V5  1  0.99717840  0.49764873  0.99506425  1
  V  V6  1  0.68179955  0.88245667  0.88889405  1
  V  V7  1  0.30802195  0.11295324  0.10688220  1
  V  V8  1  0.90388449  0.30798474  0.31595396  1
  O  O9  1  0.03335202  0.09634372  0.86187982  1
  O  O10  1  0.12188766  0.29747676  0.52077952  1
  O  O11  1  0.32611587  0.72735588  0.94557182  1
  O  O12  1  0.22087776  0.48516221  0.23447346  1
  O  O13  1  0.44962584  0.86682280  0.65737527  1
  O  O14  1  0.55643745  0.11714075  0.33596878  1
  O  O15  1  0.78884536  0.52178232  0.76125417  1
  O  O16  1  0.68005313  0.28495845  0.06902848  1
  O  O17  1  0.86372001  0.68845342  0.45281645  1
  O  O18  1  0.94840639  0.90197244  0.13919118  1
