# generated using pymatgen
data_Li3Ti4O8
_symmetry_space_group_name_H-M   'P 1'
_cell_length_a   5.82602306
_cell_length_b   5.85340822
_cell_length_c   5.84784632
_cell_angle_alpha   119.29834856
_cell_angle_beta   119.15346276
_cell_angle_gamma   91.21802686
_symmetry_Int_Tables_number   1
_chemical_formula_structural   Li3Ti4O8
_chemical_formula_sum   'Li3 Ti4 O8'
_cell_volume   142.78339889
_cell_formula_units_Z   1
loop_
 _symmetry_equiv_pos_site_id
 _symmetry_equiv_pos_as_xyz
  1  'x, y, z'
loop_
 _atom_site_type_symbol
 _atom_site_label
 _atom_site_symmetry_multiplicity
 _atom_site_fract_x
 _atom_site_fract_y
 _atom_site_fract_z
 _atom_site_occupancy
  Li  Li0  1  0.00558429  0.50570612  0.51117838  1
  Li  Li1  1  0.00096961  0.50114946  0.00258180  1
  Li  Li2  1  0.50164539  0.00143559  0.00253868  1
  Ti  Ti3  1  0.50060254  0.00059398  0.50123453  1
  Ti  Ti4  1  0.00030458  0.00197119  0.00238300  1
  Ti  Ti5  1  0.50073049  0.50066561  0.50142049  1
  Ti  Ti6  1  0.50199767  0.50033907  0.00222079  1
  O  O7  1  0.74935303  0.24945005  0.99896135  1
  O  O8  1  0.25098719  0.25140707  0.50174538  1
  O  O9  1  0.74390010  0.74369781  0.98731617  1
  O  O10  1  0.28303865  0.74552123  0.50190897  1
  O  O11  1  0.71889421  0.25635196  0.50193048  1
  O  O12  1  0.25780737  0.25793696  0.01597378  1
  O  O13  1  0.75079707  0.75049609  0.50212890  1
  O  O14  1  0.25298779  0.75289380  0.00565430  1
