# generated using pymatgen
data_Mn3FeCo2(PO4)6
_symmetry_space_group_name_H-M   'P 1'
_cell_length_a   8.47402735
_cell_length_b   8.58595840
_cell_length_c   8.58595822
_cell_angle_alpha   59.99999401
_cell_angle_beta   59.56208712
_cell_angle_gamma   59.56208297
_symmetry_Int_Tables_number   1
_chemical_formula_structural   Mn3FeCo2(PO4)6
_chemical_formula_sum   'Mn3 Fe1 Co2 P6 O24'
_cell_volume   438.77899142
_cell_formula_units_Z   1
loop_
 _symmetry_equiv_pos_site_id
 _symmetry_equiv_pos_as_xyz
  1  'x, y, z'
loop_
 _atom_site_type_symbol
 _atom_site_label
 _atom_site_symmetry_multiplicity
 _atom_site_fract_x
 _atom_site_fract_y
 _atom_site_fract_z
 _atom_site_occupancy
  Mn  Mn0  1  0.07297069  0.64234310  0.64234310  1
  Mn  Mn1  1  0.42917314  0.85694229  0.85694229  1
  Mn  Mn2  1  0.92932157  0.35689314  0.35689314  1
  Fe  Fe3  1  0.56813599  0.14395500  0.14395500  1
  Co  Co4  1  0.99560913  0.00146362  0.00146362  1
  Co  Co5  1  0.50200727  0.49933058  0.49933058  1
  P  P6  1  0.24806121  0.25003806  0.54534943  1
  P  P7  1  0.24806121  0.95655130  0.25003806  1
  P  P8  1  0.24806121  0.54534943  0.95655130  1
  P  P9  1  0.75340807  0.45770582  0.03958297  1
  P  P10  1  0.75340807  0.03958297  0.74930315  1
  P  P11  1  0.75340807  0.74930315  0.45770582  1
  O  O12  1  0.06083765  0.11567964  0.31176637  1
  O  O13  1  0.06083765  0.51171635  0.11567964  1
  O  O14  1  0.06083765  0.31176637  0.51171635  1
  O  O15  1  0.22628025  0.09059483  0.74526651  1
  O  O16  1  0.43277312  0.18755215  0.38770268  1
  O  O17  1  0.26875454  0.41544428  0.55886968  1
  O  O18  1  0.22628025  0.93785741  0.09059483  1
  O  O19  1  0.26875454  0.75693151  0.41544428  1
  O  O20  1  0.56515930  0.61500933  0.00632963  1
  O  O21  1  0.26875454  0.55886968  0.75693151  1
  O  O22  1  0.77587728  0.25982445  0.05625282  1
  O  O23  1  0.56515930  0.00632963  0.81350174  1
  O  O24  1  0.43277312  0.99197205  0.18755215  1
  O  O25  1  0.22628025  0.74526651  0.93785741  1
  O  O26  1  0.73024161  0.44605616  0.23803885  1
  O  O27  1  0.43277312  0.38770268  0.99197205  1
  O  O28  1  0.73024161  0.23803885  0.58566438  1
  O  O29  1  0.77587728  0.05625282  0.90804545  1
  O  O30  1  0.73024161  0.58566438  0.44605616  1
  O  O31  1  0.56515930  0.81350174  0.61500933  1
  O  O32  1  0.77587728  0.90804545  0.25982445  1
  O  O33  1  0.93953370  0.68306381  0.49758882  1
  O  O34  1  0.93953370  0.49758882  0.87981366  1
  O  O35  1  0.93953370  0.87981366  0.68306381  1
