# generated using pymatgen
data_Li4(NiO2)11
_symmetry_space_group_name_H-M   'P 1'
_cell_length_a   7.41524542
_cell_length_b   7.74996614
_cell_length_c   7.63998157
_cell_angle_alpha   82.77329055
_cell_angle_beta   66.18935227
_cell_angle_gamma   68.83030587
_symmetry_Int_Tables_number   1
_chemical_formula_structural   Li4(NiO2)11
_chemical_formula_sum   'Li4 Ni11 O22'
_cell_volume   374.47294016
_cell_formula_units_Z   1
loop_
 _symmetry_equiv_pos_site_id
 _symmetry_equiv_pos_as_xyz
  1  'x, y, z'
loop_
 _atom_site_type_symbol
 _atom_site_label
 _atom_site_symmetry_multiplicity
 _atom_site_fract_x
 _atom_site_fract_y
 _atom_site_fract_z
 _atom_site_occupancy
  Li  Li0  1  0.37400490  0.10591735  0.90101499  1
  Li  Li1  1  0.52688102  0.64650367  0.34920344  1
  Li  Li2  1  0.83490889  0.44250689  0.56108359  1
  Li  Li3  1  0.98797250  0.98846014  0.00450767  1
  Ni  Ni4  1  0.22762754  0.18015017  0.31652133  1
  Ni  Ni5  1  0.31318855  0.46075843  0.05043548  1
  Ni  Ni6  1  0.04909252  0.63095115  0.85980525  1
  Ni  Ni7  1  0.50059770  0.99871748  0.49963961  1
  Ni  Ni8  1  0.13630291  0.90989000  0.59215881  1
  Ni  Ni9  1  0.59071262  0.27310591  0.22628610  1
  Ni  Ni10  1  0.41157341  0.72670366  0.77003066  1
  Ni  Ni11  1  0.86415699  0.09079754  0.40821511  1
  Ni  Ni12  1  0.95101158  0.36468734  0.13996830  1
  Ni  Ni13  1  0.68098636  0.54591189  0.95517843  1
  Ni  Ni14  1  0.77261755  0.81755333  0.68288627  1
  O  O15  1  0.10962669  0.12134036  0.16670877  1
  O  O16  1  0.06805880  0.42037601  0.28891515  1
  O  O17  1  0.18452394  0.70398379  0.98390337  1
  O  O18  1  0.99873663  0.84334281  0.46640394  1
  O  O19  1  0.44871222  0.21233775  0.10049245  1
  O  O20  1  0.36559727  0.24591602  0.44239025  1
  O  O21  1  0.17785710  0.38808192  0.92630583  1
  O  O22  1  0.45698960  0.52048130  0.17425686  1
  O  O23  1  0.29505710  0.66988651  0.62128366  1
  O  O24  1  0.74364254  0.03344901  0.26218953  1
  O  O25  1  0.36352976  0.93408209  0.37290485  1
  O  O26  1  0.62105014  0.05701303  0.64515203  1
  O  O27  1  0.25362715  0.96987947  0.74203344  1
  O  O28  1  0.72445470  0.34152311  0.35532868  1
  O  O29  1  0.56556541  0.48616386  0.80595928  1
  O  O30  1  0.79646590  0.60537129  0.10452784  1
  O  O31  1  0.63885617  0.74872798  0.55437764  1
  O  O32  1  0.54433069  0.79197944  0.90285511  1
  O  O33  1  0.00066956  0.15542928  0.53558226  1
  O  O34  1  0.81827123  0.29990114  0.00675664  1
  O  O35  1  0.90502288  0.57052554  0.73623171  1
  O  O36  1  0.91454347  0.87891737  0.80831768  1
