# generated using pymatgen
data_Li4(FeO2)5
_symmetry_space_group_name_H-M   'P 1'
_cell_length_a   5.16540659
_cell_length_b   5.17194229
_cell_length_c   7.91061253
_cell_angle_alpha   109.12322347
_cell_angle_beta   101.45337662
_cell_angle_gamma   100.63028886
_symmetry_Int_Tables_number   1
_chemical_formula_structural   Li4(FeO2)5
_chemical_formula_sum   'Li4 Fe5 O10'
_cell_volume   188.45656463
_cell_formula_units_Z   1
loop_
 _symmetry_equiv_pos_site_id
 _symmetry_equiv_pos_as_xyz
  1  'x, y, z'
loop_
 _atom_site_type_symbol
 _atom_site_label
 _atom_site_symmetry_multiplicity
 _atom_site_fract_x
 _atom_site_fract_y
 _atom_site_fract_z
 _atom_site_occupancy
  Li  Li0  1  0.22126731  0.92227210  0.42418580  1
  Li  Li1  1  0.50650550  0.49106901  0.50798479  1
  Li  Li2  1  0.61139467  0.71736996  0.22303375  1
  Li  Li3  1  0.78381841  0.09062252  0.59602724  1
  Fe  Fe4  1  0.10597820  0.70705904  0.68925390  1
  Fe  Fe5  1  0.00130613  0.49714194  0.99270199  1
  Fe  Fe6  1  0.68426620  0.87806008  0.88739676  1
  Fe  Fe7  1  0.30259091  0.11171214  0.10691263  1
  Fe  Fe8  1  0.89499471  0.31094653  0.31024541  1
  O  O9  1  0.03675032  0.09717779  0.86078480  1
  O  O10  1  0.11021152  0.30465941  0.52077769  1
  O  O11  1  0.33736384  0.72553363  0.95000042  1
  O  O12  1  0.22439685  0.48043493  0.23099101  1
  O  O13  1  0.45590715  0.87216761  0.65909654  1
  O  O14  1  0.55253746  0.11007346  0.33576041  1
  O  O15  1  0.78602537  0.52014664  0.76501538  1
  O  O16  1  0.67713269  0.29236668  0.07234450  1
  O  O17  1  0.86714556  0.69072975  0.45448448  1
  O  O18  1  0.95059622  0.89533080  0.13807749  1
