# generated using pymatgen
data_Li4Ni3(SnO5)2
_symmetry_space_group_name_H-M   'P 1'
_cell_length_a   8.00240282
_cell_length_b   6.65236208
_cell_length_c   8.06080851
_cell_angle_alpha   113.83484242
_cell_angle_beta   85.05272343
_cell_angle_gamma   89.28156762
_symmetry_Int_Tables_number   1
_chemical_formula_structural   Li4Ni3(SnO5)2
_chemical_formula_sum   'Li8 Ni6 Sn4 O20'
_cell_volume   390.52721621
_cell_formula_units_Z   2
loop_
 _symmetry_equiv_pos_site_id
 _symmetry_equiv_pos_as_xyz
  1  'x, y, z'
loop_
 _atom_site_type_symbol
 _atom_site_label
 _atom_site_symmetry_multiplicity
 _atom_site_fract_x
 _atom_site_fract_y
 _atom_site_fract_z
 _atom_site_occupancy
  Li  Li0  1  0.05706367  0.37077286  0.81283840  1
  Li  Li1  1  0.14526663  0.06141774  0.39555577  1
  Li  Li2  1  0.99184159  0.49995353  0.47863580  1
  Li  Li3  1  0.50815841  0.00004647  0.52136420  1
  Li  Li4  1  0.35473337  0.43858226  0.60444423  1
  Li  Li5  1  0.44293633  0.12922714  0.18716160  1
  Li  Li6  1  0.65391543  0.58050445  0.41172358  1
  Li  Li7  1  0.84608457  0.91949555  0.58827642  1
  Ni  Ni8  1  0.09206887  0.19663671  0.09801523  1
  Ni  Ni9  1  0.40793113  0.30336329  0.90198477  1
  Ni  Ni10  1  0.25000000  0.75000000  0.00000000  1
  Ni  Ni11  1  0.75000000  0.25000000  0.00000000  1
  Ni  Ni12  1  0.59774777  0.70390683  0.09805645  1
  Ni  Ni13  1  0.90225223  0.79609317  0.90194355  1
  Sn  Sn14  1  0.29211831  0.59599348  0.29712087  1
  Sn  Sn15  1  0.20788169  0.90400652  0.70287913  1
  Sn  Sn16  1  0.80047899  0.07936179  0.30168820  1
  Sn  Sn17  1  0.69952101  0.42063821  0.69831180  1
  O  O18  1  0.29581773  0.03454934  0.96570248  1
  O  O19  1  0.29498025  0.18262419  0.67941068  1
  O  O20  1  0.20501975  0.31737581  0.32058932  1
  O  O21  1  0.13980247  0.64591366  0.77760961  1
  O  O22  1  0.08822888  0.79139737  0.46792730  1
  O  O23  1  0.20418227  0.46545066  0.03429752  1
  O  O24  1  0.61864648  0.16371785  0.77748379  1
  O  O25  1  0.02324014  0.92448482  0.13772207  1
  O  O26  1  0.47675986  0.57551518  0.86227793  1
  O  O27  1  0.58804068  0.28926204  0.45552733  1
  O  O28  1  0.41177112  0.70860263  0.53207270  1
  O  O29  1  0.51418587  0.42057006  0.12937379  1
  O  O30  1  0.98581413  0.07942994  0.87062621  1
  O  O31  1  0.36019753  0.85408634  0.22239039  1
  O  O32  1  0.81485477  0.51799075  0.94045236  1
  O  O33  1  0.91195932  0.21073796  0.54447267  1
  O  O34  1  0.88135352  0.33628215  0.22251621  1
  O  O35  1  0.80396902  0.67436542  0.65715194  1
  O  O36  1  0.69603098  0.82563458  0.34284806  1
  O  O37  1  0.68514523  0.98200925  0.05954764  1
