# generated using pymatgen
data_Pa3Tc
_symmetry_space_group_name_H-M   'P 1'
_cell_length_a   4.99350618
_cell_length_b   4.99345906
_cell_length_c   4.99351806
_cell_angle_alpha   59.99925262
_cell_angle_beta   59.99847691
_cell_angle_gamma   59.99850861
_symmetry_Int_Tables_number   1
_chemical_formula_structural   Pa3Tc
_chemical_formula_sum   'Pa3 Tc1'
_cell_volume   88.04128342
_cell_formula_units_Z   1
loop_
 _symmetry_equiv_pos_site_id
 _symmetry_equiv_pos_as_xyz
  1  'x, y, z'
loop_
 _atom_site_type_symbol
 _atom_site_label
 _atom_site_symmetry_multiplicity
 _atom_site_fract_x
 _atom_site_fract_y
 _atom_site_fract_z
 _atom_site_occupancy
  Pa  Pa0  1  0.00000055  0.99999716  0.99999907  1
  Pa  Pa1  1  0.50000146  0.50000157  0.50000045  1
  Pa  Pa2  1  0.25000011  0.25000172  0.25000070  1
  Tc  Tc3  1  0.74999787  0.74999955  0.74999978  1
