# generated using pymatgen
data_Li3Ti2Mn3O10
_symmetry_space_group_name_H-M   'P 1'
_cell_length_a   5.20977406
_cell_length_b   5.16079652
_cell_length_c   8.00406631
_cell_angle_alpha   110.91025074
_cell_angle_beta   96.66808165
_cell_angle_gamma   101.44433013
_symmetry_Int_Tables_number   1
_chemical_formula_structural   Li3Ti2Mn3O10
_chemical_formula_sum   'Li3 Ti2 Mn3 O10'
_cell_volume   192.88160597
_cell_formula_units_Z   1
loop_
 _symmetry_equiv_pos_site_id
 _symmetry_equiv_pos_as_xyz
  1  'x, y, z'
loop_
 _atom_site_type_symbol
 _atom_site_label
 _atom_site_symmetry_multiplicity
 _atom_site_fract_x
 _atom_site_fract_y
 _atom_site_fract_z
 _atom_site_occupancy
  Li  Li0  1  0.22933992  0.90767492  0.39911465  1
  Li  Li1  1  0.50000000  0.50000000  0.50000000  1
  Li  Li2  1  0.77066008  0.09232508  0.60088535  1
  Ti  Ti3  1  0.11475837  0.71726020  0.68139764  1
  Ti  Ti4  1  0.88524163  0.28273980  0.31860236  1
  Mn  Mn5  1  0.00000000  0.50000000  0.00000000  1
  Mn  Mn6  1  0.68837404  0.87793766  0.89654621  1
  Mn  Mn7  1  0.31162596  0.12206234  0.10345379  1
  O  O8  1  0.00700114  0.06974055  0.83874412  1
  O  O9  1  0.32953829  0.73955816  0.93701366  1
  O  O10  1  0.11166029  0.31745639  0.53160325  1
  O  O11  1  0.19892786  0.47216422  0.21049968  1
  O  O12  1  0.43812331  0.86601296  0.64515443  1
  O  O13  1  0.56187669  0.13398704  0.35484557  1
  O  O14  1  0.80107214  0.52783578  0.78950032  1
  O  O15  1  0.88833971  0.68254361  0.46839675  1
  O  O16  1  0.67046171  0.26044184  0.06298634  1
  O  O17  1  0.99299886  0.93025945  0.16125588  1
