# generated using pymatgen
data_Mn2(CO3)3
_symmetry_space_group_name_H-M   'P 1'
_cell_length_a   7.65173964
_cell_length_b   7.68758044
_cell_length_c   7.67267849
_cell_angle_alpha   106.68910589
_cell_angle_beta   106.53036169
_cell_angle_gamma   107.33989995
_symmetry_Int_Tables_number   1
_chemical_formula_structural   Mn2(CO3)3
_chemical_formula_sum   'Mn4 C6 O18'
_cell_volume   377.35368245
_cell_formula_units_Z   2
loop_
 _symmetry_equiv_pos_site_id
 _symmetry_equiv_pos_as_xyz
  1  'x, y, z'
loop_
 _atom_site_type_symbol
 _atom_site_label
 _atom_site_symmetry_multiplicity
 _atom_site_fract_x
 _atom_site_fract_y
 _atom_site_fract_z
 _atom_site_occupancy
  Mn  Mn0  1  0.05941368  0.53015546  0.19126151  1
  Mn  Mn1  1  0.17938697  0.04353735  0.52405020  1
  Mn  Mn2  1  0.54334211  0.54189715  0.54942454  1
  Mn  Mn3  1  0.52453728  0.18039900  0.04467611  1
  C  C4  1  0.16171817  0.25238636  0.91345320  1
  C  C5  1  0.25595521  0.91403768  0.16612296  1
  C  C6  1  0.41401487  0.81417694  0.62286485  1
  C  C7  1  0.62412288  0.41775906  0.80799452  1
  C  C8  1  0.80492236  0.61039517  0.41022414  1
  C  C9  1  0.91704321  0.16654054  0.25520014  1
  O  O10  1  0.05340735  0.34653318  0.94950334  1
  O  O11  1  0.11020621  0.74244459  0.09887133  1
  O  O12  1  0.09106470  0.11013908  0.74114007  1
  O  O13  1  0.06297098  0.33854757  0.31035450  1
  O  O14  1  0.37744536  0.97186802  0.68592828  1
  O  O15  1  0.35106706  0.70236586  0.43401825  1
  O  O16  1  0.51863137  0.77010724  0.74948619  1
  O  O17  1  0.34862601  0.94401369  0.05420980  1
  O  O18  1  0.43585765  0.36468665  0.69004602  1
  O  O19  1  0.33444659  0.30272769  0.05306304  1
  O  O20  1  0.30792410  0.05613729  0.33641567  1
  O  O21  1  0.67786723  0.37933249  0.96255240  1
  O  O22  1  0.74783405  0.73138584  0.51167287  1
  O  O23  1  0.75493749  0.51787884  0.76114750  1
  O  O24  1  0.69768318  0.42221359  0.35036713  1
  O  O25  1  0.96342710  0.68404555  0.38007604  1
  O  O26  1  0.94605265  0.05453101  0.34667103  1
  O  O27  1  0.74758821  0.10129611  0.11067737  1
