# generated using pymatgen
data_LiMn2(PO4)3
_symmetry_space_group_name_H-M   'P 1'
_cell_length_a   8.48962568
_cell_length_b   11.82747677
_cell_length_c   8.50129212
_cell_angle_alpha   90.09096360
_cell_angle_beta   90.03780901
_cell_angle_gamma   89.98634528
_symmetry_Int_Tables_number   1
_chemical_formula_structural   LiMn2(PO4)3
_chemical_formula_sum   'Li4 Mn8 P12 O48'
_cell_volume   853.62068694
_cell_formula_units_Z   4
loop_
 _symmetry_equiv_pos_site_id
 _symmetry_equiv_pos_as_xyz
  1  'x, y, z'
loop_
 _atom_site_type_symbol
 _atom_site_label
 _atom_site_symmetry_multiplicity
 _atom_site_fract_x
 _atom_site_fract_y
 _atom_site_fract_z
 _atom_site_occupancy
  Li  Li0  1  0.28707706  0.31862398  0.27580638  1
  Li  Li1  1  0.78770710  0.81851975  0.22572470  1
  Li  Li2  1  0.93680677  0.28907817  0.91708390  1
  Li  Li3  1  0.93855174  0.71099068  0.58395562  1
  Mn  Mn4  1  0.25000981  0.11652225  0.46842527  1
  Mn  Mn5  1  0.25185824  0.87923706  0.03472802  1
  Mn  Mn6  1  0.25513796  0.38388525  0.95966099  1
  Mn  Mn7  1  0.25786911  0.61841442  0.53455020  1
  Mn  Mn8  1  0.75060609  0.37920379  0.46397400  1
  Mn  Mn9  1  0.74892761  0.61661591  0.03281405  1
  Mn  Mn10  1  0.74461082  0.11424886  0.96501246  1
  Mn  Mn11  1  0.74190376  0.88788577  0.54100538  1
  P  P12  1  0.03799566  0.50169314  0.25079164  1
  P  P13  1  0.10936634  0.85428512  0.39203573  1
  P  P14  1  0.10675964  0.14403085  0.10412050  1
  P  P15  1  0.39895965  0.35455153  0.60884244  1
  P  P16  1  0.39589889  0.64684878  0.89217800  1
  P  P17  1  0.45778987  0.00039977  0.75220449  1
  P  P18  1  0.53484141  0.00149575  0.24955790  1
  P  P19  1  0.60973292  0.35372834  0.10688219  1
  P  P20  1  0.60802011  0.64466336  0.39643182  1
  P  P21  1  0.89451127  0.14710074  0.60465211  1
  P  P22  1  0.89768092  0.85442662  0.89362938  1
  P  P23  1  0.95934448  0.50015133  0.74837754  1
  O  O24  1  0.05893245  0.57925612  0.64444337  1
  O  O25  1  0.05712414  0.42119328  0.85618354  1
  O  O26  1  0.07506678  0.15966593  0.59609286  1
  O  O27  1  0.07665743  0.83970256  0.90117664  1
  O  O28  1  0.15731031  0.02454727  0.06559202  1
  O  O29  1  0.15784225  0.97411240  0.43430928  1
  O  O30  1  0.14978078  0.42020262  0.15756678  1
  O  O31  1  0.14568987  0.58100193  0.34586476  1
  O  O32  1  0.15925645  0.17982979  0.27185684  1
  O  O33  1  0.15063637  0.82163141  0.22290755  1
  O  O34  1  0.17223465  0.23039893  0.98187518  1
  O  O35  1  0.17207782  0.77055739  0.51789362  1
  O  O36  1  0.31994486  0.27414823  0.48635944  1
  O  O37  1  0.31867737  0.72565844  0.01475049  1
  O  O38  1  0.34966118  0.67857464  0.72266633  1
  O  O39  1  0.34967508  0.32136446  0.77640815  1
  O  O40  1  0.35158290  0.08168361  0.65887149  1
  O  O41  1  0.35073857  0.91989778  0.84400493  1
  O  O42  1  0.34470728  0.47364715  0.56418842  1
  O  O43  1  0.34587484  0.52558694  0.93200495  1
  O  O44  1  0.42725561  0.33821735  0.09714274  1
  O  O45  1  0.42818355  0.66263805  0.40252294  1
  O  O46  1  0.44058283  0.07851873  0.35855610  1
  O  O47  1  0.44090759  0.92154315  0.14362828  1
  O  O48  1  0.55453493  0.92087567  0.64471010  1
  O  O49  1  0.55832468  0.07862722  0.85597623  1
  O  O50  1  0.57848718  0.34035321  0.60061784  1
  O  O51  1  0.57687971  0.65922768  0.90140405  1
  O  O52  1  0.65636871  0.47458751  0.06664326  1
  O  O53  1  0.65576240  0.52395312  0.43364509  1
  O  O54  1  0.64661827  0.08034083  0.15766598  1
  O  O55  1  0.64807611  0.92035997  0.34193300  1
  O  O56  1  0.64858317  0.32156166  0.27729399  1
  O  O57  1  0.65903448  0.67989503  0.22749033  1
  O  O58  1  0.69214329  0.27630674  0.98473474  1
  O  O59  1  0.69369229  0.72394310  0.51542806  1
  O  O60  1  0.81720068  0.22576378  0.48298306  1
  O  O61  1  0.81832587  0.77422164  0.01481998  1
  O  O62  1  0.85053328  0.17745045  0.77669790  1
  O  O63  1  0.85042793  0.82305584  0.72338501  1
  O  O64  1  0.85345981  0.41838873  0.65678493  1
  O  O65  1  0.85310727  0.58188956  0.84085668  1
  O  O66  1  0.84362419  0.02597908  0.56753525  1
  O  O67  1  0.84293676  0.97337358  0.93593808  1
  O  O68  1  0.92559473  0.16126271  0.09231818  1
  O  O69  1  0.92539565  0.83935612  0.40482067  1
  O  O70  1  0.94058759  0.42205497  0.35507100  1
  O  O71  1  0.94128783  0.57797043  0.14193518  1
