# generated using pymatgen
data_VO2F
_symmetry_space_group_name_H-M   'P 1'
_cell_length_a   5.16037058
_cell_length_b   5.38656740
_cell_length_c   13.01767895
_cell_angle_alpha   91.55444980
_cell_angle_beta   91.27575968
_cell_angle_gamma   60.44563209
_symmetry_Int_Tables_number   1
_chemical_formula_structural   VO2F
_chemical_formula_sum   'V6 O12 F6'
_cell_volume   314.63525898
_cell_formula_units_Z   6
loop_
 _symmetry_equiv_pos_site_id
 _symmetry_equiv_pos_as_xyz
  1  'x, y, z'
loop_
 _atom_site_type_symbol
 _atom_site_label
 _atom_site_symmetry_multiplicity
 _atom_site_fract_x
 _atom_site_fract_y
 _atom_site_fract_z
 _atom_site_occupancy
  V  V0  1  0.66797646  0.64688434  0.68018793  1
  V  V1  1  0.68642408  0.62454485  0.17880187  1
  V  V2  1  0.34486239  0.36023328  0.85208423  1
  V  V3  1  0.34169976  0.29744193  0.35137993  1
  V  V4  1  0.97001347  0.97158277  0.51507234  1
  V  V5  1  0.04494646  0.96133862  0.01579777  1
  O  O6  1  0.88284885  0.87244828  0.10343344  1
  O  O7  1  0.97865891  0.51280293  0.26322758  1
  O  O8  1  0.77482081  0.82139468  0.55676870  1
  O  O9  1  0.70350935  0.15864010  0.39131212  1
  O  O10  1  0.50077453  0.52256422  0.76225944  1
  O  O11  1  0.40171152  0.82521699  0.05857065  1
  O  O12  1  0.63060610  0.20808626  0.93246331  1
  O  O13  1  0.50404455  0.46709040  0.21725126  1
  O  O14  1  0.24601808  0.87438558  0.60126108  1
  O  O15  1  0.10955607  0.67586705  0.91517341  1
  O  O16  1  0.19100825  0.19302434  0.43759214  1
  O  O17  1  0.01504047  0.48457987  0.72235606  1
  F  F18  1  0.92461615  0.34899703  0.07303119  1
  F  F19  1  0.72252487  0.35370708  0.57468230  1
  F  F20  1  0.55300525  0.99923530  0.74582792  1
  F  F21  1  0.21802620  0.67431311  0.41494605  1
  F  F22  1  0.43745247  0.98813982  0.25108695  1
  F  F23  1  0.14985494  0.15748016  0.88543132  1
