# generated using pymatgen
data_Mn3O5F
_symmetry_space_group_name_H-M   'P 1'
_cell_length_a   6.99032388
_cell_length_b   5.46740115
_cell_length_c   5.43110415
_cell_angle_alpha   73.99042455
_cell_angle_beta   72.98369925
_cell_angle_gamma   73.41360575
_symmetry_Int_Tables_number   1
_chemical_formula_structural   Mn3O5F
_chemical_formula_sum   'Mn6 O10 F2'
_cell_volume   185.99166512
_cell_formula_units_Z   2
loop_
 _symmetry_equiv_pos_site_id
 _symmetry_equiv_pos_as_xyz
  1  'x, y, z'
loop_
 _atom_site_type_symbol
 _atom_site_label
 _atom_site_symmetry_multiplicity
 _atom_site_fract_x
 _atom_site_fract_y
 _atom_site_fract_z
 _atom_site_occupancy
  Mn  Mn0  1  0.83999502  0.66745201  0.65158510  1
  Mn  Mn1  1  0.66793903  0.30732219  0.35731115  1
  Mn  Mn2  1  0.33206097  0.69267781  0.64268885  1
  Mn  Mn3  1  0.16000498  0.33254799  0.34841490  1
  Mn  Mn4  1  0.50000000  0.00000000  0.00000000  1
  Mn  Mn5  1  0.00000000  0.00000000  0.00000000  1
  O  O6  1  0.66981886  0.01794572  0.64192935  1
  O  O7  1  0.29628256  0.90090478  0.89390759  1
  O  O8  1  0.62852793  0.56083066  0.56796836  1
  O  O9  1  0.96239170  0.23260400  0.23403692  1
  O  O10  1  0.70371744  0.09909522  0.10609241  1
  O  O11  1  0.03760830  0.76739600  0.76596308  1
  O  O12  1  0.37147207  0.43916934  0.43203164  1
  O  O13  1  0.33018114  0.98205428  0.35807065  1
  O  O14  1  0.99799910  0.30935536  0.69424873  1
  O  O15  1  0.00200090  0.69064464  0.30575127  1
  F  F16  1  0.32237759  0.38661778  0.96725062  1
  F  F17  1  0.67762241  0.61338222  0.03274938  1
