# generated using pymatgen
data_Li2Fe(NiO3)2
_symmetry_space_group_name_H-M   'P 1'
_cell_length_a   6.63868816
_cell_length_b   6.56825462
_cell_length_c   8.32147075
_cell_angle_alpha   70.36165837
_cell_angle_beta   109.39371083
_cell_angle_gamma   97.66763197
_symmetry_Int_Tables_number   1
_chemical_formula_structural   Li2Fe(NiO3)2
_chemical_formula_sum   'Li6 Fe3 Ni6 O18'
_cell_volume   322.25971224
_cell_formula_units_Z   3
loop_
 _symmetry_equiv_pos_site_id
 _symmetry_equiv_pos_as_xyz
  1  'x, y, z'
loop_
 _atom_site_type_symbol
 _atom_site_label
 _atom_site_symmetry_multiplicity
 _atom_site_fract_x
 _atom_site_fract_y
 _atom_site_fract_z
 _atom_site_occupancy
  Li  Li0  1  0.34297680  0.00157583  0.83916196  1
  Li  Li1  1  0.32369020  0.33175717  0.49417204  1
  Li  Li2  1  0.68219930  0.67127257  0.50212506  1
  Li  Li3  1  0.67084628  0.99422853  0.16818501  1
  Li  Li4  1  0.98446670  0.66206143  0.83120794  1
  Li  Li5  1  0.99582072  0.33910447  0.16514799  1
  Fe  Fe6  1  0.33333300  0.66666700  0.66666700  1
  Fe  Fe7  1  0.32739433  0.99853831  0.32630118  1
  Fe  Fe8  1  0.33927167  0.33479569  0.00703182  1
  Ni  Ni9  1  0.99550302  0.99804635  0.99399285  1
  Ni  Ni10  1  0.66717703  0.00312365  0.66472778  1
  Ni  Ni11  1  0.67116398  0.33528665  0.33934015  1
  Ni  Ni12  1  0.66687451  0.66927931  0.99920733  1
  Ni  Ni13  1  0.99948997  0.33020935  0.66860522  1
  Ni  Ni14  1  0.99979149  0.66405369  0.33412567  1
  O  O15  1  0.01441298  0.31543197  0.90605836  1
  O  O16  1  0.01119392  0.63054230  0.60011582  1
  O  O17  1  0.00205635  0.98061345  0.22781575  1
  O  O18  1  0.35719962  0.65714019  0.90958594  1
  O  O19  1  0.36727103  0.99665448  0.58588772  1
  O  O20  1  0.66767262  0.97752286  0.89909900  1
  O  O21  1  0.29939597  0.33667852  0.74744528  1
  O  O22  1  0.30946738  0.67619381  0.42374706  1
  O  O23  1  0.65547208  0.70279070  0.73321718  1
  O  O24  1  0.32819099  0.31466303  0.24893050  1
  O  O25  1  0.69195129  0.31396083  0.57856099  1
  O  O26  1  0.70083176  0.64958969  0.26515175  1
  O  O27  1  0.33847501  0.01866997  0.08440350  1
  O  O28  1  0.65225402  0.01790103  0.42727564  1
  O  O29  1  0.66461065  0.35272055  0.10551725  1
  O  O30  1  0.97471571  0.01937317  0.75477201  1
  O  O31  1  0.99899438  0.35581114  0.43423400  1
  O  O32  1  0.96583524  0.68374331  0.06818125  1
