# generated using pymatgen
data_Li3MnF5
_symmetry_space_group_name_H-M   'P 1'
_cell_length_a   6.61451665
_cell_length_b   7.97965075
_cell_length_c   8.25880848
_cell_angle_alpha   90.00000000
_cell_angle_beta   90.00000000
_cell_angle_gamma   90.00000000
_symmetry_Int_Tables_number   1
_chemical_formula_structural   Li3MnF5
_chemical_formula_sum   'Li12 Mn4 F20'
_cell_volume   435.91257024
_cell_formula_units_Z   4
loop_
 _symmetry_equiv_pos_site_id
 _symmetry_equiv_pos_as_xyz
  1  'x, y, z'
loop_
 _atom_site_type_symbol
 _atom_site_label
 _atom_site_symmetry_multiplicity
 _atom_site_fract_x
 _atom_site_fract_y
 _atom_site_fract_z
 _atom_site_occupancy
  Li  Li0  1  0.98531801  0.57840469  0.27011216  1
  Li  Li1  1  0.98531801  0.92159531  0.27011216  1
  Li  Li2  1  0.21044533  0.75000000  0.03130007  1
  Li  Li3  1  0.28955467  0.25000000  0.53130007  1
  Li  Li4  1  0.51468199  0.07840469  0.77011216  1
  Li  Li5  1  0.51468199  0.42159531  0.77011216  1
  Li  Li6  1  0.48531801  0.92159531  0.22988784  1
  Li  Li7  1  0.48531801  0.57840469  0.22988784  1
  Li  Li8  1  0.71044533  0.75000000  0.46869993  1
  Li  Li9  1  0.78955467  0.25000000  0.96869993  1
  Li  Li10  1  0.01468199  0.07840469  0.72988784  1
  Li  Li11  1  0.01468199  0.42159531  0.72988784  1
  Mn  Mn12  1  0.27077818  0.75000000  0.60289747  1
  Mn  Mn13  1  0.22922182  0.25000000  0.10289747  1
  Mn  Mn14  1  0.77077818  0.75000000  0.89710253  1
  Mn  Mn15  1  0.72922182  0.25000000  0.39710253  1
  F  F16  1  0.99162169  0.25000000  0.55164588  1
  F  F17  1  0.08849419  0.75000000  0.81780436  1
  F  F18  1  0.07013228  0.25000000  0.88111439  1
  F  F19  1  0.22503395  0.98518249  0.15211242  1
  F  F20  1  0.22503395  0.51481751  0.15211242  1
  F  F21  1  0.27496605  0.48518249  0.65211242  1
  F  F22  1  0.27496605  0.01481751  0.65211242  1
  F  F23  1  0.42986772  0.75000000  0.38111439  1
  F  F24  1  0.41150581  0.25000000  0.31780436  1
  F  F25  1  0.50837831  0.75000000  0.05164588  1
  F  F26  1  0.49162169  0.25000000  0.94835412  1
  F  F27  1  0.58849419  0.75000000  0.68219564  1
  F  F28  1  0.57013228  0.25000000  0.61888561  1
  F  F29  1  0.72503395  0.98518249  0.34788758  1
  F  F30  1  0.72503395  0.51481751  0.34788758  1
  F  F31  1  0.77496605  0.01481751  0.84788758  1
  F  F32  1  0.77496605  0.48518249  0.84788758  1
  F  F33  1  0.92986772  0.75000000  0.11888561  1
  F  F34  1  0.91150581  0.25000000  0.18219564  1
  F  F35  1  0.00837831  0.75000000  0.44835412  1
