# generated using pymatgen
data_Mn6O5F7
_symmetry_space_group_name_H-M   'P 1'
_cell_length_a   7.30659234
_cell_length_b   5.63054376
_cell_length_c   5.73634365
_cell_angle_alpha   72.42715513
_cell_angle_beta   74.02278392
_cell_angle_gamma   74.24927358
_symmetry_Int_Tables_number   1
_chemical_formula_structural   Mn6O5F7
_chemical_formula_sum   'Mn6 O5 F7'
_cell_volume   211.67349686
_cell_formula_units_Z   1
loop_
 _symmetry_equiv_pos_site_id
 _symmetry_equiv_pos_as_xyz
  1  'x, y, z'
loop_
 _atom_site_type_symbol
 _atom_site_label
 _atom_site_symmetry_multiplicity
 _atom_site_fract_x
 _atom_site_fract_y
 _atom_site_fract_z
 _atom_site_occupancy
  Mn  Mn0  1  0.83740047  0.70280297  0.67619199  1
  Mn  Mn1  1  0.66829444  0.31054527  0.36499572  1
  Mn  Mn2  1  0.31300928  0.67385517  0.61773777  1
  Mn  Mn3  1  0.17350278  0.30636515  0.33405798  1
  Mn  Mn4  1  0.49501840  0.99735203  0.99561087  1
  Mn  Mn5  1  0.99881531  0.00567899  0.00677792  1
  O  O6  1  0.66344887  0.02670245  0.66361552  1
  O  O7  1  0.95845092  0.21253376  0.24642200  1
  O  O8  1  0.03029536  0.80024095  0.76872260  1
  O  O9  1  0.38023760  0.41330581  0.42775021  1
  O  O10  1  0.33364429  0.96770401  0.32979073  1
  F  F11  1  0.33258688  0.38391479  0.93669079  1
  F  F12  1  0.30099032  0.90541627  0.87636262  1
  F  F13  1  0.64128925  0.58500797  0.57609986  1
  F  F14  1  0.69906956  0.08311565  0.10660511  1
  F  F15  1  0.66727673  0.61391636  0.06107657  1
  F  F16  1  0.99036755  0.33399513  0.71370972  1
  F  F17  1  0.01630200  0.67754728  0.29778000  1
