# generated using pymatgen
data_FeOF
_symmetry_space_group_name_H-M   'P 1'
_cell_length_a   9.54797460
_cell_length_b   9.57587948
_cell_length_c   3.06703092
_cell_angle_alpha   90.00000000
_cell_angle_beta   90.00000000
_cell_angle_gamma   90.71210957
_symmetry_Int_Tables_number   1
_chemical_formula_structural   FeOF
_chemical_formula_sum   'Fe8 O8 F8'
_cell_volume   280.39775818
_cell_formula_units_Z   8
loop_
 _symmetry_equiv_pos_site_id
 _symmetry_equiv_pos_as_xyz
  1  'x, y, z'
loop_
 _atom_site_type_symbol
 _atom_site_label
 _atom_site_symmetry_multiplicity
 _atom_site_fract_x
 _atom_site_fract_y
 _atom_site_fract_z
 _atom_site_occupancy
  Fe  Fe0  1  0.00006179  0.97966144  0.00000000  1
  Fe  Fe1  1  0.00890295  0.50749463  0.00000000  1
  Fe  Fe2  1  0.27977611  0.24000079  0.50000000  1
  Fe  Fe3  1  0.23005352  0.74874559  0.50000000  1
  Fe  Fe4  1  0.50184602  0.48175854  0.00000000  1
  Fe  Fe5  1  0.50946813  0.00927094  0.00000000  1
  Fe  Fe6  1  0.73095506  0.25187520  0.50000000  1
  Fe  Fe7  1  0.73715622  0.78316891  0.50000000  1
  O  O8  1  0.09957829  0.90058607  0.50000000  1
  O  O9  1  0.14733212  0.64571707  0.00000000  1
  O  O10  1  0.34537234  0.34999277  0.00000000  1
  O  O11  1  0.40280871  0.09031389  0.50000000  1
  O  O12  1  0.60425106  0.41106255  0.50000000  1
  O  O13  1  0.59010592  0.90367162  0.50000000  1
  O  O14  1  0.66144417  0.15530952  0.00000000  1
  O  O15  1  0.84594563  0.85007379  0.00000000  1
  F  F16  1  0.09078303  0.39846264  0.50000000  1
  F  F17  1  0.15132237  0.15542244  0.00000000  1
  F  F18  1  0.34307918  0.83349645  0.00000000  1
  F  F19  1  0.40117063  0.60087235  0.50000000  1
  F  F20  1  0.65002780  0.65714156  0.00000000  1
  F  F21  1  0.85708844  0.35266203  0.00000000  1
  F  F22  1  0.91178529  0.10361117  0.50000000  1
  F  F23  1  0.89968721  0.58963005  0.50000000  1
