# generated using pymatgen
data_MnOF
_symmetry_space_group_name_H-M   'P 1'
_cell_length_a   4.82366590
_cell_length_b   19.01583630
_cell_length_c   3.06373957
_cell_angle_alpha   90.00000000
_cell_angle_beta   90.00000000
_cell_angle_gamma   95.09474381
_symmetry_Int_Tables_number   1
_chemical_formula_structural   MnOF
_chemical_formula_sum   'Mn8 O8 F8'
_cell_volume   279.91443421
_cell_formula_units_Z   8
loop_
 _symmetry_equiv_pos_site_id
 _symmetry_equiv_pos_as_xyz
  1  'x, y, z'
loop_
 _atom_site_type_symbol
 _atom_site_label
 _atom_site_symmetry_multiplicity
 _atom_site_fract_x
 _atom_site_fract_y
 _atom_site_fract_z
 _atom_site_occupancy
  Mn  Mn0  1  0.00000000  0.00000000  0.00000000  1
  Mn  Mn1  1  0.05430857  0.25104124  0.00000000  1
  Mn  Mn2  1  0.00000000  0.50000000  0.00000000  1
  Mn  Mn3  1  0.94569143  0.74895876  0.00000000  1
  Mn  Mn4  1  0.59395039  0.12523011  0.50000000  1
  Mn  Mn5  1  0.52514660  0.37621567  0.50000000  1
  Mn  Mn6  1  0.47485340  0.62378433  0.50000000  1
  Mn  Mn7  1  0.40604961  0.87476989  0.50000000  1
  O  O8  1  0.15979024  0.95299971  0.50000000  1
  O  O9  1  0.29197235  0.57430725  0.00000000  1
  O  O10  1  0.33733697  0.32725734  0.00000000  1
  O  O11  1  0.24226708  0.82426295  0.00000000  1
  O  O12  1  0.75773292  0.17573705  0.00000000  1
  O  O13  1  0.70802765  0.42569275  0.00000000  1
  O  O14  1  0.66266303  0.67274266  0.00000000  1
  O  O15  1  0.84020976  0.04700029  0.50000000  1
  F  F16  1  0.24616467  0.20068396  0.50000000  1
  F  F17  1  0.19089855  0.45250074  0.50000000  1
  F  F18  1  0.14885634  0.70363537  0.50000000  1
  F  F19  1  0.36215344  0.07942302  0.00000000  1
  F  F20  1  0.63784656  0.92057698  0.00000000  1
  F  F21  1  0.85114366  0.29636463  0.50000000  1
  F  F22  1  0.80910145  0.54749926  0.50000000  1
  F  F23  1  0.75383533  0.79931604  0.50000000  1
