# generated using pymatgen
data_Li4(NiO2)5
_symmetry_space_group_name_H-M   'P 1'
_cell_length_a   8.12027970
_cell_length_b   4.96382057
_cell_length_c   5.72894770
_cell_angle_alpha   63.62490331
_cell_angle_beta   113.87668733
_cell_angle_gamma   87.38856014
_symmetry_Int_Tables_number   1
_chemical_formula_structural   Li4(NiO2)5
_chemical_formula_sum   'Li4 Ni5 O10'
_cell_volume   181.87740039
_cell_formula_units_Z   1
loop_
 _symmetry_equiv_pos_site_id
 _symmetry_equiv_pos_as_xyz
  1  'x, y, z'
loop_
 _atom_site_type_symbol
 _atom_site_label
 _atom_site_symmetry_multiplicity
 _atom_site_fract_x
 _atom_site_fract_y
 _atom_site_fract_z
 _atom_site_occupancy
  Li  Li0  1  0.24347927  0.23815592  0.80028858  1
  Li  Li1  1  0.04627726  0.87586086  0.59650932  1
  Li  Li2  1  0.76046212  0.72682789  0.21262052  1
  Li  Li3  1  0.56043768  0.35429790  0.00837280  1
  Ni  Ni4  1  0.99744382  0.00475900  0.99475190  1
  Ni  Ni5  1  0.19587668  0.40202413  0.19323867  1
  Ni  Ni6  1  0.60053427  0.19703661  0.60289433  1
  Ni  Ni7  1  0.40151691  0.80036429  0.40502490  1
  Ni  Ni8  1  0.80196267  0.59689646  0.80187976  1
  O  O9  1  0.41194475  0.21756473  0.20682775  1
  O  O10  1  0.20576333  0.82589554  0.99734972  1
  O  O11  1  0.01170667  0.44222801  0.78490956  1
  O  O12  1  0.39048149  0.38293135  0.59975467  1
  O  O13  1  0.81187749  0.01055583  0.61089346  1
  O  O14  1  0.17875818  0.98722022  0.37147359  1
  O  O15  1  0.63028335  0.61731740  0.44370834  1
  O  O16  1  0.96786965  0.57360701  0.16120602  1
  O  O17  1  0.78782303  0.17784840  0.99676484  1
  O  O18  1  0.59540338  0.76841446  0.81143428  1
