# generated using pymatgen
data_LiMn2P2(O4F)2
_symmetry_space_group_name_H-M   'P 1'
_cell_length_a   12.80474506
_cell_length_b   5.07142316
_cell_length_c   12.88022733
_cell_angle_alpha   89.99800758
_cell_angle_beta   59.96722315
_cell_angle_gamma   90.11181966
_symmetry_Int_Tables_number   1
_chemical_formula_structural   LiMn2P2(O4F)2
_chemical_formula_sum   'Li4 Mn8 P8 O32 F8'
_cell_volume   724.11957544
_cell_formula_units_Z   4
loop_
 _symmetry_equiv_pos_site_id
 _symmetry_equiv_pos_as_xyz
  1  'x, y, z'
loop_
 _atom_site_type_symbol
 _atom_site_label
 _atom_site_symmetry_multiplicity
 _atom_site_fract_x
 _atom_site_fract_y
 _atom_site_fract_z
 _atom_site_occupancy
  Li  Li0  1  0.09714866  0.77467603  0.32862143  1
  Li  Li1  1  0.40075507  0.27275104  0.42252997  1
  Li  Li2  1  0.58118329  0.75935319  0.07690628  1
  Li  Li3  1  0.66898530  0.26078480  0.16098704  1
  Mn  Mn4  1  0.06692866  0.73972251  0.11723940  1
  Mn  Mn5  1  0.06555269  0.77959066  0.62203226  1
  Mn  Mn6  1  0.42323175  0.21731034  0.18062801  1
  Mn  Mn7  1  0.57726144  0.72112575  0.32177969  1
  Mn  Mn8  1  0.43228070  0.28208681  0.68638618  1
  Mn  Mn9  1  0.56396783  0.78002019  0.81060719  1
  Mn  Mn10  1  0.93076786  0.23324643  0.38319236  1
  Mn  Mn11  1  0.93249464  0.27472994  0.87712292  1
  P  P12  1  0.15396464  0.27649000  0.43110038  1
  P  P13  1  0.34068901  0.71629249  0.07788088  1
  P  P14  1  0.15502913  0.23629501  0.93191543  1
  P  P15  1  0.34352718  0.77711543  0.58725355  1
  P  P16  1  0.66095463  0.22123724  0.42069835  1
  P  P17  1  0.84466673  0.77400870  0.06394568  1
  P  P18  1  0.65611471  0.27308110  0.91676962  1
  P  P19  1  0.84223893  0.72764561  0.57160564  1
  O  O20  1  0.12657536  0.40744438  0.04230856  1
  O  O21  1  0.20452567  0.78897878  0.13996335  1
  O  O22  1  0.08901669  0.15886924  0.36599296  1
  O  O23  1  0.12670531  0.57307299  0.45435587  1
  O  O24  1  0.12207373  0.12427937  0.54540140  1
  O  O25  1  0.35891237  0.42274600  0.09209967  1
  O  O26  1  0.39004785  0.86683474  0.15041198  1
  O  O27  1  0.29255107  0.23332669  0.34639877  1
  O  O28  1  0.21038119  0.73804697  0.62907882  1
  O  O29  1  0.08230135  0.32355326  0.87254803  1
  O  O30  1  0.12684795  0.94304353  0.97413057  1
  O  O31  1  0.41477662  0.67102291  0.45537926  1
  O  O32  1  0.37565653  0.07801911  0.58838584  1
  O  O33  1  0.59407094  0.16173328  0.05047751  1
  O  O34  1  0.37497244  0.61539301  0.66784292  1
  O  O35  1  0.28960488  0.25262637  0.84062935  1
  O  O36  1  0.70770941  0.71467322  0.15178496  1
  O  O37  1  0.62189199  0.36747758  0.33741353  1
  O  O38  1  0.40359961  0.80840368  0.94731656  1
  O  O39  1  0.64574921  0.92898382  0.40786323  1
  O  O40  1  0.58750504  0.33115521  0.54919411  1
  O  O41  1  0.85376481  0.07579021  0.03293601  1
  O  O42  1  0.91251731  0.69764685  0.12981383  1
  O  O43  1  0.79381132  0.30476001  0.37038865  1
  O  O44  1  0.70778936  0.75445706  0.65774290  1
  O  O45  1  0.61363303  0.11541555  0.84412806  1
  O  O46  1  0.62348662  0.56699828  0.92251996  1
  O  O47  1  0.87997682  0.89328224  0.45636790  1
  O  O48  1  0.87465617  0.43514368  0.52805828  1
  O  O49  1  0.91113834  0.81355692  0.63546743  1
  O  O50  1  0.79193193  0.22122331  0.86399220  1
  O  O51  1  0.87583045  0.60676540  0.95357003  1
  F  F52  1  0.00679234  0.53719804  0.27907295  1
  F  F53  1  0.99528769  0.97275300  0.78789313  1
  F  F54  1  0.49739294  0.50553156  0.21987492  1
  F  F55  1  0.51635025  0.02080273  0.27479992  1
  F  F56  1  0.48868107  0.98083075  0.72023952  1
  F  F57  1  0.50357533  0.46914281  0.76894258  1
  F  F58  1  0.99969937  0.03326887  0.22623280  1
  F  F59  1  0.00099981  0.46501330  0.72757649  1
