# generated using pymatgen
data_Mn3Cu3(TeO8)2
_symmetry_space_group_name_H-M   'P 1'
_cell_length_a   5.95065928
_cell_length_b   5.84877951
_cell_length_c   9.22228280
_cell_angle_alpha   89.97198333
_cell_angle_beta   87.60409753
_cell_angle_gamma   119.43384249
_symmetry_Int_Tables_number   1
_chemical_formula_structural   Mn3Cu3(TeO8)2
_chemical_formula_sum   'Mn3 Cu3 Te2 O16'
_cell_volume   279.21719723
_cell_formula_units_Z   1
loop_
 _symmetry_equiv_pos_site_id
 _symmetry_equiv_pos_as_xyz
  1  'x, y, z'
loop_
 _atom_site_type_symbol
 _atom_site_label
 _atom_site_symmetry_multiplicity
 _atom_site_fract_x
 _atom_site_fract_y
 _atom_site_fract_z
 _atom_site_occupancy
  Mn  Mn0  1  0.66298171  0.83148040  0.21277408  1
  Mn  Mn1  1  0.82796153  0.66289871  0.70956520  1
  Mn  Mn2  1  0.82792173  0.16502205  0.70955148  1
  Cu  Cu3  1  0.16471403  0.82977611  0.20901427  1
  Cu  Cu4  1  0.16426595  0.33458950  0.20894650  1
  Cu  Cu5  1  0.33563442  0.16783484  0.71143600  1
  Te  Te6  1  0.33318484  0.66694817  0.48520654  1
  Te  Te7  1  0.65667644  0.32826929  0.99039429  1
  O  O8  1  0.16625238  0.83001901  0.59598569  1
  O  O9  1  0.04689820  0.52415800  0.34825910  1
  O  O10  1  0.34414140  0.67318421  0.11622340  1
  O  O11  1  0.99185908  0.99462024  0.29917708  1
  O  O12  1  0.98396754  0.99215883  0.80341740  1
  O  O13  1  0.16619242  0.33649270  0.59576795  1
  O  O14  1  0.50967095  0.97260503  0.34992444  1
  O  O15  1  0.50847170  0.53637099  0.34973221  1
  O  O16  1  0.32372726  0.16124610  0.09258157  1
  O  O17  1  0.65584623  0.82790819  0.60373148  1
  O  O18  1  0.53050121  0.49237641  0.84522548  1
  O  O19  1  0.53050154  0.03796714  0.84515254  1
  O  O20  1  0.68003630  0.33991769  0.60969223  1
  O  O21  1  0.81552108  0.65236940  0.09406409  1
  O  O22  1  0.95665691  0.47839291  0.83559638  1
  O  O23  1  0.81641516  0.16359308  0.09430158  1
