# generated using pymatgen
data_V3O5F
_symmetry_space_group_name_H-M   'P 1'
_cell_length_a   7.39767275
_cell_length_b   5.52051293
_cell_length_c   5.52051293
_cell_angle_alpha   71.83519046
_cell_angle_beta   69.81939974
_cell_angle_gamma   69.81939974
_symmetry_Int_Tables_number   1
_chemical_formula_structural   V3O5F
_chemical_formula_sum   'V6 O10 F2'
_cell_volume   193.80896964
_cell_formula_units_Z   2
loop_
 _symmetry_equiv_pos_site_id
 _symmetry_equiv_pos_as_xyz
  1  'x, y, z'
loop_
 _atom_site_type_symbol
 _atom_site_label
 _atom_site_symmetry_multiplicity
 _atom_site_fract_x
 _atom_site_fract_y
 _atom_site_fract_z
 _atom_site_occupancy
  V  V0  1  0.81222591  0.65969674  0.65969674  1
  V  V1  1  0.66666700  0.33333300  0.33333300  1
  V  V2  1  0.34202896  0.64462175  0.64462175  1
  V  V3  1  0.16666700  0.33333300  0.33333300  1
  V  V4  1  0.52110709  0.00697026  0.00697026  1
  V  V5  1  0.99130504  0.02204525  0.02204525  1
  O  O6  1  0.66666700  0.03296733  0.63369867  1
  O  O7  1  0.33018415  0.36782646  0.96907495  1
  O  O8  1  0.97469773  0.22983986  0.22983986  1
  O  O9  1  0.62425865  0.57091022  0.57091022  1
  O  O10  1  0.70907535  0.09575578  0.09575578  1
  O  O11  1  0.35863527  0.43682714  0.43682714  1
  O  O12  1  0.00314985  0.29884054  0.69759105  1
  O  O13  1  0.66666700  0.63369867  0.03296733  1
  O  O14  1  0.33018415  0.96907495  0.36782646  1
  O  O15  1  0.00314985  0.69759105  0.29884054  1
  F  F16  1  0.29685268  0.89514835  0.89514835  1
  F  F17  1  0.03648132  0.77151865  0.77151865  1
