# generated using pymatgen
data_Re3Mo
_symmetry_space_group_name_H-M   'P 1'
_cell_length_a   5.58999592
_cell_length_b   5.58996639
_cell_length_c   4.54956617
_cell_angle_alpha   90.00000000
_cell_angle_beta   90.00000000
_cell_angle_gamma   119.99875681
_symmetry_Int_Tables_number   1
_chemical_formula_structural   Re3Mo
_chemical_formula_sum   'Re6 Mo2'
_cell_volume   123.11947235
_cell_formula_units_Z   2
loop_
 _symmetry_equiv_pos_site_id
 _symmetry_equiv_pos_as_xyz
  1  'x, y, z'
loop_
 _atom_site_type_symbol
 _atom_site_label
 _atom_site_symmetry_multiplicity
 _atom_site_fract_x
 _atom_site_fract_y
 _atom_site_fract_z
 _atom_site_occupancy
  Re  Re0  1  0.83397069  0.16603289  0.74999800  1
  Re  Re1  1  0.33205577  0.16602761  0.74999800  1
  Re  Re2  1  0.83396968  0.66793931  0.74999800  1
  Re  Re3  1  0.16602883  0.83396963  0.24999800  1
  Re  Re4  1  0.66794486  0.83397227  0.24999800  1
  Re  Re5  1  0.16602683  0.33205307  0.24999800  1
  Mo  Mo6  1  0.66667171  0.33332927  0.24999800  1
  Mo  Mo7  1  0.33333264  0.66667095  0.74999800  1
