# generated using pymatgen
data_Li2Co2Si2O7
_symmetry_space_group_name_H-M   'P 1'
_cell_length_a   8.36889759
_cell_length_b   13.10649312
_cell_length_c   5.46664532
_cell_angle_alpha   90.00000000
_cell_angle_beta   89.54630670
_cell_angle_gamma   90.00000000
_symmetry_Int_Tables_number   1
_chemical_formula_structural   Li2Co2Si2O7
_chemical_formula_sum   'Li8 Co8 Si8 O28'
_cell_volume   599.60057276
_cell_formula_units_Z   4
loop_
 _symmetry_equiv_pos_site_id
 _symmetry_equiv_pos_as_xyz
  1  'x, y, z'
loop_
 _atom_site_type_symbol
 _atom_site_label
 _atom_site_symmetry_multiplicity
 _atom_site_fract_x
 _atom_site_fract_y
 _atom_site_fract_z
 _atom_site_occupancy
  Li  Li0  1  0.11229133  0.36621298  0.15535884  1
  Li  Li1  1  0.16883354  0.74539581  0.79554260  1
  Li  Li2  1  0.33116646  0.24539581  0.70445740  1
  Li  Li3  1  0.38770867  0.86621298  0.34464116  1
  Li  Li4  1  0.61229133  0.13378702  0.65535884  1
  Li  Li5  1  0.66883354  0.75460419  0.29554260  1
  Li  Li6  1  0.83116646  0.25460419  0.20445740  1
  Li  Li7  1  0.88770867  0.63378702  0.84464116  1
  Co  Co8  1  0.11468070  0.08475963  0.34054087  1
  Co  Co9  1  0.20530665  0.49207118  0.63874383  1
  Co  Co10  1  0.29469335  0.99207118  0.86125617  1
  Co  Co11  1  0.38531930  0.58475963  0.15945913  1
  Co  Co12  1  0.61468070  0.41524037  0.84054087  1
  Co  Co13  1  0.70530665  0.00792882  0.13874383  1
  Co  Co14  1  0.79469335  0.50792882  0.36125617  1
  Co  Co15  1  0.88531930  0.91524037  0.65945913  1
  Si  Si16  1  0.03780933  0.88517208  0.18407155  1
  Si  Si17  1  0.04445595  0.66969895  0.31945174  1
  Si  Si18  1  0.45554405  0.16969895  0.18054826  1
  Si  Si19  1  0.46219067  0.38517208  0.31592845  1
  Si  Si20  1  0.53780933  0.61482792  0.68407155  1
  Si  Si21  1  0.54445595  0.83030105  0.81945174  1
  Si  Si22  1  0.95554405  0.33030105  0.68054826  1
  Si  Si23  1  0.96219067  0.11482792  0.81592845  1
  O  O24  1  0.03803960  0.79392633  0.39630183  1
  O  O25  1  0.00756415  0.16389513  0.07754411  1
  O  O26  1  0.09010985  0.03117773  0.70016592  1
  O  O27  1  0.07297465  0.61654702  0.58975837  1
  O  O28  1  0.12949769  0.36393356  0.79415116  1
  O  O29  1  0.18384479  0.65876458  0.11268897  1
  O  O30  1  0.21206271  0.94394607  0.18963916  1
  O  O31  1  0.28793729  0.44394607  0.31036084  1
  O  O32  1  0.31615521  0.15876458  0.38731103  1
  O  O33  1  0.37050231  0.86393356  0.70584884  1
  O  O34  1  0.42702535  0.11654702  0.91024163  1
  O  O35  1  0.40989015  0.53117773  0.79983408  1
  O  O36  1  0.49243585  0.66389513  0.42245589  1
  O  O37  1  0.46196040  0.29392633  0.10369817  1
  O  O38  1  0.53803960  0.70607367  0.89630183  1
  O  O39  1  0.50756415  0.33610487  0.57754411  1
  O  O40  1  0.59010985  0.46882227  0.20016592  1
  O  O41  1  0.57297465  0.88345298  0.08975837  1
  O  O42  1  0.62949769  0.13606644  0.29415116  1
  O  O43  1  0.68384479  0.84123542  0.61268897  1
  O  O44  1  0.71206271  0.55605393  0.68963916  1
  O  O45  1  0.78793729  0.05605393  0.81036084  1
  O  O46  1  0.81615521  0.34123542  0.88731103  1
  O  O47  1  0.87050231  0.63606644  0.20584884  1
  O  O48  1  0.92702535  0.38345298  0.41024163  1
  O  O49  1  0.90989015  0.96882227  0.29983408  1
  O  O50  1  0.99243585  0.83610487  0.92245589  1
  O  O51  1  0.96196040  0.20607367  0.60369817  1
