# generated using pymatgen
data_Fe8SiO12
_symmetry_space_group_name_H-M   'P 1'
_cell_length_a   6.00298381
_cell_length_b   9.11982281
_cell_length_c   8.48437632
_cell_angle_alpha   89.28485666
_cell_angle_beta   90.00000000
_cell_angle_gamma   90.00000000
_symmetry_Int_Tables_number   1
_chemical_formula_structural   Fe8SiO12
_chemical_formula_sum   'Fe16 Si2 O24'
_cell_volume   464.45074648
_cell_formula_units_Z   2
loop_
 _symmetry_equiv_pos_site_id
 _symmetry_equiv_pos_as_xyz
  1  'x, y, z'
loop_
 _atom_site_type_symbol
 _atom_site_label
 _atom_site_symmetry_multiplicity
 _atom_site_fract_x
 _atom_site_fract_y
 _atom_site_fract_z
 _atom_site_occupancy
  Fe  Fe0  1  0.00000000  0.00000000  0.00000000  1
  Fe  Fe1  1  0.98693165  0.33669302  0.50475483  1
  Fe  Fe2  1  0.01306835  0.66330698  0.49524517  1
  Fe  Fe3  1  0.25000000  0.00895553  0.38136738  1
  Fe  Fe4  1  0.25000000  0.32437631  0.13527481  1
  Fe  Fe5  1  0.25000000  0.16536898  0.75237270  1
  Fe  Fe6  1  0.25000000  0.49910040  0.78308861  1
  Fe  Fe7  1  0.25000000  0.83435520  0.75356589  1
  Fe  Fe8  1  0.50000000  0.00000000  0.00000000  1
  Fe  Fe9  1  0.48693165  0.66330698  0.49524517  1
  Fe  Fe10  1  0.51306835  0.33669302  0.50475483  1
  Fe  Fe11  1  0.75000000  0.99104447  0.61863262  1
  Fe  Fe12  1  0.75000000  0.16564480  0.24643411  1
  Fe  Fe13  1  0.75000000  0.50089960  0.21691139  1
  Fe  Fe14  1  0.75000000  0.67562369  0.86472519  1
  Fe  Fe15  1  0.75000000  0.83463102  0.24762730  1
  Si  Si16  1  0.25000000  0.67181363  0.13124270  1
  Si  Si17  1  0.75000000  0.32818637  0.86875730  1
  O  O18  1  0.01055270  0.98876309  0.75118669  1
  O  O19  1  0.98589794  0.32721481  0.25995112  1
  O  O20  1  0.02343035  0.66865171  0.24484325  1
  O  O21  1  0.25000000  0.16239605  0.99634055  1
  O  O22  1  0.25000000  0.18240216  0.50943329  1
  O  O23  1  0.25000000  0.49199781  0.52929073  1
  O  O24  1  0.25000000  0.51693113  0.02813402  1
  O  O25  1  0.25000000  0.81410179  0.00723804  1
  O  O26  1  0.25000000  0.82870242  0.50783040  1
  O  O27  1  0.51410206  0.32721481  0.25995112  1
  O  O28  1  0.47656965  0.66865171  0.24484325  1
  O  O29  1  0.48944730  0.98876309  0.75118669  1
  O  O30  1  0.51055270  0.01123691  0.24881331  1
  O  O31  1  0.52343035  0.33134829  0.75515675  1
  O  O32  1  0.48589794  0.67278519  0.74004888  1
  O  O33  1  0.75000000  0.17129758  0.49216960  1
  O  O34  1  0.75000000  0.50800219  0.47070927  1
  O  O35  1  0.75000000  0.18589821  0.99276196  1
  O  O36  1  0.75000000  0.48306887  0.97186598  1
  O  O37  1  0.75000000  0.81759784  0.49056671  1
  O  O38  1  0.75000000  0.83760395  0.00365945  1
  O  O39  1  0.01410206  0.67278519  0.74004888  1
  O  O40  1  0.97656965  0.33134829  0.75515675  1
  O  O41  1  0.98944730  0.01123691  0.24881331  1
