# generated using pymatgen
data_K8Li9Mn4O16
_symmetry_space_group_name_H-M   'P 1'
_cell_length_a   5.62044568
_cell_length_b   8.75360352
_cell_length_c   10.67364419
_cell_angle_alpha   91.00887593
_cell_angle_beta   78.56536455
_cell_angle_gamma   90.36807070
_symmetry_Int_Tables_number   1
_chemical_formula_structural   K8Li9Mn4O16
_chemical_formula_sum   'K8 Li9 Mn4 O16'
_cell_volume   514.62903729
_cell_formula_units_Z   1
loop_
 _symmetry_equiv_pos_site_id
 _symmetry_equiv_pos_as_xyz
  1  'x, y, z'
loop_
 _atom_site_type_symbol
 _atom_site_label
 _atom_site_symmetry_multiplicity
 _atom_site_fract_x
 _atom_site_fract_y
 _atom_site_fract_z
 _atom_site_occupancy
  K  K0  1  0.13556682  0.01051405  0.14930173  1
  K  K1  1  0.12052371  0.27963644  0.60320556  1
  K  K2  1  0.32972976  0.47043237  0.35531736  1
  K  K3  1  0.61750171  0.21903508  0.09915169  1
  K  K4  1  0.39540237  0.78253015  0.89794148  1
  K  K5  1  0.65786134  0.50846737  0.65527383  1
  K  K6  1  0.87193936  0.71548408  0.40040983  1
  K  K7  1  0.84653848  0.99865805  0.84811503  1
  Li  Li8  1  0.30274862  0.50933918  0.07249805  1
  Li  Li9  1  0.20068993  0.00980512  0.42517849  1
  Li  Li10  1  0.09805857  0.55232506  0.79710771  1
  Li  Li11  1  0.41477152  0.73188169  0.20298647  1
  Li  Li12  1  0.39602402  0.04920305  0.70164889  1
  Li  Li13  1  0.61052633  0.95567358  0.30063920  1
  Li  Li14  1  0.89375619  0.45784793  0.20386553  1
  Li  Li15  1  0.80232939  0.98738821  0.57093328  1
  Li  Li16  1  0.69380938  0.48917359  0.93085749  1
  Mn  Mn17  1  0.19296425  0.29484021  0.92258091  1
  Mn  Mn18  1  0.30582232  0.79267828  0.56977341  1
  Mn  Mn19  1  0.70061655  0.20715946  0.42640112  1
  Mn  Mn20  1  0.84714901  0.70625174  0.06578027  1
  O  O21  1  0.09907030  0.67064609  0.16056906  1
  O  O22  1  0.12732489  0.30809307  0.09611077  1
  O  O23  1  0.13195468  0.97349723  0.61256485  1
  O  O24  1  0.20229998  0.59819565  0.60059859  1
  O  O25  1  0.36648138  0.79853979  0.39156901  1
  O  O26  1  0.44792219  0.15811997  0.35309292  1
  O  O27  1  0.29717901  0.09749485  0.89293399  1
  O  O28  1  0.62238554  0.53160396  0.12385070  1
  O  O29  1  0.36428048  0.47601533  0.88351481  1
  O  O30  1  0.66997326  0.89208151  0.11948513  1
  O  O31  1  0.55300374  0.84562406  0.64611162  1
  O  O32  1  0.63470794  0.19551683  0.59835118  1
  O  O33  1  0.80206627  0.40351277  0.39500672  1
  O  O34  1  0.87278482  0.02495167  0.38594733  1
  O  O35  1  0.85346492  0.69060199  0.89166832  1
  O  O36  1  0.94164597  0.34198554  0.84975469  1
