# generated using pymatgen
data_Co3OF5
_symmetry_space_group_name_H-M   'P 1'
_cell_length_a   10.28903677
_cell_length_b   6.72647251
_cell_length_c   3.12439634
_cell_angle_alpha   90.00000000
_cell_angle_beta   90.00000000
_cell_angle_gamma   70.95546204
_symmetry_Int_Tables_number   1
_chemical_formula_structural   Co3OF5
_chemical_formula_sum   'Co6 O2 F10'
_cell_volume   204.40046907
_cell_formula_units_Z   2
loop_
 _symmetry_equiv_pos_site_id
 _symmetry_equiv_pos_as_xyz
  1  'x, y, z'
loop_
 _atom_site_type_symbol
 _atom_site_label
 _atom_site_symmetry_multiplicity
 _atom_site_fract_x
 _atom_site_fract_y
 _atom_site_fract_z
 _atom_site_occupancy
  Co  Co0  1  0.00000000  0.00000000  0.00000000  1
  Co  Co1  1  0.00000000  0.50000000  0.50000000  1
  Co  Co2  1  0.30448727  0.34761381  0.00000000  1
  Co  Co3  1  0.65634581  0.17190024  0.50000000  1
  Co  Co4  1  0.34365419  0.82809976  0.50000000  1
  Co  Co5  1  0.69551273  0.65238619  0.00000000  1
  O  O6  1  0.18585603  0.40674752  0.50000000  1
  O  O7  1  0.81414397  0.59325248  0.50000000  1
  F  F8  1  0.99980908  0.30587794  0.00000000  1
  F  F9  1  0.00019092  0.69412306  0.00000000  1
  F  F10  1  0.33573513  0.02956884  0.00000000  1
  F  F11  1  0.44691816  0.27689035  0.50000000  1
  F  F12  1  0.13349929  0.93354629  0.50000000  1
  F  F13  1  0.33509418  0.63491093  0.00000000  1
  F  F14  1  0.66490582  0.36508907  0.00000000  1
  F  F15  1  0.86650071  0.06645371  0.50000000  1
  F  F16  1  0.55308184  0.72310965  0.50000000  1
  F  F17  1  0.66426487  0.97043116  0.00000000  1
