# generated using pymatgen
data_Li4Ti2Mn3O10
_symmetry_space_group_name_H-M   'P 1'
_cell_length_a   8.02225020
_cell_length_b   6.62693194
_cell_length_c   8.09186248
_cell_angle_alpha   113.25476474
_cell_angle_beta   81.77999739
_cell_angle_gamma   90.86881821
_symmetry_Int_Tables_number   1
_chemical_formula_structural   Li4Ti2Mn3O10
_chemical_formula_sum   'Li8 Ti4 Mn6 O20'
_cell_volume   390.77391309
_cell_formula_units_Z   2
loop_
 _symmetry_equiv_pos_site_id
 _symmetry_equiv_pos_as_xyz
  1  'x, y, z'
loop_
 _atom_site_type_symbol
 _atom_site_label
 _atom_site_symmetry_multiplicity
 _atom_site_fract_x
 _atom_site_fract_y
 _atom_site_fract_z
 _atom_site_occupancy
  Li  Li0  1  0.04179095  0.34850041  0.76907231  1
  Li  Li1  1  0.15720604  0.05861283  0.40372974  1
  Li  Li2  1  0.99296154  0.49993916  0.48493806  1
  Li  Li3  1  0.50703846  0.00006084  0.51506194  1
  Li  Li4  1  0.34279396  0.44138717  0.59627026  1
  Li  Li5  1  0.45820905  0.15149959  0.23092769  1
  Li  Li6  1  0.67655485  0.56682206  0.39928506  1
  Li  Li7  1  0.82344515  0.93317794  0.60071494  1
  Ti  Ti8  1  0.30438955  0.59530083  0.31786786  1
  Ti  Ti9  1  0.19561045  0.90469917  0.68213214  1
  Ti  Ti10  1  0.81674974  0.08441037  0.32022833  1
  Ti  Ti11  1  0.68325026  0.41558963  0.67977167  1
  Mn  Mn12  1  0.09812824  0.21428593  0.10821917  1
  Mn  Mn13  1  0.40187176  0.28571407  0.89178083  1
  Mn  Mn14  1  0.25000000  0.75000000  0.00000000  1
  Mn  Mn15  1  0.75000000  0.25000000  0.00000000  1
  Mn  Mn16  1  0.60544544  0.71030234  0.11232730  1
  Mn  Mn17  1  0.89455456  0.78969766  0.88767270  1
  O  O18  1  0.29899159  0.03688491  0.93716703  1
  O  O19  1  0.26178100  0.15966665  0.65236478  1
  O  O20  1  0.23821900  0.34033335  0.34763522  1
  O  O21  1  0.11674983  0.65023996  0.76617009  1
  O  O22  1  0.10418518  0.77598015  0.46155233  1
  O  O23  1  0.20100841  0.46311509  0.06283297  1
  O  O24  1  0.62175206  0.16086949  0.76348992  1
  O  O25  1  0.02964059  0.96110357  0.16536172  1
  O  O26  1  0.59809321  0.27723313  0.45767603  1
  O  O27  1  0.47035941  0.53889643  0.83463828  1
  O  O28  1  0.52761561  0.45463302  0.16378298  1
  O  O29  1  0.39581482  0.72401985  0.53844767  1
  O  O30  1  0.97238439  0.04536698  0.83621702  1
  O  O31  1  0.38325017  0.84976004  0.23382991  1
  O  O32  1  0.80448321  0.53251859  0.92678689  1
  O  O33  1  0.90190679  0.22276687  0.54232397  1
  O  O34  1  0.87824794  0.33913051  0.23651008  1
  O  O35  1  0.77617496  0.65283896  0.64361312  1
  O  O36  1  0.72382504  0.84716104  0.35638688  1
  O  O37  1  0.69551679  0.96748141  0.07321311  1
