# generated using pymatgen
data_V4O5F7
_symmetry_space_group_name_H-M   'P 1'
_cell_length_a   5.18995835
_cell_length_b   7.44387926
_cell_length_c   5.41679159
_cell_angle_alpha   92.99509369
_cell_angle_beta   90.00000000
_cell_angle_gamma   90.00000000
_symmetry_Int_Tables_number   1
_chemical_formula_structural   V4O5F7
_chemical_formula_sum   'V4 O5 F7'
_cell_volume   208.98334344
_cell_formula_units_Z   1
loop_
 _symmetry_equiv_pos_site_id
 _symmetry_equiv_pos_as_xyz
  1  'x, y, z'
loop_
 _atom_site_type_symbol
 _atom_site_label
 _atom_site_symmetry_multiplicity
 _atom_site_fract_x
 _atom_site_fract_y
 _atom_site_fract_z
 _atom_site_occupancy
  V  V0  1  0.53078846  0.50595752  0.47552644  1
  V  V1  1  0.53078846  0.99404248  0.52447356  1
  V  V2  1  0.02863033  0.50881936  0.96523258  1
  V  V3  1  0.02863033  0.99118064  0.03476742  1
  O  O4  1  0.78228837  0.54379175  0.29611281  1
  O  O5  1  0.78228837  0.95620825  0.70388719  1
  O  O6  1  0.19424279  0.03824075  0.29369648  1
  O  O7  1  0.19424279  0.46175925  0.70630352  1
  O  O8  1  0.07761592  0.75000000  0.00000000  1
  F  F9  1  0.91280302  0.25000000  0.00000000  1
  F  F10  1  0.69446264  0.95245411  0.19740674  1
  F  F11  1  0.69446264  0.54754589  0.80259326  1
  F  F12  1  0.58969269  0.25000000  0.50000000  1
  F  F13  1  0.38977765  0.75000000  0.50000000  1
  F  F14  1  0.28464328  0.44646107  0.20484072  1
  F  F15  1  0.28464328  0.05353893  0.79515928  1
