# generated using pymatgen
data_Li3Fe3(PO4)4
_symmetry_space_group_name_H-M   'P 1'
_cell_length_a   13.54413178
_cell_length_b   8.25816541
_cell_length_c   8.89327842
_cell_angle_alpha   89.93854852
_cell_angle_beta   84.27734360
_cell_angle_gamma   90.07984247
_symmetry_Int_Tables_number   1
_chemical_formula_structural   Li3Fe3(PO4)4
_chemical_formula_sum   'Li9 Fe9 P12 O48'
_cell_volume   989.75123626
_cell_formula_units_Z   3
loop_
 _symmetry_equiv_pos_site_id
 _symmetry_equiv_pos_as_xyz
  1  'x, y, z'
loop_
 _atom_site_type_symbol
 _atom_site_label
 _atom_site_symmetry_multiplicity
 _atom_site_fract_x
 _atom_site_fract_y
 _atom_site_fract_z
 _atom_site_occupancy
  Li  Li0  1  0.16905869  0.47671917  0.33662271  1
  Li  Li1  1  0.49611805  0.52155902  0.99301400  1
  Li  Li2  1  0.17483583  0.14783264  0.43660593  1
  Li  Li3  1  0.16462468  0.00811038  0.82231239  1
  Li  Li4  1  0.50709609  0.99728764  0.51176249  1
  Li  Li5  1  0.83825859  0.02537658  0.17429265  1
  Li  Li6  1  0.84514857  0.35259327  0.27426719  1
  Li  Li7  1  0.49044407  0.85385910  0.89432060  1
  Li  Li8  1  0.82907462  0.49357590  0.65225043  1
  Fe  Fe9  1  0.16311930  0.85724912  0.23477942  1
  Fe  Fe10  1  0.50492776  0.14572680  0.09835101  1
  Fe  Fe11  1  0.16216415  0.64802647  0.73502875  1
  Fe  Fe12  1  0.49866596  0.65077892  0.40137965  1
  Fe  Fe13  1  0.82752345  0.64246577  0.07255392  1
  Fe  Fe14  1  0.16755450  0.34563290  0.93507233  1
  Fe  Fe15  1  0.50712306  0.34857780  0.59892706  1
  Fe  Fe16  1  0.82573216  0.85056933  0.56464290  1
  Fe  Fe17  1  0.83774953  0.15559657  0.76440960  1
  P  P18  1  0.05315303  0.19311479  0.14461974  1
  P  P19  1  0.27921346  0.69978473  0.02578397  1
  P  P20  1  0.05809406  0.29742595  0.63901381  1
  P  P21  1  0.38765957  0.30035192  0.30765545  1
  P  P22  1  0.27609662  0.79646562  0.52062096  1
  P  P23  1  0.60964109  0.80323377  0.18796500  1
  P  P24  1  0.39125928  0.20309639  0.81296585  1
  P  P25  1  0.72449359  0.20231398  0.47199331  1
  P  P26  1  0.60903298  0.70259060  0.69478168  1
  P  P27  1  0.94321480  0.70422478  0.35427316  1
  P  P28  1  0.72414868  0.30234742  0.97764067  1
  P  P29  1  0.94141065  0.79789058  0.85773112  1
  O  O30  1  0.22195810  0.86552063  0.01952051  1
  O  O31  1  0.11118447  0.36106848  0.14578973  1
  O  O32  1  0.10378991  0.07033639  0.24640998  1
  O  O33  1  0.05481366  0.71919595  0.30808397  1
  O  O34  1  0.24972215  0.64748237  0.19197075  1
  O  O35  1  0.07313745  0.36685150  0.48198670  1
  O  O36  1  0.41726526  0.35305791  0.14100084  1
  O  O37  1  0.27896176  0.29515469  0.35742426  1
  O  O38  1  0.23230041  0.91580044  0.41063302  1
  O  O39  1  0.61290003  0.28370661  0.02729947  1
  O  O40  1  0.56549969  0.92944224  0.08537982  1
  O  O41  1  0.22146215  0.62783755  0.52372022  1
  O  O42  1  0.11047769  0.13651987  0.65372868  1
  O  O43  1  0.55249365  0.63689965  0.18631876  1
  O  O44  1  0.44523158  0.13417458  0.31220478  1
  O  O45  1  0.10310954  0.42578152  0.75662678  1
  O  O46  1  0.05278507  0.78548456  0.80397512  1
  O  O47  1  0.44163811  0.42229604  0.41728407  1
  O  O48  1  0.38862080  0.78131858  0.47495149  1
  O  O49  1  0.76826779  0.42813700  0.08194615  1
  O  O50  1  0.25250764  0.84924195  0.68841273  1
  O  O51  1  0.72140955  0.78464896  0.13868253  1
  O  O52  1  0.58899056  0.84702698  0.35890785  1
  O  O53  1  0.92039817  0.85240470  0.02326561  1
  O  O54  1  0.08043343  0.14836884  0.97306523  1
  O  O55  1  0.41413244  0.14877125  0.64593986  1
  O  O56  1  0.27903267  0.21835361  0.85870021  1
  O  O57  1  0.73796475  0.13323973  0.31449973  1
  O  O58  1  0.22644170  0.57665814  0.91592620  1
  O  O59  1  0.61144531  0.20808071  0.53271626  1
  O  O60  1  0.56414405  0.57371029  0.57820017  1
  O  O61  1  0.94329304  0.20539108  0.18903144  1
  O  O62  1  0.89843132  0.58389954  0.24431527  1
  O  O63  1  0.55598687  0.86256894  0.67989372  1
  O  O64  1  0.44661626  0.37096472  0.81012963  1
  O  O65  1  0.88634802  0.87066454  0.35409027  1
  O  O66  1  0.77695838  0.36334583  0.48587244  1
  O  O67  1  0.43547238  0.08439837  0.92403273  1
  O  O68  1  0.38864054  0.70564163  0.97614706  1
  O  O69  1  0.77092208  0.07534145  0.58876603  1
  O  O70  1  0.72210630  0.71022277  0.63454756  1
  O  O71  1  0.59512574  0.63406736  0.85280321  1
  O  O72  1  0.91944197  0.65277895  0.52231341  1
  O  O73  1  0.74447048  0.34870047  0.80743249  1
  O  O74  1  0.94496737  0.29053025  0.69921876  1
  O  O75  1  0.89426050  0.92121307  0.74726014  1
  O  O76  1  0.88569024  0.63216692  0.85517857  1
  O  O77  1  0.78211409  0.13715548  0.97875604  1
