# generated using pymatgen
data_V4O7F5
_symmetry_space_group_name_H-M   'P 1'
_cell_length_a   5.26107707
_cell_length_b   7.35116581
_cell_length_c   5.37429263
_cell_angle_alpha   91.67777150
_cell_angle_beta   90.43454882
_cell_angle_gamma   89.94147910
_symmetry_Int_Tables_number   1
_chemical_formula_structural   V4O7F5
_chemical_formula_sum   'V4 O7 F5'
_cell_volume   207.75588682
_cell_formula_units_Z   1
loop_
 _symmetry_equiv_pos_site_id
 _symmetry_equiv_pos_as_xyz
  1  'x, y, z'
loop_
 _atom_site_type_symbol
 _atom_site_label
 _atom_site_symmetry_multiplicity
 _atom_site_fract_x
 _atom_site_fract_y
 _atom_site_fract_z
 _atom_site_occupancy
  V  V0  1  0.50064514  0.46801096  0.46795355  1
  V  V1  1  0.46590448  0.97616788  0.53469756  1
  V  V2  1  0.02058569  0.52706731  0.99411310  1
  V  V3  1  0.95686420  0.02355319  0.02539872  1
  O  O4  1  0.92706690  0.25113957  0.00205410  1
  O  O5  1  0.72064910  0.96767257  0.21338049  1
  O  O6  1  0.57702692  0.24862823  0.49960090  1
  O  O7  1  0.42970135  0.74989684  0.50396207  1
  O  O8  1  0.30528942  0.46130536  0.21540788  1
  O  O9  1  0.28992338  0.03361623  0.78137215  1
  O  O10  1  0.07419072  0.75228173  0.99756519  1
  F  F11  1  0.79867511  0.54419228  0.29639651  1
  F  F12  1  0.79373853  0.95934997  0.70757742  1
  F  F13  1  0.70955791  0.53663336  0.78104886  1
  F  F14  1  0.21701288  0.04485567  0.28475686  1
  F  F15  1  0.21316928  0.45562984  0.69471463  1
