# generated using pymatgen
data_Li4V3P8O29
_symmetry_space_group_name_H-M   'P 1'
_cell_length_a   9.75828667
_cell_length_b   9.78779311
_cell_length_c   14.17003122
_cell_angle_alpha   90.10359223
_cell_angle_beta   90.18259440
_cell_angle_gamma   60.01095868
_symmetry_Int_Tables_number   1
_chemical_formula_structural   Li4V3P8O29
_chemical_formula_sum   'Li8 V6 P16 O58'
_cell_volume   1172.21026634
_cell_formula_units_Z   2
loop_
 _symmetry_equiv_pos_site_id
 _symmetry_equiv_pos_as_xyz
  1  'x, y, z'
loop_
 _atom_site_type_symbol
 _atom_site_label
 _atom_site_symmetry_multiplicity
 _atom_site_fract_x
 _atom_site_fract_y
 _atom_site_fract_z
 _atom_site_occupancy
  Li  Li0  1  0.76404003  0.90195232  0.55892260  1
  Li  Li1  1  0.90105522  0.33451870  0.56087273  1
  Li  Li2  1  0.77486569  0.31739759  0.05507223  1
  Li  Li3  1  0.31028997  0.91608954  0.05962837  1
  Li  Li4  1  0.32841727  0.76922758  0.56065923  1
  Li  Li5  1  0.69229962  0.08479691  0.93858749  1
  Li  Li6  1  0.22787690  0.68123298  0.94069456  1
  Li  Li7  1  0.99929186  0.00647246  0.50351628  1
  V  V8  1  0.56515761  0.43237643  0.25592952  1
  V  V9  1  0.43386686  0.56774914  0.74556259  1
  V  V10  1  0.56686167  0.99806970  0.74919268  1
  V  V11  1  0.43355536  0.00501222  0.25309871  1
  V  V12  1  0.99964308  0.56624983  0.24732006  1
  V  V13  1  0.00058083  0.43398271  0.75157921  1
  P  P14  1  0.91652756  0.76933461  0.84294317  1
  P  P15  1  0.77778797  0.91131183  0.33941393  1
  P  P16  1  0.91655372  0.31248156  0.34427530  1
  P  P17  1  0.66209165  0.66624662  0.13207160  1
  P  P18  1  0.66982131  0.66484570  0.62815759  1
  P  P19  1  0.76787737  0.32132948  0.84049299  1
  P  P20  1  0.69181333  0.22280590  0.65949436  1
  P  P21  1  0.31985262  0.91188986  0.84339469  1
  P  P22  1  0.68239119  0.09089202  0.15790149  1
  P  P23  1  0.31268202  0.77662163  0.34177735  1
  P  P24  1  0.22962752  0.68097915  0.16058353  1
  P  P25  1  0.33012302  0.33577055  0.36869998  1
  P  P26  1  0.33502826  0.33571350  0.86812435  1
  P  P27  1  0.08061650  0.69243610  0.65748672  1
  P  P28  1  0.22113490  0.08484438  0.66167510  1
  P  P29  1  0.08611971  0.22660714  0.16083287  1
  O  O30  1  0.99195450  0.79329116  0.57504965  1
  O  O31  1  0.91614863  0.74029119  0.32887613  1
  O  O32  1  0.75305027  0.01243126  0.06720468  1
  O  O33  1  0.74814491  0.91521342  0.84066736  1
  O  O34  1  0.90562777  0.61780435  0.82183299  1
  O  O35  1  0.81386258  0.65893629  0.17797823  1
  O  O36  1  0.91653512  0.46847015  0.32858235  1
  O  O37  1  0.99069416  0.23162628  0.07841833  1
  O  O38  1  0.91466275  0.34201000  0.83305162  1
  O  O39  1  0.68114364  0.80912590  0.66623150  1
  O  O40  1  0.61840920  0.91179771  0.32529357  1
  O  O41  1  0.81390386  0.50991341  0.67270398  1
  O  O42  1  0.66410435  0.65998264  0.02746752  1
  O  O43  1  0.67911075  0.65267388  0.52294678  1
  O  O44  1  0.65919646  0.51932849  0.17547323  1
  O  O45  1  0.48105702  0.90071654  0.81892834  1
  O  O46  1  0.51505370  0.81936821  0.17217354  1
  O  O47  1  0.74417583  0.34357482  0.32996537  1
  O  O48  1  0.78656534  0.20149506  0.75809566  1
  O  O49  1  0.79983385  0.20554366  0.58028910  1
  O  O50  1  0.75692905  0.24938817  0.93144436  1
  O  O51  1  0.61801117  0.48123229  0.81990427  1
  O  O52  1  0.51200246  0.67867748  0.66618120  1
  O  O53  1  0.65955172  0.25999767  0.16338608  1
  O  O54  1  0.47015315  0.61799712  0.32875046  1
  O  O55  1  0.34532661  0.91531113  0.32986732  1
  O  O56  1  0.79318361  0.00198222  0.24856395  1
  O  O57  1  0.78580158  0.98419671  0.42992414  1
  O  O58  1  0.20023184  0.99565252  0.58213687  1
  O  O59  1  0.65878415  0.08266552  0.66169788  1
  O  O60  1  0.53638850  0.38024274  0.66754683  1
  O  O61  1  0.33761406  0.74542615  0.83511376  1
  O  O62  1  0.48232771  0.33169500  0.32508935  1
  O  O63  1  0.38138642  0.52215525  0.18018418  1
  O  O64  1  0.24179019  0.75761641  0.07222967  1
  O  O65  1  0.23011163  0.78901325  0.43216109  1
  O  O66  1  0.20561585  0.79308279  0.25083157  1
  O  O67  1  0.25457311  0.65890398  0.65874345  1
  O  O68  1  0.48573867  0.18532047  0.82978912  1
  O  O69  1  0.52288963  0.09746670  0.17970123  1
  O  O70  1  0.33172129  0.48662880  0.82762377  1
  O  O71  1  0.32458882  0.33992027  0.97266491  1
  O  O72  1  0.33431070  0.33135060  0.47276869  1
  O  O73  1  0.18559440  0.48146668  0.32257766  1
  O  O74  1  0.37934598  0.08150856  0.66818996  1
  O  O75  1  0.33091181  0.18587807  0.32377268  1
  O  O76  1  0.08505062  0.65673248  0.16411362  1
  O  O77  1  0.00301702  0.79193128  0.75228658  1
  O  O78  1  0.00881899  0.75590113  0.92891486  1
  O  O79  1  0.07867684  0.53610183  0.66958489  1
  O  O80  1  0.18578196  0.33827865  0.81847857  1
  O  O81  1  0.09228735  0.38063198  0.17621947  1
  O  O82  1  0.25739564  0.08286936  0.16031306  1
  O  O83  1  0.25680214  0.98731326  0.93570761  1
  O  O84  1  0.20038014  0.01256250  0.75991954  1
  O  O85  1  0.08053579  0.25900864  0.66245234  1
  O  O86  1  0.98148028  0.23156699  0.43589834  1
  O  O87  1  0.01358680  0.19949982  0.25776143  1
