# generated using pymatgen
data_Li3V3P8O29
_symmetry_space_group_name_H-M   'P 1'
_cell_length_a   9.74877329
_cell_length_b   9.78415395
_cell_length_c   14.29410159
_cell_angle_alpha   90.29173447
_cell_angle_beta   90.06544263
_cell_angle_gamma   59.93866360
_symmetry_Int_Tables_number   1
_chemical_formula_structural   Li3V3P8O29
_chemical_formula_sum   'Li6 V6 P16 O58'
_cell_volume   1180.01026451
_cell_formula_units_Z   2
loop_
 _symmetry_equiv_pos_site_id
 _symmetry_equiv_pos_as_xyz
  1  'x, y, z'
loop_
 _atom_site_type_symbol
 _atom_site_label
 _atom_site_symmetry_multiplicity
 _atom_site_fract_x
 _atom_site_fract_y
 _atom_site_fract_z
 _atom_site_occupancy
  Li  Li0  1  0.76616861  0.90913870  0.55690703  1
  Li  Li1  1  0.77084988  0.32457260  0.05580014  1
  Li  Li2  1  0.32476236  0.76889154  0.55798057  1
  Li  Li3  1  0.32830733  0.33595220  0.10076449  1
  Li  Li4  1  0.03901399  0.94137682  0.00075760  1
  Li  Li5  1  0.97937383  0.06142804  0.50567624  1
  V  V6  1  0.56745837  0.43209581  0.25480826  1
  V  V7  1  0.43709676  0.56229838  0.75058080  1
  V  V8  1  0.56196187  0.99881124  0.75704624  1
  V  V9  1  0.43245205  0.99857576  0.24588120  1
  V  V10  1  0.99793574  0.56785762  0.25251948  1
  V  V11  1  0.99791440  0.43886921  0.74661176  1
  P  P12  1  0.91849113  0.77616256  0.84398883  1
  P  P13  1  0.77146897  0.91790281  0.34089146  1
  P  P14  1  0.92113814  0.30428916  0.34270857  1
  P  P15  1  0.66815858  0.66090822  0.13128810  1
  P  P16  1  0.66333946  0.67151067  0.63218464  1
  P  P17  1  0.77689194  0.31376805  0.84095353  1
  P  P18  1  0.69348937  0.21723241  0.66175752  1
  P  P19  1  0.30270141  0.91487595  0.84473193  1
  P  P20  1  0.69382365  0.08849475  0.15861512  1
  P  P21  1  0.31094147  0.77635807  0.34119304  1
  P  P22  1  0.21932454  0.68926427  0.16145231  1
  P  P23  1  0.33237564  0.33111581  0.36668217  1
  P  P24  1  0.33043752  0.33563932  0.86606860  1
  P  P25  1  0.08325971  0.69538208  0.65950995  1
  P  P26  1  0.22184572  0.08461594  0.66206688  1
  P  P27  1  0.08661827  0.22201775  0.15877911  1
  O  O28  1  0.99257528  0.79518216  0.57872506  1
  O  O29  1  0.91195575  0.74485264  0.32822757  1
  O  O30  1  0.79607943  0.00682097  0.07769165  1
  O  O31  1  0.74114042  0.90969114  0.82990741  1
  O  O32  1  0.92307723  0.61644350  0.82890113  1
  O  O33  1  0.81747919  0.65015195  0.18139617  1
  O  O34  1  0.92691968  0.45800089  0.33071341  1
  O  O35  1  0.99500363  0.21412968  0.07825208  1
  O  O36  1  0.91552906  0.34582598  0.82722844  1
  O  O37  1  0.66630693  0.81735660  0.67688514  1
  O  O38  1  0.61532995  0.91758232  0.32194137  1
  O  O39  1  0.81079942  0.52520374  0.67839916  1
  O  O40  1  0.67619389  0.65443100  0.02803238  1
  O  O41  1  0.66552946  0.67682626  0.52834718  1
  O  O42  1  0.66028505  0.51635063  0.17241030  1
  O  O43  1  0.46037883  0.91965666  0.83198043  1
  O  O44  1  0.52563332  0.81488537  0.17455813  1
  O  O45  1  0.74394427  0.34612713  0.32891532  1
  O  O46  1  0.79190335  0.19691623  0.75763227  1
  O  O47  1  0.79380035  0.19605370  0.57927517  1
  O  O48  1  0.77635971  0.24532961  0.93285074  1
  O  O49  1  0.61902710  0.47300525  0.82191020  1
  O  O50  1  0.51150218  0.67180754  0.66980692  1
  O  O51  1  0.65403975  0.26600475  0.16251303  1
  O  O52  1  0.46932320  0.61898263  0.32338358  1
  O  O53  1  0.34283704  0.91556017  0.32631770  1
  O  O54  1  0.78802273  0.01642078  0.25687085  1
  O  O55  1  0.78123613  0.98281726  0.43312309  1
  O  O56  1  0.20662614  0.99923593  0.57949425  1
  O  O57  1  0.65072787  0.08375296  0.66672573  1
  O  O58  1  0.53965636  0.38110093  0.67199118  1
  O  O59  1  0.34772419  0.73914187  0.82688579  1
  O  O60  1  0.47975436  0.33559163  0.32079888  1
  O  O61  1  0.37575782  0.52795889  0.17041387  1
  O  O62  1  0.20272162  0.78744239  0.07991186  1
  O  O63  1  0.23957145  0.78353189  0.43387253  1
  O  O64  1  0.19675536  0.78945086  0.25738531  1
  O  O65  1  0.25936732  0.65544432  0.66002237  1
  O  O66  1  0.47962985  0.18516323  0.82467748  1
  O  O67  1  0.53018183  0.09573903  0.16732187  1
  O  O68  1  0.33766060  0.47932582  0.82156148  1
  O  O69  1  0.33323030  0.33793214  0.97001177  1
  O  O70  1  0.33789756  0.32913373  0.46978633  1
  O  O71  1  0.18649657  0.47809706  0.32165104  1
  O  O72  1  0.38381496  0.07601955  0.67437945  1
  O  O73  1  0.33651132  0.18444007  0.31810560  1
  O  O74  1  0.08321196  0.64872933  0.16784249  1
  O  O75  1  0.00912133  0.79445220  0.75458024  1
  O  O76  1  0.98827387  0.79822435  0.92983001  1
  O  O77  1  0.07947918  0.53894565  0.67073360  1
  O  O78  1  0.18456366  0.33729756  0.82210057  1
  O  O79  1  0.09793834  0.37436458  0.16919336  1
  O  O80  1  0.26253101  0.08302838  0.16158020  1
  O  O81  1  0.21179618  0.98140751  0.93145380  1
  O  O82  1  0.19678386  0.00634268  0.75499433  1
  O  O83  1  0.08948757  0.26096590  0.66664025  1
  O  O84  1  0.98994564  0.21181054  0.42853426  1
  O  O85  1  0.01052788  0.19742575  0.25296862  1
