# generated using pymatgen
data_Li5Cr3NiO8
_symmetry_space_group_name_H-M   'P 1'
_cell_length_a   8.48793732
_cell_length_b   8.48115300
_cell_length_c   8.48243780
_cell_angle_alpha   90.00317785
_cell_angle_beta   89.99712877
_cell_angle_gamma   89.99992880
_symmetry_Int_Tables_number   1
_chemical_formula_structural   Li5Cr3NiO8
_chemical_formula_sum   'Li20 Cr12 Ni4 O32'
_cell_volume   610.62944814
_cell_formula_units_Z   4
loop_
 _symmetry_equiv_pos_site_id
 _symmetry_equiv_pos_as_xyz
  1  'x, y, z'
loop_
 _atom_site_type_symbol
 _atom_site_label
 _atom_site_symmetry_multiplicity
 _atom_site_fract_x
 _atom_site_fract_y
 _atom_site_fract_z
 _atom_site_occupancy
  Li  Li0  1  0.86263152  0.38869785  0.37522060  1
  Li  Li1  1  0.87439269  0.64053744  0.61342189  1
  Li  Li2  1  0.88896072  0.87547535  0.86232065  1
  Li  Li3  1  0.69442474  0.69363489  0.80726703  1
  Li  Li4  1  0.80148050  0.19812220  0.19955839  1
  Li  Li5  1  0.61282709  0.37500086  0.13776922  1
  Li  Li6  1  0.62410575  0.13623645  0.39054397  1
  Li  Li7  1  0.63896599  0.88760129  0.62538146  1
  Li  Li8  1  0.44443746  0.94263176  0.44389717  1
  Li  Li9  1  0.55177253  0.55119046  0.94761656  1
  Li  Li10  1  0.36225780  0.61155214  0.12486672  1
  Li  Li11  1  0.37431774  0.35942413  0.88642223  1
  Li  Li12  1  0.38893825  0.12455717  0.63783126  1
  Li  Li13  1  0.19450197  0.30602183  0.69285370  1
  Li  Li14  1  0.30205258  0.80253147  0.30096334  1
  Li  Li15  1  0.11275382  0.62513470  0.36171218  1
  Li  Li16  1  0.12408460  0.86379918  0.10940489  1
  Li  Li17  1  0.13863151  0.11201706  0.87475869  1
  Li  Li18  1  0.94381721  0.05785162  0.05662995  1
  Li  Li19  1  0.05220057  0.44870126  0.55242508  1
  Cr  Cr20  1  0.87602081  0.87724551  0.37265482  1
  Cr  Cr21  1  0.87384165  0.62492977  0.12261589  1
  Cr  Cr22  1  0.87825855  0.12717909  0.62497922  1
  Cr  Cr23  1  0.62380144  0.62730670  0.37480072  1
  Cr  Cr24  1  0.62603800  0.37727657  0.62719863  1
  Cr  Cr25  1  0.62829475  0.12493750  0.87709400  1
  Cr  Cr26  1  0.37387154  0.37499173  0.37720034  1
  Cr  Cr27  1  0.37605965  0.12269968  0.12718876  1
  Cr  Cr28  1  0.37824001  0.87277678  0.87488028  1
  Cr  Cr29  1  0.12824555  0.87500878  0.62275950  1
  Cr  Cr30  1  0.12381304  0.37261138  0.12501913  1
  Cr  Cr31  1  0.12601342  0.62268248  0.87265213  1
  Ni  Ni32  1  0.87608336  0.37495049  0.87495521  1
  Ni  Ni33  1  0.62602727  0.87498171  0.12483460  1
  Ni  Ni34  1  0.37604627  0.62499157  0.62486499  1
  Ni  Ni35  1  0.12604111  0.12494646  0.37501312  1
  O  O36  1  0.88440179  0.38552958  0.12580406  1
  O  O37  1  0.88719121  0.62554531  0.88315167  1
  O  O38  1  0.88463337  0.88365154  0.61631763  1
  O  O39  1  0.87551255  0.11657527  0.38606145  1
  O  O40  1  0.87651381  0.86411548  0.13290569  1
  O  O41  1  0.86774854  0.12456084  0.86376853  1
  O  O42  1  0.86761834  0.63319383  0.36667789  1
  O  O43  1  0.86479972  0.36673594  0.62443864  1
  O  O44  1  0.63442920  0.62418900  0.13548502  1
  O  O45  1  0.63716095  0.86682450  0.37547370  1
  O  O46  1  0.63461906  0.13356038  0.63362314  1
  O  O47  1  0.62554082  0.36399345  0.86659651  1
  O  O48  1  0.62653852  0.61701981  0.61396945  1
  O  O49  1  0.61770214  0.38314751  0.38308465  1
  O  O50  1  0.61769096  0.88608290  0.87445835  1
  O  O51  1  0.61485933  0.12552441  0.11654823  1
  O  O52  1  0.38437644  0.61439902  0.37402041  1
  O  O53  1  0.38717156  0.37434959  0.61667720  1
  O  O54  1  0.38464546  0.11631377  0.88353414  1
  O  O55  1  0.37552091  0.88335642  0.11378555  1
  O  O56  1  0.37657482  0.13579925  0.36691133  1
  O  O57  1  0.36770169  0.87539060  0.63609959  1
  O  O58  1  0.36764824  0.36678127  0.13311648  1
  O  O59  1  0.36471702  0.63325054  0.87537238  1
  O  O60  1  0.13445164  0.37574664  0.36432762  1
  O  O61  1  0.13718468  0.13307459  0.12439443  1
  O  O62  1  0.13463438  0.86635352  0.86621824  1
  O  O63  1  0.12555044  0.63602599  0.63325947  1
  O  O64  1  0.12653833  0.38292692  0.88588417  1
  O  O65  1  0.11766619  0.11384527  0.62539303  1
  O  O66  1  0.11759797  0.61673765  0.11669628  1
  O  O67  1  0.11478841  0.87444989  0.38326775  1
