# generated using pymatgen
data_Mn3(OF2)2
_symmetry_space_group_name_H-M   'P 1'
_cell_length_a   4.78806348
_cell_length_b   4.69759938
_cell_length_c   9.69136476
_cell_angle_alpha   90.00000000
_cell_angle_beta   90.00000000
_cell_angle_gamma   90.00000000
_symmetry_Int_Tables_number   1
_chemical_formula_structural   Mn3(OF2)2
_chemical_formula_sum   'Mn6 O4 F8'
_cell_volume   217.98209183
_cell_formula_units_Z   2
loop_
 _symmetry_equiv_pos_site_id
 _symmetry_equiv_pos_as_xyz
  1  'x, y, z'
loop_
 _atom_site_type_symbol
 _atom_site_label
 _atom_site_symmetry_multiplicity
 _atom_site_fract_x
 _atom_site_fract_y
 _atom_site_fract_z
 _atom_site_occupancy
  Mn  Mn0  1  0.03714969  0.00316211  0.99271393  1
  Mn  Mn1  1  0.03714969  0.00316211  0.34061907  1
  Mn  Mn2  1  0.99677583  0.97221075  0.66666700  1
  Mn  Mn3  1  0.46285031  0.50316211  0.84061907  1
  Mn  Mn4  1  0.50322417  0.47221075  0.16666700  1
  Mn  Mn5  1  0.46285031  0.50316211  0.49271393  1
  O  O6  1  0.18857848  0.80566095  0.49723905  1
  O  O7  1  0.18857848  0.80566095  0.83609495  1
  O  O8  1  0.31142152  0.30566095  0.99723905  1
  O  O9  1  0.31142152  0.30566095  0.33609495  1
  F  F10  1  0.22501758  0.80849635  0.16666700  1
  F  F11  1  0.27498242  0.30849635  0.66666700  1
  F  F12  1  0.72333824  0.70835576  0.00741997  1
  F  F13  1  0.72333824  0.70835576  0.32591303  1
  F  F14  1  0.65526238  0.68493527  0.66666700  1
  F  F15  1  0.84473762  0.18493527  0.16666700  1
  F  F16  1  0.77666176  0.20835576  0.50741997  1
  F  F17  1  0.77666176  0.20835576  0.82591303  1
