# generated using pymatgen
data_Li3V3P8O29
_symmetry_space_group_name_H-M   'P 1'
_cell_length_a   9.77838453
_cell_length_b   9.71299857
_cell_length_c   14.26534296
_cell_angle_alpha   89.93118695
_cell_angle_beta   91.08850362
_cell_angle_gamma   60.19800669
_symmetry_Int_Tables_number   1
_chemical_formula_structural   Li3V3P8O29
_chemical_formula_sum   'Li6 V6 P16 O58'
_cell_volume   1175.39895815
_cell_formula_units_Z   2
loop_
 _symmetry_equiv_pos_site_id
 _symmetry_equiv_pos_as_xyz
  1  'x, y, z'
loop_
 _atom_site_type_symbol
 _atom_site_label
 _atom_site_symmetry_multiplicity
 _atom_site_fract_x
 _atom_site_fract_y
 _atom_site_fract_z
 _atom_site_occupancy
  Li  Li0  1  0.68488575  0.66185931  0.89726579  1
  Li  Li1  1  0.31244572  0.91814110  0.06365824  1
  Li  Li2  1  0.67224489  0.23409719  0.43895148  1
  Li  Li3  1  0.33221702  0.76508130  0.55901290  1
  Li  Li4  1  0.94003229  0.01748102  0.99496324  1
  Li  Li5  1  0.00332732  0.99952014  0.49902888  1
  V  V6  1  0.56611041  0.43805630  0.24294431  1
  V  V7  1  0.43223110  0.56244096  0.75357340  1
  V  V8  1  0.57043709  0.99794587  0.74847369  1
  V  V9  1  0.43643497  0.00673588  0.25264010  1
  V  V10  1  0.00016246  0.55988907  0.25066814  1
  V  V11  1  0.00070552  0.43472313  0.74437380  1
  P  P12  1  0.91747591  0.78017293  0.84260666  1
  P  P13  1  0.78380315  0.91237372  0.33864331  1
  P  P14  1  0.91841907  0.29864470  0.34210675  1
  P  P15  1  0.66264801  0.67308483  0.13067932  1
  P  P16  1  0.65958304  0.66922409  0.63151769  1
  P  P17  1  0.78570477  0.30701905  0.83784183  1
  P  P18  1  0.68672751  0.22787456  0.65680832  1
  P  P19  1  0.32090371  0.90702145  0.84659747  1
  P  P20  1  0.69146981  0.08416196  0.15524368  1
  P  P21  1  0.31892282  0.77146721  0.34289871  1
  P  P22  1  0.21575302  0.69464569  0.16363307  1
  P  P23  1  0.33868954  0.33621594  0.36730529  1
  P  P24  1  0.33401402  0.32728164  0.86799424  1
  P  P25  1  0.07970770  0.70220806  0.65733943  1
  P  P26  1  0.22085863  0.08177892  0.66443150  1
  P  P27  1  0.08106416  0.22015596  0.15740969  1
  O  O28  1  0.00883911  0.80095750  0.57233220  1
  O  O29  1  0.91394801  0.73645616  0.33337131  1
  O  O30  1  0.77826475  0.01690779  0.06899099  1
  O  O31  1  0.73993057  0.91563259  0.83088630  1
  O  O32  1  0.90967882  0.62429479  0.83148436  1
  O  O33  1  0.81057437  0.66697094  0.17758868  1
  O  O34  1  0.92710092  0.45447046  0.33008978  1
  O  O35  1  0.00694137  0.20003405  0.07165632  1
  O  O36  1  0.91874566  0.35070059  0.83145617  1
  O  O37  1  0.66276981  0.81472410  0.67823718  1
  O  O38  1  0.62059893  0.91969426  0.32759524  1
  O  O39  1  0.80959672  0.52284852  0.67713282  1
  O  O40  1  0.66236191  0.66702826  0.02627328  1
  O  O41  1  0.65008116  0.67544245  0.52788198  1
  O  O42  1  0.66160270  0.52249320  0.17365550  1
  O  O43  1  0.48447836  0.89188691  0.83069585  1
  O  O44  1  0.51188580  0.82000263  0.16688448  1
  O  O45  1  0.74064107  0.34480803  0.33202938  1
  O  O46  1  0.80396607  0.21062676  0.74156797  1
  O  O47  1  0.75889684  0.21921530  0.56496958  1
  O  O48  1  0.80155513  0.20749703  0.91949155  1
  O  O49  1  0.62750759  0.47021270  0.82885882  1
  O  O50  1  0.51182107  0.66882294  0.67378281  1
  O  O51  1  0.64746568  0.26120416  0.16978989  1
  O  O52  1  0.47295225  0.61442271  0.32580128  1
  O  O53  1  0.35372804  0.90953186  0.32558050  1
  O  O54  1  0.80288616  0.99280883  0.24470583  1
  O  O55  1  0.79667048  0.00128901  0.41999880  1
  O  O56  1  0.20137521  0.99241598  0.58563624  1
  O  O57  1  0.65324355  0.08812423  0.67045868  1
  O  O58  1  0.53178206  0.38368728  0.67559995  1
  O  O59  1  0.34747881  0.73532071  0.83126282  1
  O  O60  1  0.48865691  0.33230240  0.32779430  1
  O  O61  1  0.37774297  0.53641469  0.17365292  1
  O  O62  1  0.20792160  0.79592800  0.08374419  1
  O  O63  1  0.24505780  0.78596126  0.43501569  1
  O  O64  1  0.19692526  0.78865102  0.26090552  1
  O  O65  1  0.25896229  0.65453316  0.66639444  1
  O  O66  1  0.47253885  0.17819951  0.82181230  1
  O  O67  1  0.53713221  0.07862719  0.16969579  1
  O  O68  1  0.34447542  0.47193809  0.82297017  1
  O  O69  1  0.33549016  0.32789065  0.97103549  1
  O  O70  1  0.34330712  0.32689773  0.47091017  1
  O  O71  1  0.18935935  0.47972043  0.32074278  1
  O  O72  1  0.38151892  0.07507735  0.67245018  1
  O  O73  1  0.33874596  0.18693631  0.31958088  1
  O  O74  1  0.08272870  0.65294055  0.16681924  1
  O  O75  1  0.00081809  0.80020465  0.75074663  1
  O  O76  1  0.99059506  0.80450112  0.92746774  1
  O  O77  1  0.07004906  0.54745336  0.66966213  1
  O  O78  1  0.18227224  0.34347579  0.81826982  1
  O  O79  1  0.07457546  0.38312574  0.17251197  1
  O  O80  1  0.25928029  0.08797202  0.16590568  1
  O  O81  1  0.24718549  0.97300524  0.93719357  1
  O  O82  1  0.20172491  0.01028844  0.76286904  1
  O  O83  1  0.08564024  0.25869633  0.66625490  1
  O  O84  1  0.99017944  0.19964229  0.42716079  1
  O  O85  1  0.00097778  0.19733899  0.24980416  1
