# generated using pymatgen
data_Li3V3P8O29
_symmetry_space_group_name_H-M   'P 1'
_cell_length_a   9.72020384
_cell_length_b   9.71987565
_cell_length_c   14.12621505
_cell_angle_alpha   90.38119052
_cell_angle_beta   90.38439004
_cell_angle_gamma   60.19577627
_symmetry_Int_Tables_number   1
_chemical_formula_structural   Li3V3P8O29
_chemical_formula_sum   'Li6 V6 P16 O58'
_cell_volume   1158.06507456
_cell_formula_units_Z   2
loop_
 _symmetry_equiv_pos_site_id
 _symmetry_equiv_pos_as_xyz
  1  'x, y, z'
loop_
 _atom_site_type_symbol
 _atom_site_label
 _atom_site_symmetry_multiplicity
 _atom_site_fract_x
 _atom_site_fract_y
 _atom_site_fract_z
 _atom_site_occupancy
  Li  Li0  1  0.76759587  0.32978137  0.05508678  1
  Li  Li1  1  0.67042999  0.23235799  0.44484502  1
  Li  Li2  1  0.32947863  0.76771738  0.55511187  1
  Li  Li3  1  0.23229674  0.67041747  0.94494970  1
  Li  Li4  1  0.99871544  0.99988595  0.99994278  1
  Li  Li5  1  0.00015000  0.00142418  0.50005458  1
  V  V6  1  0.56509750  0.43485249  0.24993592  1
  V  V7  1  0.43486962  0.56517447  0.75006766  1
  V  V8  1  0.56485779  0.99725780  0.75463529  1
  V  V9  1  0.43517195  0.00274475  0.24528663  1
  V  V10  1  0.99726882  0.56478603  0.25463694  1
  V  V11  1  0.00279153  0.43521153  0.74543080  1
  P  P12  1  0.91786664  0.77662352  0.84000575  1
  P  P13  1  0.77660741  0.91790509  0.33991286  1
  P  P14  1  0.91724458  0.30316808  0.34671297  1
  P  P15  1  0.66794529  0.66459906  0.13153637  1
  P  P16  1  0.66461764  0.66796335  0.63160056  1
  P  P17  1  0.77857319  0.31469260  0.83978744  1
  P  P18  1  0.68521666  0.22155423  0.66021777  1
  P  P19  1  0.30340520  0.91723213  0.84697736  1
  P  P20  1  0.69657763  0.08285165  0.15316780  1
  P  P21  1  0.31486947  0.77844999  0.33974093  1
  P  P22  1  0.22144811  0.68521023  0.16023722  1
  P  P23  1  0.33539411  0.33201657  0.36836812  1
  P  P24  1  0.33207419  0.33539049  0.86851030  1
  P  P25  1  0.08277069  0.69670500  0.65318519  1
  P  P26  1  0.22333580  0.08216671  0.66012711  1
  P  P27  1  0.08210350  0.22337207  0.15994841  1
  O  O28  1  0.00900737  0.79137808  0.56740468  1
  O  O29  1  0.91305458  0.74267234  0.33538271  1
  O  O30  1  0.79148908  0.00895580  0.06731806  1
  O  O31  1  0.74270195  0.91315994  0.83541972  1
  O  O32  1  0.92034386  0.61716486  0.82644284  1
  O  O33  1  0.81369616  0.66356245  0.18040330  1
  O  O34  1  0.91895851  0.46146396  0.33282125  1
  O  O35  1  0.99419262  0.21228999  0.07615777  1
  O  O36  1  0.91798528  0.34681569  0.83001014  1
  O  O37  1  0.66377401  0.81371674  0.68038585  1
  O  O38  1  0.61716177  0.92040009  0.32625922  1
  O  O39  1  0.81244051  0.52062024  0.67518114  1
  O  O40  1  0.67190860  0.65209240  0.02689280  1
  O  O41  1  0.65196149  0.67190001  0.52699649  1
  O  O42  1  0.67018083  0.51140947  0.17397455  1
  O  O43  1  0.46189645  0.91861260  0.83270299  1
  O  O44  1  0.52060816  0.81239861  0.17507356  1
  O  O45  1  0.73983698  0.34200941  0.33721641  1
  O  O46  1  0.79593991  0.20400323  0.75001937  1
  O  O47  1  0.76413096  0.21782019  0.56970945  1
  O  O48  1  0.78228222  0.23578908  0.93031611  1
  O  O49  1  0.61965541  0.47270187  0.82387322  1
  O  O50  1  0.51145709  0.67028783  0.67417448  1
  O  O51  1  0.65791336  0.26018336  0.16259822  1
  O  O52  1  0.47292971  0.61961584  0.32377829  1
  O  O53  1  0.34695213  0.91787155  0.32988951  1
  O  O54  1  0.79977226  0.99913867  0.24666457  1
  O  O55  1  0.78784442  0.00576212  0.42368100  1
  O  O56  1  0.21190152  0.99436431  0.57642176  1
  O  O57  1  0.65307729  0.08213165  0.67002475  1
  O  O58  1  0.52723113  0.38045127  0.67617663  1
  O  O59  1  0.34210119  0.73982977  0.83733304  1
  O  O60  1  0.48858348  0.32973395  0.32589607  1
  O  O61  1  0.38027053  0.52711581  0.17616210  1
  O  O62  1  0.21781961  0.76392592  0.06964066  1
  O  O63  1  0.23616220  0.78207092  0.43033709  1
  O  O64  1  0.20394659  0.79599326  0.25001352  1
  O  O65  1  0.26018068  0.65786888  0.66277599  1
  O  O66  1  0.47940680  0.18760873  0.82488265  1
  O  O67  1  0.53833568  0.08117847  0.16714146  1
  O  O68  1  0.32979586  0.48856521  0.82600664  1
  O  O69  1  0.32813817  0.34792600  0.97312177  1
  O  O70  1  0.34794385  0.32808244  0.47300718  1
  O  O71  1  0.18757956  0.47941393  0.32484913  1
  O  O72  1  0.38287863  0.07954188  0.67365359  1
  O  O73  1  0.33625655  0.18632612  0.31953762  1
  O  O74  1  0.08203193  0.65308875  0.17000974  1
  O  O75  1  0.99918293  0.79970293  0.74680061  1
  O  O76  1  0.00566436  0.78794539  0.92376224  1
  O  O77  1  0.08133255  0.53825265  0.66737414  1
  O  O78  1  0.18630187  0.33630976  0.81970599  1
  O  O79  1  0.07966911  0.38278459  0.17365810  1
  O  O80  1  0.25728397  0.08688378  0.16453315  1
  O  O81  1  0.20891204  0.99084421  0.93273836  1
  O  O82  1  0.20023935  0.00106991  0.75342894  1
  O  O83  1  0.08689374  0.25737224  0.66464638  1
  O  O84  1  0.99101844  0.20821453  0.43246348  1
  O  O85  1  0.00079174  0.20010115  0.25313141  1
