# generated using pymatgen
data_Mn3O5F
_symmetry_space_group_name_H-M   'P 1'
_cell_length_a   4.54725193
_cell_length_b   13.64675991
_cell_length_c   3.00706501
_cell_angle_alpha   90.00000000
_cell_angle_beta   90.00000000
_cell_angle_gamma   92.15341478
_symmetry_Int_Tables_number   1
_chemical_formula_structural   Mn3O5F
_chemical_formula_sum   'Mn6 O10 F2'
_cell_volume   186.47240685
_cell_formula_units_Z   2
loop_
 _symmetry_equiv_pos_site_id
 _symmetry_equiv_pos_as_xyz
  1  'x, y, z'
loop_
 _atom_site_type_symbol
 _atom_site_label
 _atom_site_symmetry_multiplicity
 _atom_site_fract_x
 _atom_site_fract_y
 _atom_site_fract_z
 _atom_site_occupancy
  Mn  Mn0  1  0.00000000  0.00000000  0.00000000  1
  Mn  Mn1  1  0.97947621  0.33968126  0.00000000  1
  Mn  Mn2  1  0.02052379  0.66031874  0.00000000  1
  Mn  Mn3  1  0.51953450  0.15986741  0.50000000  1
  Mn  Mn4  1  0.50000000  0.50000000  0.50000000  1
  Mn  Mn5  1  0.48046550  0.84013259  0.50000000  1
  O  O6  1  0.19993656  0.60032581  0.50000000  1
  O  O7  1  0.19038056  0.93614747  0.50000000  1
  O  O8  1  0.30531487  0.10280355  0.00000000  1
  O  O9  1  0.30428222  0.76878343  0.00000000  1
  O  O10  1  0.30593009  0.43400053  0.00000000  1
  O  O11  1  0.69571778  0.23121657  0.00000000  1
  O  O12  1  0.69406991  0.56599947  0.00000000  1
  O  O13  1  0.69468513  0.89719645  0.00000000  1
  O  O14  1  0.80961944  0.06385253  0.50000000  1
  O  O15  1  0.80006344  0.39967419  0.50000000  1
  F  F16  1  0.19841777  0.26727706  0.50000000  1
  F  F17  1  0.80158223  0.73272294  0.50000000  1
