# generated using pymatgen
data_Li3V3P8O29
_symmetry_space_group_name_H-M   'P 1'
_cell_length_a   9.74340978
_cell_length_b   9.75348879
_cell_length_c   14.35193016
_cell_angle_alpha   90.48659091
_cell_angle_beta   91.12572516
_cell_angle_gamma   60.36224243
_symmetry_Int_Tables_number   1
_chemical_formula_structural   Li3V3P8O29
_chemical_formula_sum   'Li6 V6 P16 O58'
_cell_volume   1185.22650552
_cell_formula_units_Z   2
loop_
 _symmetry_equiv_pos_site_id
 _symmetry_equiv_pos_as_xyz
  1  'x, y, z'
loop_
 _atom_site_type_symbol
 _atom_site_label
 _atom_site_symmetry_multiplicity
 _atom_site_fract_x
 _atom_site_fract_y
 _atom_site_fract_z
 _atom_site_occupancy
  Li  Li0  1  0.77406954  0.31504665  0.05495369  1
  Li  Li1  1  0.30032755  0.91675792  0.05754512  1
  Li  Li2  1  0.32594900  0.77239375  0.56029451  1
  Li  Li3  1  0.69412341  0.07915240  0.93644802  1
  Li  Li4  1  0.08633262  0.67900686  0.44353073  1
  Li  Li5  1  0.93798229  0.08094950  0.49646714  1
  V  V6  1  0.56454000  0.43045342  0.25457728  1
  V  V7  1  0.43376150  0.56451133  0.75238678  1
  V  V8  1  0.56933126  0.99078185  0.74276290  1
  V  V9  1  0.43513277  0.00447624  0.25677193  1
  V  V10  1  0.99902886  0.56425474  0.24545320  1
  V  V11  1  0.99912102  0.43462979  0.74946882  1
  P  P12  1  0.91794964  0.77378091  0.83856979  1
  P  P13  1  0.78477158  0.91514506  0.33740572  1
  P  P14  1  0.92027864  0.30715643  0.34172842  1
  P  P15  1  0.65802495  0.66760958  0.13400306  1
  P  P16  1  0.66536605  0.66211387  0.63013614  1
  P  P17  1  0.77370971  0.31885687  0.84102291  1
  P  P18  1  0.68768750  0.22606439  0.66171704  1
  P  P19  1  0.32181010  0.91037743  0.84327419  1
  P  P20  1  0.67939133  0.08918331  0.15617705  1
  P  P21  1  0.31733737  0.77056161  0.34202270  1
  P  P22  1  0.22710438  0.68319927  0.16168292  1
  P  P23  1  0.33114604  0.33782695  0.36883420  1
  P  P24  1  0.33941050  0.32560940  0.86660516  1
  P  P25  1  0.08613716  0.68607754  0.65721233  1
  P  P26  1  0.21735832  0.08572158  0.66414044  1
  P  P27  1  0.08709250  0.22408929  0.16079525  1
  O  O28  1  0.01681294  0.76223083  0.56576310  1
  O  O29  1  0.91926054  0.73935213  0.33426258  1
  O  O30  1  0.73974656  0.01900082  0.06391373  1
  O  O31  1  0.74504775  0.91716105  0.83252171  1
  O  O32  1  0.90980023  0.61925102  0.81953921  1
  O  O33  1  0.81359658  0.65745997  0.18061883  1
  O  O34  1  0.92628933  0.46153628  0.32902140  1
  O  O35  1  0.99316246  0.23174948  0.07670128  1
  O  O36  1  0.91867706  0.34172108  0.83483445  1
  O  O37  1  0.67132844  0.81066048  0.67509040  1
  O  O38  1  0.62092479  0.91958774  0.32866167  1
  O  O39  1  0.81157296  0.51600207  0.67568343  1
  O  O40  1  0.66018633  0.66834747  0.03085286  1
  O  O41  1  0.66140037  0.67082704  0.52693626  1
  O  O42  1  0.65786691  0.51835496  0.17303597  1
  O  O43  1  0.48102604  0.90096210  0.81947576  1
  O  O44  1  0.51748660  0.81886638  0.17798358  1
  O  O45  1  0.74453148  0.34697257  0.32716075  1
  O  O46  1  0.78912594  0.20340271  0.75713588  1
  O  O47  1  0.78430627  0.20882274  0.58011355  1
  O  O48  1  0.76125304  0.24640480  0.92990981  1
  O  O49  1  0.62257296  0.48045281  0.82128103  1
  O  O50  1  0.51093642  0.67266007  0.66929421  1
  O  O51  1  0.66066044  0.25705680  0.16528121  1
  O  O52  1  0.47616074  0.61594775  0.32655205  1
  O  O53  1  0.34502377  0.91338239  0.33361293  1
  O  O54  1  0.79956016  0.98729682  0.23916788  1
  O  O55  1  0.80586614  0.99856116  0.41806356  1
  O  O56  1  0.20301673  0.99412929  0.58466074  1
  O  O57  1  0.64678434  0.09106905  0.66958625  1
  O  O58  1  0.53445752  0.38632675  0.67132913  1
  O  O59  1  0.34437708  0.74165495  0.82871048  1
  O  O60  1  0.48295762  0.33015962  0.32373870  1
  O  O61  1  0.37940820  0.52282341  0.17973827  1
  O  O62  1  0.23139113  0.77100816  0.07980620  1
  O  O63  1  0.24050048  0.76789367  0.43097913  1
  O  O64  1  0.20355329  0.78726306  0.25600181  1
  O  O65  1  0.25898115  0.65719846  0.66493482  1
  O  O66  1  0.48507170  0.17509664  0.82774213  1
  O  O67  1  0.52037884  0.09792914  0.18203478  1
  O  O68  1  0.34811795  0.47003515  0.81856892  1
  O  O69  1  0.34098214  0.33613199  0.96946503  1
  O  O70  1  0.33586403  0.33915193  0.47189091  1
  O  O71  1  0.18599124  0.48960557  0.32730980  1
  O  O72  1  0.38033135  0.08044779  0.67129640  1
  O  O73  1  0.32825117  0.18889911  0.32475474  1
  O  O74  1  0.08353452  0.65492016  0.16667623  1
  O  O75  1  0.99548891  0.79686915  0.74364712  1
  O  O76  1  0.00275653  0.77442238  0.92415923  1
  O  O77  1  0.08670914  0.52865743  0.67342190  1
  O  O78  1  0.18625873  0.33742649  0.82098267  1
  O  O79  1  0.09589472  0.37856579  0.17790566  1
  O  O80  1  0.25768107  0.08094134  0.16292279  1
  O  O81  1  0.25951558  0.97975103  0.93508582  1
  O  O82  1  0.20000951  0.01373487  0.76170088  1
  O  O83  1  0.08309304  0.25894421  0.66658435  1
  O  O84  1  0.98994065  0.21405478  0.42746724  1
  O  O85  1  0.00829782  0.20040617  0.25233939  1
