# generated using pymatgen
data_Li3V3P8O29
_symmetry_space_group_name_H-M   'P 1'
_cell_length_a   9.75855493
_cell_length_b   9.75986878
_cell_length_c   14.42754508
_cell_angle_alpha   90.50327812
_cell_angle_beta   90.06109844
_cell_angle_gamma   60.06167245
_symmetry_Int_Tables_number   1
_chemical_formula_structural   Li3V3P8O29
_chemical_formula_sum   'Li6 V6 P16 O58'
_cell_volume   1190.69953139
_cell_formula_units_Z   2
loop_
 _symmetry_equiv_pos_site_id
 _symmetry_equiv_pos_as_xyz
  1  'x, y, z'
loop_
 _atom_site_type_symbol
 _atom_site_label
 _atom_site_symmetry_multiplicity
 _atom_site_fract_x
 _atom_site_fract_y
 _atom_site_fract_z
 _atom_site_occupancy
  Li  Li0  1  0.90956681  0.32132560  0.55730795  1
  Li  Li1  1  0.77751166  0.30333417  0.05948296  1
  Li  Li2  1  0.30969794  0.91803153  0.06329110  1
  Li  Li3  1  0.32120233  0.77139731  0.55036161  1
  Li  Li4  1  0.21556756  0.69732282  0.95066426  1
  Li  Li5  1  0.96091368  0.97631184  0.49804693  1
  V  V6  1  0.56733945  0.42854579  0.25374293  1
  V  V7  1  0.43773434  0.56545654  0.74675755  1
  V  V8  1  0.56935356  0.99453959  0.74803996  1
  V  V9  1  0.43820512  0.00610394  0.25356656  1
  V  V10  1  0.99908747  0.56696677  0.24873812  1
  V  V11  1  0.00167159  0.43778183  0.74863936  1
  P  P12  1  0.91360981  0.77603809  0.83795218  1
  P  P13  1  0.78143015  0.91799767  0.33681847  1
  P  P14  1  0.91613420  0.31220814  0.34385346  1
  P  P15  1  0.66377643  0.66377128  0.13373590  1
  P  P16  1  0.66549912  0.66513655  0.63110440  1
  P  P17  1  0.77115402  0.32314617  0.84216764  1
  P  P18  1  0.69574479  0.21791575  0.66535858  1
  P  P19  1  0.31885021  0.91147575  0.84519898  1
  P  P20  1  0.69049905  0.08352058  0.15515945  1
  P  P21  1  0.31530872  0.77665168  0.33937216  1
  P  P22  1  0.22942365  0.67961848  0.16279469  1
  P  P23  1  0.32872597  0.33893768  0.36664618  1
  P  P24  1  0.33586440  0.33460675  0.86334238  1
  P  P25  1  0.08398196  0.69560273  0.65647254  1
  P  P26  1  0.22331105  0.08177174  0.66583966  1
  P  P27  1  0.08838121  0.22397088  0.16418725  1
  O  O28  1  0.01204876  0.79262597  0.57348744  1
  O  O29  1  0.91299272  0.74215123  0.32764512  1
  O  O30  1  0.76762296  0.00349771  0.06799563  1
  O  O31  1  0.74249589  0.91584442  0.83127325  1
  O  O32  1  0.90541184  0.62125780  0.81809034  1
  O  O33  1  0.81558144  0.65457840  0.17913474  1
  O  O34  1  0.91674536  0.46858990  0.32924771  1
  O  O35  1  0.99322783  0.22566826  0.08366920  1
  O  O36  1  0.91645316  0.34498172  0.82524297  1
  O  O37  1  0.67196364  0.80913565  0.67585999  1
  O  O38  1  0.61801988  0.92435222  0.32818554  1
  O  O39  1  0.81348168  0.51117774  0.66742913  1
  O  O40  1  0.66489477  0.65605157  0.03088827  1
  O  O41  1  0.64874739  0.66710910  0.52862882  1
  O  O42  1  0.65836163  0.51752081  0.17593143  1
  O  O43  1  0.47859275  0.90222711  0.82139950  1
  O  O44  1  0.51907810  0.81747647  0.17461233  1
  O  O45  1  0.74473456  0.34203398  0.32742610  1
  O  O46  1  0.78527383  0.20017652  0.76291127  1
  O  O47  1  0.80064723  0.20446672  0.58679693  1
  O  O48  1  0.76179574  0.26532858  0.93461434  1
  O  O49  1  0.62022160  0.48263041  0.81699107  1
  O  O50  1  0.51001677  0.67499358  0.67500533  1
  O  O51  1  0.65953271  0.25731205  0.16342224  1
  O  O52  1  0.47108644  0.61651874  0.32692265  1
  O  O53  1  0.34977923  0.91447236  0.32810806  1
  O  O54  1  0.79862552  0.00026268  0.24528953  1
  O  O55  1  0.80000922  0.99548279  0.42016830  1
  O  O56  1  0.21216911  0.98645635  0.58840014  1
  O  O57  1  0.65689597  0.08251055  0.66709738  1
  O  O58  1  0.53806219  0.37980419  0.67285993  1
  O  O59  1  0.33595351  0.74374914  0.83382455  1
  O  O60  1  0.48192852  0.33171569  0.32330313  1
  O  O61  1  0.38035252  0.52012646  0.18029065  1
  O  O62  1  0.23981621  0.75751282  0.07582213  1
  O  O63  1  0.23106063  0.79153589  0.42811935  1
  O  O64  1  0.20666104  0.79310420  0.25090926  1
  O  O65  1  0.26148608  0.65330361  0.66442333  1
  O  O66  1  0.47653599  0.18315840  0.81954122  1
  O  O67  1  0.52962791  0.09119809  0.17884034  1
  O  O68  1  0.34061995  0.48121855  0.82094519  1
  O  O69  1  0.32692152  0.34512357  0.96568028  1
  O  O70  1  0.32984360  0.33764259  0.46904896  1
  O  O71  1  0.18531531  0.48510843  0.32122023  1
  O  O72  1  0.38443109  0.07726009  0.67367275  1
  O  O73  1  0.32814203  0.18976544  0.32159987  1
  O  O74  1  0.08344575  0.65750815  0.16565488  1
  O  O75  1  0.00129133  0.79720482  0.74898305  1
  O  O76  1  0.00314873  0.76630652  0.92255090  1
  O  O77  1  0.07613472  0.54095738  0.66779918  1
  O  O78  1  0.18369201  0.34406807  0.81579491  1
  O  O79  1  0.09320468  0.37929238  0.17823666  1
  O  O80  1  0.26044983  0.08189924  0.16234989  1
  O  O81  1  0.25550748  0.97881822  0.93822606  1
  O  O82  1  0.19879897  0.01761709  0.76470983  1
  O  O83  1  0.08635031  0.25693064  0.66199779  1
  O  O84  1  0.97628959  0.23484127  0.43482319  1
  O  O85  1  0.01714147  0.19686001  0.25993652  1
