# generated using pymatgen
data_Mg5Fe19O32
_symmetry_space_group_name_H-M   'P 1'
_cell_length_a   8.54368182
_cell_length_b   10.46046648
_cell_length_c   8.54368182
_cell_angle_alpha   65.79954935
_cell_angle_beta   90.34268694
_cell_angle_gamma   114.20045065
_symmetry_Int_Tables_number   1
_chemical_formula_structural   Mg5Fe19O32
_chemical_formula_sum   'Mg5 Fe19 O32'
_cell_volume   623.07745742
_cell_formula_units_Z   1
loop_
 _symmetry_equiv_pos_site_id
 _symmetry_equiv_pos_as_xyz
  1  'x, y, z'
loop_
 _atom_site_type_symbol
 _atom_site_label
 _atom_site_symmetry_multiplicity
 _atom_site_fract_x
 _atom_site_fract_y
 _atom_site_fract_z
 _atom_site_occupancy
  Mg  Mg0  1  0.37503097  0.24943604  0.87496903  1
  Mg  Mg1  1  0.62500000  0.25000000  0.62500000  1
  Mg  Mg2  1  0.87496903  0.25056396  0.37503097  1
  Mg  Mg3  1  0.12500000  0.75000000  0.62500000  1
  Mg  Mg4  1  0.62500000  0.75000000  0.12500000  1
  Fe  Fe5  1  0.50298525  0.00158189  0.99929669  1
  Fe  Fe6  1  0.25070331  0.00158189  0.74701475  1
  Fe  Fe7  1  0.99768050  0.00080798  0.49781482  1
  Fe  Fe8  1  0.75218518  0.00080798  0.25231950  1
  Fe  Fe9  1  0.43797637  0.12861381  0.31466288  1
  Fe  Fe10  1  0.93533712  0.12861381  0.81202363  1
  Fe  Fe11  1  0.12500000  0.25000000  0.12500000  1
  Fe  Fe12  1  0.31466288  0.37138619  0.43797637  1
  Fe  Fe13  1  0.81202363  0.37138619  0.93533712  1
  Fe  Fe14  1  0.74701475  0.49841811  0.25070331  1
  Fe  Fe15  1  0.25231950  0.49919202  0.75218518  1
  Fe  Fe16  1  0.99929669  0.49841811  0.50298525  1
  Fe  Fe17  1  0.49781482  0.49919202  0.99768050  1
  Fe  Fe18  1  0.18471962  0.62724086  0.06528038  1
  Fe  Fe19  1  0.68701319  0.62596482  0.56298681  1
  Fe  Fe20  1  0.37636151  0.75000000  0.37636151  1
  Fe  Fe21  1  0.87363849  0.75000000  0.87363849  1
  Fe  Fe22  1  0.06528038  0.87275914  0.18471962  1
  Fe  Fe23  1  0.56298681  0.87403518  0.68701319  1
  O  O24  1  0.00396544  0.00727154  0.24603456  1
  O  O25  1  0.49221116  0.00257757  0.75778884  1
  O  O26  1  0.75433289  0.00665958  0.49566711  1
  O  O27  1  0.26107835  0.00242323  0.98892265  1
  O  O28  1  0.11781960  0.24484923  0.36710054  1
  O  O29  1  0.88289946  0.24484923  0.13218040  1
  O  O30  1  0.37329432  0.23851601  0.63627394  1
  O  O31  1  0.61372606  0.23851601  0.87670568  1
  O  O32  1  0.13218040  0.25515077  0.88289946  1
  O  O33  1  0.63627394  0.26148399  0.37329432  1
  O  O34  1  0.87670568  0.26148399  0.61372606  1
  O  O35  1  0.36710054  0.25515077  0.11781960  1
  O  O36  1  0.49566711  0.49334042  0.75433289  1
  O  O37  1  0.98892265  0.49757677  0.26107835  1
  O  O38  1  0.24603456  0.49272846  0.00396544  1
  O  O39  1  0.75778884  0.49742243  0.49221116  1
  O  O40  1  0.24586693  0.50804909  0.49496460  1
  O  O41  1  0.00349862  0.50425314  0.73703717  1
  O  O42  1  0.75503540  0.50804909  0.00413307  1
  O  O43  1  0.51296283  0.50425314  0.24650138  1
  O  O44  1  0.13029578  0.74137569  0.38427972  1
  O  O45  1  0.63132902  0.74314896  0.88302726  1
  O  O46  1  0.86572028  0.74137569  0.11970422  1
  O  O47  1  0.36697274  0.74314896  0.61867098  1
  O  O48  1  0.88302726  0.75685104  0.63132902  1
  O  O49  1  0.61867098  0.75685104  0.36697274  1
  O  O50  1  0.11970422  0.75862431  0.86572028  1
  O  O51  1  0.38427972  0.75862431  0.13029578  1
  O  O52  1  0.73703717  0.99574686  0.00349862  1
  O  O53  1  0.24650138  0.99574686  0.51296283  1
  O  O54  1  0.00413307  0.99195091  0.75503540  1
  O  O55  1  0.49496460  0.99195091  0.24586693  1
