# generated using pymatgen
data_Li5VO4F
_symmetry_space_group_name_H-M   'P 1'
_cell_length_a   5.35557956
_cell_length_b   5.35557956
_cell_length_c   9.60579602
_cell_angle_alpha   77.17777188
_cell_angle_beta   102.82222812
_cell_angle_gamma   65.47635589
_symmetry_Int_Tables_number   1
_chemical_formula_structural   Li5VO4F
_chemical_formula_sum   'Li10 V2 O8 F2'
_cell_volume   228.58329219
_cell_formula_units_Z   2
loop_
 _symmetry_equiv_pos_site_id
 _symmetry_equiv_pos_as_xyz
  1  'x, y, z'
loop_
 _atom_site_type_symbol
 _atom_site_label
 _atom_site_symmetry_multiplicity
 _atom_site_fract_x
 _atom_site_fract_y
 _atom_site_fract_z
 _atom_site_occupancy
  Li  Li0  1  0.27108925  0.90396411  0.56189362  1
  Li  Li1  1  0.50164072  0.76259161  0.94530821  1
  Li  Li2  1  0.42438436  0.41411308  0.74724887  1
  Li  Li3  1  0.09603589  0.72891075  0.06189362  1
  Li  Li4  1  0.23740839  0.49835928  0.44530821  1
  Li  Li5  1  0.75879648  0.50526540  0.55668364  1
  Li  Li6  1  0.90290241  0.28435846  0.93396223  1
  Li  Li7  1  0.58588692  0.57561564  0.24724887  1
  Li  Li8  1  0.49473460  0.24120352  0.05668364  1
  Li  Li9  1  0.71564154  0.09709759  0.43396223  1
  V  V10  1  0.86575429  0.81881261  0.72989773  1
  V  V11  1  0.18118739  0.13424571  0.22989773  1
  O  O12  1  0.19945607  0.62092436  0.89343254  1
  O  O13  1  0.02147633  0.70076471  0.58339394  1
  O  O14  1  0.37907564  0.80054393  0.39343254  1
  O  O15  1  0.29923529  0.97852367  0.08339394  1
  O  O16  1  0.63241064  0.64754901  0.75371171  1
  O  O17  1  0.35245099  0.36758936  0.25371171  1
  O  O18  1  0.62431582  0.20206501  0.61321836  1
  O  O19  1  0.79793499  0.37568418  0.11321836  1
  F  F20  1  0.69544121  0.03725922  0.93124815  1
  F  F21  1  0.96274078  0.30455879  0.43124815  1
