# generated using pymatgen
data_Li5Fe8(BO3)8
_symmetry_space_group_name_H-M   'P 1'
_cell_length_a   5.22009549
_cell_length_b   9.08148344
_cell_length_c   10.25588668
_cell_angle_alpha   90.98588285
_cell_angle_beta   90.76003474
_cell_angle_gamma   89.82965781
_symmetry_Int_Tables_number   1
_chemical_formula_structural   Li5Fe8(BO3)8
_chemical_formula_sum   'Li5 Fe8 B8 O24'
_cell_volume   486.07615106
_cell_formula_units_Z   1
loop_
 _symmetry_equiv_pos_site_id
 _symmetry_equiv_pos_as_xyz
  1  'x, y, z'
loop_
 _atom_site_type_symbol
 _atom_site_label
 _atom_site_symmetry_multiplicity
 _atom_site_fract_x
 _atom_site_fract_y
 _atom_site_fract_z
 _atom_site_occupancy
  Li  Li0  1  0.85331688  0.82992388  0.66171556  1
  Li  Li1  1  0.81295457  0.83375449  0.16992073  1
  Li  Li2  1  0.67734266  0.66510976  0.40885741  1
  Li  Li3  1  0.66295372  0.67790299  0.91523294  1
  Li  Li4  1  0.31807072  0.33213452  0.15498550  1
  Fe  Fe5  1  0.83205552  0.16991233  0.63098543  1
  Fe  Fe6  1  0.81856395  0.49676104  0.13629977  1
  Fe  Fe7  1  0.68134559  0.01274482  0.88006995  1
  Fe  Fe8  1  0.66215986  0.33328387  0.38218286  1
  Fe  Fe9  1  0.34497710  0.65248250  0.62576990  1
  Fe  Fe10  1  0.32983622  0.99453134  0.12768806  1
  Fe  Fe11  1  0.17116930  0.84888603  0.38917775  1
  Fe  Fe12  1  0.16269702  0.49493131  0.87467964  1
  B  B13  1  0.84630915  0.50244444  0.62627432  1
  B  B14  1  0.83440997  0.16109610  0.12968962  1
  B  B15  1  0.66289102  0.99979996  0.37747937  1
  B  B16  1  0.66037728  0.34244975  0.87539861  1
  B  B17  1  0.32874130  0.99855925  0.63620505  1
  B  B18  1  0.32377731  0.67057694  0.12025329  1
  B  B19  1  0.17116696  0.51125640  0.36673866  1
  B  B20  1  0.17484557  0.82492304  0.88309347  1
  O  O21  1  0.90647178  0.51648499  0.34061050  1
  O  O22  1  0.91217946  0.83014510  0.86388998  1
  O  O23  1  0.78563114  0.21866093  0.82806598  1
  O  O24  1  0.76779226  0.12340765  0.43712976  1
  O  O25  1  0.79346358  0.86667098  0.36821969  1
  O  O26  1  0.80040736  0.46898642  0.91360729  1
  O  O27  1  0.72401001  0.63612243  0.60791938  1
  O  O28  1  0.70059322  0.03195851  0.09376681  1
  O  O29  1  0.73332645  0.37166402  0.58567614  1
  O  O30  1  0.69901673  0.28721578  0.16205729  1
  O  O31  1  0.58853485  0.67741422  0.11510647  1
  O  O32  1  0.59458186  0.99869278  0.66635334  1
  O  O33  1  0.41860206  0.00446368  0.32047327  1
  O  O34  1  0.40178216  0.34430924  0.89145733  1
  O  O35  1  0.31125658  0.69549386  0.84893200  1
  O  O36  1  0.29538798  0.63643379  0.41786776  1
  O  O37  1  0.30787819  0.38650923  0.33919028  1
  O  O38  1  0.31605806  0.94133228  0.93488985  1
  O  O39  1  0.19352197  0.54238223  0.08236419  1
  O  O40  1  0.18314324  0.12307800  0.64402522  1
  O  O41  1  0.21409947  0.86544000  0.59747101  1
  O  O42  1  0.18271719  0.79450684  0.16058732  1
  O  O43  1  0.09700454  0.15774707  0.13042285  1
  O  O44  1  0.08906417  0.50021021  0.68317539  1
