# generated using pymatgen
data_LiFe2(BO3)2
_symmetry_space_group_name_H-M   'P 1'
_cell_length_a   5.27966946
_cell_length_b   5.24504997
_cell_length_c   10.13586427
_cell_angle_alpha   89.95685580
_cell_angle_beta   91.37103061
_cell_angle_gamma   60.42235204
_symmetry_Int_Tables_number   1
_chemical_formula_structural   LiFe2(BO3)2
_chemical_formula_sum   'Li2 Fe4 B4 O12'
_cell_volume   244.01173461
_cell_formula_units_Z   2
loop_
 _symmetry_equiv_pos_site_id
 _symmetry_equiv_pos_as_xyz
  1  'x, y, z'
loop_
 _atom_site_type_symbol
 _atom_site_label
 _atom_site_symmetry_multiplicity
 _atom_site_fract_x
 _atom_site_fract_y
 _atom_site_fract_z
 _atom_site_occupancy
  Li  Li0  1  0.34864556  0.66881369  0.84353162  1
  Li  Li1  1  0.66056777  0.33544199  0.12187666  1
  Fe  Fe2  1  0.97940311  0.67719648  0.62107446  1
  Fe  Fe3  1  0.67910651  0.00651685  0.87308579  1
  Fe  Fe4  1  0.32717001  0.99696163  0.12050052  1
  Fe  Fe5  1  0.01197700  0.33185596  0.36794267  1
  B  B6  1  0.00591687  0.33201818  0.87087659  1
  B  B7  1  0.32550955  0.00857548  0.62365342  1
  B  B8  1  0.66701241  0.00213156  0.36771066  1
  B  B9  1  -0.00217900  0.66729077  0.12054239  1
  O  O10  1  0.10788482  0.27246055  0.56685099  1
  O  O11  1  0.26001960  0.07530878  0.90519882  1
  O  O12  1  0.02319447  0.57461058  0.82086111  1
  O  O13  1  0.59076973  0.98592024  0.66049696  1
  O  O14  1  0.26465716  0.64706873  0.10949027  1
  O  O15  1  0.27322102  0.78236217  0.64667136  1
  O  O16  1  0.71928207  0.22762242  0.34551380  1
  O  O17  1  0.73732184  0.35505506  0.88712496  1
  O  O18  1  0.40289619  0.02152398  0.33208583  1
  O  O19  1  0.97673720  0.42448645  0.16739524  1
  O  O20  1  0.74024295  0.92313970  0.08463050  1
  O  O21  1  0.88584914  0.73599276  0.42364237  1
