# generated using pymatgen
data_LiMn2F5
_symmetry_space_group_name_H-M   'P 1'
_cell_length_a   5.21408856
_cell_length_b   6.73663178
_cell_length_c   5.49046745
_cell_angle_alpha   86.89264757
_cell_angle_beta   90.00000000
_cell_angle_gamma   67.23233352
_symmetry_Int_Tables_number   1
_chemical_formula_structural   LiMn2F5
_chemical_formula_sum   'Li2 Mn4 F10'
_cell_volume   177.52036266
_cell_formula_units_Z   2
loop_
 _symmetry_equiv_pos_site_id
 _symmetry_equiv_pos_as_xyz
  1  'x, y, z'
loop_
 _atom_site_type_symbol
 _atom_site_label
 _atom_site_symmetry_multiplicity
 _atom_site_fract_x
 _atom_site_fract_y
 _atom_site_fract_z
 _atom_site_occupancy
  Li  Li0  1  0.00000000  0.50000000  0.50000000  1
  Li  Li1  1  0.50000000  0.50000000  0.00000000  1
  Mn  Mn2  1  0.33437774  0.79789305  0.55150019  1
  Mn  Mn3  1  0.86772921  0.79789305  0.05150019  1
  Mn  Mn4  1  0.13227079  0.20210695  0.94849981  1
  Mn  Mn5  1  0.66562226  0.20210695  0.44849981  1
  F  F6  1  0.48373666  0.81082417  0.91054880  1
  F  F7  1  0.70543817  0.81082417  0.41054880  1
  F  F8  1  0.14359658  0.57294412  0.81910909  1
  F  F9  1  0.28345930  0.57294412  0.31910909  1
  F  F10  1  0.71654070  0.42705588  0.68089091  1
  F  F11  1  0.85640342  0.42705588  0.18089091  1
  F  F12  1  0.29456183  0.18917583  0.58945120  1
  F  F13  1  0.51626334  0.18917583  0.08945120  1
  F  F14  1  0.94655132  0.00000000  0.75000000  1
  F  F15  1  0.05344868  1.00000000  0.25000000  1
