# generated using pymatgen
data_Li5Fe8(BO3)8
_symmetry_space_group_name_H-M   'P 1'
_cell_length_a   5.27555780
_cell_length_b   9.06114639
_cell_length_c   10.10845585
_cell_angle_alpha   90.73669662
_cell_angle_beta   91.70247879
_cell_angle_gamma   90.49689567
_symmetry_Int_Tables_number   1
_chemical_formula_structural   Li5Fe8(BO3)8
_chemical_formula_sum   'Li5 Fe8 B8 O24'
_cell_volume   482.93744327
_cell_formula_units_Z   1
loop_
 _symmetry_equiv_pos_site_id
 _symmetry_equiv_pos_as_xyz
  1  'x, y, z'
loop_
 _atom_site_type_symbol
 _atom_site_label
 _atom_site_symmetry_multiplicity
 _atom_site_fract_x
 _atom_site_fract_y
 _atom_site_fract_z
 _atom_site_occupancy
  Li  Li0  1  0.65178297  0.00583985  0.07922336  1
  Li  Li1  1  0.15415470  0.49907950  0.08703717  1
  Li  Li2  1  0.83851451  0.48918381  0.34958177  1
  Li  Li3  1  0.33642789  0.99478605  0.34734995  1
  Li  Li4  1  0.65678695  0.00071154  0.59933770  1
  Fe  Fe5  1  0.15901679  0.16203439  0.11711588  1
  Fe  Fe6  1  0.83994759  0.16080484  0.37278801  1
  Fe  Fe7  1  0.33651647  0.33294287  0.85844269  1
  Fe  Fe8  1  0.67215418  0.34764446  0.62419911  1
  Fe  Fe9  1  0.33298615  0.66168455  0.37391596  1
  Fe  Fe10  1  0.15916950  0.83722670  0.62602805  1
  Fe  Fe11  1  0.65864518  0.65840868  0.11642562  1
  Fe  Fe12  1  0.84164786  0.83143428  0.86669967  1
  B  B13  1  0.16476992  0.16425343  0.62030227  1
  B  B14  1  0.34175428  0.33325616  0.36872629  1
  B  B15  1  0.83435513  0.16862600  0.87295275  1
  B  B16  1  0.66246256  0.32980985  0.12321941  1
  B  B17  1  0.33292505  0.66630362  0.87541646  1
  B  B18  1  0.66402249  0.67407699  0.61767391  1
  B  B19  1  0.16418139  0.83130459  0.12702919  1
  B  B20  1  0.82408815  0.82634795  0.37225799  1
  O  O21  1  0.30215052  0.03699929  0.60499725  1
  O  O22  1  0.08845756  0.18754103  0.90946458  1
  O  O23  1  0.72631670  0.02962421  0.88115875  1
  O  O24  1  0.21625929  0.20190266  0.33549123  1
  O  O25  1  0.28641446  0.29440362  0.66476996  1
  O  O26  1  0.77424941  0.19467092  0.15368989  1
  O  O27  1  0.90523672  0.16489156  0.58850726  1
  O  O28  1  0.41026728  0.33427330  0.07813235  1
  O  O29  1  0.20696478  0.46481351  0.36042480  1
  O  O30  1  0.59656985  0.33591514  0.40533818  1
  O  O31  1  0.69132637  0.28906694  0.83693716  1
  O  O32  1  0.22498568  0.53033162  0.88919465  1
  O  O33  1  0.80265536  0.45887844  0.14167807  1
  O  O34  1  0.27202741  0.69561513  0.16427622  1
  O  O35  1  0.41535802  0.68488619  0.56546136  1
  O  O36  1  0.79766527  0.55018268  0.61577520  1
  O  O37  1  0.58693916  0.68849663  0.91236787  1
  O  O38  1  0.08539660  0.82250852  0.39847216  1
  O  O39  1  0.19172927  0.78678624  0.83443086  1
  O  O40  1  0.69803432  0.69473900  0.33455957  1
  O  O41  1  0.77333931  0.80956317  0.66744425  1
  O  O42  1  0.30621509  0.95879092  0.14119712  1
  O  O43  1  0.91269718  0.83370604  0.07919089  1
  O  O44  1  0.69354566  0.95497114  0.38574615  1
