# generated using pymatgen
data_Li5Fe8(BO3)8
_symmetry_space_group_name_H-M   'P 1'
_cell_length_a   5.25785122
_cell_length_b   9.05179681
_cell_length_c   10.16186808
_cell_angle_alpha   90.45032339
_cell_angle_beta   91.78680865
_cell_angle_gamma   89.62593325
_symmetry_Int_Tables_number   1
_chemical_formula_structural   Li5Fe8(BO3)8
_chemical_formula_sum   'Li5 Fe8 B8 O24'
_cell_volume   483.37415458
_cell_formula_units_Z   1
loop_
 _symmetry_equiv_pos_site_id
 _symmetry_equiv_pos_as_xyz
  1  'x, y, z'
loop_
 _atom_site_type_symbol
 _atom_site_label
 _atom_site_symmetry_multiplicity
 _atom_site_fract_x
 _atom_site_fract_y
 _atom_site_fract_z
 _atom_site_occupancy
  Li  Li0  1  0.34191775  0.01720210  0.83588718  1
  Li  Li1  1  0.65541691  0.00654841  0.09766832  1
  Li  Li2  1  0.14568578  0.49072991  0.58885044  1
  Li  Li3  1  0.83438237  0.50541942  0.84543977  1
  Li  Li4  1  0.34181398  0.99012949  0.33718477  1
  Fe  Fe5  1  0.15534140  0.17569745  0.11471693  1
  Fe  Fe6  1  0.83770035  0.17235406  0.37040449  1
  Fe  Fe7  1  0.33136766  0.34576465  0.87591064  1
  Fe  Fe8  1  0.64778536  0.32224129  0.62224439  1
  Fe  Fe9  1  0.33723220  0.64843027  0.36319668  1
  Fe  Fe10  1  0.16054316  0.83576333  0.61734776  1
  Fe  Fe11  1  0.67162201  0.65987035  0.12511034  1
  Fe  Fe12  1  0.84289063  0.84211708  0.86756541  1
  B  B13  1  0.15694280  0.16811949  0.62160479  1
  B  B14  1  0.32399770  0.32429910  0.37731736  1
  B  B15  1  0.83088633  0.16808004  0.87559793  1
  B  B16  1  0.65784665  0.33327338  0.12400758  1
  B  B17  1  0.33653475  0.67321839  0.86825700  1
  B  B18  1  0.66943359  0.66698710  0.62349996  1
  B  B19  1  0.17411017  0.82907402  0.12364278  1
  B  B20  1  0.83686684  0.83869840  0.36603052  1
  O  O21  1  0.27697520  0.03349104  0.64151941  1
  O  O22  1  0.09228088  0.16196698  0.90178411  1
  O  O23  1  0.68774470  0.04144639  0.89577538  1
  O  O24  1  0.20253944  0.19247037  0.33570300  1
  O  O25  1  0.27615878  0.29864995  0.65938531  1
  O  O26  1  0.77946775  0.20162250  0.16931024  1
  O  O27  1  0.91567805  0.17406812  0.56417530  1
  O  O28  1  0.41141380  0.32419941  0.07901034  1
  O  O29  1  0.19453038  0.45246501  0.39502913  1
  O  O30  1  0.58191027  0.31524836  0.40851555  1
  O  O31  1  0.71582689  0.29868864  0.83454209  1
  O  O32  1  0.19263108  0.54969852  0.86006649  1
  O  O33  1  0.78833331  0.46370883  0.12197824  1
  O  O34  1  0.30820912  0.69974959  0.15268952  1
  O  O35  1  0.40957778  0.67783406  0.58454618  1
  O  O36  1  0.78875577  0.53370619  0.63824034  1
  O  O37  1  0.59238320  0.67027771  0.91496689  1
  O  O38  1  0.09376769  0.83493771  0.41307644  1
  O  O39  1  0.23048528  0.80979319  0.82569086  1
  O  O40  1  0.71425673  0.71034785  0.32509695  1
  O  O41  1  0.80557871  0.79695682  0.65286429  1
  O  O42  1  0.29457878  0.96315129  0.13539144  1
  O  O43  1  0.91338892  0.82240466  0.08671553  1
  O  O44  1  0.71077911  0.97225306  0.35648394  1
