# generated using pymatgen
data_LiFe2(BO3)2
_symmetry_space_group_name_H-M   'P 1'
_cell_length_a   5.26611761
_cell_length_b   5.27101644
_cell_length_c   20.16571443
_cell_angle_alpha   88.98693540
_cell_angle_beta   89.92094231
_cell_angle_gamma   60.47015504
_symmetry_Int_Tables_number   1
_chemical_formula_structural   LiFe2(BO3)2
_chemical_formula_sum   'Li4 Fe8 B8 O24'
_cell_volume   486.94949677
_cell_formula_units_Z   4
loop_
 _symmetry_equiv_pos_site_id
 _symmetry_equiv_pos_as_xyz
  1  'x, y, z'
loop_
 _atom_site_type_symbol
 _atom_site_label
 _atom_site_symmetry_multiplicity
 _atom_site_fract_x
 _atom_site_fract_y
 _atom_site_fract_z
 _atom_site_occupancy
  Li  Li0  1  0.33386539  0.64208762  0.16811921  1
  Li  Li1  1  0.35360062  0.66773748  0.41999043  1
  Li  Li2  1  0.65539747  0.34666280  0.79927333  1
  Li  Li3  1  0.66020254  0.33953702  0.54924832  1
  Fe  Fe4  1  0.00577381  0.68189536  0.81053316  1
  Fe  Fe5  1  0.98699811  0.67351918  0.30911891  1
  Fe  Fe6  1  0.66737544  0.99488010  0.93266847  1
  Fe  Fe7  1  0.68464828  0.00177045  0.43565411  1
  Fe  Fe8  1  0.32317184  0.98982187  0.56145908  1
  Fe  Fe9  1  0.32229237  0.01920391  0.06005824  1
  Fe  Fe10  1  0.00965426  0.33089547  0.68489918  1
  Fe  Fe11  1  0.99178703  0.31541368  0.18672952  1
  B  B12  1  0.99691564  0.33767822  0.93495959  1
  B  B13  1  0.00852137  0.33107410  0.43614264  1
  B  B14  1  0.33197007  0.00392210  0.81001507  1
  B  B15  1  0.32861669  0.00762072  0.31228175  1
  B  B16  1  0.66766075  0.99976099  0.68756757  1
  B  B17  1  0.66405620  0.99602210  0.18553217  1
  B  B18  1  0.99526914  0.66557794  0.56094248  1
  B  B19  1  0.98846745  0.67509580  0.06169967  1
  O  O20  1  0.08114878  0.25967572  0.78815803  1
  O  O21  1  0.10616146  0.27332233  0.28924229  1
  O  O22  1  0.26557596  0.11690572  0.96111895  1
  O  O23  1  0.97774877  0.60055441  0.91597326  1
  O  O24  1  0.26216443  0.07394258  0.45266339  1
  O  O25  1  0.02587254  0.57556351  0.41294093  1
  O  O26  1  0.57149322  0.03332736  0.83220833  1
  O  O27  1  0.26320392  0.64655186  0.55681032  1
  O  O28  1  0.59785993  0.97990234  0.32871808  1
  O  O29  1  0.21420438  0.72760946  0.07245855  1
  O  O30  1  0.34808103  0.74054064  0.81001917  1
  O  O31  1  0.28564837  0.77289366  0.32044774  1
  O  O32  1  0.70417673  0.23927541  0.69180422  1
  O  O33  1  0.64797469  0.26015644  0.18425865  1
  O  O34  1  0.76940108  0.28875707  0.92750533  1
  O  O35  1  0.40258694  0.02913815  0.66663448  1
  O  O36  1  0.73851022  0.35126380  0.44413415  1
  O  O37  1  0.42773312  0.96420332  0.16349231  1
  O  O38  1  0.97041761  0.42080096  0.58183747  1
  O  O39  1  0.01657368  0.40857429  0.08181771  1
  O  O40  1  0.74211103  0.92268931  0.54238040  1
  O  O41  1  0.72470717  0.88988721  0.03477444  1
  O  O42  1  0.89246058  0.72742756  0.70630243  1
  O  O43  1  0.92079087  0.74400696  0.20816647  1
