# generated using pymatgen
data_LiFe2OF3
_symmetry_space_group_name_H-M   'P 1'
_cell_length_a   6.22435129
_cell_length_b   6.22937784
_cell_length_c   8.84264874
_cell_angle_alpha   90.01882143
_cell_angle_beta   90.00717790
_cell_angle_gamma   90.00502512
_symmetry_Int_Tables_number   1
_chemical_formula_structural   LiFe2OF3
_chemical_formula_sum   'Li4 Fe8 O4 F12'
_cell_volume   342.86338957
_cell_formula_units_Z   4
loop_
 _symmetry_equiv_pos_site_id
 _symmetry_equiv_pos_as_xyz
  1  'x, y, z'
loop_
 _atom_site_type_symbol
 _atom_site_label
 _atom_site_symmetry_multiplicity
 _atom_site_fract_x
 _atom_site_fract_y
 _atom_site_fract_z
 _atom_site_occupancy
  Li  Li0  1  0.00004593  0.96789082  0.01706659  1
  Li  Li1  1  0.49995753  0.03210825  0.23291438  1
  Li  Li2  1  0.50003836  0.53194758  0.51709319  1
  Li  Li3  1  0.99996015  0.46799580  0.73289986  1
  Fe  Fe4  1  0.25006775  0.49999388  0.12502142  1
  Fe  Fe5  1  0.74994104  0.49999233  0.12502430  1
  Fe  Fe6  1  0.99999184  0.24848703  0.38596702  1
  Fe  Fe7  1  0.99998255  0.74843896  0.36412000  1
  Fe  Fe8  1  0.24995661  0.00002348  0.62496472  1
  Fe  Fe9  1  0.75004164  0.00003570  0.62497409  1
  Fe  Fe10  1  0.50000708  0.75153776  0.86401199  1
  Fe  Fe11  1  0.50001590  0.25151643  0.88593812  1
  O  O12  1  0.00002732  0.69802976  0.14315808  1
  O  O13  1  0.49997390  0.30202308  0.10688163  1
  O  O14  1  0.49999850  0.80198215  0.64311610  1
  O  O15  1  0.00000154  0.19798823  0.60682387  1
  F  F16  1  0.99996742  0.23678642  0.15066990  1
  F  F17  1  0.50005083  0.76321841  0.09927451  1
  F  F18  1  0.75341608  0.99644404  0.36957096  1
  F  F19  1  0.24657771  0.99653386  0.36958313  1
  F  F20  1  0.24658349  0.49651145  0.38045354  1
  F  F21  1  0.75337723  0.49650122  0.38043880  1
  F  F22  1  0.49999545  0.26320463  0.65065328  1
  F  F23  1  -0.00000605  0.73678631  0.59934493  1
  F  F24  1  0.25347146  0.50346664  0.86960861  1
  F  F25  1  0.74655288  0.50351184  0.86961178  1
  F  F26  1  0.25337846  0.00346790  0.88039367  1
  F  F27  1  0.74662741  0.00357605  0.88042152  1
