# generated using pymatgen
data_Li5Fe8(BO3)8
_symmetry_space_group_name_H-M   'P 1'
_cell_length_a   5.25786446
_cell_length_b   9.10153833
_cell_length_c   11.34474912
_cell_angle_alpha   67.05262081
_cell_angle_beta   77.06784634
_cell_angle_gamma   89.60495738
_symmetry_Int_Tables_number   1
_chemical_formula_structural   Li5Fe8(BO3)8
_chemical_formula_sum   'Li5 Fe8 B8 O24'
_cell_volume   485.29824128
_cell_formula_units_Z   1
loop_
 _symmetry_equiv_pos_site_id
 _symmetry_equiv_pos_as_xyz
  1  'x, y, z'
loop_
 _atom_site_type_symbol
 _atom_site_label
 _atom_site_symmetry_multiplicity
 _atom_site_fract_x
 _atom_site_fract_y
 _atom_site_fract_z
 _atom_site_occupancy
  Li  Li0  1  0.97478428  0.96563973  0.40213631  1
  Li  Li1  1  0.73434253  0.75668077  0.15943464  1
  Li  Li2  1  0.47145079  0.46117224  0.41798844  1
  Li  Li3  1  0.01596569  0.99162615  0.66494326  1
  Li  Li4  1  0.24508912  0.26218870  0.14840196  1
  Fe  Fe5  1  0.97223567  0.65072165  0.38376982  1
  Fe  Fe6  1  0.72827024  0.07088269  0.87614292  1
  Fe  Fe7  1  0.53541616  0.83468161  0.63121424  1
  Fe  Fe8  1  0.76014400  0.43325867  0.13096420  1
  Fe  Fe9  1  0.23226128  0.56539089  0.87083582  1
  Fe  Fe10  1  0.46910803  0.14242174  0.38726205  1
  Fe  Fe11  1  0.02358466  0.34902307  0.63367924  1
  Fe  Fe12  1  0.25588221  0.94251599  0.12602963  1
  B  B13  1  0.98240634  0.31762862  0.37182577  1
  B  B14  1  0.72419810  0.39249552  0.88687170  1
  B  B15  1  0.51571532  0.17772428  0.62911116  1
  B  B16  1  0.76849090  0.10859433  0.12752865  1
  B  B17  1  0.48167409  0.81565413  0.37220215  1
  B  B18  1  0.23628258  0.89659911  0.87717669  1
  B  B19  1  0.02674649  0.68841985  0.62509229  1
  B  B20  1  0.25951474  0.60141437  0.13005186  1
  O  O21  1  0.98749783  0.92686300  0.85899503  1
  O  O22  1  0.85806003  0.28496390  0.84313100  1
  O  O23  1  0.86175648  0.48437862  0.93262226  1
  O  O24  1  0.92200651  0.83446511  0.60607387  1
  O  O25  1  0.92813541  0.57996395  0.58747089  1
  O  O26  1  0.74934160  0.14775469  0.67527137  1
  O  O27  1  0.74090481  0.34654304  0.33117461  1
  O  O28  1  0.46389272  0.40565590  0.89447432  1
  O  O29  1  0.36121532  0.77480540  0.84935794  1
  O  O30  1  0.59572605  0.91781251  0.41477795  1
  O  O31  1  0.60956138  0.68835414  0.35631838  1
  O  O32  1  0.36611299  0.98988096  0.92176309  1
  O  O33  1  0.66504157  0.00179888  0.08467441  1
  O  O34  1  0.40471136  0.31778247  0.60946965  1
  O  O35  1  0.40891071  0.06154370  0.59650963  1
  O  O36  1  0.60652035  0.21954523  0.16025506  1
  O  O37  1  0.51974823  0.59121976  0.13549136  1
  O  O38  1  0.24537666  0.65583139  0.68095329  1
  O  O39  1  0.23969168  0.84356482  0.34015265  1
  O  O40  1  0.08630449  0.42045800  0.41419520  1
  O  O41  1  0.10539128  0.18633895  0.36354551  1
  O  O42  1  0.14152021  0.49029764  0.09437061  1
  O  O43  1  0.11043629  0.71258852  0.16095433  1
  O  O44  1  0.01895684  0.10704432  0.14129479  1
