# generated using pymatgen
data_Ho3(In2Co)2
_symmetry_space_group_name_H-M   'P 1'
_cell_length_a   8.11604150
_cell_length_b   8.11732582
_cell_length_c   3.53360772
_cell_angle_alpha   90.00000000
_cell_angle_beta   90.00000000
_cell_angle_gamma   119.99247648
_symmetry_Int_Tables_number   1
_chemical_formula_structural   Ho3(In2Co)2
_chemical_formula_sum   'Ho3 In4 Co2'
_cell_volume   201.62255961
_cell_formula_units_Z   1
loop_
 _symmetry_equiv_pos_site_id
 _symmetry_equiv_pos_as_xyz
  1  'x, y, z'
loop_
 _atom_site_type_symbol
 _atom_site_label
 _atom_site_symmetry_multiplicity
 _atom_site_fract_x
 _atom_site_fract_y
 _atom_site_fract_z
 _atom_site_occupancy
  Ho  Ho0  1  0.25862133  0.00364232  0.49999800  1
  Ho  Ho1  1  0.99633432  0.25497762  0.49999800  1
  Ho  Ho2  1  0.74496270  0.74131699  0.49999800  1
  In  In3  1  0.66679677  0.33351445  0.49999800  1
  In  In4  1  0.04389837  0.62883888  0.00000000  1
  In  In5  1  0.37117504  0.41507264  0.00000000  1
  In  In6  1  0.58486605  0.95600658  0.00000000  1
  Co  Co7  1  0.00002536  0.00000217  0.00000000  1
  Co  Co8  1  0.33332104  0.66662735  0.49999800  1
