# generated using pymatgen
data_Li5Fe8(BO3)8
_symmetry_space_group_name_H-M   'P 1'
_cell_length_a   5.23516865
_cell_length_b   9.11687602
_cell_length_c   11.34388283
_cell_angle_alpha   67.52127106
_cell_angle_beta   77.06147657
_cell_angle_gamma   89.37135288
_symmetry_Int_Tables_number   1
_chemical_formula_structural   Li5Fe8(BO3)8
_chemical_formula_sum   'Li5 Fe8 B8 O24'
_cell_volume   485.90921970
_cell_formula_units_Z   1
loop_
 _symmetry_equiv_pos_site_id
 _symmetry_equiv_pos_as_xyz
  1  'x, y, z'
loop_
 _atom_site_type_symbol
 _atom_site_label
 _atom_site_symmetry_multiplicity
 _atom_site_fract_x
 _atom_site_fract_y
 _atom_site_fract_z
 _atom_site_occupancy
  Li  Li0  1  0.97217051  0.97312482  0.39443940  1
  Li  Li1  1  0.70933055  0.71783219  0.91420542  1
  Li  Li2  1  0.73730810  0.75039759  0.16305857  1
  Li  Li3  1  0.47052622  0.46021424  0.41870970  1
  Li  Li4  1  0.02283196  0.00209081  0.65162436  1
  Fe  Fe5  1  0.97446070  0.65186023  0.38104295  1
  Fe  Fe6  1  0.74112149  0.06989870  0.88003719  1
  Fe  Fe7  1  0.53035710  0.83883782  0.62655243  1
  Fe  Fe8  1  0.75455032  0.42338048  0.13480864  1
  Fe  Fe9  1  0.22667887  0.55565565  0.88001513  1
  Fe  Fe10  1  0.46620911  0.14673867  0.37927738  1
  Fe  Fe11  1  0.01287358  0.35437977  0.63487198  1
  Fe  Fe12  1  0.27109948  0.93998424  0.12389167  1
  B  B13  1  0.96836266  0.30941009  0.38672158  1
  B  B14  1  0.72757695  0.40425860  0.87282692  1
  B  B15  1  0.51531351  0.18356694  0.62761901  1
  B  B16  1  0.76551656  0.09354450  0.13617771  1
  B  B17  1  0.48093171  0.81588121  0.37129243  1
  B  B18  1  0.23516788  0.88600599  0.87978152  1
  B  B19  1  0.03396949  0.68738030  0.62840888  1
  B  B20  1  0.26913314  0.61698306  0.11826242  1
  O  O21  1  0.98096332  0.89825692  0.86279219  1
  O  O22  1  0.88255153  0.30130666  0.82793653  1
  O  O23  1  0.84566503  0.50820293  0.91365757  1
  O  O24  1  0.91981343  0.82893996  0.60747461  1
  O  O25  1  0.94355846  0.57749121  0.58572426  1
  O  O26  1  0.76119863  0.17212343  0.66143765  1
  O  O27  1  0.73090767  0.34034490  0.34799850  1
  O  O28  1  0.46774303  0.40450337  0.87772403  1
  O  O29  1  0.39073787  0.77375724  0.84708164  1
  O  O30  1  0.58997056  0.91625112  0.41593390  1
  O  O31  1  0.60562898  0.68576866  0.35972011  1
  O  O32  1  0.34601623  0.98031723  0.93014546  1
  O  O33  1  0.65134669  0.98776221  0.09334443  1
  O  O34  1  0.37821593  0.31600456  0.61711462  1
  O  O35  1  0.41419500  0.06314069  0.59995704  1
  O  O36  1  0.61865456  0.20300112  0.16997706  1
  O  O37  1  0.53511498  0.61827777  0.11309397  1
  O  O38  1  0.24596694  0.65540267  0.68530695  1
  O  O39  1  0.24318309  0.84816921  0.33262550  1
  O  O40  1  0.08162865  0.41856490  0.42541863  1
  O  O41  1  0.08643519  0.17300448  0.39158405  1
  O  O42  1  0.14292784  0.52141369  0.07579540  1
  O  O43  1  0.11724709  0.72205082  0.16475674  1
  O  O44  1  0.01993341  0.07836233  0.14534087  1
