# generated using pymatgen
data_Li3VFeP2(HO5)2
_symmetry_space_group_name_H-M   'P 1'
_cell_length_a   5.34383748
_cell_length_b   5.43339779
_cell_length_c   7.55963156
_cell_angle_alpha   106.25414149
_cell_angle_beta   109.12060868
_cell_angle_gamma   95.46325374
_symmetry_Int_Tables_number   1
_chemical_formula_structural   Li3VFeP2(HO5)2
_chemical_formula_sum   'Li3 V1 Fe1 P2 H2 O10'
_cell_volume   194.82493843
_cell_formula_units_Z   1
loop_
 _symmetry_equiv_pos_site_id
 _symmetry_equiv_pos_as_xyz
  1  'x, y, z'
loop_
 _atom_site_type_symbol
 _atom_site_label
 _atom_site_symmetry_multiplicity
 _atom_site_fract_x
 _atom_site_fract_y
 _atom_site_fract_z
 _atom_site_occupancy
  Li  Li0  1  0.76206606  0.40253937  0.83072017  1
  Li  Li1  1  0.20900442  0.56921655  0.18876745  1
  Li  Li2  1  0.53403835  0.86772709  0.15265661  1
  V  V3  1  0.01086870  0.00316222  0.50778176  1
  Fe  Fe4  1  0.99735713  0.99754058  0.99374565  1
  P  P5  1  0.67582247  0.37381229  0.22730317  1
  P  P6  1  0.31997158  0.62556076  0.76510137  1
  H  H7  1  0.33640658  0.07952342  0.35595981  1
  H  H8  1  0.65344621  0.94315840  0.65355780  1
  O  O9  1  0.83769336  0.05253040  0.71399927  1
  O  O10  1  0.74146190  0.20653857  0.36866110  1
  O  O11  1  0.30873114  0.33660801  0.65356081  1
  O  O12  1  0.37847151  0.26258676  0.08705126  1
  O  O13  1  0.87001294  0.34802507  0.11216641  1
  O  O14  1  0.13225180  0.65005330  0.88752354  1
  O  O15  1  0.61650812  0.73468534  0.91814358  1
  O  O16  1  0.69154881  0.66881880  0.33476933  1
  O  O17  1  0.25884800  0.78593786  0.62147191  1
  O  O18  1  0.16994892  0.94321720  0.28405000  1
