# generated using pymatgen
data_Li5Mn2Co5O12
_symmetry_space_group_name_H-M   'P 1'
_cell_length_a   5.15294913
_cell_length_b   5.15294927
_cell_length_c   9.87375871
_cell_angle_alpha   95.67973652
_cell_angle_beta   84.32026361
_cell_angle_gamma   58.70234932
_symmetry_Int_Tables_number   1
_chemical_formula_structural   Li5Mn2Co5O12
_chemical_formula_sum   'Li5 Mn2 Co5 O12'
_cell_volume   219.41091247
_cell_formula_units_Z   1
loop_
 _symmetry_equiv_pos_site_id
 _symmetry_equiv_pos_as_xyz
  1  'x, y, z'
loop_
 _atom_site_type_symbol
 _atom_site_label
 _atom_site_symmetry_multiplicity
 _atom_site_fract_x
 _atom_site_fract_y
 _atom_site_fract_z
 _atom_site_occupancy
  Li  Li0  1  0.83809772  0.32896924  0.50354744  1
  Li  Li1  1  0.66600520  0.16260131  0.99801831  1
  Li  Li2  1  0.32896924  0.83809772  0.99645256  1
  Li  Li3  1  0.16260131  0.66600520  0.50198169  1
  Li  Li4  1  0.08599392  0.08599592  0.74999900  1
  Mn  Mn5  1  0.75214927  0.75214927  0.75000000  1
  Mn  Mn6  1  0.24569500  0.24569500  0.25000000  1
  Co  Co7  1  0.91364624  0.91364624  0.25000000  1
  Co  Co8  1  0.99702583  0.49410243  0.99603046  1
  Co  Co9  1  0.49410243  0.99702583  0.50396954  1
  Co  Co10  1  0.57733084  0.57733084  0.25000000  1
  Co  Co11  1  0.41770511  0.41770511  0.75000000  1
  O  O12  1  0.88067738  0.61044686  0.36882669  1
  O  O13  1  0.70446330  0.49060339  0.86496300  1
  O  O14  1  0.61044686  0.88067738  0.13117331  1
  O  O15  1  0.97771653  0.20503996  0.13178765  1
  O  O16  1  0.49060339  0.70446330  0.63503700  1
  O  O17  1  0.77040595  0.04095597  0.63631811  1
  O  O18  1  0.20503996  0.97771653  0.36821235  1
  O  O19  1  0.51162655  0.28400944  0.36772091  1
  O  O20  1  0.39613978  0.13027981  0.86514288  1
  O  O21  1  0.04095597  0.77040595  0.86368189  1
  O  O22  1  0.28400944  0.51162655  0.13227909  1
  O  O23  1  0.13027981  0.39613978  0.63485712  1
