# generated using pymatgen
data_NaV4O10
_symmetry_space_group_name_H-M   'P 1'
_cell_length_a   3.68001694
_cell_length_b   6.17130760
_cell_length_c   9.57330264
_cell_angle_alpha   79.40726901
_cell_angle_beta   90.00000000
_cell_angle_gamma   72.65315629
_symmetry_Int_Tables_number   1
_chemical_formula_structural   NaV4O10
_chemical_formula_sum   'Na1 V4 O10'
_cell_volume   203.64118828
_cell_formula_units_Z   1
loop_
 _symmetry_equiv_pos_site_id
 _symmetry_equiv_pos_as_xyz
  1  'x, y, z'
loop_
 _atom_site_type_symbol
 _atom_site_label
 _atom_site_symmetry_multiplicity
 _atom_site_fract_x
 _atom_site_fract_y
 _atom_site_fract_z
 _atom_site_occupancy
  Na  Na0  1  0.50000000  0.00000000  0.50000000  1
  V  V1  1  0.08860564  0.82278872  0.16246900  1
  V  V2  1  0.20311017  0.59377965  0.83202094  1
  V  V3  1  0.79688983  0.40622035  0.16797906  1
  V  V4  1  0.91139436  0.17721128  0.83753100  1
  O  O5  1  0.06496581  0.87006838  0.90406238  1
  O  O6  1  0.09366381  0.81267339  0.33437185  1
  O  O7  1  0.15023220  0.69953559  0.66166235  1
  O  O8  1  0.62383029  0.75233943  0.13786035  1
  O  O9  1  0.74158080  0.51683839  0.87712039  1
  O  O10  1  0.25841920  0.48316161  0.12287961  1
  O  O11  1  0.37616971  0.24766057  0.86213965  1
  O  O12  1  0.84976780  0.30046441  0.33833765  1
  O  O13  1  0.90633619  0.18732661  0.66562815  1
  O  O14  1  0.93503419  0.12993162  0.09593762  1
