# generated using pymatgen
data_Li4V3P8O29
_symmetry_space_group_name_H-M   'P 1'
_cell_length_a   9.73697953
_cell_length_b   9.76840047
_cell_length_c   14.18497939
_cell_angle_alpha   90.50991933
_cell_angle_beta   90.16777787
_cell_angle_gamma   60.36021380
_symmetry_Int_Tables_number   1
_chemical_formula_structural   Li4V3P8O29
_chemical_formula_sum   'Li8 V6 P16 O58'
_cell_volume   1172.61162615
_cell_formula_units_Z   2
loop_
 _symmetry_equiv_pos_site_id
 _symmetry_equiv_pos_as_xyz
  1  'x, y, z'
loop_
 _atom_site_type_symbol
 _atom_site_label
 _atom_site_symmetry_multiplicity
 _atom_site_fract_x
 _atom_site_fract_y
 _atom_site_fract_z
 _atom_site_occupancy
  Li  Li0  1  0.77126045  0.91504080  0.55928936  1
  Li  Li1  1  0.91648185  0.31204002  0.55882122  1
  Li  Li2  1  0.76547095  0.33361041  0.06110795  1
  Li  Li3  1  0.33071755  0.90361984  0.05922964  1
  Li  Li4  1  0.31538397  0.77775245  0.55272517  1
  Li  Li5  1  0.23059795  0.66649783  0.94555279  1
  Li  Li6  1  0.09040486  0.68090355  0.43466302  1
  Li  Li7  1  0.96039197  0.01258905  0.00235280  1
  V  V8  1  0.57049736  0.43052107  0.25352448  1
  V  V9  1  0.43524167  0.56531150  0.74908181  1
  V  V10  1  0.56751468  0.00070918  0.75288419  1
  V  V11  1  0.43546370  0.00101207  0.24902528  1
  V  V12  1  0.99371226  0.56854539  0.24337008  1
  V  V13  1  0.00627729  0.43068652  0.75436263  1
  P  P14  1  0.91672872  0.77739738  0.83793699  1
  P  P15  1  0.77101518  0.91299707  0.34244096  1
  P  P16  1  0.91596018  0.31818773  0.34388641  1
  P  P17  1  0.66082647  0.66695708  0.12961094  1
  P  P18  1  0.67191330  0.66311623  0.63166334  1
  P  P19  1  0.77201357  0.31570443  0.84339362  1
  P  P20  1  0.68539615  0.22792935  0.66089635  1
  P  P21  1  0.31338151  0.91267941  0.84539472  1
  P  P22  1  0.69618976  0.08352116  0.15966802  1
  P  P23  1  0.31979613  0.77272555  0.33908276  1
  P  P24  1  0.23068528  0.68100447  0.15955159  1
  P  P25  1  0.33131673  0.33665803  0.36790959  1
  P  P26  1  0.33527267  0.33781961  0.86935305  1
  P  P27  1  0.08922088  0.67953517  0.65475202  1
  P  P28  1  0.22895405  0.08393452  0.66380400  1
  P  P29  1  0.08385388  0.22026888  0.16060475  1
  O  O30  1  0.00429941  0.75303672  0.56445338  1
  O  O31  1  0.91829022  0.74721843  0.33555136  1
  O  O32  1  0.79887743  0.00321311  0.07736821  1
  O  O33  1  0.74492814  0.91288592  0.83347952  1
  O  O34  1  0.91907808  0.61712244  0.82791157  1
  O  O35  1  0.80265945  0.67645215  0.17142686  1
  O  O36  1  0.90603009  0.47771623  0.32107002  1
  O  O37  1  0.99175891  0.20085316  0.08244649  1
  O  O38  1  0.91399033  0.34506981  0.83038464  1
  O  O39  1  0.67268395  0.81326270  0.66835761  1
  O  O40  1  0.61936691  0.90193640  0.31781039  1
  O  O41  1  0.82140837  0.51546802  0.67360312  1
  O  O42  1  0.64840531  0.66246407  0.02515353  1
  O  O43  1  0.66241448  0.65392055  0.52727724  1
  O  O44  1  0.67069249  0.51203951  0.17223119  1
  O  O45  1  0.47085818  0.90834209  0.83044870  1
  O  O46  1  0.50502257  0.81469774  0.17072329  1
  O  O47  1  0.74563848  0.34182461  0.33097972  1
  O  O48  1  0.78642184  0.20305947  0.75746802  1
  O  O49  1  0.76932291  0.24329672  0.57909946  1
  O  O50  1  0.78167017  0.23882776  0.93536480  1
  O  O51  1  0.61583926  0.47317902  0.82730183  1
  O  O52  1  0.52087381  0.66368451  0.67755166  1
  O  O53  1  0.65782650  0.25934759  0.16368947  1
  O  O54  1  0.48012882  0.62034265  0.32223685  1
  O  O55  1  0.34241336  0.91779547  0.33473792  1
  O  O56  1  0.78900432  0.01055462  0.25738636  1
  O  O57  1  0.75588397  0.99137536  0.43480336  1
  O  O58  1  0.23175149  0.99109318  0.58007990  1
  O  O59  1  0.66392068  0.08175564  0.65983340  1
  O  O60  1  0.52197309  0.37956081  0.67997213  1
  O  O61  1  0.33649061  0.74172659  0.83182814  1
  O  O62  1  0.47949532  0.34018687  0.32206596  1
  O  O63  1  0.38612593  0.52616252  0.17347017  1
  O  O64  1  0.22823538  0.76740644  0.07176623  1
  O  O65  1  0.24165084  0.76186502  0.42767718  1
  O  O66  1  0.20851390  0.79150183  0.25054003  1
  O  O67  1  0.25742523  0.66099776  0.65686930  1
  O  O68  1  0.48193094  0.19420312  0.82861624  1
  O  O69  1  0.53989457  0.07709070  0.16835125  1
  O  O70  1  0.32421765  0.49328165  0.82458460  1
  O  O71  1  0.31893055  0.36187187  0.97286624  1
  O  O72  1  0.34340726  0.32667731  0.47177334  1
  O  O73  1  0.18301072  0.48503377  0.33051636  1
  O  O74  1  0.38314861  0.09031584  0.67974956  1
  O  O75  1  0.34017331  0.18588637  0.31751607  1
  O  O76  1  0.08856081  0.65300650  0.16447063  1
  O  O77  1  0.99528328  0.79518080  0.74095253  1
  O  O78  1  0.00683108  0.79028697  0.91927130  1
  O  O79  1  0.09798457  0.52077403  0.67604580  1
  O  O80  1  0.18649728  0.33328857  0.82395504  1
  O  O81  1  0.08285105  0.37720154  0.16697728  1
  O  O82  1  0.25822471  0.07964940  0.16054817  1
  O  O83  1  0.23101836  0.97700558  0.93671255  1
  O  O84  1  0.20001340  0.01042201  0.75902765  1
  O  O85  1  0.08511692  0.25509428  0.66351611  1
  O  O86  1  0.98768384  0.25150109  0.43576297  1
  O  O87  1  0.01463989  0.19876237  0.26011174  1
