# generated using pymatgen
data_Li4V3P8O29
_symmetry_space_group_name_H-M   'P 1'
_cell_length_a   9.79595675
_cell_length_b   9.76209502
_cell_length_c   14.12131006
_cell_angle_alpha   89.95872590
_cell_angle_beta   90.39285888
_cell_angle_gamma   59.78774681
_symmetry_Int_Tables_number   1
_chemical_formula_structural   Li4V3P8O29
_chemical_formula_sum   'Li8 V6 P16 O58'
_cell_volume   1166.93695495
_cell_formula_units_Z   2
loop_
 _symmetry_equiv_pos_site_id
 _symmetry_equiv_pos_as_xyz
  1  'x, y, z'
loop_
 _atom_site_type_symbol
 _atom_site_label
 _atom_site_symmetry_multiplicity
 _atom_site_fract_x
 _atom_site_fract_y
 _atom_site_fract_z
 _atom_site_occupancy
  Li  Li0  1  0.90584541  0.77247289  0.05526016  1
  Li  Li1  1  0.77626478  0.30769408  0.05779178  1
  Li  Li2  1  0.32011279  0.90867118  0.06191354  1
  Li  Li3  1  0.67242660  0.23401570  0.44469433  1
  Li  Li4  1  0.32965306  0.76525840  0.55859197  1
  Li  Li5  1  0.22430157  0.68209081  0.93945749  1
  Li  Li6  1  0.09126610  0.23151267  0.93817280  1
  Li  Li7  1  0.99953385  0.99731960  0.50675142  1
  V  V8  1  0.56865732  0.43196705  0.24818060  1
  V  V9  1  0.43317927  0.56588899  0.75200110  1
  V  V10  1  0.56967597  0.99742820  0.74920223  1
  V  V11  1  0.43467654  0.00474349  0.25479560  1
  V  V12  1  0.00056384  0.56376244  0.25954685  1
  V  V13  1  0.99660631  0.43760479  0.73760675  1
  P  P14  1  0.91282056  0.76794919  0.83991488  1
  P  P15  1  0.77661643  0.91864169  0.34147470  1
  P  P16  1  0.91795811  0.30257889  0.34288356  1
  P  P17  1  0.66858047  0.66790039  0.13270088  1
  P  P18  1  0.65974481  0.67296015  0.62819874  1
  P  P19  1  0.77504904  0.31865833  0.83939620  1
  P  P20  1  0.68691633  0.22497054  0.65925610  1
  P  P21  1  0.32018709  0.91378840  0.84580915  1
  P  P22  1  0.68400042  0.08397258  0.15480222  1
  P  P23  1  0.31596008  0.77319149  0.34169249  1
  P  P24  1  0.22660334  0.68099331  0.16112279  1
  P  P25  1  0.33720549  0.33227304  0.37141668  1
  P  P26  1  0.32746370  0.33198529  0.86691100  1
  P  P27  1  0.08365197  0.69758771  0.65677239  1
  P  P28  1  0.22485041  0.08138122  0.66084130  1
  P  P29  1  0.08732277  0.23223305  0.15832088  1
  O  O30  1  0.00305533  0.79793939  0.57369960  1
  O  O31  1  0.91355131  0.74364946  0.33594384  1
  O  O32  1  0.76503881  0.99104958  0.06994101  1
  O  O33  1  0.74453167  0.91288527  0.83561154  1
  O  O34  1  0.90698856  0.61607058  0.81828406  1
  O  O35  1  0.81775550  0.66577663  0.17846886  1
  O  O36  1  0.91739931  0.46371450  0.33034152  1
  O  O37  1  0.00193699  0.24415888  0.06719440  1
  O  O38  1  0.92082485  0.34139394  0.83304450  1
  O  O39  1  0.66829818  0.81350794  0.67747820  1
  O  O40  1  0.61757095  0.91891208  0.33000377  1
  O  O41  1  0.81019940  0.51897350  0.67223815  1
  O  O42  1  0.67110266  0.67315401  0.02738740  1
  O  O43  1  0.66661302  0.67530535  0.52367599  1
  O  O44  1  0.67169324  0.51378376  0.16919876  1
  O  O45  1  0.47962904  0.90138425  0.82493555  1
  O  O46  1  0.51805472  0.81661284  0.17439741  1
  O  O47  1  0.74353713  0.33987448  0.33632415  1
  O  O48  1  0.79627216  0.20696361  0.75020681  1
  O  O49  1  0.77355324  0.20717467  0.56977800  1
  O  O50  1  0.76949940  0.24721050  0.93068422  1
  O  O51  1  0.62072022  0.47935113  0.81950669  1
  O  O52  1  0.50872705  0.67748311  0.66617433  1
  O  O53  1  0.66215623  0.25289144  0.15666714  1
  O  O54  1  0.47154927  0.61775328  0.32802611  1
  O  O55  1  0.34504877  0.91539943  0.32741682  1
  O  O56  1  0.79437418  0.99945762  0.24730229  1
  O  O57  1  0.78757785  0.00541496  0.42473670  1
  O  O58  1  0.20573376  0.99159233  0.58178374  1
  O  O59  1  0.65708455  0.08331343  0.67149775  1
  O  O60  1  0.53073798  0.38063419  0.67119970  1
  O  O61  1  0.33551187  0.74783384  0.84402163  1
  O  O62  1  0.48960145  0.32420265  0.33343579  1
  O  O63  1  0.37928716  0.51987720  0.17906345  1
  O  O64  1  0.23852906  0.75785448  0.07158403  1
  O  O65  1  0.23201787  0.79032661  0.43173133  1
  O  O66  1  0.20430784  0.79153807  0.25117831  1
  O  O67  1  0.25892220  0.65730197  0.66441944  1
  O  O68  1  0.47170011  0.18458893  0.81936927  1
  O  O69  1  0.52379964  0.09422360  0.17694246  1
  O  O70  1  0.32837966  0.48536456  0.83286388  1
  O  O71  1  0.32388733  0.32276485  0.97187937  1
  O  O72  1  0.33072991  0.32778114  0.47569550  1
  O  O73  1  0.18805436  0.48366609  0.32585807  1
  O  O74  1  0.38420131  0.07645314  0.66869169  1
  O  O75  1  0.33018123  0.18819568  0.32276597  1
  O  O76  1  0.07944428  0.66150622  0.16185669  1
  O  O77  1  0.00803640  0.79047281  0.75498604  1
  O  O78  1  0.99875134  0.75506529  0.93095484  1
  O  O79  1  0.08118801  0.53857630  0.66704732  1
  O  O80  1  0.17786174  0.33617791  0.82125141  1
  O  O81  1  0.09406864  0.38373318  0.18023485  1
  O  O82  1  0.25526494  0.08430965  0.16026882  1
  O  O83  1  0.24595416  0.00104520  0.93592928  1
  O  O84  1  0.20209066  0.01118831  0.75993278  1
  O  O85  1  0.08770414  0.25746660  0.66265586  1
  O  O86  1  0.00169969  0.20527301  0.42629147  1
  O  O87  1  0.99390327  0.20979803  0.24435288  1
