# generated using pymatgen
data_Li4V3P8O29
_symmetry_space_group_name_H-M   'P 1'
_cell_length_a   9.75865410
_cell_length_b   9.77625570
_cell_length_c   14.24234335
_cell_angle_alpha   89.94556558
_cell_angle_beta   90.24661585
_cell_angle_gamma   60.06283613
_symmetry_Int_Tables_number   1
_chemical_formula_structural   Li4V3P8O29
_chemical_formula_sum   'Li8 V6 P16 O58'
_cell_volume   1177.44979711
_cell_formula_units_Z   2
loop_
 _symmetry_equiv_pos_site_id
 _symmetry_equiv_pos_as_xyz
  1  'x, y, z'
loop_
 _atom_site_type_symbol
 _atom_site_label
 _atom_site_symmetry_multiplicity
 _atom_site_fract_x
 _atom_site_fract_y
 _atom_site_fract_z
 _atom_site_occupancy
  Li  Li0  1  0.77678897  0.92027554  0.54969713  1
  Li  Li1  1  0.90742036  0.31707019  0.55634508  1
  Li  Li2  1  0.76782632  0.33444038  0.05742977  1
  Li  Li3  1  0.33179314  0.90326687  0.05959300  1
  Li  Li4  1  0.31253508  0.77067740  0.56256526  1
  Li  Li5  1  0.67681821  0.09274485  0.94527729  1
  Li  Li6  1  0.22384734  0.08988953  0.43946403  1
  Li  Li7  1  0.02271933  0.94844280  0.00615238  1
  V  V8  1  0.56676722  0.43563454  0.25377402  1
  V  V9  1  0.42992349  0.56489713  0.74849276  1
  V  V10  1  0.56578048  0.00029746  0.74970670  1
  V  V11  1  0.43349575  0.00024236  0.24845739  1
  V  V12  1  0.99646114  0.57014785  0.24321695  1
  V  V13  1  0.00185725  0.43703658  0.75916383  1
  P  P14  1  0.91764684  0.78070151  0.84399550  1
  P  P15  1  0.77275072  0.91006733  0.33628984  1
  P  P16  1  0.91383503  0.31963170  0.34197031  1
  P  P17  1  0.66491321  0.66201058  0.12896535  1
  P  P18  1  0.66760661  0.66785980  0.63265156  1
  P  P19  1  0.76998333  0.31465903  0.84184291  1
  P  P20  1  0.68581926  0.22790386  0.66009512  1
  P  P21  1  0.31459410  0.91032459  0.84058952  1
  P  P22  1  0.68521289  0.09247981  0.15808171  1
  P  P23  1  0.31853056  0.77006737  0.34618132  1
  P  P24  1  0.22301447  0.69468025  0.16400982  1
  P  P25  1  0.32709408  0.33687047  0.36579451  1
  P  P26  1  0.33810667  0.32924624  0.86794234  1
  P  P27  1  0.08078050  0.68596250  0.65894719  1
  P  P28  1  0.22504051  0.09360980  0.66117304  1
  P  P29  1  0.08228465  0.22294932  0.16000709  1
  O  O30  1  0.98514972  0.76448070  0.57485366  1
  O  O31  1  0.91679183  0.74155987  0.32696766  1
  O  O32  1  0.77486590  0.02254689  0.06957409  1
  O  O33  1  0.74141469  0.91798452  0.83650063  1
  O  O34  1  0.92273422  0.61804484  0.83489771  1
  O  O35  1  0.81006100  0.66906379  0.17399434  1
  O  O36  1  0.90603010  0.47783037  0.32139315  1
  O  O37  1  0.99031079  0.20708870  0.08141403  1
  O  O38  1  0.91449488  0.34092177  0.83185742  1
  O  O39  1  0.66398412  0.82014354  0.67807836  1
  O  O40  1  0.61983016  0.90120108  0.31541840  1
  O  O41  1  0.81419199  0.52321195  0.68049602  1
  O  O42  1  0.67667465  0.64206256  0.02516601  1
  O  O43  1  0.68098926  0.67396028  0.52908117  1
  O  O44  1  0.67495106  0.50893996  0.17466245  1
  O  O45  1  0.47192577  0.91186690  0.82488865  1
  O  O46  1  0.51039618  0.80976147  0.16303535  1
  O  O47  1  0.74499655  0.34223287  0.33530093  1
  O  O48  1  0.78764007  0.19984768  0.75606933  1
  O  O49  1  0.77618691  0.23140282  0.57812802  1
  O  O50  1  0.77824108  0.22961812  0.93137482  1
  O  O51  1  0.61742596  0.47093420  0.82764113  1
  O  O52  1  0.51388448  0.67089879  0.66503465  1
  O  O53  1  0.65662349  0.26465453  0.16642141  1
  O  O54  1  0.48067023  0.62168455  0.32151731  1
  O  O55  1  0.33424671  0.91997435  0.33855081  1
  O  O56  1  0.79296726  0.00373019  0.24896658  1
  O  O57  1  0.76247045  0.98976973  0.42606175  1
  O  O58  1  0.23916766  0.00365837  0.57273693  1
  O  O59  1  0.66040206  0.08196949  0.65954328  1
  O  O60  1  0.52559613  0.38076525  0.67539200  1
  O  O61  1  0.34427877  0.74159133  0.82644904  1
  O  O62  1  0.47246508  0.34349666  0.31939247  1
  O  O63  1  0.38432777  0.54126798  0.17048805  1
  O  O64  1  0.20516342  0.80366936  0.08510806  1
  O  O65  1  0.25631011  0.75538056  0.43788681  1
  O  O66  1  0.20090075  0.78684702  0.26190432  1
  O  O67  1  0.24932929  0.66328324  0.65873299  1
  O  O68  1  0.49250917  0.18171185  0.82436346  1
  O  O69  1  0.52983016  0.09187049  0.16918417  1
  O  O70  1  0.32798870  0.47813120  0.82461085  1
  O  O71  1  0.34964382  0.31051200  0.97119654  1
  O  O72  1  0.32732858  0.34421720  0.46947018  1
  O  O73  1  0.18032980  0.47737815  0.31600987  1
  O  O74  1  0.37847000  0.10108517  0.67992376  1
  O  O75  1  0.33046615  0.18337345  0.32970559  1
  O  O76  1  0.08654058  0.65642938  0.16314940  1
  O  O77  1  0.99942560  0.79546601  0.75045242  1
  O  O78  1  0.99239967  0.80451325  0.92796305  1
  O  O79  1  0.09215635  0.52474334  0.68305716  1
  O  O80  1  0.18959215  0.32282802  0.82485642  1
  O  O81  1  0.07790622  0.38287081  0.16746314  1
  O  O82  1  0.25637839  0.08421561  0.16090074  1
  O  O83  1  0.23760045  0.97870992  0.93171762  1
  O  O84  1  0.20371089  0.00691428  0.75162466  1
  O  O85  1  0.07855240  0.26069339  0.66104564  1
  O  O86  1  0.99613016  0.24540943  0.43287742  1
  O  O87  1  0.01347376  0.20044913  0.25926646  1
