# generated using pymatgen
data_Li5Fe8(BO3)8
_symmetry_space_group_name_H-M   'P 1'
_cell_length_a   5.22442306
_cell_length_b   9.07489628
_cell_length_c   11.42612806
_cell_angle_alpha   67.30613637
_cell_angle_beta   77.53086746
_cell_angle_gamma   89.72159572
_symmetry_Int_Tables_number   1
_chemical_formula_structural   Li5Fe8(BO3)8
_chemical_formula_sum   'Li5 Fe8 B8 O24'
_cell_volume   486.14221833
_cell_formula_units_Z   1
loop_
 _symmetry_equiv_pos_site_id
 _symmetry_equiv_pos_as_xyz
  1  'x, y, z'
loop_
 _atom_site_type_symbol
 _atom_site_label
 _atom_site_symmetry_multiplicity
 _atom_site_fract_x
 _atom_site_fract_y
 _atom_site_fract_z
 _atom_site_occupancy
  Li  Li0  1  0.97258480  0.97045348  0.39544887  1
  Li  Li1  1  0.70337838  0.72095347  0.91450701  1
  Li  Li2  1  0.73256203  0.75516311  0.16381771  1
  Li  Li3  1  0.02032655  0.99779169  0.66137551  1
  Li  Li4  1  0.24044417  0.25919334  0.15191590  1
  Fe  Fe5  1  0.99357910  0.64109442  0.37723633  1
  Fe  Fe6  1  0.74207321  0.07007124  0.88236421  1
  Fe  Fe7  1  0.52924925  0.83767697  0.62865391  1
  Fe  Fe8  1  0.74956546  0.43236007  0.13565776  1
  Fe  Fe9  1  0.22522574  0.55615525  0.87413698  1
  Fe  Fe10  1  0.47487248  0.15605998  0.38715954  1
  Fe  Fe11  1  0.01783727  0.35277551  0.63380582  1
  Fe  Fe12  1  0.25731346  0.94392322  0.11942150  1
  B  B13  1  0.96657277  0.31116706  0.38104685  1
  B  B14  1  0.72487768  0.40566391  0.87473377  1
  B  B15  1  0.51101808  0.18079503  0.63529290  1
  B  B16  1  0.75814511  0.10081259  0.13368899  1
  B  B17  1  0.49240994  0.81789765  0.37467699  1
  B  B18  1  0.23557556  0.88574086  0.87657470  1
  B  B19  1  0.03498273  0.69014213  0.62136033  1
  B  B20  1  0.26813784  0.60417063  0.12503532  1
  O  O21  1  0.97816496  0.89571408  0.86205117  1
  O  O22  1  0.87435581  0.30776312  0.82494361  1
  O  O23  1  0.84572658  0.51101652  0.91469661  1
  O  O24  1  0.91772302  0.83045788  0.60593990  1
  O  O25  1  0.94793771  0.58297925  0.57411669  1
  O  O26  1  0.76575299  0.16915309  0.66159034  1
  O  O27  1  0.73952988  0.33937905  0.33700340  1
  O  O28  1  0.45992649  0.39951260  0.88946345  1
  O  O29  1  0.38394554  0.76739263  0.84673396  1
  O  O30  1  0.57634334  0.92453902  0.42101580  1
  O  O31  1  0.65594623  0.70867621  0.35087073  1
  O  O32  1  0.35360237  0.98078451  0.92102233  1
  O  O33  1  0.66244725  0.99014151  0.09149466  1
  O  O34  1  0.36450566  0.30333417  0.64029290  1
  O  O35  1  0.41167052  0.06357057  0.60189018  1
  O  O36  1  0.59542043  0.20976823  0.16236499  1
  O  O37  1  0.53650748  0.62380408  0.10904629  1
  O  O38  1  0.24335645  0.65406933  0.68132205  1
  O  O39  1  0.24170465  0.82518707  0.34684194  1
  O  O40  1  0.05812163  0.41543284  0.43078671  1
  O  O41  1  0.10550636  0.18490053  0.37310136  1
  O  O42  1  0.15715714  0.49581949  0.08590336  1
  O  O43  1  0.10414427  0.69634224  0.17842946  1
  O  O44  1  0.01327660  0.10001339  0.14712718  1
