# generated using pymatgen
data_Li4V3P8O29
_symmetry_space_group_name_H-M   'P 1'
_cell_length_a   9.78095943
_cell_length_b   9.78862425
_cell_length_c   14.25203879
_cell_angle_alpha   89.85015828
_cell_angle_beta   90.00957370
_cell_angle_gamma   59.75526794
_symmetry_Int_Tables_number   1
_chemical_formula_structural   Li4V3P8O29
_chemical_formula_sum   'Li8 V6 P16 O58'
_cell_volume   1178.77880732
_cell_formula_units_Z   2
loop_
 _symmetry_equiv_pos_site_id
 _symmetry_equiv_pos_as_xyz
  1  'x, y, z'
loop_
 _atom_site_type_symbol
 _atom_site_label
 _atom_site_symmetry_multiplicity
 _atom_site_fract_x
 _atom_site_fract_y
 _atom_site_fract_z
 _atom_site_occupancy
  Li  Li0  1  0.76074476  0.90428010  0.55713301  1
  Li  Li1  1  0.90794903  0.33009817  0.56037250  1
  Li  Li2  1  0.76674396  0.32796215  0.05937121  1
  Li  Li3  1  0.32882497  0.90219363  0.05892682  1
  Li  Li4  1  0.32880031  0.76547741  0.56163714  1
  Li  Li5  1  0.33141332  0.33593665  0.10306243  1
  Li  Li6  1  0.97387813  0.96829848  0.00384349  1
  Li  Li7  1  0.00364682  0.00054988  0.49764474  1
  V  V8  1  0.56877554  0.43331644  0.25184889  1
  V  V9  1  0.43602640  0.56454335  0.74765997  1
  V  V10  1  0.56441501  0.99918586  0.75203164  1
  V  V11  1  0.43284625  0.00141001  0.25187543  1
  V  V12  1  0.99702955  0.57073895  0.24926026  1
  V  V13  1  0.99987061  0.43818193  0.75390776  1
  P  P14  1  0.91792179  0.77796476  0.84236366  1
  P  P15  1  0.77438644  0.91744613  0.34111107  1
  P  P16  1  0.91802286  0.31057134  0.34391315  1
  P  P17  1  0.66535871  0.66641984  0.12982667  1
  P  P18  1  0.66852297  0.66862935  0.63059096  1
  P  P19  1  0.77446364  0.31207877  0.84462077  1
  P  P20  1  0.69725242  0.21931747  0.66318522  1
  P  P21  1  0.31366805  0.91131824  0.84326051  1
  P  P22  1  0.69111082  0.08835968  0.15816432  1
  P  P23  1  0.31074968  0.77491904  0.34391623  1
  P  P24  1  0.21934443  0.69272034  0.16317043  1
  P  P25  1  0.33135545  0.33514797  0.36651098  1
  P  P26  1  0.33366383  0.33399029  0.86617683  1
  P  P27  1  0.08338479  0.69350452  0.65796510  1
  P  P28  1  0.21936758  0.08703864  0.66304615  1
  P  P29  1  0.08773141  0.22190087  0.16168715  1
  O  O30  1  0.99118422  0.79354287  0.57636262  1
  O  O31  1  0.91425693  0.74496458  0.32832748  1
  O  O32  1  0.79103311  0.99897364  0.07802344  1
  O  O33  1  0.74219140  0.91281139  0.82893405  1
  O  O34  1  0.91956246  0.61800786  0.82930247  1
  O  O35  1  0.81599592  0.65819969  0.17707799  1
  O  O36  1  0.91793278  0.46688925  0.32636088  1
  O  O37  1  0.99097358  0.21549530  0.08373378  1
  O  O38  1  0.91592404  0.34263561  0.82727180  1
  O  O39  1  0.67182443  0.81685329  0.67243421  1
  O  O40  1  0.61754086  0.91592318  0.32403633  1
  O  O41  1  0.81326646  0.51756276  0.67601927  1
  O  O42  1  0.66325962  0.67188635  0.02581431  1
  O  O43  1  0.68221608  0.66786470  0.52629293  1
  O  O44  1  0.66594749  0.51636584  0.16749235  1
  O  O45  1  0.47344657  0.90815305  0.82421676  1
  O  O46  1  0.51820057  0.81722438  0.17296768  1
  O  O47  1  0.74825632  0.34111219  0.32781905  1
  O  O48  1  0.79090773  0.19265422  0.76155940  1
  O  O49  1  0.80351600  0.20520958  0.58396251  1
  O  O50  1  0.79185177  0.23219515  0.93630958  1
  O  O51  1  0.62103830  0.46788639  0.82891476  1
  O  O52  1  0.51368355  0.67558668  0.66441530  1
  O  O53  1  0.65514172  0.26240067  0.15868938  1
  O  O54  1  0.46645902  0.62161976  0.32899954  1
  O  O55  1  0.33908715  0.91750044  0.32577751  1
  O  O56  1  0.78819688  0.01548394  0.25607102  1
  O  O57  1  0.78433180  0.98328901  0.43292749  1
  O  O58  1  0.20583311  0.99487003  0.58407441  1
  O  O59  1  0.65679024  0.08413193  0.66114862  1
  O  O60  1  0.54239395  0.38037888  0.67128100  1
  O  O61  1  0.34336582  0.74343481  0.82568379  1
  O  O62  1  0.47713248  0.33317718  0.32368420  1
  O  O63  1  0.37444417  0.53066630  0.17018499  1
  O  O64  1  0.20711473  0.79783802  0.08397277  1
  O  O65  1  0.23091784  0.79537484  0.43616143  1
  O  O66  1  0.19345991  0.78786447  0.26085469  1
  O  O67  1  0.25636366  0.65721472  0.65702857  1
  O  O68  1  0.47972461  0.18186925  0.82163117  1
  O  O69  1  0.52836784  0.09576112  0.16904012  1
  O  O70  1  0.33363880  0.47744825  0.82388543  1
  O  O71  1  0.33402014  0.32563659  0.97047119  1
  O  O72  1  0.32374420  0.32977726  0.46970478  1
  O  O73  1  0.18253195  0.48030355  0.31898444  1
  O  O74  1  0.38147095  0.07925286  0.67253514  1
  O  O75  1  0.33390835  0.18531509  0.31768569  1
  O  O76  1  0.08156091  0.65595771  0.16298681  1
  O  O77  1  0.00723727  0.79483344  0.75261399  1
  O  O78  1  0.99107591  0.79348742  0.92877591  1
  O  O79  1  0.07890303  0.53820717  0.67270723  1
  O  O80  1  0.18551781  0.33295299  0.82190291  1
  O  O81  1  0.09867160  0.37471515  0.16974229  1
  O  O82  1  0.26254419  0.08091295  0.15740724  1
  O  O83  1  0.24455615  0.97653520  0.93616743  1
  O  O84  1  0.19468959  0.01924230  0.76160745  1
  O  O85  1  0.08368873  0.26223616  0.66079200  1
  O  O86  1  0.98127132  0.23201513  0.43619182  1
  O  O87  1  0.02279644  0.19477515  0.26052910  1
