# generated using pymatgen
data_Li4V3P8O29
_symmetry_space_group_name_H-M   'P 1'
_cell_length_a   9.74237636
_cell_length_b   9.73842503
_cell_length_c   14.20958523
_cell_angle_alpha   90.45212750
_cell_angle_beta   90.52299807
_cell_angle_gamma   60.34262212
_symmetry_Int_Tables_number   1
_chemical_formula_structural   Li4V3P8O29
_chemical_formula_sum   'Li8 V6 P16 O58'
_cell_volume   1171.47590372
_cell_formula_units_Z   2
loop_
 _symmetry_equiv_pos_site_id
 _symmetry_equiv_pos_as_xyz
  1  'x, y, z'
loop_
 _atom_site_type_symbol
 _atom_site_label
 _atom_site_symmetry_multiplicity
 _atom_site_fract_x
 _atom_site_fract_y
 _atom_site_fract_z
 _atom_site_occupancy
  Li  Li0  1  0.76997769  0.32839074  0.05176735  1
  Li  Li1  1  0.32849405  0.90831225  0.05891433  1
  Li  Li2  1  0.66696562  0.23616867  0.44827330  1
  Li  Li3  1  0.33258775  0.76928227  0.56151477  1
  Li  Li4  1  0.23177930  0.66753083  0.93896147  1
  Li  Li5  1  0.08707020  0.67439520  0.43980278  1
  Li  Li6  1  0.94866104  0.01262260  0.98616914  1
  Li  Li7  1  0.98923274  0.05625951  0.51637015  1
  V  V8  1  0.56775046  0.43382614  0.24922175  1
  V  V9  1  0.43545957  0.56451307  0.75008275  1
  V  V10  1  0.56710864  0.99705802  0.75262539  1
  V  V11  1  0.43644204  0.00447758  0.25083294  1
  V  V12  1  0.99566147  0.56319635  0.24952804  1
  V  V13  1  0.00288400  0.43331457  0.74744570  1
  P  P14  1  0.91763119  0.78015914  0.83598462  1
  P  P15  1  0.77794209  0.91880673  0.33999073  1
  P  P16  1  0.91838768  0.30313943  0.34541759  1
  P  P17  1  0.66210574  0.66785635  0.13223027  1
  P  P18  1  0.66632747  0.66871690  0.63226665  1
  P  P19  1  0.77851667  0.31345568  0.83948943  1
  P  P20  1  0.68660821  0.22167856  0.66055664  1
  P  P21  1  0.31172355  0.91336691  0.84670463  1
  P  P22  1  0.69531786  0.08308685  0.15437837  1
  P  P23  1  0.31680897  0.77500823  0.33950438  1
  P  P24  1  0.22492422  0.68333229  0.16004564  1
  P  P25  1  0.33699672  0.33610025  0.36759448  1
  P  P26  1  0.33193026  0.33314934  0.86772669  1
  P  P27  1  0.08654175  0.68857204  0.65318786  1
  P  P28  1  0.21996127  0.08298783  0.66403645  1
  P  P29  1  0.08257624  0.22037243  0.16040815  1
  O  O30  1  0.01621536  0.76787569  0.56192134  1
  O  O31  1  0.91537408  0.74648095  0.33972437  1
  O  O32  1  0.78826534  0.01027393  0.06824167  1
  O  O33  1  0.74297895  0.91473165  0.83517232  1
  O  O34  1  0.92694353  0.61804855  0.82852043  1
  O  O35  1  0.80522636  0.67124846  0.17740648  1
  O  O36  1  0.92590142  0.45766200  0.33286259  1
  O  O37  1  0.99421156  0.20704167  0.07817154  1
  O  O38  1  0.91710054  0.34739811  0.82981575  1
  O  O39  1  0.66587317  0.81495483  0.68136987  1
  O  O40  1  0.61818155  0.91843060  0.32434223  1
  O  O41  1  0.81387641  0.52412636  0.67832652  1
  O  O42  1  0.65288208  0.65617867  0.02828551  1
  O  O43  1  0.66627470  0.67349480  0.52795376  1
  O  O44  1  0.66914043  0.51302599  0.17608891  1
  O  O45  1  0.46844917  0.91316728  0.82999070  1
  O  O46  1  0.50912377  0.81559305  0.17220621  1
  O  O47  1  0.74067055  0.34402804  0.33558426  1
  O  O48  1  0.79778515  0.20212021  0.75016013  1
  O  O49  1  0.77337691  0.20755133  0.57171315  1
  O  O50  1  0.79343042  0.22665848  0.92856725  1
  O  O51  1  0.62067505  0.46766361  0.82800403  1
  O  O52  1  0.51357629  0.67266858  0.67018878  1
  O  O53  1  0.65726954  0.25960428  0.16270858  1
  O  O54  1  0.47371742  0.61811641  0.32406402  1
  O  O55  1  0.34767160  0.91536005  0.33378284  1
  O  O56  1  0.80067459  0.99735358  0.24599856  1
  O  O57  1  0.77799815  0.01279769  0.42265867  1
  O  O58  1  0.19924568  0.99433945  0.58330486  1
  O  O59  1  0.65313240  0.08276131  0.67022019  1
  O  O60  1  0.53212597  0.37965869  0.67188177  1
  O  O61  1  0.34079204  0.74128439  0.83756403  1
  O  O62  1  0.49027935  0.32921677  0.32405181  1
  O  O63  1  0.38221423  0.52644236  0.17633890  1
  O  O64  1  0.23001918  0.76315526  0.07141599  1
  O  O65  1  0.23644212  0.77174700  0.42873498  1
  O  O66  1  0.20547078  0.79530818  0.24991334  1
  O  O67  1  0.25851227  0.65920362  0.66247869  1
  O  O68  1  0.47622887  0.18613761  0.82116149  1
  O  O69  1  0.53946067  0.07754973  0.16844990  1
  O  O70  1  0.32755842  0.48631232  0.83012193  1
  O  O71  1  0.32858694  0.33142300  0.97203244  1
  O  O72  1  0.35670727  0.32386925  0.47151805  1
  O  O73  1  0.18912476  0.48792931  0.33194527  1
  O  O74  1  0.38202561  0.07354999  0.67146163  1
  O  O75  1  0.33481848  0.19014459  0.31780847  1
  O  O76  1  0.08522690  0.65261323  0.16608229  1
  O  O77  1  0.99112283  0.80352822  0.73935517  1
  O  O78  1  0.00667737  0.80076282  0.91668317  1
  O  O79  1  0.08651366  0.53187997  0.66976053  1
  O  O80  1  0.18523328  0.33419274  0.81874701  1
  O  O81  1  0.08422673  0.37622004  0.17266121  1
  O  O82  1  0.25738412  0.07980347  0.16325885  1
  O  O83  1  0.23239740  0.98404788  0.93761845  1
  O  O84  1  0.19668706  0.00873937  0.76036194  1
  O  O85  1  0.08498483  0.25752454  0.66489847  1
  O  O86  1  0.98804865  0.20856530  0.43086381  1
  O  O87  1  0.00424257  0.19635196  0.25443644  1
