# generated using pymatgen
data_Li4V3P8O29
_symmetry_space_group_name_H-M   'P 1'
_cell_length_a   9.76173049
_cell_length_b   9.75629057
_cell_length_c   14.19676535
_cell_angle_alpha   89.57502240
_cell_angle_beta   90.03313794
_cell_angle_gamma   59.89729104
_symmetry_Int_Tables_number   1
_chemical_formula_structural   Li4V3P8O29
_chemical_formula_sum   'Li8 V6 P16 O58'
_cell_volume   1169.67136416
_cell_formula_units_Z   2
loop_
 _symmetry_equiv_pos_site_id
 _symmetry_equiv_pos_as_xyz
  1  'x, y, z'
loop_
 _atom_site_type_symbol
 _atom_site_label
 _atom_site_symmetry_multiplicity
 _atom_site_fract_x
 _atom_site_fract_y
 _atom_site_fract_z
 _atom_site_occupancy
  Li  Li0  1  0.76200787  0.90110488  0.55302411  1
  Li  Li1  1  0.76666163  0.33419577  0.05481962  1
  Li  Li2  1  0.33013748  0.90398977  0.05868180  1
  Li  Li3  1  0.32639787  0.76369389  0.56250825  1
  Li  Li4  1  0.67519014  0.09283675  0.94316802  1
  Li  Li5  1  0.23014527  0.09891767  0.44287661  1
  Li  Li6  1  0.02501214  0.95189101  0.00036536  1
  Li  Li7  1  0.94488794  0.04137564  0.49264693  1
  V  V8  1  0.56556036  0.43586288  0.25620844  1
  V  V9  1  0.43401235  0.56249830  0.74607428  1
  V  V10  1  0.56504703  0.99981723  0.75136544  1
  V  V11  1  0.43395991  0.00184777  0.24726998  1
  V  V12  1  0.00086752  0.56460474  0.24682289  1
  V  V13  1  0.99929449  0.43718055  0.75333238  1
  P  P14  1  0.91863781  0.77842757  0.84545253  1
  P  P15  1  0.77670685  0.90997593  0.33862934  1
  P  P16  1  0.91934910  0.30466555  0.34119443  1
  P  P17  1  0.66626129  0.66220580  0.13181306  1
  P  P18  1  0.66755759  0.67073821  0.63208065  1
  P  P19  1  0.77424242  0.31175973  0.83996790  1
  P  P20  1  0.69537773  0.21937353  0.65782858  1
  P  P21  1  0.31403240  0.90738007  0.84110539  1
  P  P22  1  0.68652260  0.09278856  0.15847282  1
  P  P23  1  0.31228084  0.77591978  0.34629339  1
  P  P24  1  0.22100303  0.69484820  0.16425920  1
  P  P25  1  0.32946157  0.33425109  0.36742863  1
  P  P26  1  0.33519896  0.33149679  0.86691174  1
  P  P27  1  0.07894169  0.69619267  0.65887707  1
  P  P28  1  0.22188261  0.09264063  0.66212335  1
  P  P29  1  0.08195412  0.22377070  0.15545860  1
  O  O30  1  0.98602540  0.79532131  0.57698853  1
  O  O31  1  0.91664444  0.73807897  0.32838893  1
  O  O32  1  0.77064738  0.02055756  0.06885859  1
  O  O33  1  0.74116165  0.91689174  0.83798468  1
  O  O34  1  0.92464926  0.61715517  0.83404433  1
  O  O35  1  0.81107393  0.66403342  0.17892072  1
  O  O36  1  0.92519405  0.45858228  0.33027799  1
  O  O37  1  0.99269166  0.21408459  0.07322576  1
  O  O38  1  0.91706218  0.34012758  0.83257731  1
  O  O39  1  0.67005953  0.81922681  0.67766215  1
  O  O40  1  0.61961078  0.91241550  0.32510451  1
  O  O41  1  0.80963851  0.52613917  0.68304475  1
  O  O42  1  0.67360068  0.64806625  0.02732785  1
  O  O43  1  0.67937425  0.68372418  0.52823513  1
  O  O44  1  0.67139367  0.51065202  0.17677808  1
  O  O45  1  0.47051316  0.91045859  0.82602715  1
  O  O46  1  0.51244968  0.81229948  0.16723061  1
  O  O47  1  0.74377738  0.34303817  0.33527110  1
  O  O48  1  0.79498179  0.19637892  0.75389526  1
  O  O49  1  0.79587002  0.19615787  0.57528790  1
  O  O50  1  0.77889771  0.22636638  0.92962212  1
  O  O51  1  0.62025835  0.46852955  0.82535451  1
  O  O52  1  0.51173604  0.67683811  0.66359636  1
  O  O53  1  0.65649452  0.26492506  0.16537994  1
  O  O54  1  0.47199685  0.62005116  0.32818386  1
  O  O55  1  0.33843586  0.92013486  0.33636826  1
  O  O56  1  0.79541561  0.00305560  0.24887820  1
  O  O57  1  0.78909895  0.98257921  0.42805723  1
  O  O58  1  0.22629312  0.00608960  0.57345521  1
  O  O59  1  0.65522298  0.08243233  0.66336894  1
  O  O60  1  0.54122762  0.38157705  0.66735298  1
  O  O61  1  0.34708834  0.73707713  0.82751042  1
  O  O62  1  0.47863567  0.33512690  0.32176157  1
  O  O63  1  0.38294226  0.54113643  0.17384065  1
  O  O64  1  0.20614464  0.80100215  0.08348026  1
  O  O65  1  0.23849609  0.77862161  0.43847013  1
  O  O66  1  0.19741710  0.79244828  0.26092241  1
  O  O67  1  0.25225452  0.66195118  0.65802505  1
  O  O68  1  0.48977201  0.18102185  0.82453729  1
  O  O69  1  0.52887715  0.09241090  0.17225647  1
  O  O70  1  0.33212477  0.47649910  0.82085994  1
  O  O71  1  0.34668026  0.31510741  0.97078607  1
  O  O72  1  0.32934758  0.34000248  0.47171848  1
  O  O73  1  0.18608333  0.48016030  0.31763412  1
  O  O74  1  0.38061556  0.09089554  0.67680493  1
  O  O75  1  0.32639087  0.18617577  0.32975063  1
  O  O76  1  0.08534564  0.65634866  0.16442524  1
  O  O77  1  0.00276722  0.79792264  0.75325644  1
  O  O78  1  0.99203708  0.80283813  0.93011479  1
  O  O79  1  0.07822056  0.53874891  0.67408261  1
  O  O80  1  0.18845123  0.32907789  0.82160910  1
  O  O81  1  0.07980274  0.38239369  0.16888150  1
  O  O82  1  0.25557610  0.08387562  0.15822319  1
  O  O83  1  0.23502620  0.97703236  0.93204811  1
  O  O84  1  0.20114689  0.00445915  0.75260487  1
  O  O85  1  0.08249129  0.26327902  0.66533886  1
  O  O86  1  0.00197606  0.20188477  0.42520991  1
  O  O87  1  0.00311723  0.19942997  0.24983824  1
