# generated using pymatgen
data_Li4V3P8O29
_symmetry_space_group_name_H-M   'P 1'
_cell_length_a   9.75727784
_cell_length_b   9.74133461
_cell_length_c   14.10931888
_cell_angle_alpha   90.09543493
_cell_angle_beta   90.33115083
_cell_angle_gamma   60.09614309
_symmetry_Int_Tables_number   1
_chemical_formula_structural   Li4V3P8O29
_chemical_formula_sum   'Li8 V6 P16 O58'
_cell_volume   1162.50830351
_cell_formula_units_Z   2
loop_
 _symmetry_equiv_pos_site_id
 _symmetry_equiv_pos_as_xyz
  1  'x, y, z'
loop_
 _atom_site_type_symbol
 _atom_site_label
 _atom_site_symmetry_multiplicity
 _atom_site_fract_x
 _atom_site_fract_y
 _atom_site_fract_z
 _atom_site_occupancy
  Li  Li0  1  0.90383862  0.76284037  0.05739609  1
  Li  Li1  1  0.76829972  0.32818325  0.05845427  1
  Li  Li2  1  0.33490110  0.90161779  0.06013069  1
  Li  Li3  1  0.66589010  0.23762314  0.44091628  1
  Li  Li4  1  0.33503540  0.76677029  0.55801900  1
  Li  Li5  1  0.09116551  0.67395875  0.44069998  1
  Li  Li6  1  0.00395269  0.99918093  0.99645787  1
  Li  Li7  1  0.99527190  0.04376043  0.50328351  1
  V  V8  1  0.56700105  0.43423300  0.24600576  1
  V  V9  1  0.43464269  0.56270904  0.75526835  1
  V  V10  1  0.56659013  0.99785365  0.74873305  1
  V  V11  1  0.43365307  0.00334834  0.25338534  1
  V  V12  1  0.99880425  0.56238667  0.25185910  1
  V  V13  1  0.00083007  0.43363962  0.74674882  1
  P  P14  1  0.91350940  0.77585194  0.84015758  1
  P  P15  1  0.77582244  0.91776971  0.34284586  1
  P  P16  1  0.91648556  0.30525858  0.34409432  1
  P  P17  1  0.66405618  0.67069717  0.13007659  1
  P  P18  1  0.66356397  0.66657796  0.63107697  1
  P  P19  1  0.77988691  0.31052711  0.84065223  1
  P  P20  1  0.68638628  0.22475533  0.65866544  1
  P  P21  1  0.31230045  0.91410443  0.84467974  1
  P  P22  1  0.69210427  0.08157647  0.15593628  1
  P  P23  1  0.31611351  0.77193744  0.34236587  1
  P  P24  1  0.22159202  0.69160938  0.16031582  1
  P  P25  1  0.33717081  0.33399653  0.37002646  1
  P  P26  1  0.33263581  0.32976110  0.86817910  1
  P  P27  1  0.08920808  0.68872757  0.65750870  1
  P  P28  1  0.22095895  0.08466083  0.66057153  1
  P  P29  1  0.08422354  0.22128079  0.15881949  1
  O  O30  1  0.01508461  0.77181443  0.56698961  1
  O  O31  1  0.91555260  0.74506041  0.34137148  1
  O  O32  1  0.78908560  0.99125146  0.07239530  1
  O  O33  1  0.74094009  0.91498299  0.83040086  1
  O  O34  1  0.91582533  0.61752876  0.82568204  1
  O  O35  1  0.81074140  0.67698710  0.17046842  1
  O  O36  1  0.92010229  0.46210465  0.33068501  1
  O  O37  1  0.99769587  0.20515834  0.07531284  1
  O  O38  1  0.91749662  0.34481399  0.83102273  1
  O  O39  1  0.66186907  0.81426613  0.67864346  1
  O  O40  1  0.61736245  0.91722840  0.32830508  1
  O  O41  1  0.81380988  0.52126318  0.67577793  1
  O  O42  1  0.65315557  0.68047825  0.02436797  1
  O  O43  1  0.65826457  0.67262998  0.52617652  1
  O  O44  1  0.67585116  0.51255488  0.16682208  1
  O  O45  1  0.46786652  0.91516405  0.82957622  1
  O  O46  1  0.51195917  0.81432468  0.17533663  1
  O  O47  1  0.74116038  0.34340935  0.33405872  1
  O  O48  1  0.79733080  0.20272310  0.74975547  1
  O  O49  1  0.76953980  0.21600439  0.56872423  1
  O  O50  1  0.78817601  0.22780923  0.93106622  1
  O  O51  1  0.62075839  0.46853169  0.82697063  1
  O  O52  1  0.51391119  0.66676459  0.67219370  1
  O  O53  1  0.66104907  0.25396711  0.15687200  1
  O  O54  1  0.47189057  0.61870472  0.32775724  1
  O  O55  1  0.34197791  0.91621108  0.33312538  1
  O  O56  1  0.79717000  0.99986679  0.24963846  1
  O  O57  1  0.78070718  0.00886091  0.42665862  1
  O  O58  1  0.20561517  0.99401906  0.57981605  1
  O  O59  1  0.65243628  0.08582600  0.66748055  1
  O  O60  1  0.53137218  0.38259162  0.67423735  1
  O  O61  1  0.34602138  0.74071118  0.83094287  1
  O  O62  1  0.48906161  0.32618562  0.32915191  1
  O  O63  1  0.38088426  0.53484309  0.17182708  1
  O  O64  1  0.21202731  0.79284465  0.07856200  1
  O  O65  1  0.23242122  0.77720984  0.43310792  1
  O  O66  1  0.19812841  0.79070658  0.25705410  1
  O  O67  1  0.26233039  0.65665353  0.66364052  1
  O  O68  1  0.47641860  0.18376729  0.82139995  1
  O  O69  1  0.53530133  0.08050836  0.17109772  1
  O  O70  1  0.33669826  0.47828761  0.82292604  1
  O  O71  1  0.33277462  0.33425333  0.97263509  1
  O  O72  1  0.34121395  0.32483842  0.47515083  1
  O  O73  1  0.18886520  0.48752231  0.33120807  1
  O  O74  1  0.38138071  0.07864895  0.66978668  1
  O  O75  1  0.33276557  0.18841502  0.32024543  1
  O  O76  1  0.08304677  0.65651062  0.16153865  1
  O  O77  1  0.00345113  0.79610904  0.74945434  1
  O  O78  1  0.98659609  0.78787961  0.93067409  1
  O  O79  1  0.08746489  0.53201959  0.67209727  1
  O  O80  1  0.18352762  0.33623980  0.82115187  1
  O  O81  1  0.08169133  0.37927095  0.17009319  1
  O  O82  1  0.25849864  0.08121906  0.16204100  1
  O  O83  1  0.23044824  0.98010723  0.93622031  1
  O  O84  1  0.19720696  0.01060706  0.75825832  1
  O  O85  1  0.08475783  0.25919311  0.66345089  1
  O  O86  1  0.99054025  0.21264600  0.43044736  1
  O  O87  1  0.00374421  0.19890020  0.25260661  1
