# generated using pymatgen
data_Li4V3P8O29
_symmetry_space_group_name_H-M   'P 1'
_cell_length_a   9.77722861
_cell_length_b   9.76686783
_cell_length_c   14.31263771
_cell_angle_alpha   90.42067218
_cell_angle_beta   90.67653327
_cell_angle_gamma   60.32786127
_symmetry_Int_Tables_number   1
_chemical_formula_structural   Li4V3P8O29
_chemical_formula_sum   'Li8 V6 P16 O58'
_cell_volume   1187.45130713
_cell_formula_units_Z   2
loop_
 _symmetry_equiv_pos_site_id
 _symmetry_equiv_pos_as_xyz
  1  'x, y, z'
loop_
 _atom_site_type_symbol
 _atom_site_label
 _atom_site_symmetry_multiplicity
 _atom_site_fract_x
 _atom_site_fract_y
 _atom_site_fract_z
 _atom_site_occupancy
  Li  Li0  1  0.77856352  0.90835576  0.54844046  1
  Li  Li1  1  0.91688978  0.31287655  0.56199230  1
  Li  Li2  1  0.76414093  0.33614088  0.05454376  1
  Li  Li3  1  0.33006898  0.90530482  0.06290910  1
  Li  Li4  1  0.69178561  0.22366893  0.43961788  1
  Li  Li5  1  0.31137520  0.77220394  0.55883296  1
  Li  Li6  1  0.67331888  0.09416723  0.94318291  1
  Li  Li7  1  0.02820399  0.94490116  0.00600970  1
  V  V8  1  0.56287737  0.43988117  0.24851908  1
  V  V9  1  0.42791106  0.56564117  0.75153953  1
  V  V10  1  0.56541716  0.99766010  0.75057292  1
  V  V11  1  0.43160591  0.00101291  0.24866477  1
  V  V12  1  0.99732238  0.56774440  0.24771401  1
  V  V13  1  0.00273907  0.43506226  0.75457020  1
  P  P14  1  0.91807068  0.77926682  0.84352706  1
  P  P15  1  0.77141493  0.91176156  0.33467595  1
  P  P16  1  0.91232695  0.31828776  0.34439476  1
  P  P17  1  0.66663817  0.66436228  0.13050156  1
  P  P18  1  0.66403518  0.66442792  0.63295625  1
  P  P19  1  0.77076592  0.31686088  0.83749199  1
  P  P20  1  0.67785423  0.22969297  0.65780287  1
  P  P21  1  0.31309336  0.91304960  0.84401395  1
  P  P22  1  0.68320119  0.09065085  0.15640254  1
  P  P23  1  0.31926583  0.77213789  0.34391405  1
  P  P24  1  0.21911156  0.69402523  0.16458168  1
  P  P25  1  0.33314377  0.33469007  0.36449902  1
  P  P26  1  0.34137293  0.32753192  0.86833358  1
  P  P27  1  0.08146828  0.68813553  0.66046163  1
  P  P28  1  0.22498167  0.08708024  0.66412915  1
  P  P29  1  0.07969964  0.22317088  0.16290483  1
  O  O30  1  0.99266743  0.77125237  0.57536196  1
  O  O31  1  0.91729828  0.74510084  0.33046903  1
  O  O32  1  0.77005477  0.01860435  0.06800231  1
  O  O33  1  0.74229843  0.91956162  0.83297827  1
  O  O34  1  0.92057329  0.62200213  0.83414309  1
  O  O35  1  0.81031966  0.67092133  0.17651706  1
  O  O36  1  0.90523986  0.47718577  0.32249210  1
  O  O37  1  0.98592611  0.21215476  0.08297954  1
  O  O38  1  0.91128169  0.34529853  0.83274140  1
  O  O39  1  0.66273317  0.81518238  0.67947973  1
  O  O40  1  0.62219118  0.90048715  0.31797471  1
  O  O41  1  0.81304459  0.51641947  0.67082196  1
  O  O42  1  0.67491567  0.64200606  0.02715478  1
  O  O43  1  0.65676569  0.68111442  0.52957378  1
  O  O44  1  0.67490844  0.51013641  0.17504880  1
  O  O45  1  0.47048593  0.91333563  0.82864914  1
  O  O46  1  0.51201317  0.81137539  0.16335941  1
  O  O47  1  0.74318183  0.33824661  0.33536385  1
  O  O48  1  0.78868059  0.20764699  0.74770047  1
  O  O49  1  0.75560356  0.24074530  0.57040960  1
  O  O50  1  0.76824729  0.23511612  0.92531732  1
  O  O51  1  0.61546544  0.47472519  0.82241187  1
  O  O52  1  0.51441367  0.66308244  0.67209562  1
  O  O53  1  0.65310026  0.26376638  0.16302786  1
  O  O54  1  0.47968193  0.62057382  0.31919788  1
  O  O55  1  0.34123172  0.91583719  0.33107267  1
  O  O56  1  0.79161671  0.00505861  0.24768344  1
  O  O57  1  0.76302975  0.99826928  0.42378921  1
  O  O58  1  0.23673715  0.98903863  0.58237640  1
  O  O59  1  0.66003132  0.08030389  0.65735973  1
  O  O60  1  0.51944693  0.37990455  0.67636892  1
  O  O61  1  0.34235033  0.74281527  0.82761530  1
  O  O62  1  0.48221636  0.33925097  0.32132409  1
  O  O63  1  0.38012117  0.53847135  0.17174885  1
  O  O64  1  0.20810049  0.79726175  0.08513807  1
  O  O65  1  0.25880430  0.75721711  0.43486866  1
  O  O66  1  0.19941198  0.78648374  0.26119167  1
  O  O67  1  0.25365688  0.65991397  0.66182832  1
  O  O68  1  0.49546334  0.18247634  0.82389546  1
  O  O69  1  0.52990522  0.08690465  0.16889623  1
  O  O70  1  0.33582277  0.47979379  0.82267962  1
  O  O71  1  0.36657722  0.32021690  0.97091307  1
  O  O72  1  0.34403819  0.33659061  0.46786615  1
  O  O73  1  0.18305083  0.47865929  0.31940122  1
  O  O74  1  0.37946525  0.09489115  0.68213760  1
  O  O75  1  0.33585758  0.18754883  0.32188369  1
  O  O76  1  0.08395447  0.65534504  0.16446080  1
  O  O77  1  0.00303923  0.79662993  0.75128142  1
  O  O78  1  0.98913847  0.80899473  0.92716748  1
  O  O79  1  0.08963897  0.52805449  0.67932918  1
  O  O80  1  0.19672186  0.32398447  0.82846049  1
  O  O81  1  0.07747542  0.38289072  0.17209295  1
  O  O82  1  0.25149965  0.08539538  0.16108834  1
  O  O83  1  0.23939847  0.97429473  0.93656721  1
  O  O84  1  0.19937481  0.01310344  0.75993073  1
  O  O85  1  0.08215929  0.25503228  0.66269727  1
  O  O86  1  0.98199715  0.25078609  0.43682348  1
  O  O87  1  0.01020970  0.20126770  0.26077731  1
