# generated using pymatgen
data_PrAl22O34
_symmetry_space_group_name_H-M   'P 1'
_cell_length_a   11.87346503
_cell_length_b   5.65509123
_cell_length_c   9.78334162
_cell_angle_alpha   89.99733534
_cell_angle_beta   74.08284366
_cell_angle_gamma   89.99974168
_symmetry_Int_Tables_number   1
_chemical_formula_structural   PrAl22O34
_chemical_formula_sum   'Pr1 Al22 O34'
_cell_volume   631.72129533
_cell_formula_units_Z   1
loop_
 _symmetry_equiv_pos_site_id
 _symmetry_equiv_pos_as_xyz
  1  'x, y, z'
loop_
 _atom_site_type_symbol
 _atom_site_label
 _atom_site_symmetry_multiplicity
 _atom_site_fract_x
 _atom_site_fract_y
 _atom_site_fract_z
 _atom_site_occupancy
  Pr  Pr0  1  0.52080094  0.49971933  0.30670328  1
  Al  Al1  1  0.78333470  0.99998445  0.90417183  1
  Al  Al2  1  0.95117306  0.50000253  0.84946015  1
  Al  Al3  1  0.64662671  0.49998484  0.95112666  1
  Al  Al4  1  0.78540141  0.24851625  0.65597017  1
  Al  Al5  1  0.21613780  0.25240192  0.84442061  1
  Al  Al6  1  0.21613606  0.74766475  0.84442068  1
  Al  Al7  1  0.05074233  0.00000229  0.64938380  1
  Al  Al8  1  0.95154038  0.00000561  0.35013376  1
  Al  Al9  1  0.35032531  -0.00000280  0.54933605  1
  Al  Al10  1  0.64739363  0.99996665  0.45119528  1
  Al  Al11  1  0.78541265  0.75147927  0.65596443  1
  Al  Al12  1  0.21278442  0.50003216  0.59822513  1
  Al  Al13  1  0.79117317  0.49998188  0.40310294  1
  Al  Al14  1  0.21162921  0.24641103  0.34478585  1
  Al  Al15  1  0.99999123  0.49999846  0.50026702  1
  Al  Al16  1  0.79179996  0.24923517  0.15221766  1
  Al  Al17  1  0.79180394  0.75072551  0.15221837  1
  Al  Al18  1  0.21565990  0.00002775  0.09571927  1
  Al  Al19  1  0.21164416  0.75362849  0.34477894  1
  Al  Al20  1  0.35172659  0.50001807  0.05117166  1
  Al  Al21  1  0.05256290  0.49999980  0.14959075  1
  Al  Al22  1  0.00180452  0.99999662  0.99837472  1
  O  O23  1  0.90018870  0.23740445  0.95649394  1
  O  O24  1  0.90018943  0.76258820  0.95649060  1
  O  O25  1  0.88914628  0.99999321  0.70332976  1
  O  O26  1  0.28230645  0.00002756  0.90566234  1
  O  O27  1  0.70994478  0.25099476  0.84676729  1
  O  O28  1  0.09828016  0.00000337  0.80965451  1
  O  O29  1  0.71209078  -0.00000113  0.59432742  1
  O  O30  1  0.70994216  0.74899223  0.84676286  1
  O  O31  1  0.29166464  0.50002624  0.90320591  1
  O  O32  1  0.90162921  0.49999421  0.68942497  1
  O  O33  1  0.49906435  0.00011698  0.47309312  1
  O  O34  1  0.90087628  0.26552467  0.45200388  1
  O  O35  1  0.28949050  0.25222622  0.65336423  1
  O  O36  1  0.71849716  0.50000554  0.59258148  1
  O  O37  1  0.11128655  0.50001482  0.79667175  1
  O  O38  1  0.90088183  0.73447787  0.45200528  1
  O  O39  1  0.28949022  0.74780835  0.65337419  1
  O  O40  1  0.70414685  0.26118812  0.34459537  1
  O  O41  1  0.28654654  0.00003131  0.40320397  1
  O  O42  1  0.10006503  0.26631041  0.54408663  1
  O  O43  1  0.89889019  0.99999117  0.19228806  1
  O  O44  1  0.89003903  0.49998496  0.20408764  1
  O  O45  1  0.28915679  0.50000390  0.40307279  1
  O  O46  1  0.10989326  0.00000820  0.29665674  1
  O  O47  1  0.71843633  0.99997348  0.09525597  1
  O  O48  1  0.70414093  0.73877191  0.34458990  1
  O  O49  1  0.10007049  0.73369971  0.54408169  1
  O  O50  1  0.10033751  0.49999810  0.31146680  1
  O  O51  1  0.70776584  0.50001088  0.10399749  1
  O  O52  1  0.28772401  0.24959206  0.15532416  1
  O  O53  1  0.49976925  0.50001319  0.04730863  1
  O  O54  1  0.28771989  0.75043840  0.15531632  1
  O  O55  1  0.09842269  0.23497914  0.04603759  1
  O  O56  1  0.09841989  0.76502549  0.04603473  1
