# generated using pymatgen
data_Li3Ni4O4F3
_symmetry_space_group_name_H-M   'P 1'
_cell_length_a   2.95588722
_cell_length_b   2.95588722
_cell_length_c   14.75760007
_cell_angle_alpha   95.74769101
_cell_angle_beta   95.74769101
_cell_angle_gamma   90.00000000
_symmetry_Int_Tables_number   1
_chemical_formula_structural   Li3Ni4O4F3
_chemical_formula_sum   'Li3 Ni4 O4 F3'
_cell_volume   127.64134470
_cell_formula_units_Z   1
loop_
 _symmetry_equiv_pos_site_id
 _symmetry_equiv_pos_as_xyz
  1  'x, y, z'
loop_
 _atom_site_type_symbol
 _atom_site_label
 _atom_site_symmetry_multiplicity
 _atom_site_fract_x
 _atom_site_fract_y
 _atom_site_fract_z
 _atom_site_occupancy
  Li  Li0  1  0.49881202  0.49881202  0.99762403  1
  Li  Li1  1  0.35833098  0.35833098  0.71666097  1
  Li  Li2  1  0.92857100  0.92857100  0.85714300  1
  Ni  Ni3  1  0.07091280  0.07091280  0.14182459  1
  Ni  Ni4  1  0.64216393  0.64216393  0.28432785  1
  Ni  Ni5  1  0.21497907  0.21497907  0.42995715  1
  Ni  Ni6  1  0.78623020  0.78623020  0.57246041  1
  O  O7  1  0.56973988  0.56973988  0.13948076  1
  O  O8  1  0.14246653  0.14246653  0.28493306  1
  O  O9  1  0.71467647  0.71467647  0.42935294  1
  O  O10  1  0.28740312  0.28740312  0.57480524  1
  F  F11  1  0.99691487  0.99691487  0.99383075  1
  F  F12  1  0.86022713  0.86022713  0.72045525  1
  F  F13  1  0.42857100  0.42857100  0.85714300  1
