# generated using pymatgen
data_LiNi4(PO4)3
_symmetry_space_group_name_H-M   'P 1'
_cell_length_a   9.92531216
_cell_length_b   8.04889309
_cell_length_c   6.38152206
_cell_angle_alpha   66.64528481
_cell_angle_beta   90.00000000
_cell_angle_gamma   90.00000000
_symmetry_Int_Tables_number   1
_chemical_formula_structural   LiNi4(PO4)3
_chemical_formula_sum   'Li2 Ni8 P6 O24'
_cell_volume   468.03633311
_cell_formula_units_Z   2
loop_
 _symmetry_equiv_pos_site_id
 _symmetry_equiv_pos_as_xyz
  1  'x, y, z'
loop_
 _atom_site_type_symbol
 _atom_site_label
 _atom_site_symmetry_multiplicity
 _atom_site_fract_x
 _atom_site_fract_y
 _atom_site_fract_z
 _atom_site_occupancy
  Li  Li0  1  0.24606142  0.95584623  0.02207638  1
  Li  Li1  1  0.74606142  0.04415377  0.97792362  1
  Ni  Ni2  1  0.06012027  0.74826268  0.62586866  1
  Ni  Ni3  1  0.24962825  0.39899248  0.05365999  1
  Ni  Ni4  1  0.24962825  0.39899248  0.54734753  1
  Ni  Ni5  1  0.43800311  0.73605508  0.63197246  1
  Ni  Ni6  1  0.56012027  0.25173732  0.37413134  1
  Ni  Ni7  1  0.74962825  0.60100752  0.45265247  1
  Ni  Ni8  1  0.74962825  0.60100752  0.94634001  1
  Ni  Ni9  1  0.93800311  0.26394492  0.36802754  1
  P  P10  1  0.03663468  0.63029173  0.18485414  1
  P  P11  1  0.29534850  0.04234962  0.47882519  1
  P  P12  1  0.46524137  0.63023028  0.18488486  1
  P  P13  1  0.53663468  0.36970827  0.81514586  1
  P  P14  1  0.79534850  0.95765038  0.52117481  1
  P  P15  1  0.96524137  0.36976972  0.81511514  1
  O  O16  1  0.07658148  0.73580102  0.32433100  1
  O  O17  1  0.07658148  0.73580102  0.93986798  1
  O  O18  1  0.11290266  0.43836890  0.28081555  1
  O  O19  1  0.11910708  0.42952616  0.78523642  1
  O  O20  1  0.24669918  0.13499987  0.22720974  1
  O  O21  1  0.24669918  0.13499987  0.63779039  1
  O  O22  1  0.24756407  0.84322069  0.57839015  1
  O  O23  1  0.38274525  0.43156595  0.78421753  1
  O  O24  1  0.38754360  0.43948198  0.28025901  1
  O  O25  1  0.42582551  0.73626154  0.32436738  1
  O  O26  1  0.42582551  0.73626154  0.93937109  1
  O  O27  1  0.45148715  0.02332999  0.48833451  1
  O  O28  1  0.57658148  0.26419898  0.06013202  1
  O  O29  1  0.57658148  0.26419898  0.67566900  1
  O  O30  1  0.61290266  0.56163110  0.71918445  1
  O  O31  1  0.61910708  0.57047384  0.21476358  1
  O  O32  1  0.74756407  0.15677931  0.42160985  1
  O  O33  1  0.74669918  0.86500013  0.77279026  1
  O  O34  1  0.74669918  0.86500013  0.36220961  1
  O  O35  1  0.88274525  0.56843405  0.21578247  1
  O  O36  1  0.88754360  0.56051802  0.71974099  1
  O  O37  1  0.92582551  0.26373846  0.67563262  1
  O  O38  1  0.92582551  0.26373846  0.06062891  1
  O  O39  1  0.95148715  0.97667001  0.51166549  1
