# generated using pymatgen
data_Li5VO4F
_symmetry_space_group_name_H-M   'P 1'
_cell_length_a   4.02065774
_cell_length_b   5.13678690
_cell_length_c   5.81470065
_cell_angle_alpha   73.66459058
_cell_angle_beta   90.03565498
_cell_angle_gamma   66.96848645
_symmetry_Int_Tables_number   1
_chemical_formula_structural   Li5VO4F
_chemical_formula_sum   'Li5 V1 O4 F1'
_cell_volume   105.22250713
_cell_formula_units_Z   1
loop_
 _symmetry_equiv_pos_site_id
 _symmetry_equiv_pos_as_xyz
  1  'x, y, z'
loop_
 _atom_site_type_symbol
 _atom_site_label
 _atom_site_symmetry_multiplicity
 _atom_site_fract_x
 _atom_site_fract_y
 _atom_site_fract_z
 _atom_site_occupancy
  Li  Li0  1  0.67593638  0.65471517  0.88909597  1
  Li  Li1  1  0.70144863  0.60317984  0.34288088  1
  Li  Li2  1  0.29525368  0.41478685  0.69633230  1
  Li  Li3  1  0.32305660  0.36100711  0.14486353  1
  Li  Li4  1  0.99419922  0.02229918  0.52150741  1
  V  V5  1  0.98178775  0.04168537  0.98492450  1
  O  O6  1  0.13908319  0.72845215  0.85217899  1
  O  O7  1  0.49651594  0.01354935  0.01523330  1
  O  O8  1  0.83100694  0.34369899  0.68603057  1
  O  O9  1  0.86052528  0.28648020  0.18928570  1
  F  F10  1  0.16566837  0.67499479  0.35116285  1
