# generated using pymatgen
data_La3Ag
_symmetry_space_group_name_H-M   'P 1'
_cell_length_a   7.25692227
_cell_length_b   7.25558498
_cell_length_c   5.43059008
_cell_angle_alpha   89.98825226
_cell_angle_beta   90.01328304
_cell_angle_gamma   119.99080522
_symmetry_Int_Tables_number   1
_chemical_formula_structural   La3Ag
_chemical_formula_sum   'La6 Ag2'
_cell_volume   247.65253374
_cell_formula_units_Z   2
loop_
 _symmetry_equiv_pos_site_id
 _symmetry_equiv_pos_as_xyz
  1  'x, y, z'
loop_
 _atom_site_type_symbol
 _atom_site_label
 _atom_site_symmetry_multiplicity
 _atom_site_fract_x
 _atom_site_fract_y
 _atom_site_fract_z
 _atom_site_occupancy
  La  La0  1  0.17688988  0.35369059  0.24999480  1
  La  La1  1  0.64628203  0.82312516  0.25000410  1
  La  La2  1  0.17691440  0.82316496  0.25002060  1
  La  La3  1  0.82316481  0.64629975  0.75000067  1
  La  La4  1  0.35364227  0.17680890  0.74997375  1
  La  La5  1  0.82313638  0.17688943  0.74999973  1
  Ag  Ag6  1  0.33332627  0.66667279  0.75000353  1
  Ag  Ag7  1  0.66664395  0.33334843  0.24999682  1
