# generated using pymatgen
data_ZnCoO3
_symmetry_space_group_name_H-M   'P 1'
_cell_length_a   6.42081504
_cell_length_b   6.42081543
_cell_length_c   5.09103013
_cell_angle_alpha   84.76825383
_cell_angle_beta   95.23174323
_cell_angle_gamma   96.12919245
_symmetry_Int_Tables_number   1
_chemical_formula_structural   ZnCoO3
_chemical_formula_sum   'Zn4 Co4 O12'
_cell_volume   207.11375241
_cell_formula_units_Z   4
loop_
 _symmetry_equiv_pos_site_id
 _symmetry_equiv_pos_as_xyz
  1  'x, y, z'
loop_
 _atom_site_type_symbol
 _atom_site_label
 _atom_site_symmetry_multiplicity
 _atom_site_fract_x
 _atom_site_fract_y
 _atom_site_fract_z
 _atom_site_occupancy
  Zn  Zn0  1  0.21898847  0.58838114  0.69880235  1
  Zn  Zn1  1  0.41161886  0.78101153  0.19880235  1
  Zn  Zn2  1  0.58838114  0.21898847  0.80119765  1
  Zn  Zn3  1  0.78101153  0.41161886  0.30119765  1
  Co  Co4  1  0.08857071  0.08857071  0.75000000  1
  Co  Co5  1  0.25408053  0.25408053  0.25000000  1
  Co  Co6  1  0.74591947  0.74591947  0.75000000  1
  Co  Co7  1  0.91142929  0.91142929  0.25000000  1
  O  O8  1  0.01894303  0.81636384  0.60753629  1
  O  O9  1  0.12971166  0.33314444  0.90808466  1
  O  O10  1  0.18363616  0.98105697  0.10753629  1
  O  O11  1  0.26529162  0.51977772  0.34769407  1
  O  O12  1  0.48022228  0.73470838  0.84769407  1
  O  O13  1  0.33314444  0.12971166  0.59191534  1
  O  O14  1  0.66685556  0.87028834  0.40808466  1
  O  O15  1  0.51977772  0.26529162  0.15230593  1
  O  O16  1  0.73470838  0.48022228  0.65230593  1
  O  O17  1  0.81636384  0.01894303  0.89246371  1
  O  O18  1  0.87028834  0.66685556  0.09191534  1
  O  O19  1  0.98105697  0.18363616  0.39246371  1
