# generated using pymatgen
data_Sr2Sn(HO)8
_symmetry_space_group_name_H-M   'P 1'
_cell_length_a   6.86449512
_cell_length_b   10.50810234
_cell_length_c   6.16959343
_cell_angle_alpha   90.00000000
_cell_angle_beta   112.22443365
_cell_angle_gamma   90.00000000
_symmetry_Int_Tables_number   1
_chemical_formula_structural   Sr2Sn(HO)8
_chemical_formula_sum   'Sr4 Sn2 H16 O16'
_cell_volume   411.96858506
_cell_formula_units_Z   2
loop_
 _symmetry_equiv_pos_site_id
 _symmetry_equiv_pos_as_xyz
  1  'x, y, z'
loop_
 _atom_site_type_symbol
 _atom_site_label
 _atom_site_symmetry_multiplicity
 _atom_site_fract_x
 _atom_site_fract_y
 _atom_site_fract_z
 _atom_site_occupancy
  Sr  Sr0  1  0.28337784  0.13361238  0.63714782  1
  Sr  Sr1  1  0.28337784  0.36638762  0.13714782  1
  Sr  Sr2  1  0.71662216  0.63361238  0.86285218  1
  Sr  Sr3  1  0.71662216  0.86638762  0.36285218  1
  Sn  Sn4  1  0.00000000  0.50000000  0.50000000  1
  Sn  Sn5  1  0.00000000  0.00000000  0.00000000  1
  H  H6  1  0.30428415  0.59129347  0.84361062  1
  H  H7  1  0.26577713  0.88471129  0.85122283  1
  H  H8  1  0.30428415  0.90870653  0.34361062  1
  H  H9  1  0.26577713  0.61528871  0.35122283  1
  H  H10  1  0.45732602  0.37485622  0.64323188  1
  H  H11  1  0.08337556  0.73645947  0.62710965  1
  H  H12  1  0.91662444  0.23645947  0.87289035  1
  H  H13  1  0.54267398  0.87485622  0.85676812  1
  H  H14  1  0.45732602  0.12514378  0.14323188  1
  H  H15  1  0.08337556  0.76354053  0.12710965  1
  H  H16  1  0.91662444  0.26354053  0.37289035  1
  H  H17  1  0.54267398  0.62514378  0.35676812  1
  H  H18  1  0.73422287  0.38471129  0.64877717  1
  H  H19  1  0.69571585  0.09129347  0.65638938  1
  H  H20  1  0.73422287  0.11528871  0.14877717  1
  H  H21  1  0.69571585  0.40870653  0.15638938  1
  O  O22  1  0.04706456  0.18716079  0.91246145  1
  O  O23  1  0.13350789  0.93817428  0.76719857  1
  O  O24  1  0.04706456  0.31283921  0.41246145  1
  O  O25  1  0.13350789  0.56182572  0.26719857  1
  O  O26  1  0.29740278  0.50389536  0.78426108  1
  O  O27  1  0.49522712  0.81274207  0.94495696  1
  O  O28  1  0.29740278  0.99610464  0.28426108  1
  O  O29  1  0.49522712  0.68725793  0.44495696  1
  O  O30  1  0.50477288  0.31274207  0.55504304  1
  O  O31  1  0.70259722  0.00389536  0.71573892  1
  O  O32  1  0.50477288  0.18725793  0.05504304  1
  O  O33  1  0.70259722  0.49610464  0.21573892  1
  O  O34  1  0.86649211  0.43817428  0.73280143  1
  O  O35  1  0.95293544  0.68716079  0.58753855  1
  O  O36  1  0.86649211  0.06182572  0.23280143  1
  O  O37  1  0.95293544  0.81283921  0.08753855  1
