# generated using pymatgen
data_CeZr9O20
_symmetry_space_group_name_H-M   'P 1'
_cell_length_a   8.20935709
_cell_length_b   7.43153012
_cell_length_c   6.46175074
_cell_angle_alpha   72.06122157
_cell_angle_beta   75.28285104
_cell_angle_gamma   77.23293735
_symmetry_Int_Tables_number   1
_chemical_formula_structural   CeZr9O20
_chemical_formula_sum   'Ce1 Zr9 O20'
_cell_volume   358.35855939
_cell_formula_units_Z   1
loop_
 _symmetry_equiv_pos_site_id
 _symmetry_equiv_pos_as_xyz
  1  'x, y, z'
loop_
 _atom_site_type_symbol
 _atom_site_label
 _atom_site_symmetry_multiplicity
 _atom_site_fract_x
 _atom_site_fract_y
 _atom_site_fract_z
 _atom_site_occupancy
  Ce  Ce0  1  0.39980980  0.69895623  0.79940510  1
  Zr  Zr1  1  0.80031435  0.39628321  0.60185496  1
  Zr  Zr2  1  0.40421670  0.19835196  0.80073654  1
  Zr  Zr3  1  0.19772868  0.10454141  0.39914777  1
  Zr  Zr4  1  0.80425841  0.90073421  0.59662338  1
  Zr  Zr5  1  0.60091876  0.29831429  0.20394577  1
  Zr  Zr6  1  0.19717583  0.60262657  0.39807333  1
  Zr  Zr7  1  0.60087000  0.80293863  0.19661858  1
  Zr  Zr8  1  0.99772437  0.99993767  0.00249180  1
  Zr  Zr9  1  0.99768494  0.49760746  0.00054889  1
  O  O10  1  0.95977317  0.07943853  0.61617375  1
  O  O11  1  0.86683453  0.27900805  0.91468980  1
  O  O12  1  0.23644439  0.02527324  0.78216093  1
  O  O13  1  0.94060637  0.62408956  0.68302196  1
  O  O14  1  0.83850589  0.82289837  0.98246756  1
  O  O15  1  0.54790711  0.40513630  0.88141392  1
  O  O16  1  0.73836744  0.02112361  0.28184696  1
  O  O17  1  0.63801638  0.22726094  0.57230171  1
  O  O18  1  0.25834721  0.47562675  0.71842130  1
  O  O19  1  0.45824839  0.07863065  0.12061754  1
  O  O20  1  0.36103231  0.27799625  0.41706004  1
  O  O21  1  0.66497187  0.67914853  0.51350420  1
  O  O22  1  0.56607851  0.89139470  0.82005151  1
  O  O23  1  0.76108369  0.47763434  0.21559710  1
  O  O24  1  0.33483034  0.82345187  0.46608522  1
  O  O25  1  0.44275105  0.61629459  0.18527612  1
  O  O26  1  0.04028595  0.41711055  0.39055956  1
  O  O27  1  0.13887753  0.22320517  0.08412585  1
  O  O28  1  0.15102151  0.67610167  0.03458079  1
  O  O29  1  0.05531254  0.87888469  0.32059706  1
