# generated using pymatgen
data_Li3MnVP2(HO5)2
_symmetry_space_group_name_H-M   'P 1'
_cell_length_a   5.35686393
_cell_length_b   5.48006156
_cell_length_c   7.57529603
_cell_angle_alpha   106.35740445
_cell_angle_beta   108.80372183
_cell_angle_gamma   95.60547999
_symmetry_Int_Tables_number   1
_chemical_formula_structural   Li3MnVP2(HO5)2
_chemical_formula_sum   'Li3 Mn1 V1 P2 H2 O10'
_cell_volume   197.59508139
_cell_formula_units_Z   1
loop_
 _symmetry_equiv_pos_site_id
 _symmetry_equiv_pos_as_xyz
  1  'x, y, z'
loop_
 _atom_site_type_symbol
 _atom_site_label
 _atom_site_symmetry_multiplicity
 _atom_site_fract_x
 _atom_site_fract_y
 _atom_site_fract_z
 _atom_site_occupancy
  Li  Li0  1  0.46626125  0.13104538  0.84548607  1
  Li  Li1  1  0.78693994  0.43044947  0.80693669  1
  Li  Li2  1  0.24320891  0.59690916  0.17128995  1
  Mn  Mn3  1  0.00618894  0.00280159  0.00904586  1
  V  V4  1  0.99121950  0.99735993  0.49406310  1
  P  P5  1  0.68098528  0.37553726  0.23434306  1
  P  P6  1  0.32465494  0.62554088  0.77379033  1
  H  H7  1  0.34903988  0.05524007  0.35230510  1
  H  H8  1  0.66158433  0.92048038  0.63939683  1
  O  O9  1  0.82512760  0.05794910  0.70967862  1
  O  O10  1  0.74615459  0.21507821  0.37611916  1
  O  O11  1  0.31312356  0.33340825  0.66628166  1
  O  O12  1  0.38570283  0.26298799  0.08194653  1
  O  O13  1  0.86655126  0.35432348  0.11060029  1
  O  O14  1  0.13289174  0.64579183  0.89036366  1
  O  O15  1  0.62089430  0.74027704  0.91188331  1
  O  O16  1  0.68786302  0.66170414  0.34532089  1
  O  O17  1  0.25378707  0.79238107  0.63415699  1
  O  O18  1  0.16802806  0.94363677  0.29384890  1
