# generated using pymatgen
data_Li4Ti2Mn3O10
_symmetry_space_group_name_H-M   'P 1'
_cell_length_a   5.19924586
_cell_length_b   5.25324281
_cell_length_c   8.06691490
_cell_angle_alpha   110.32544859
_cell_angle_beta   97.92073361
_cell_angle_gamma   102.13290850
_symmetry_Int_Tables_number   1
_chemical_formula_structural   Li4Ti2Mn3O10
_chemical_formula_sum   'Li4 Ti2 Mn3 O10'
_cell_volume   196.58402653
_cell_formula_units_Z   1
loop_
 _symmetry_equiv_pos_site_id
 _symmetry_equiv_pos_as_xyz
  1  'x, y, z'
loop_
 _atom_site_type_symbol
 _atom_site_label
 _atom_site_symmetry_multiplicity
 _atom_site_fract_x
 _atom_site_fract_y
 _atom_site_fract_z
 _atom_site_occupancy
  Li  Li0  1  0.23612751  0.88825926  0.39928198  1
  Li  Li1  1  0.38339178  0.32358133  0.75426101  1
  Li  Li2  1  0.61660777  0.67639302  0.24576091  1
  Li  Li3  1  0.76384844  0.11171603  0.60071658  1
  Ti  Ti4  1  0.09027174  0.72584028  0.67701195  1
  Ti  Ti5  1  0.90971502  0.27413883  0.32297617  1
  Mn  Mn6  1  0.00003874  0.49999887  0.99993904  1
  Mn  Mn7  1  0.32349271  0.10645226  0.11890120  1
  Mn  Mn8  1  0.67650564  0.89359368  0.88112549  1
  O  O9  1  0.00358902  0.07171150  0.82604277  1
  O  O10  1  0.10929845  0.33039252  0.54989896  1
  O  O11  1  0.33481790  0.72343654  0.92748177  1
  O  O12  1  0.22486430  0.45633311  0.21919499  1
  O  O13  1  0.41579473  0.92925182  0.66230364  1
  O  O14  1  0.58420454  0.07073224  0.33770359  1
  O  O15  1  0.77509064  0.54367939  0.78077879  1
  O  O16  1  0.66520527  0.27659230  0.07253885  1
  O  O17  1  0.89068180  0.66960195  0.45010689  1
  O  O18  1  0.99644699  0.92829606  0.17397643  1
