# generated using pymatgen
data_LiVF5
_symmetry_space_group_name_H-M   'P 1'
_cell_length_a   5.80731029
_cell_length_b   9.93135805
_cell_length_c   7.32084217
_cell_angle_alpha   90.00000000
_cell_angle_beta   90.22649469
_cell_angle_gamma   90.00000000
_symmetry_Int_Tables_number   1
_chemical_formula_structural   LiVF5
_chemical_formula_sum   'Li4 V4 F20'
_cell_volume   422.22244975
_cell_formula_units_Z   4
loop_
 _symmetry_equiv_pos_site_id
 _symmetry_equiv_pos_as_xyz
  1  'x, y, z'
loop_
 _atom_site_type_symbol
 _atom_site_label
 _atom_site_symmetry_multiplicity
 _atom_site_fract_x
 _atom_site_fract_y
 _atom_site_fract_z
 _atom_site_occupancy
  Li  Li0  1  0.00503653  0.60519557  0.05256779  1
  Li  Li1  1  0.50215938  0.44544414  0.59194876  1
  Li  Li2  1  0.49784062  0.94544414  0.40805124  1
  Li  Li3  1  0.99496347  0.10519557  0.94743221  1
  V  V4  1  0.01458126  0.62037819  0.58245643  1
  V  V5  1  0.48454276  0.22418900  0.12368963  1
  V  V6  1  0.51545724  0.72418900  0.87631037  1
  V  V7  1  0.98541874  0.12037819  0.41754357  1
  F  F8  1  0.00571966  0.73047717  0.39032952  1
  F  F9  1  0.02946169  0.53283453  0.80611623  1
  F  F10  1  0.20984163  0.23948514  0.29166938  1
  F  F11  1  0.22708355  0.50092918  0.48212938  1
  F  F12  1  0.22740694  0.01539512  0.50548197  1
  F  F13  1  0.27469991  0.20011190  0.93352076  1
  F  F14  1  0.27434029  0.70784721  0.04162556  1
  F  F15  1  0.28587654  0.73076662  0.66925256  1
  F  F16  1  0.47552818  0.04305262  0.18208813  1
  F  F17  1  0.48757053  0.40239260  0.13292719  1
  F  F18  1  0.51242947  0.90239260  0.86707281  1
  F  F19  1  0.52447182  0.54305262  0.81791187  1
  F  F20  1  0.71412346  0.23076662  0.33074744  1
  F  F21  1  0.72565971  0.20784721  0.95837444  1
  F  F22  1  0.72530009  0.70011190  0.06647924  1
  F  F23  1  0.77259306  0.51539512  0.49451803  1
  F  F24  1  0.77291645  0.00092918  0.51787062  1
  F  F25  1  0.79015837  0.73948514  0.70833062  1
  F  F26  1  0.97053831  0.03283453  0.19388377  1
  F  F27  1  0.99428034  0.23047717  0.60967048  1
