# generated using pymatgen
data_BaCa2I6
_symmetry_space_group_name_H-M   'P 1'
_cell_length_a   7.40820033
_cell_length_b   27.44080035
_cell_length_c   8.25755230
_cell_angle_alpha   90.00000000
_cell_angle_beta   90.00000000
_cell_angle_gamma   90.00000000
_symmetry_Int_Tables_number   1
_chemical_formula_structural   BaCa2I6
_chemical_formula_sum   'Ba4 Ca8 I24'
_cell_volume   1678.65259022
_cell_formula_units_Z   4
loop_
 _symmetry_equiv_pos_site_id
 _symmetry_equiv_pos_as_xyz
  1  'x, y, z'
loop_
 _atom_site_type_symbol
 _atom_site_label
 _atom_site_symmetry_multiplicity
 _atom_site_fract_x
 _atom_site_fract_y
 _atom_site_fract_z
 _atom_site_occupancy
  Ba  Ba0  1  0.00000000  0.37830731  0.25000000  1
  Ba  Ba1  1  0.00000000  0.62169269  0.75000000  1
  Ba  Ba2  1  0.50000000  0.87830731  0.25000000  1
  Ba  Ba3  1  0.50000000  0.12169269  0.75000000  1
  Ca  Ca4  1  0.00000000  0.04586234  0.25000000  1
  Ca  Ca5  1  0.00000000  0.28663198  0.75000000  1
  Ca  Ca6  1  0.00000000  0.71336802  0.25000000  1
  Ca  Ca7  1  0.00000000  0.95413766  0.75000000  1
  Ca  Ca8  1  0.50000000  0.21336802  0.25000000  1
  Ca  Ca9  1  0.50000000  0.78663198  0.75000000  1
  Ca  Ca10  1  0.50000000  0.54586234  0.25000000  1
  Ca  Ca11  1  0.50000000  0.45413766  0.75000000  1
  I  I12  1  0.23132123  0.03417076  0.56690062  1
  I  I13  1  0.23132123  0.96582924  0.06690062  1
  I  I14  1  0.24438812  0.21069128  0.55808794  1
  I  I15  1  0.24438812  0.78930872  0.05808794  1
  I  I16  1  0.24355036  0.37142930  0.60585759  1
  I  I17  1  0.24355036  0.62857070  0.10585759  1
  I  I18  1  0.25644964  0.12857070  0.10585759  1
  I  I19  1  0.25644964  0.87142930  0.60585759  1
  I  I20  1  0.25561188  0.28930872  0.05808794  1
  I  I21  1  0.25561188  0.71069128  0.55808794  1
  I  I22  1  0.26867877  0.46582924  0.06690062  1
  I  I23  1  0.26867877  0.53417076  0.56690062  1
  I  I24  1  0.73132123  0.53417076  0.93309938  1
  I  I25  1  0.73132123  0.46582924  0.43309938  1
  I  I26  1  0.74438812  0.28930872  0.44191206  1
  I  I27  1  0.74438812  0.71069128  0.94191206  1
  I  I28  1  0.74355036  0.87142930  0.89414241  1
  I  I29  1  0.74355036  0.12857070  0.39414241  1
  I  I30  1  0.75644964  0.37142930  0.89414241  1
  I  I31  1  0.75644964  0.62857070  0.39414241  1
  I  I32  1  0.75561188  0.21069128  0.94191206  1
  I  I33  1  0.75561188  0.78930872  0.44191206  1
  I  I34  1  0.76867877  0.03417076  0.93309938  1
  I  I35  1  0.76867877  0.96582924  0.43309938  1
