# generated using pymatgen
data_NaV6O13
_symmetry_space_group_name_H-M   'P 1'
_cell_length_a   3.75203244
_cell_length_b   11.53594526
_cell_length_c   12.11952883
_cell_angle_alpha   68.76537407
_cell_angle_beta   90.08356010
_cell_angle_gamma   80.64160051
_symmetry_Int_Tables_number   1
_chemical_formula_structural   NaV6O13
_chemical_formula_sum   'Na2 V12 O26'
_cell_volume   481.40897488
_cell_formula_units_Z   2
loop_
 _symmetry_equiv_pos_site_id
 _symmetry_equiv_pos_as_xyz
  1  'x, y, z'
loop_
 _atom_site_type_symbol
 _atom_site_label
 _atom_site_symmetry_multiplicity
 _atom_site_fract_x
 _atom_site_fract_y
 _atom_site_fract_z
 _atom_site_occupancy
  Na  Na0  1  0.17233819  0.65297813  0.71791069  1
  Na  Na1  1  0.82414823  0.34826833  0.28006484  1
  V  V2  1  0.04681935  0.89728601  0.95913721  1
  V  V3  1  0.56341550  0.87397176  0.77280724  1
  V  V4  1  0.57318816  0.85741635  0.48403641  1
  V  V5  1  0.07355536  0.85753575  0.28418297  1
  V  V6  1  0.77259666  0.45199617  0.92084763  1
  V  V7  1  0.75332559  0.48800820  0.60456961  1
  V  V8  1  0.22293137  0.51286962  0.38785995  1
  V  V9  1  0.22719309  0.54964749  0.07318232  1
  V  V10  1  0.93030747  0.14167240  0.71538281  1
  V  V11  1  0.42958889  0.14220940  0.51593017  1
  V  V12  1  0.43866504  0.12622986  0.22786336  1
  V  V13  1  0.95086975  0.10248068  0.04178540  1
  O  O14  1  0.55529370  0.88778894  0.93403769  1
  O  O15  1  0.04004685  0.92061919  0.78236965  1
  O  O16  1  0.54483497  0.91368699  0.60132950  1
  O  O17  1  0.06556193  0.87374597  0.44402087  1
  O  O18  1  0.64079087  0.71790914  0.80960690  1
  O  O19  1  0.55358761  0.89766416  0.30570565  1
  O  O20  1  0.04312822  0.91657080  0.10832986  1
  O  O21  1  0.65275647  0.69873220  0.55433239  1
  O  O22  1  0.25170307  0.49479224  0.93223658  1
  O  O23  1  0.15123689  0.69648160  0.32524971  1
  O  O24  1  0.74885594  0.49697801  0.76518749  1
  O  O25  1  0.14593011  0.70778341  0.02565553  1
  O  O26  1  0.24614814  0.50468434  0.57095782  1
  O  O27  1  0.75307157  0.49683134  0.42924416  1
  O  O28  1  0.85189968  0.29573548  0.97290662  1
  O  O29  1  0.25397033  0.50266567  0.24467584  1
  O  O30  1  0.84878987  0.30175962  0.67450150  1
  O  O31  1  0.75127455  0.49857048  0.06460462  1
  O  O32  1  0.34777253  0.30087943  0.44587067  1
  O  O33  1  0.95986452  0.08126633  0.89215544  1
  O  O34  1  0.45060216  0.10090420  0.69374483  1
  O  O35  1  0.35911144  0.28207425  0.19219564  1
  O  O36  1  0.93817129  0.12527220  0.55514381  1
  O  O37  1  0.45952785  0.08473100  0.39921240  1
  O  O38  1  0.96265746  0.07847811  0.21883920  1
  O  O39  1  0.44475633  0.11379977  0.06652404  1
