# generated using pymatgen
data_Li4V3P8O29
_symmetry_space_group_name_H-M   'P 1'
_cell_length_a   9.78235087
_cell_length_b   9.73271854
_cell_length_c   14.18488115
_cell_angle_alpha   89.96497016
_cell_angle_beta   90.39399957
_cell_angle_gamma   60.36220926
_symmetry_Int_Tables_number   1
_chemical_formula_structural   Li4V3P8O29
_chemical_formula_sum   'Li8 V6 P16 O58'
_cell_volume   1173.79541740
_cell_formula_units_Z   2
loop_
 _symmetry_equiv_pos_site_id
 _symmetry_equiv_pos_as_xyz
  1  'x, y, z'
loop_
 _atom_site_type_symbol
 _atom_site_label
 _atom_site_symmetry_multiplicity
 _atom_site_fract_x
 _atom_site_fract_y
 _atom_site_fract_z
 _atom_site_occupancy
  Li  Li0  1  0.91444605  0.77345889  0.06159666  1
  Li  Li1  1  0.90553287  0.32570754  0.55261308  1
  Li  Li2  1  0.32272530  0.90973558  0.06062885  1
  Li  Li3  1  0.66330919  0.23361259  0.44002818  1
  Li  Li4  1  0.33060771  0.76644755  0.55926037  1
  Li  Li5  1  0.68370050  0.08983905  0.93981897  1
  Li  Li6  1  0.08074696  0.21998545  0.94490104  1
  Li  Li7  1  0.01374590  0.95439316  0.49097535  1
  V  V8  1  0.56802383  0.43342629  0.24387408  1
  V  V9  1  0.43331895  0.56768514  0.75608445  1
  V  V10  1  0.56909742  0.99718277  0.74320680  1
  V  V11  1  0.43068560  0.00710061  0.25828535  1
  V  V12  1  0.00197566  0.56732625  0.25336888  1
  V  V13  1  0.99884597  0.43918066  0.74515276  1
  P  P14  1  0.91188923  0.77111764  0.84291465  1
  P  P15  1  0.77936683  0.91564729  0.33896727  1
  P  P16  1  0.91142396  0.31117697  0.34089039  1
  P  P17  1  0.66190989  0.67677873  0.13152626  1
  P  P18  1  0.66550626  0.66210188  0.63096131  1
  P  P19  1  0.77500937  0.31433699  0.83978430  1
  P  P20  1  0.68190115  0.23388016  0.65770726  1
  P  P21  1  0.32066943  0.91535541  0.84268870  1
  P  P22  1  0.67912180  0.08815446  0.15658085  1
  P  P23  1  0.31640603  0.76860734  0.34343340  1
  P  P24  1  0.22765388  0.68688307  0.16068540  1
  P  P25  1  0.33893147  0.33719578  0.37015767  1
  P  P26  1  0.33302649  0.33028769  0.86687700  1
  P  P27  1  0.08615248  0.69789959  0.66102200  1
  P  P28  1  0.22106260  0.08486398  0.65974514  1
  P  P29  1  0.08834833  0.22937527  0.16093736  1
  O  O30  1  0.00556314  0.79762156  0.57769284  1
  O  O31  1  0.91291607  0.74287253  0.33500007  1
  O  O32  1  0.75138891  0.00451454  0.06629971  1
  O  O33  1  0.74722081  0.91926210  0.83533086  1
  O  O34  1  0.90088005  0.62011104  0.81578279  1
  O  O35  1  0.81450109  0.67239674  0.16804608  1
  O  O36  1  0.91098061  0.46756518  0.33004766  1
  O  O37  1  0.01264300  0.23135949  0.06995850  1
  O  O38  1  0.91995245  0.33945922  0.83985016  1
  O  O39  1  0.67570081  0.80389561  0.67138085  1
  O  O40  1  0.61811151  0.92101564  0.33168005  1
  O  O41  1  0.81416402  0.50505171  0.67302391  1
  O  O42  1  0.64794432  0.67460248  0.02736055  1
  O  O43  1  0.66643002  0.64373562  0.52694367  1
  O  O44  1  0.65771087  0.52882994  0.17938309  1
  O  O45  1  0.47912099  0.90627954  0.82099649  1
  O  O46  1  0.51602754  0.82405427  0.17542909  1
  O  O47  1  0.73979201  0.33831071  0.33118386  1
  O  O48  1  0.79777131  0.21465687  0.74394774  1
  O  O49  1  0.75996750  0.23516176  0.56731803  1
  O  O50  1  0.76724538  0.22648743  0.92279079  1
  O  O51  1  0.62082058  0.47609157  0.82373050  1
  O  O52  1  0.51225429  0.67092203  0.67410141  1
  O  O53  1  0.65608389  0.25733932  0.16212263  1
  O  O54  1  0.47023284  0.61218358  0.32940423  1
  O  O55  1  0.34858623  0.90984122  0.33151616  1
  O  O56  1  0.79771006  0.99152907  0.24114672  1
  O  O57  1  0.79631532  0.00589250  0.41896262  1
  O  O58  1  0.20251771  0.99228242  0.58202109  1
  O  O59  1  0.65471735  0.09103606  0.66544091  1
  O  O60  1  0.52588748  0.38746849  0.67554790  1
  O  O61  1  0.34326544  0.74602943  0.83468070  1
  O  O62  1  0.49282238  0.32492500  0.32591366  1
  O  O63  1  0.37937039  0.52368132  0.17784429  1
  O  O64  1  0.24012207  0.77357170  0.07882436  1
  O  O65  1  0.23396831  0.78563191  0.43462671  1
  O  O66  1  0.20254429  0.78725124  0.25711927  1
  O  O67  1  0.26106406  0.65869097  0.66553920  1
  O  O68  1  0.48243403  0.18398616  0.82904214  1
  O  O69  1  0.52131088  0.09606644  0.17830447  1
  O  O70  1  0.33638887  0.47977570  0.82285830  1
  O  O71  1  0.32008559  0.33719677  0.97085803  1
  O  O72  1  0.35816169  0.31950250  0.47405741  1
  O  O73  1  0.19481788  0.48325777  0.32855129  1
  O  O74  1  0.37711867  0.08467687  0.66700530  1
  O  O75  1  0.33333499  0.18714608  0.32578795  1
  O  O76  1  0.08250246  0.66382666  0.15971767  1
  O  O77  1  0.01199837  0.78892967  0.75864092  1
  O  O78  1  0.98916339  0.75234699  0.93562926  1
  O  O79  1  0.08037119  0.53955060  0.67007985  1
  O  O80  1  0.18252043  0.33499284  0.81919638  1
  O  O81  1  0.09347348  0.38308889  0.18096862  1
  O  O82  1  0.25827741  0.08365693  0.16711909  1
  O  O83  1  0.25053109  0.99565118  0.93371455  1
  O  O84  1  0.19940445  0.01483042  0.75981171  1
  O  O85  1  0.07888226  0.25884706  0.65981730  1
  O  O86  1  0.98044445  0.22170863  0.43034406  1
  O  O87  1  -0.00002977  0.20442826  0.24973079  1
