# generated using pymatgen
data_VF4
_symmetry_space_group_name_H-M   'P 1'
_cell_length_a   7.67491984
_cell_length_b   7.67449805
_cell_length_c   7.67533392
_cell_angle_alpha   96.24786549
_cell_angle_beta   96.24104309
_cell_angle_gamma   96.27468051
_symmetry_Int_Tables_number   1
_chemical_formula_structural   VF4
_chemical_formula_sum   'V6 F24'
_cell_volume   443.36858770
_cell_formula_units_Z   6
loop_
 _symmetry_equiv_pos_site_id
 _symmetry_equiv_pos_as_xyz
  1  'x, y, z'
loop_
 _atom_site_type_symbol
 _atom_site_label
 _atom_site_symmetry_multiplicity
 _atom_site_fract_x
 _atom_site_fract_y
 _atom_site_fract_z
 _atom_site_occupancy
  V  V0  1  0.08041102  0.18630998  0.45073089  1
  V  V1  1  0.18627608  0.45074300  0.08037681  1
  V  V2  1  0.54926049  0.91960052  0.81373051  1
  V  V3  1  0.45075007  0.08041476  0.18627203  1
  V  V4  1  0.81372376  0.54925660  0.91961320  1
  V  V5  1  0.91958048  0.81370194  0.54926288  1
  F  F6  1  0.09843163  0.71659502  0.47212045  1
  F  F7  1  0.03281598  0.64283490  0.08546469  1
  F  F8  1  0.05292054  0.31277863  0.24468375  1
  F  F9  1  0.08546388  0.03275535  0.64284452  1
  F  F10  1  0.35713045  0.91448281  0.96726855  1
  F  F11  1  0.28343690  0.52790750  0.90152186  1
  F  F12  1  0.26672889  0.32633622  0.55400486  1
  F  F13  1  0.24473447  0.05300230  0.31283757  1
  F  F14  1  0.44593861  0.73328125  0.67375344  1
  F  F15  1  0.32628390  0.55400324  0.26668211  1
  F  F16  1  0.31279758  0.24474822  0.05301099  1
  F  F17  1  0.47215033  0.09845127  0.71660092  1
  F  F18  1  0.52784963  0.90156435  0.28340801  1
  F  F19  1  0.68724787  0.75528558  0.94698327  1
  F  F20  1  0.67370493  0.44592456  0.73335257  1
  F  F21  1  0.55409095  0.26670719  0.32628147  1
  F  F22  1  0.75525919  0.94698997  0.68715695  1
  F  F23  1  0.73325620  0.67367632  0.44599704  1
  F  F24  1  0.71653357  0.47206258  0.09844336  1
  F  F25  1  0.64288657  0.08550756  0.03272380  1
  F  F26  1  0.91450627  0.96724526  0.35716205  1
  F  F27  1  0.94704950  0.68724248  0.75530913  1
  F  F28  1  0.96720090  0.35716626  0.91450359  1
  F  F29  1  0.90157937  0.28342441  0.52789872  1
