# generated using pymatgen
data_Sb17S27
_symmetry_space_group_name_H-M   'P 1'
_cell_length_a   8.77609493
_cell_length_b   8.79109821
_cell_length_c   15.38668075
_cell_angle_alpha   76.30731094
_cell_angle_beta   84.61237572
_cell_angle_gamma   96.58438555
_symmetry_Int_Tables_number   1
_chemical_formula_structural   Sb17S27
_chemical_formula_sum   'Sb17 S27'
_cell_volume   1136.71487522
_cell_formula_units_Z   1
loop_
 _symmetry_equiv_pos_site_id
 _symmetry_equiv_pos_as_xyz
  1  'x, y, z'
loop_
 _atom_site_type_symbol
 _atom_site_label
 _atom_site_symmetry_multiplicity
 _atom_site_fract_x
 _atom_site_fract_y
 _atom_site_fract_z
 _atom_site_occupancy
  Sb  Sb0  1  0.38081778  0.66357631  0.92235414  1
  Sb  Sb1  1  0.87870271  0.40264508  0.61192123  1
  Sb  Sb2  1  0.12062088  0.99135362  0.80143491  1
  Sb  Sb3  1  0.45571164  0.94595458  0.39119372  1
  Sb  Sb4  1  0.94758378  0.67068737  0.06593009  1
  Sb  Sb5  1  0.19192770  0.71712309  0.61155403  1
  Sb  Sb6  1  0.71951110  0.00221305  0.92250522  1
  Sb  Sb7  1  0.47336725  0.34202633  0.80135686  1
  Sb  Sb8  1  0.52610697  0.67902378  0.19404371  1
  Sb  Sb9  1  0.28809689  0.00044438  0.06906601  1
  Sb  Sb10  1  0.78718144  0.28112532  0.39204028  1
  Sb  Sb11  1  0.04518671  0.33380247  0.92952037  1
  Sb  Sb12  1  0.55059720  0.04712461  0.60813545  1
  Sb  Sb13  1  0.86032417  0.00592560  0.19627164  1
  Sb  Sb14  1  0.12443777  0.61446821  0.38851481  1
  Sb  Sb15  1  0.61923124  0.34213176  0.06612606  1
  Sb  Sb16  1  0.19737255  0.34314539  0.19693840  1
  S  S17  1  0.84471049  0.98391835  0.77434291  1
  S  S18  1  0.90311825  0.66585495  0.65050553  1
  S  S19  1  0.77990571  0.98195479  0.35545764  1
  S  S20  1  0.43732099  0.97681839  0.87560061  1
  S  S21  1  0.82873065  0.69544113  0.22267474  1
  S  S22  1  0.81992046  0.53512689  0.46032732  1
  S  S23  1  0.51805530  0.79993241  0.53803814  1
  S  S24  1  0.49689622  0.63467383  0.77449191  1
  S  S25  1  0.76291821  0.30963267  0.88287032  1
  S  S26  1  0.90189558  0.35259666  0.12196788  1
  S  S27  1  0.15674037  0.87198222  0.45985840  1
  S  S28  1  0.56147740  0.35798605  0.64278666  1
  S  S29  1  0.44387439  0.64999587  0.35698726  1
  S  S30  1  0.84221734  0.12392286  0.53771612  1
  S  S31  1  0.10027707  0.64568724  0.88197268  1
  S  S32  1  0.67634205  0.65385843  0.00553322  1
  S  S33  1  0.23854361  0.68316209  0.12799128  1
  S  S34  1  0.49283348  0.36119156  0.22368742  1
  S  S35  1  0.48671299  0.20403787  0.46396462  1
  S  S36  1  0.18079716  0.46322622  0.53672904  1
  S  S37  1  0.17329736  0.30530992  0.77585870  1
  S  S38  1  0.56775261  0.01328050  0.12720280  1
  S  S39  1  0.21346989  0.01067669  0.64281315  1
  S  S40  1  0.11204305  0.31632138  0.35772608  1
  S  S41  1  0.33406342  0.32810227  0.00143368  1
  S  S42  1  0.16178053  0.02785973  0.22244785  1
  S  S43  1  0.00485563  0.99836407  0.00092713  1
