# generated using pymatgen
data_LiMn2O2F3
_symmetry_space_group_name_H-M   'P 1'
_cell_length_a   3.92425544
_cell_length_b   5.42399450
_cell_length_c   9.92997132
_cell_angle_alpha   87.72527815
_cell_angle_beta   90.06623077
_cell_angle_gamma   111.23109095
_symmetry_Int_Tables_number   1
_chemical_formula_structural   LiMn2O2F3
_chemical_formula_sum   'Li2 Mn4 O4 F6'
_cell_volume   196.84015660
_cell_formula_units_Z   2
loop_
 _symmetry_equiv_pos_site_id
 _symmetry_equiv_pos_as_xyz
  1  'x, y, z'
loop_
 _atom_site_type_symbol
 _atom_site_label
 _atom_site_symmetry_multiplicity
 _atom_site_fract_x
 _atom_site_fract_y
 _atom_site_fract_z
 _atom_site_occupancy
  Li  Li0  1  0.30336212  0.61428590  0.76731291  1
  Li  Li1  1  0.63190485  0.26824947  0.92971718  1
  Mn  Mn2  1  0.37043311  0.73886675  0.41551313  1
  Mn  Mn3  1  0.34882303  0.70056514  0.06658049  1
  Mn  Mn4  1  0.70116091  0.40325100  0.25024559  1
  Mn  Mn5  1  0.64111604  0.28058205  0.56088868  1
  O  O6  1  0.25311600  0.50709028  0.24579438  1
  O  O7  1  0.56827624  0.13613804  0.39096190  1
  O  O8  1  0.82145972  0.64554018  0.09338082  1
  O  O9  1  0.82043908  0.63922170  0.40928735  1
  F  F10  1  0.44474609  0.89389306  0.89511932  1
  F  F11  1  0.18189816  0.36234043  0.55872288  1
  F  F12  1  0.44210281  0.88307338  0.61396930  1
  F  F13  1  0.18714572  0.37867774  0.93477685  1
  F  F14  1  0.72416127  0.44774719  0.73300778  1
  F  F15  1  0.55255186  0.10911268  0.13109343  1
