# generated using pymatgen
data_LiNi2(PO4)2
_symmetry_space_group_name_H-M   'P 1'
_cell_length_a   10.06918827
_cell_length_b   4.76923187
_cell_length_c   5.80762739
_cell_angle_alpha   88.40626376
_cell_angle_beta   90.00000000
_cell_angle_gamma   90.00000000
_symmetry_Int_Tables_number   1
_chemical_formula_structural   LiNi2(PO4)2
_chemical_formula_sum   'Li2 Ni4 P4 O16'
_cell_volume   278.78770026
_cell_formula_units_Z   2
loop_
 _symmetry_equiv_pos_site_id
 _symmetry_equiv_pos_as_xyz
  1  'x, y, z'
loop_
 _atom_site_type_symbol
 _atom_site_label
 _atom_site_symmetry_multiplicity
 _atom_site_fract_x
 _atom_site_fract_y
 _atom_site_fract_z
 _atom_site_occupancy
  Li  Li0  1  0.26707242  0.51041592  0.26846476  1
  Li  Li1  1  0.76707242  0.98958408  0.73153524  1
  Ni  Ni2  1  0.02877412  0.97489518  0.00072177  1
  Ni  Ni3  1  0.48281622  0.02290223  0.50110106  1
  Ni  Ni4  1  0.52877412  0.52510482  0.99927823  1
  Ni  Ni5  1  0.98281622  0.47709777  0.49889894  1
  P  P6  1  0.16023575  0.92281278  0.50108661  1
  P  P7  1  0.35007324  0.08321874  0.99706279  1
  P  P8  1  0.66023575  0.57718722  0.49891339  1
  P  P9  1  0.85007324  0.41678126  0.00293721  1
  O  O10  1  0.07974559  0.78031177  0.70260224  1
  O  O11  1  0.09211357  0.76952168  0.29059426  1
  O  O12  1  0.15101109  0.24172844  0.48772341  1
  O  O13  1  0.20432667  0.17839195  0.99615336  1
  O  O14  1  0.30563500  0.82294598  0.50294993  1
  O  O15  1  0.36170140  0.76433212  0.01226748  1
  O  O16  1  0.42848792  0.22469215  0.79246211  1
  O  O17  1  0.41944699  0.23506351  0.20714773  1
  O  O18  1  0.57974559  0.71968823  0.29739776  1
  O  O19  1  0.59211357  0.73047832  0.70940574  1
  O  O20  1  0.65101109  0.25827156  0.51227659  1
  O  O21  1  0.70432667  0.32160805  0.00384664  1
  O  O22  1  0.80563500  0.67705402  0.49705007  1
  O  O23  1  0.86170140  0.73566788  0.98773252  1
  O  O24  1  0.92848792  0.27530785  0.20753789  1
  O  O25  1  0.91944699  0.26493649  0.79285227  1
