# generated using pymatgen
data_Li3V3P8O29
_symmetry_space_group_name_H-M   'P 1'
_cell_length_a   9.75095548
_cell_length_b   9.78423514
_cell_length_c   14.38388380
_cell_angle_alpha   89.63216997
_cell_angle_beta   89.82114693
_cell_angle_gamma   59.90348144
_symmetry_Int_Tables_number   1
_chemical_formula_structural   Li3V3P8O29
_chemical_formula_sum   'Li6 V6 P16 O58'
_cell_volume   1187.26780065
_cell_formula_units_Z   2
loop_
 _symmetry_equiv_pos_site_id
 _symmetry_equiv_pos_as_xyz
  1  'x, y, z'
loop_
 _atom_site_type_symbol
 _atom_site_label
 _atom_site_symmetry_multiplicity
 _atom_site_fract_x
 _atom_site_fract_y
 _atom_site_fract_z
 _atom_site_occupancy
  Li  Li0  1  0.77649346  0.92023454  0.55668451  1
  Li  Li1  1  0.76845182  0.32286720  0.05312238  1
  Li  Li2  1  0.32023014  0.90680489  0.05219907  1
  Li  Li3  1  0.31112550  0.77415162  0.56336825  1
  Li  Li4  1  0.21491698  0.08690986  0.45208697  1
  Li  Li5  1  0.98019915  0.96187688  0.00040859  1
  V  V6  1  0.56770999  0.43528593  0.25520591  1
  V  V7  1  0.43463905  0.55986173  0.75041304  1
  V  V8  1  0.56749612  0.00317045  0.75562327  1
  V  V9  1  0.43878969  0.99921797  0.24365860  1
  V  V10  1  0.99655875  0.56695226  0.24464803  1
  V  V11  1  0.00054403  0.43610137  0.74996567  1
  P  P12  1  0.92164273  0.77416765  0.84153861  1
  P  P13  1  0.77276088  0.90777328  0.33989174  1
  P  P14  1  0.91718827  0.31349396  0.34153326  1
  P  P15  1  0.66415461  0.66443458  0.13157852  1
  P  P16  1  0.66338851  0.67362583  0.63345762  1
  P  P17  1  0.77629002  0.31125325  0.83948320  1
  P  P18  1  0.69063960  0.22457811  0.65885658  1
  P  P19  1  0.31355880  0.90895663  0.84032021  1
  P  P20  1  0.69715946  0.08793806  0.16156948  1
  P  P21  1  0.31968202  0.77360795  0.34474918  1
  P  P22  1  0.22376021  0.69356769  0.16605057  1
  P  P23  1  0.32974752  0.33166897  0.36312973  1
  P  P24  1  0.33173338  0.33348757  0.86714255  1
  P  P25  1  0.08568901  0.68778353  0.65892848  1
  P  P26  1  0.22835274  0.09233710  0.66371184  1
  P  P27  1  0.08143113  0.22399545  0.15862781  1
  O  O28  1  0.99373235  0.77561949  0.57575636  1
  O  O29  1  0.91717732  0.74062376  0.32652653  1
  O  O30  1  0.79740747  0.00693603  0.08045975  1
  O  O31  1  0.74514120  0.90994396  0.82928344  1
  O  O32  1  0.92675832  0.61423894  0.83154526  1
  O  O33  1  0.80847957  0.67115992  0.17464131  1
  O  O34  1  0.90764036  0.47402551  0.32069823  1
  O  O35  1  0.99142747  0.21215114  0.07891186  1
  O  O36  1  0.91474100  0.34484492  0.82828108  1
  O  O37  1  0.65724363  0.82488363  0.67571743  1
  O  O38  1  0.62022696  0.89987204  0.31368803  1
  O  O39  1  0.81399663  0.53304847  0.68187481  1
  O  O40  1  0.65679044  0.66536910  0.02843954  1
  O  O41  1  0.66708398  0.67669976  0.53036552  1
  O  O42  1  0.67361145  0.51112768  0.17386010  1
  O  O43  1  0.47032716  0.91247960  0.82813224  1
  O  O44  1  0.50819898  0.81399867  0.17123529  1
  O  O45  1  0.74527282  0.34172267  0.33269226  1
  O  O46  1  0.79223107  0.20022898  0.75421879  1
  O  O47  1  0.77289861  0.22740211  0.57403208  1
  O  O48  1  0.78314742  0.23515275  0.93050388  1
  O  O49  1  0.61748596  0.47000786  0.82353746  1
  O  O50  1  0.51555011  0.66608367  0.67141911  1
  O  O51  1  0.65643280  0.26355726  0.16576079  1
  O  O52  1  0.48127610  0.62138681  0.32246315  1
  O  O53  1  0.33760765  0.92264434  0.33296701  1
  O  O54  1  0.78819692  0.01308299  0.25866925  1
  O  O55  1  0.75805686  0.97998740  0.43150528  1
  O  O56  1  0.23895937  0.00373683  0.57660627  1
  O  O57  1  0.66110471  0.08123547  0.66444380  1
  O  O58  1  0.52818772  0.37877822  0.67873734  1
  O  O59  1  0.34545721  0.73835226  0.82671370  1
  O  O60  1  0.47635187  0.34059276  0.32179284  1
  O  O61  1  0.38513371  0.53858953  0.17546615  1
  O  O62  1  0.20827078  0.79897402  0.08674258  1
  O  O63  1  0.25772990  0.76748233  0.43780084  1
  O  O64  1  0.20109791  0.78672450  0.26348321  1
  O  O65  1  0.25836676  0.65842286  0.65935775  1
  O  O66  1  0.48461698  0.18619723  0.82411155  1
  O  O67  1  0.53909053  0.08224176  0.17013596  1
  O  O68  1  0.33069725  0.48247050  0.82133742  1
  O  O69  1  0.33538979  0.33348374  0.96976327  1
  O  O70  1  0.32854133  0.32221336  0.46564584  1
  O  O71  1  0.18298666  0.47375610  0.31667836  1
  O  O72  1  0.38089802  0.09845821  0.68154178  1
  O  O73  1  0.33958854  0.17957719  0.31719607  1
  O  O74  1  0.08846492  0.65378997  0.16653078  1
  O  O75  1  0.00800312  0.79265239  0.75068303  1
  O  O76  1  0.99378562  0.79778072  0.92544226  1
  O  O77  1  0.09315153  0.52762322  0.67689654  1
  O  O78  1  0.18798209  0.32989984  0.82188818  1
  O  O79  1  0.07802877  0.38371920  0.16851741  1
  O  O80  1  0.25753484  0.08498736  0.15889942  1
  O  O81  1  0.23166849  0.97630042  0.92991799  1
  O  O82  1  0.20410582  0.00314369  0.75195667  1
  O  O83  1  0.08391234  0.26110956  0.66634350  1
  O  O84  1  0.00239171  0.23292184  0.42769683  1
  O  O85  1  0.00875151  0.20040813  0.25421813  1
