# generated using pymatgen
data_Fe2H11(SeO5)3
_symmetry_space_group_name_H-M   'P 1'
_cell_length_a   17.02187664
_cell_length_b   7.85309123
_cell_length_c   10.06378013
_cell_angle_alpha   90.00000000
_cell_angle_beta   97.46992464
_cell_angle_gamma   90.00000000
_symmetry_Int_Tables_number   1
_chemical_formula_structural   Fe2H11(SeO5)3
_chemical_formula_sum   'Fe8 H44 Se12 O60'
_cell_volume   1333.85229083
_cell_formula_units_Z   4
loop_
 _symmetry_equiv_pos_site_id
 _symmetry_equiv_pos_as_xyz
  1  'x, y, z'
loop_
 _atom_site_type_symbol
 _atom_site_label
 _atom_site_symmetry_multiplicity
 _atom_site_fract_x
 _atom_site_fract_y
 _atom_site_fract_z
 _atom_site_occupancy
  Fe  Fe0  1  0.09678482  0.76243542  0.95341723  1
  Fe  Fe1  1  0.09678482  0.73756458  0.45341723  1
  Fe  Fe2  1  0.39245186  0.74336269  0.90698435  1
  Fe  Fe3  1  0.39245186  0.75663731  0.40698435  1
  Fe  Fe4  1  0.60754814  0.24336269  0.59301565  1
  Fe  Fe5  1  0.60754814  0.25663731  0.09301565  1
  Fe  Fe6  1  0.90321518  0.26243542  0.54658277  1
  Fe  Fe7  1  0.90321518  0.23756458  0.04658277  1
  H  H8  1  0.07124241  0.45548892  0.59131060  1
  H  H9  1  0.07124241  0.04451108  0.09131060  1
  H  H10  1  0.13786666  0.40677849  0.49472745  1
  H  H11  1  0.14018351  0.34750056  0.90597020  1
  H  H12  1  0.13786666  0.09322151  0.99472745  1
  H  H13  1  0.20057490  0.22739734  0.84279860  1
  H  H14  1  0.14018351  0.15249944  0.40597020  1
  H  H15  1  0.20057490  0.27260266  0.34279860  1
  H  H16  1  0.22404451  0.20942944  0.60621113  1
  H  H17  1  0.27824122  0.62680937  0.00136986  1
  H  H18  1  0.27749582  0.10321887  0.71516763  1
  H  H19  1  0.22404451  0.29057056  0.10621113  1
  H  H20  1  0.27824122  0.87319063  0.50136986  1
  H  H21  1  0.27749582  0.39678113  0.21516763  1
  H  H22  1  0.33909734  0.34011107  0.93720176  1
  H  H23  1  0.35392530  0.04919439  0.99583694  1
  H  H24  1  0.33909734  0.15988893  0.43720176  1
  H  H25  1  0.35392530  0.45080561  0.49583694  1
  H  H26  1  0.42349272  0.26140853  0.93079673  1
  H  H27  1  0.39028684  0.56489702  0.61981557  1
  H  H28  1  0.42349272  0.23859147  0.43079673  1
  H  H29  1  0.39028684  0.93510298  0.11981557  1
  H  H30  1  0.60971316  0.06489702  0.88018443  1
  H  H31  1  0.57650728  0.76140853  0.56920327  1
  H  H32  1  0.60971316  0.43510298  0.38018443  1
  H  H33  1  0.57650728  0.73859147  0.06920327  1
  H  H34  1  0.64607470  0.54919439  0.50416306  1
  H  H35  1  0.66090266  0.84011107  0.56279824  1
  H  H36  1  0.64607470  0.95080561  0.00416306  1
  H  H37  1  0.66090266  0.65988893  0.06279824  1
  H  H38  1  0.72250418  0.60321887  0.78483237  1
  H  H39  1  0.72175878  0.12680937  0.49863014  1
  H  H40  1  0.77595549  0.70942944  0.89378887  1
  H  H41  1  0.72250418  0.89678113  0.28483237  1
  H  H42  1  0.72175878  0.37319063  0.99863014  1
  H  H43  1  0.77595549  0.79057056  0.39378887  1
  H  H44  1  0.79942510  0.72739734  0.65720140  1
  H  H45  1  0.85981649  0.84750056  0.59402980  1
  H  H46  1  0.79942510  0.77260266  0.15720140  1
  H  H47  1  0.86213334  0.90677849  0.00527255  1
  H  H48  1  0.85981649  0.65249944  0.09402980  1
  H  H49  1  0.86213334  0.59322151  0.50527255  1
  H  H50  1  0.92875759  0.95548892  0.90868940  1
  H  H51  1  0.92875759  0.54451108  0.40868940  1
  Se  Se52  1  0.01839890  0.96538295  0.68505306  1
  Se  Se53  1  0.01839890  0.53461705  0.18505306  1
  Se  Se54  1  0.22521539  0.72443206  0.72415072  1
  Se  Se55  1  0.22521539  0.77556794  0.22415072  1
  Se  Se56  1  0.46507731  0.98505517  0.68454018  1
  Se  Se57  1  0.46507731  0.51494483  0.18454018  1
  Se  Se58  1  0.53492269  0.48505517  0.81545982  1
  Se  Se59  1  0.53492269  0.01494483  0.31545982  1
  Se  Se60  1  0.77478461  0.22443206  0.77584928  1
  Se  Se61  1  0.77478461  0.27556794  0.27584928  1
  Se  Se62  1  0.98160110  0.46538295  0.81494694  1
  Se  Se63  1  0.98160110  0.03461705  0.31494694  1
  O  O64  1  0.00231005  0.86536491  0.83334443  1
  O  O65  1  0.02227118  0.78830648  0.58448616  1
  O  O66  1  0.00231005  0.63463509  0.33334443  1
  O  O67  1  0.07888324  0.52886285  0.86708156  1
  O  O68  1  0.02227118  0.71169352  0.08448616  1
  O  O69  1  0.07888324  0.97113715  0.36708156  1
  O  O70  1  0.11614425  0.50302126  0.54764585  1
  O  O71  1  0.16801381  0.83675295  0.82186680  1
  O  O72  1  0.17708903  0.25070929  0.92753190  1
  O  O73  1  0.11614425  0.99697874  0.04764585  1
  O  O74  1  0.16801381  0.66324705  0.32186680  1
  O  O75  1  0.17708903  0.24929071  0.42753190  1
  O  O76  1  0.19750261  0.82791416  0.57323795  1
  O  O77  1  0.19750261  0.67208584  0.07323795  1
  O  O78  1  0.24594262  0.20743880  0.70162161  1
  O  O79  1  0.31963765  0.58227032  0.94718476  1
  O  O80  1  0.24594262  0.29256120  0.20162161  1
  O  O81  1  0.31693843  0.83659447  0.76124734  1
  O  O82  1  0.31963765  0.91772968  0.44718476  1
  O  O83  1  0.36845329  0.23159713  0.94038211  1
  O  O84  1  0.31693843  0.66340553  0.26124734  1
  O  O85  1  0.35475127  0.57161210  0.53342095  1
  O  O86  1  0.36845329  0.26840287  0.44038211  1
  O  O87  1  0.35475127  0.92838790  0.03342095  1
  O  O88  1  0.43710841  0.54764218  0.79037506  1
  O  O89  1  0.43710841  0.95235782  0.29037506  1
  O  O90  1  0.47174286  0.88585500  0.84251926  1
  O  O91  1  0.47298176  0.81906864  0.56981472  1
  O  O92  1  0.52701824  0.31906864  0.93018528  1
  O  O93  1  0.47174286  0.61414500  0.34251926  1
  O  O94  1  0.52825714  0.38585500  0.65748074  1
  O  O95  1  0.47298176  0.68093136  0.06981472  1
  O  O96  1  0.52701824  0.18093136  0.43018528  1
  O  O97  1  0.52825714  0.11414500  0.15748074  1
  O  O98  1  0.56289159  0.04764218  0.70962494  1
  O  O99  1  0.56289159  0.45235782  0.20962494  1
  O  O100  1  0.64524873  0.07161210  0.96657905  1
  O  O101  1  0.63154671  0.73159713  0.55961789  1
  O  O102  1  0.64524873  0.42838790  0.46657905  1
  O  O103  1  0.68306157  0.33659447  0.73875266  1
  O  O104  1  0.63154671  0.76840287  0.05961789  1
  O  O105  1  0.68036235  0.08227032  0.55281524  1
  O  O106  1  0.68306157  0.16340553  0.23875266  1
  O  O107  1  0.75405738  0.70743880  0.79837839  1
  O  O108  1  0.68036235  0.41772968  0.05281524  1
  O  O109  1  0.75405738  0.79256120  0.29837839  1
  O  O110  1  0.80249739  0.32791416  0.92676205  1
  O  O111  1  0.80249739  0.17208584  0.42676205  1
  O  O112  1  0.82291097  0.75070929  0.57246810  1
  O  O113  1  0.83198619  0.33675295  0.67813320  1
  O  O114  1  0.88385575  0.00302126  0.95235415  1
  O  O115  1  0.82291097  0.74929071  0.07246810  1
  O  O116  1  0.83198619  0.16324705  0.17813320  1
  O  O117  1  0.88385575  0.49697874  0.45235415  1
  O  O118  1  0.92111676  0.02886285  0.63291844  1
  O  O119  1  0.97772882  0.28830648  0.91551384  1
  O  O120  1  0.92111676  0.47113715  0.13291844  1
  O  O121  1  0.99768995  0.36536491  0.66665557  1
  O  O122  1  0.97772882  0.21169352  0.41551384  1
  O  O123  1  0.99768995  0.13463509  0.16665557  1
