# generated using pymatgen
data_Ti(SiO3)2
_symmetry_space_group_name_H-M   'P 1'
_cell_length_a   18.21317230
_cell_length_b   8.88943014
_cell_length_c   5.32393724
_cell_angle_alpha   90.00000000
_cell_angle_beta   90.00000000
_cell_angle_gamma   90.00000000
_symmetry_Int_Tables_number   1
_chemical_formula_structural   Ti(SiO3)2
_chemical_formula_sum   'Ti8 Si16 O48'
_cell_volume   861.97058299
_cell_formula_units_Z   8
loop_
 _symmetry_equiv_pos_site_id
 _symmetry_equiv_pos_as_xyz
  1  'x, y, z'
loop_
 _atom_site_type_symbol
 _atom_site_label
 _atom_site_symmetry_multiplicity
 _atom_site_fract_x
 _atom_site_fract_y
 _atom_site_fract_z
 _atom_site_occupancy
  Ti  Ti0  1  0.12617381  0.36183842  0.38209733  1
  Ti  Ti1  1  0.12617381  0.13816158  0.88209733  1
  Ti  Ti2  1  0.37382619  0.63816158  0.88209733  1
  Ti  Ti3  1  0.37382619  0.86183842  0.38209733  1
  Ti  Ti4  1  0.62617381  0.13816158  0.61790267  1
  Ti  Ti5  1  0.62617381  0.36183842  0.11790267  1
  Ti  Ti6  1  0.87382619  0.63816158  0.61790267  1
  Ti  Ti7  1  0.87382619  0.86183842  0.11790267  1
  Si  Si8  1  0.02437791  0.66843966  0.30649791  1
  Si  Si9  1  0.02437791  0.83156034  0.80649791  1
  Si  Si10  1  0.22484973  0.66677974  0.55282441  1
  Si  Si11  1  0.22484973  0.83322026  0.05282441  1
  Si  Si12  1  0.27515027  0.16677974  0.55282441  1
  Si  Si13  1  0.27515027  0.33322026  0.05282441  1
  Si  Si14  1  0.47562209  0.16843966  0.30649791  1
  Si  Si15  1  0.47562209  0.33156034  0.80649791  1
  Si  Si16  1  0.52437791  0.66843966  0.19350209  1
  Si  Si17  1  0.52437791  0.83156034  0.69350209  1
  Si  Si18  1  0.72484973  0.66677974  0.94717559  1
  Si  Si19  1  0.72484973  0.83322026  0.44717559  1
  Si  Si20  1  0.77515027  0.16677974  0.94717559  1
  Si  Si21  1  0.77515027  0.33322026  0.44717559  1
  Si  Si22  1  0.97562209  0.16843966  0.19350209  1
  Si  Si23  1  0.97562209  0.33156034  0.69350209  1
  O  O24  1  0.05500729  0.76815256  0.07353399  1
  O  O25  1  0.05500729  0.73184744  0.57353399  1
  O  O26  1  0.06637080  0.18484324  0.18808962  1
  O  O27  1  0.06637080  0.31515676  0.68808962  1
  O  O28  1  0.05648320  0.49743426  0.27388864  1
  O  O29  1  0.05648320  0.00256574  0.77388864  1
  O  O30  1  0.18417307  0.18064000  0.56850910  1
  O  O31  1  0.18417307  0.31936000  0.06850910  1
  O  O32  1  0.19406009  0.00456309  0.00983306  1
  O  O33  1  0.19406009  0.49543691  0.50983306  1
  O  O34  1  0.19486586  0.76832341  0.31976293  1
  O  O35  1  0.19486586  0.73167659  0.81976293  1
  O  O36  1  0.30513414  0.23167659  0.81976293  1
  O  O37  1  0.30513414  0.26832341  0.31976293  1
  O  O38  1  0.30593991  0.50456309  0.00983306  1
  O  O39  1  0.30593991  0.99543691  0.50983306  1
  O  O40  1  0.31582593  0.68064000  0.56850910  1
  O  O41  1  0.31582593  0.81936000  0.06850910  1
  O  O42  1  0.44351680  0.99743426  0.27388864  1
  O  O43  1  0.44351680  0.50256574  0.77388864  1
  O  O44  1  0.43362920  0.68484324  0.18808962  1
  O  O45  1  0.43362920  0.81515676  0.68808962  1
  O  O46  1  0.44499271  0.23184744  0.57353399  1
  O  O47  1  0.44499271  0.26815256  0.07353399  1
  O  O48  1  0.55500729  0.73184744  0.92646601  1
  O  O49  1  0.55500729  0.76815256  0.42646601  1
  O  O50  1  0.56637080  0.18484324  0.31191038  1
  O  O51  1  0.56637080  0.31515676  0.81191038  1
  O  O52  1  0.55648320  0.49743426  0.22611136  1
  O  O53  1  0.55648320  0.00256574  0.72611136  1
  O  O54  1  0.68417307  0.18064000  0.93149090  1
  O  O55  1  0.68417307  0.31936000  0.43149090  1
  O  O56  1  0.69406009  0.00456309  0.49016694  1
  O  O57  1  0.69406009  0.49543691  0.99016694  1
  O  O58  1  0.69486586  0.73167659  0.68023707  1
  O  O59  1  0.69486586  0.76832341  0.18023707  1
  O  O60  1  0.80513414  0.23167659  0.68023707  1
  O  O61  1  0.80513414  0.26832341  0.18023707  1
  O  O62  1  0.80593991  0.50456309  0.49016694  1
  O  O63  1  0.80593991  0.99543691  0.99016694  1
  O  O64  1  0.81582693  0.68064000  0.93149090  1
  O  O65  1  0.81582693  0.81936000  0.43149090  1
  O  O66  1  0.94351680  0.99743426  0.22611136  1
  O  O67  1  0.94351680  0.50256574  0.72611136  1
  O  O68  1  0.93362920  0.68484324  0.31191038  1
  O  O69  1  0.93362920  0.81515676  0.81191038  1
  O  O70  1  0.94499271  0.23184744  0.92646601  1
  O  O71  1  0.94499271  0.26815256  0.42646601  1
