# generated using pymatgen
data_Li3La7(FeO8)2
_symmetry_space_group_name_H-M   'P 1'
_cell_length_a   6.93413664
_cell_length_b   7.60216492
_cell_length_c   7.60216492
_cell_angle_alpha   89.73394048
_cell_angle_beta   74.13705033
_cell_angle_gamma   105.86294967
_symmetry_Int_Tables_number   1
_chemical_formula_structural   Li3La7(FeO8)2
_chemical_formula_sum   'Li3 La7 Fe2 O16'
_cell_volume   369.43681150
_cell_formula_units_Z   1
loop_
 _symmetry_equiv_pos_site_id
 _symmetry_equiv_pos_as_xyz
  1  'x, y, z'
loop_
 _atom_site_type_symbol
 _atom_site_label
 _atom_site_symmetry_multiplicity
 _atom_site_fract_x
 _atom_site_fract_y
 _atom_site_fract_z
 _atom_site_occupancy
  Li  Li0  1  0.01878408  0.00717501  0.99772521  1
  Li  Li1  1  0.29407427  0.32327757  0.17672243  1
  Li  Li2  1  0.01878408  0.50227479  0.49282499  1
  La  La3  1  0.73077531  0.18441007  0.31558993  1
  La  La4  1  0.71239587  0.17969279  0.82362247  1
  La  La5  1  0.27823013  0.31890616  0.67928695  1
  La  La6  1  0.71723839  0.67633405  0.82366595  1
  La  La7  1  0.71239587  0.67637753  0.32030721  1
  La  La8  1  0.27823013  0.82071305  0.18109384  1
  La  La9  1  0.28344479  0.82160813  0.67839187  1
  Fe  Fe10  1  0.00443963  0.00353169  0.49646831  1
  Fe  Fe11  1  0.00551544  0.49897187  0.00102813  1
  O  O12  1  0.35006076  0.07441538  0.42558462  1
  O  O13  1  0.99487668  0.99665357  0.25789362  1
  O  O14  1  0.99368662  0.99822415  0.74392039  1
  O  O15  1  0.35589505  0.07005758  0.89205186  1
  O  O16  1  0.63806909  0.41046238  0.59158143  1
  O  O17  1  0.99620511  0.25600819  0.99916122  1
  O  O18  1  0.99487668  0.24210638  0.50334643  1
  O  O19  1  0.64517432  0.41203193  0.08796807  1
  O  O20  1  0.34756284  0.59992116  0.90007884  1
  O  O21  1  0.99469300  0.49888810  0.75922640  1
  O  O22  1  0.99620511  0.50083878  0.24399181  1
  O  O23  1  0.35589505  0.60794814  0.42994242  1
  O  O24  1  0.63806909  0.90841857  0.08953762  1
  O  O25  1  0.99368662  0.75607961  0.50177585  1
  O  O26  1  0.65604202  0.91390179  0.58609821  1
  O  O27  1  0.99469300  0.74077360  0.00111190  1
