# generated using pymatgen
data_Li8Fe7O15
_symmetry_space_group_name_H-M   'P 1'
_cell_length_a   9.01141453
_cell_length_b   7.94267395
_cell_length_c   4.04923747
_cell_angle_alpha   104.76789587
_cell_angle_beta   90.00000000
_cell_angle_gamma   101.11885570
_symmetry_Int_Tables_number   1
_chemical_formula_structural   Li8Fe7O15
_chemical_formula_sum   'Li8 Fe7 O15'
_cell_volume   274.61937139
_cell_formula_units_Z   1
loop_
 _symmetry_equiv_pos_site_id
 _symmetry_equiv_pos_as_xyz
  1  'x, y, z'
loop_
 _atom_site_type_symbol
 _atom_site_label
 _atom_site_symmetry_multiplicity
 _atom_site_fract_x
 _atom_site_fract_y
 _atom_site_fract_z
 _atom_site_occupancy
  Li  Li0  1  0.00395042  0.00261984  0.00130992  1
  Li  Li1  1  0.06593866  0.38671128  0.19335514  1
  Li  Li2  1  0.66739434  0.01328872  0.00664486  1
  Li  Li3  1  0.33147221  0.00351927  0.00175913  1
  Li  Li4  1  0.40186179  0.39648073  0.19824087  1
  Li  Li5  1  0.13361390  0.79966519  0.39983310  1
  Li  Li6  1  0.72938258  0.39738016  0.19869008  1
  Li  Li7  1  0.59971910  0.60033481  0.80016690  1
  Fe  Fe8  1  0.46849401  0.80198899  0.40099449  1
  Fe  Fe9  1  0.79845346  0.80020571  0.40010335  1
  Fe  Fe10  1  0.20062504  0.18787536  0.59393718  1
  Fe  Fe11  1  0.53270796  0.21212464  0.60606282  1
  Fe  Fe12  1  0.26483899  0.59801101  0.79900551  1
  Fe  Fe13  1  0.86666700  0.20000000  0.60000000  1
  Fe  Fe14  1  0.93487954  0.59979429  0.79989665  1
  O  O15  1  0.19767896  0.19265329  0.09632665  1
  O  O16  1  0.53565404  0.20734671  0.10367335  1
  O  O17  1  0.86666700  0.20000000  0.10000000  1
  O  O18  1  0.60502767  0.63017507  0.31508753  1
  O  O19  1  0.92321132  0.60861904  0.30430952  1
  O  O20  1  0.27966795  0.60801408  0.30400754  1
  O  O21  1  0.99411475  0.01002142  0.50501121  1
  O  O22  1  0.34472366  0.01283182  0.50641641  1
  O  O23  1  0.66642210  0.00450850  0.50225375  1
  O  O24  1  0.38861034  0.38716818  0.69358359  1
  O  O25  1  0.12830633  0.76982493  0.88491247  1
  O  O26  1  0.06691190  0.39549150  0.69774625  1
  O  O27  1  0.73921925  0.38997858  0.69498879  1
  O  O28  1  0.45366605  0.79198592  0.89599246  1
  O  O29  1  0.81012168  0.79138096  0.89569048  1
