# generated using pymatgen
data_FeP2O7
_symmetry_space_group_name_H-M   'P 1'
_cell_length_a   8.34487918
_cell_length_b   5.24319946
_cell_length_c   13.43030668
_cell_angle_alpha   90.00000000
_cell_angle_beta   73.71605787
_cell_angle_gamma   90.00000000
_symmetry_Int_Tables_number   1
_chemical_formula_structural   FeP2O7
_chemical_formula_sum   'Fe4 P8 O28'
_cell_volume   564.05451056
_cell_formula_units_Z   4
loop_
 _symmetry_equiv_pos_site_id
 _symmetry_equiv_pos_as_xyz
  1  'x, y, z'
loop_
 _atom_site_type_symbol
 _atom_site_label
 _atom_site_symmetry_multiplicity
 _atom_site_fract_x
 _atom_site_fract_y
 _atom_site_fract_z
 _atom_site_occupancy
  Fe  Fe0  1  0.08930874  0.24857241  0.64319072  1
  Fe  Fe1  1  0.58930874  0.25142759  0.14319072  1
  Fe  Fe2  1  0.41069126  0.74857241  0.85680928  1
  Fe  Fe3  1  0.91069126  0.75142759  0.35680928  1
  P  P4  1  0.02656975  0.77033758  0.80273165  1
  P  P5  1  0.28248184  0.23806472  0.01997193  1
  P  P6  1  0.21751816  0.73806472  0.48002807  1
  P  P7  1  0.52656975  0.72966242  0.30273165  1
  P  P8  1  0.47343025  0.27033758  0.69726835  1
  P  P9  1  0.78248184  0.26193528  0.51997193  1
  P  P10  1  0.71751816  0.76193528  0.98002807  1
  P  P11  1  0.97343025  0.22966242  0.19726835  1
  O  O12  1  0.08776476  0.27317062  0.08063250  1
  O  O13  1  0.02556275  0.97194584  0.23298052  1
  O  O14  1  0.00428014  0.44924387  0.26434157  1
  O  O15  1  0.11699613  0.78760530  0.40312688  1
  O  O16  1  0.30298218  0.96217934  0.98122361  1
  O  O17  1  0.19701782  0.46217934  0.51877639  1
  O  O18  1  0.38300387  0.28760530  0.09687312  1
  O  O19  1  0.18445481  0.92995214  0.56770606  1
  O  O20  1  0.20465843  0.77664004  0.81017826  1
  O  O21  1  0.49571986  0.94924387  0.23565843  1
  O  O22  1  0.29534157  0.27664004  0.68982174  1
  O  O23  1  0.47443725  0.47194584  0.26701948  1
  O  O24  1  0.41223524  0.77317062  0.41936750  1
  O  O25  1  0.31554519  0.42995214  0.93229394  1
  O  O26  1  0.68445481  0.57004786  0.06770606  1
  O  O27  1  0.58776476  0.22682938  0.58063250  1
  O  O28  1  0.52556275  0.52805416  0.73298052  1
  O  O29  1  0.70465843  0.72335996  0.31017826  1
  O  O30  1  0.50428014  0.05075613  0.76434157  1
  O  O31  1  0.79534157  0.22335996  0.18982174  1
  O  O32  1  0.81554519  0.07004786  0.43229394  1
  O  O33  1  0.61699613  0.71239470  0.90312688  1
  O  O34  1  0.80298218  0.53782066  0.48122361  1
  O  O35  1  0.69701782  0.03782066  0.01877639  1
  O  O36  1  0.88300387  0.21239470  0.59687312  1
  O  O37  1  0.99571986  0.55075613  0.73565843  1
  O  O38  1  0.97443725  0.02805416  0.76701948  1
  O  O39  1  0.91223524  0.72682938  0.91936750  1
