# generated using pymatgen
data_Li3Fe2(NiO4)2
_symmetry_space_group_name_H-M   'P 1'
_cell_length_a   5.90658726
_cell_length_b   5.94983579
_cell_length_c   5.84270024
_cell_angle_alpha   119.40403428
_cell_angle_beta   119.56925518
_cell_angle_gamma   91.47473420
_symmetry_Int_Tables_number   1
_chemical_formula_structural   Li3Fe2(NiO4)2
_chemical_formula_sum   'Li3 Fe2 Ni2 O8'
_cell_volume   145.52508741
_cell_formula_units_Z   1
loop_
 _symmetry_equiv_pos_site_id
 _symmetry_equiv_pos_as_xyz
  1  'x, y, z'
loop_
 _atom_site_type_symbol
 _atom_site_label
 _atom_site_symmetry_multiplicity
 _atom_site_fract_x
 _atom_site_fract_y
 _atom_site_fract_z
 _atom_site_occupancy
  Li  Li0  1  0.00000000  0.50000000  0.50000000  1
  Li  Li1  1  0.50000000  0.50000000  0.00000000  1
  Li  Li2  1  0.50000000  0.00000000  0.00000000  1
  Fe  Fe3  1  0.00000000  0.00000000  0.50000000  1
  Fe  Fe4  1  0.00000000  0.00000000  0.00000000  1
  Ni  Ni5  1  0.00000000  0.50000000  0.00000000  1
  Ni  Ni6  1  0.50000000  0.00000000  0.50000000  1
  O  O7  1  0.23864825  0.78683796  0.49747603  1
  O  O8  1  0.21930459  0.23075385  0.49380443  1
  O  O9  1  0.25497908  0.77664882  0.03599770  1
  O  O10  1  0.22218817  0.22833414  0.95689837  1
  O  O11  1  0.77781183  0.77166586  0.04310163  1
  O  O12  1  0.74502092  0.22335118  0.96400230  1
  O  O13  1  0.78069541  0.76924615  0.50619557  1
  O  O14  1  0.76135175  0.21316204  0.50252397  1
