# generated using pymatgen
data_BaNa3PCO7
_symmetry_space_group_name_H-M   'P 1'
_cell_length_a   9.70654352
_cell_length_b   7.64667611
_cell_length_c   5.38983591
_cell_angle_alpha   90.00000000
_cell_angle_beta   89.67488685
_cell_angle_gamma   90.00000000
_symmetry_Int_Tables_number   1
_chemical_formula_structural   BaNa3PCO7
_chemical_formula_sum   'Ba2 Na6 P2 C2 O14'
_cell_volume   400.04224288
_cell_formula_units_Z   2
loop_
 _symmetry_equiv_pos_site_id
 _symmetry_equiv_pos_as_xyz
  1  'x, y, z'
loop_
 _atom_site_type_symbol
 _atom_site_label
 _atom_site_symmetry_multiplicity
 _atom_site_fract_x
 _atom_site_fract_y
 _atom_site_fract_z
 _atom_site_occupancy
  Ba  Ba0  1  0.37468119  0.75000000  0.76013520  1
  Ba  Ba1  1  0.62531881  0.25000000  0.23986480  1
  Na  Na2  1  0.08152790  0.25000000  0.75630502  1
  Na  Na3  1  0.24649383  0.02330702  0.23746545  1
  Na  Na4  1  0.24649383  0.47669298  0.23746545  1
  Na  Na5  1  0.75350617  0.52330702  0.76253455  1
  Na  Na6  1  0.75350617  0.97669298  0.76253455  1
  Na  Na7  1  0.91847210  0.75000000  0.24369498  1
  P  P8  1  0.39255129  0.25000000  0.70499675  1
  P  P9  1  0.60744871  0.75000000  0.29500325  1
  C  C10  1  0.04663878  0.75000000  0.73369715  1
  C  C11  1  0.95336122  0.25000000  0.26630285  1
  O  O12  1  0.08694759  0.25000000  0.28418167  1
  O  O13  1  0.10426042  0.75000000  0.95246735  1
  O  O14  1  0.12158249  0.75000000  0.53063648  1
  O  O15  1  0.32091641  0.08608258  0.81902961  1
  O  O16  1  0.32091641  0.41391742  0.81902961  1
  O  O17  1  0.37274884  0.25000000  0.41824789  1
  O  O18  1  0.44748016  0.75000000  0.24783985  1
  O  O19  1  0.55251984  0.25000000  0.75216015  1
  O  O20  1  0.62725116  0.75000000  0.58175211  1
  O  O21  1  0.67908359  0.58608258  0.18097039  1
  O  O22  1  0.67908359  0.91391742  0.18097039  1
  O  O23  1  0.87841751  0.25000000  0.46936352  1
  O  O24  1  0.89573958  0.25000000  0.04753265  1
  O  O25  1  0.91305241  0.75000000  0.71581833  1
