# generated using pymatgen
data_Li6MnCr3(PO4)6
_symmetry_space_group_name_H-M   'P 1'
_cell_length_a   8.50940054
_cell_length_b   8.63222788
_cell_length_c   8.48463279
_cell_angle_alpha   62.04829112
_cell_angle_beta   62.03776151
_cell_angle_gamma   61.28766300
_symmetry_Int_Tables_number   1
_chemical_formula_structural   Li6MnCr3(PO4)6
_chemical_formula_sum   'Li6 Mn1 Cr3 P6 O24'
_cell_volume   458.33005646
_cell_formula_units_Z   1
loop_
 _symmetry_equiv_pos_site_id
 _symmetry_equiv_pos_as_xyz
  1  'x, y, z'
loop_
 _atom_site_type_symbol
 _atom_site_label
 _atom_site_symmetry_multiplicity
 _atom_site_fract_x
 _atom_site_fract_y
 _atom_site_fract_z
 _atom_site_occupancy
  Li  Li0  1  0.02348558  0.01663656  0.98804597  1
  Li  Li1  1  0.75287182  0.14447486  0.35329466  1
  Li  Li2  1  0.47531880  0.50374551  0.49281408  1
  Li  Li3  1  0.24025165  0.85115218  0.65125804  1
  Li  Li4  1  0.66397249  0.25270923  0.84492616  1
  Li  Li5  1  0.84348013  0.64775319  0.24852154  1
  Mn  Mn6  1  0.85343705  0.84956600  0.85655325  1
  Cr  Cr7  1  0.14045210  0.14523839  0.13919078  1
  Cr  Cr8  1  0.35878176  0.36269706  0.35403843  1
  Cr  Cr9  1  0.64289404  0.64597833  0.64538742  1
  P  P10  1  0.04850384  0.75224890  0.45000273  1
  P  P11  1  0.45173225  0.04721360  0.74929414  1
  P  P12  1  0.74950946  0.44903035  0.05105323  1
  P  P13  1  0.24917003  0.54017155  0.95519228  1
  P  P14  1  0.54400359  0.96269951  0.25016845  1
  P  P15  1  0.95803339  0.25414831  0.53788879  1
  O  O16  1  0.12698756  0.30297383  0.49005935  1
  O  O17  1  0.30015049  0.51514633  0.11655006  1
  O  O18  1  0.04637183  0.92204300  0.26722048  1
  O  O19  1  0.53225353  0.12121164  0.29572007  1
  O  O20  1  0.24049635  0.59416511  0.42911600  1
  O  O21  1  0.01967919  0.81190842  0.61120547  1
  O  O22  1  0.26224000  0.06938614  0.90808544  1
  O  O23  1  0.45314957  0.22948057  0.58038448  1
  O  O24  1  0.59368885  0.42409005  0.24658170  1
  O  O25  1  0.20357096  0.37750980  0.98389869  1
  O  O26  1  0.08316191  0.73390695  0.93363902  1
  O  O27  1  0.37162967  0.00248301  0.20869345  1
  O  O28  1  0.61647472  0.00984448  0.80954962  1
  O  O29  1  0.90610685  0.25350878  0.06823273  1
  O  O30  1  0.81131958  0.59863996  0.02912239  1
  O  O31  1  0.40689064  0.57145762  0.75892860  1
  O  O32  1  0.56684399  0.77033488  0.40999966  1
  O  O33  1  0.73604681  0.93118042  0.08718277  1
  O  O34  1  0.96954468  0.20136747  0.38167279  1
  O  O35  1  0.76389329  0.41802525  0.56240211  1
  O  O36  1  0.48106664  0.88728910  0.69283858  1
  O  O37  1  0.93979819  0.09981679  0.73260704  1
  O  O38  1  0.68635870  0.48516096  0.89066131  1
  O  O39  1  0.88637401  0.69260888  0.48901625  1
