# generated using pymatgen
data_Li4V3Fe3(TeO8)2
_symmetry_space_group_name_H-M   'P 1'
_cell_length_a   6.02220968
_cell_length_b   5.94584278
_cell_length_c   10.23177850
_cell_angle_alpha   90.16827999
_cell_angle_beta   89.48689767
_cell_angle_gamma   118.88339586
_symmetry_Int_Tables_number   1
_chemical_formula_structural   Li4V3Fe3(TeO8)2
_chemical_formula_sum   'Li4 V3 Fe3 Te2 O16'
_cell_volume   320.78235366
_cell_formula_units_Z   1
loop_
 _symmetry_equiv_pos_site_id
 _symmetry_equiv_pos_as_xyz
  1  'x, y, z'
loop_
 _atom_site_type_symbol
 _atom_site_label
 _atom_site_symmetry_multiplicity
 _atom_site_fract_x
 _atom_site_fract_y
 _atom_site_fract_z
 _atom_site_occupancy
  Li  Li0  1  0.33146901  0.67578169  0.90114110  1
  Li  Li1  1  0.99739989  0.99334953  0.99474500  1
  Li  Li2  1  0.99152501  0.99861331  0.48470944  1
  Li  Li3  1  0.67344005  0.33012407  0.40675460  1
  V  V4  1  0.64251754  0.79952031  0.22701592  1
  V  V5  1  0.81256692  0.65950313  0.72027786  1
  V  V6  1  0.82714373  0.17271831  0.71511009  1
  Fe  Fe7  1  0.18048205  0.84001104  0.21930664  1
  Fe  Fe8  1  0.16718679  0.34196563  0.21495141  1
  Fe  Fe9  1  0.33748581  0.16367360  0.71167585  1
  Te  Te10  1  0.30694032  0.65665362  0.49370199  1
  Te  Te11  1  0.66293421  0.32114252  0.00817207  1
  O  O12  1  0.14295371  0.82927763  0.59615032  1
  O  O13  1  0.04298809  0.52663786  0.35674789  1
  O  O14  1  0.34871956  0.68758421  0.10789527  1
  O  O15  1  0.98171132  0.98433899  0.30310341  1
  O  O16  1  0.00533936  0.99884428  0.80993876  1
  O  O17  1  0.15051043  0.31659797  0.59434181  1
  O  O18  1  0.49108960  0.97257013  0.33262991  1
  O  O19  1  0.51723937  0.52763034  0.33377378  1
  O  O20  1  0.32809165  0.16050929  0.09624350  1
  O  O21  1  0.71632311  0.87335132  0.61180763  1
  O  O22  1  0.52408410  0.51093639  0.81339389  1
  O  O23  1  0.51911758  0.02884817  0.82301483  1
  O  O24  1  0.66947365  0.33734657  0.60868506  1
  O  O25  1  0.83406736  0.66374781  0.10686177  1
  O  O26  1  0.97760205  0.48096433  0.81573567  1
  O  O27  1  0.81959971  0.14805694  0.09995453  1
