# generated using pymatgen
data_Li3Ta5Cu2O15
_symmetry_space_group_name_H-M   'P 1'
_cell_length_a   5.22489574
_cell_length_b   5.22489554
_cell_length_c   23.62362666
_cell_angle_alpha   83.65089071
_cell_angle_beta   90.00000001
_cell_angle_gamma   59.99999871
_symmetry_Int_Tables_number   1
_chemical_formula_structural   Li3Ta5Cu2O15
_chemical_formula_sum   'Li6 Ta10 Cu4 O30'
_cell_volume   553.93971697
_cell_formula_units_Z   2
loop_
 _symmetry_equiv_pos_site_id
 _symmetry_equiv_pos_as_xyz
  1  'x, y, z'
loop_
 _atom_site_type_symbol
 _atom_site_label
 _atom_site_symmetry_multiplicity
 _atom_site_fract_x
 _atom_site_fract_y
 _atom_site_fract_z
 _atom_site_occupancy
  Li  Li0  1  0.14270615  0.71458770  0.42811845  1
  Li  Li1  1  0.34176118  0.31647665  0.02528453  1
  Li  Li2  1  0.84315580  0.31368840  0.52946641  1
  Li  Li3  1  0.94163985  0.11671929  0.82492056  1
  Li  Li4  1  0.54212065  0.91575870  0.62636295  1
  Li  Li5  1  0.74183739  0.51632622  0.22551116  1
  Ta  Ta6  1  0.99902345  0.00195210  0.99707134  1
  Ta  Ta7  1  0.39919586  0.20160827  0.19758759  1
  Ta  Ta8  1  0.09837281  0.80325438  0.29511842  1
  Ta  Ta9  1  0.29797802  0.40404296  0.89393505  1
  Ta  Ta10  1  0.49897764  0.00204373  0.49693391  1
  Ta  Ta11  1  0.19872259  0.60255483  0.59616776  1
  Ta  Ta12  1  0.69815336  0.60369429  0.09445907  1
  Ta  Ta13  1  0.89778196  0.20443709  0.69334487  1
  Ta  Ta14  1  0.79932012  0.40135875  0.39796137  1
  Ta  Ta15  1  0.59883026  0.80233847  0.79649179  1
  Cu  Cu16  1  0.24772521  0.50454958  0.74317564  1
  Cu  Cu17  1  0.44821340  0.10357221  0.34464119  1
  Cu  Cu18  1  0.04793170  0.90413561  0.14379609  1
  Cu  Cu19  1  0.64786217  0.70427566  0.94358650  1
  O  O20  1  0.14238822  0.08335720  0.45410928  1
  O  O21  1  0.12848721  0.12292129  0.25177424  1
  O  O22  1  0.24210167  0.11626578  0.75239163  1
  O  O23  1  0.04202796  0.51568002  0.15328221  1
  O  O24  1  0.07013503  0.48833030  0.35401444  1
  O  O25  1  0.26896499  0.08919971  0.95282790  1
  O  O26  1  0.04202861  0.68900640  0.95282790  1
  O  O27  1  0.23867816  0.29019784  0.55285394  1
  O  O28  1  0.37469553  0.49681727  0.25177424  1
  O  O29  1  0.57448959  0.09759780  0.85084281  1
  O  O30  1  0.17276473  0.89873643  0.65016675  1
  O  O31  1  0.54890317  0.27833210  0.65016675  1
  O  O32  1  0.34834017  0.67691584  0.05122324  1
  O  O33  1  0.53746648  0.32014530  0.45410928  1
  O  O34  1  0.32791261  0.72364677  0.85084281  1
  O  O35  1  0.64183431  0.31613708  0.95282790  1
  O  O36  1  0.44153467  0.71612059  0.35401444  1
  O  O37  1  0.66896224  0.28900981  0.15328221  1
  O  O38  1  0.47112300  0.68582422  0.55285394  1
  O  O39  1  0.44229202  0.88874574  0.15328221  1
  O  O40  1  0.64163255  0.48971004  0.75239163  1
  O  O41  1  0.84234474  0.08752023  0.35401444  1
  O  O42  1  0.97474399  0.29711693  0.05122324  1
  O  O43  1  0.77425459  0.68827793  0.45410928  1
  O  O44  1  0.94844061  0.47706980  0.85084281  1
  O  O45  1  0.74859150  0.87671297  0.25177424  1
  O  O46  1  0.72813908  0.92352075  0.05122324  1
  O  O47  1  0.92849985  0.52259698  0.65016675  1
  O  O48  1  0.84305278  0.91826906  0.55285394  1
  O  O49  1  0.86865741  0.88923992  0.75239163  1
