# generated using pymatgen
data_Li2Mn(PO4)2
_symmetry_space_group_name_H-M   'P 1'
_cell_length_a   4.64764838
_cell_length_b   5.03031792
_cell_length_c   13.70943498
_cell_angle_alpha   96.36270689
_cell_angle_beta   90.00000000
_cell_angle_gamma   62.48610691
_symmetry_Int_Tables_number   1
_chemical_formula_structural   Li2Mn(PO4)2
_chemical_formula_sum   'Li4 Mn2 P4 O16'
_cell_volume   282.03638138
_cell_formula_units_Z   2
loop_
 _symmetry_equiv_pos_site_id
 _symmetry_equiv_pos_as_xyz
  1  'x, y, z'
loop_
 _atom_site_type_symbol
 _atom_site_label
 _atom_site_symmetry_multiplicity
 _atom_site_fract_x
 _atom_site_fract_y
 _atom_site_fract_z
 _atom_site_occupancy
  Li  Li0  1  0.69415452  0.66814055  0.33950397  1
  Li  Li1  1  0.63770593  0.66814055  0.83950397  1
  Li  Li2  1  0.95166622  0.01067435  0.74342628  1
  Li  Li3  1  0.03765943  0.01067435  0.24342628  1
  Mn  Mn4  1  0.99621054  0.99476693  0.00241714  1
  Mn  Mn5  1  0.00902152  0.99476693  0.50241714  1
  P  P6  1  0.67573554  0.67611178  0.11135505  1
  P  P7  1  0.64815268  0.67611178  0.61135505  1
  P  P8  1  0.34869606  0.31861336  0.38948347  1
  P  P9  1  0.33269058  0.31861336  0.88948347  1
  O  O10  1  0.85214536  0.88160122  0.11865892  1
  O  O11  1  0.77461368  0.71329091  0.71099711  1
  O  O12  1  0.79239275  0.77017597  0.52810665  1
  O  O13  1  0.95364775  0.34814242  0.08133678  1
  O  O14  1  0.69820983  0.34814242  0.58133678  1
  O  O15  1  0.43743128  0.77017597  0.02810665  1
  O  O16  1  0.51209542  0.71329091  0.21099711  1
  O  O17  1  0.26625242  0.88160122  0.61865892  1
  O  O18  1  0.72490103  0.09053187  0.37274236  1
  O  O19  1  0.51376297  0.33680982  0.80072153  1
  O  O20  1  0.55962514  0.21276036  0.97443385  1
  O  O21  1  0.33403487  0.63640347  0.42009488  1
  O  O22  1  0.02956166  0.63640347  0.92009488  1
  O  O23  1  0.22761550  0.21276036  0.47443385  1
  O  O24  1  0.14942821  0.33680982  0.30072153  1
  O  O25  1  0.18456809  0.09053187  0.87274236  1
