# generated using pymatgen
data_Li12CrFe3P4(CO7)4
_symmetry_space_group_name_H-M   'P 1'
_cell_length_a   8.55506888
_cell_length_b   9.98126859
_cell_length_c   6.50241322
_cell_angle_alpha   90.00000000
_cell_angle_beta   90.00000000
_cell_angle_gamma   85.26794494
_symmetry_Int_Tables_number   1
_chemical_formula_structural   Li12CrFe3P4(CO7)4
_chemical_formula_sum   'Li12 Cr1 Fe3 P4 C4 O28'
_cell_volume   553.35131703
_cell_formula_units_Z   1
loop_
 _symmetry_equiv_pos_site_id
 _symmetry_equiv_pos_as_xyz
  1  'x, y, z'
loop_
 _atom_site_type_symbol
 _atom_site_label
 _atom_site_symmetry_multiplicity
 _atom_site_fract_x
 _atom_site_fract_y
 _atom_site_fract_z
 _atom_site_occupancy
  Li  Li0  1  0.09498462  0.37951892  0.25000000  1
  Li  Li1  1  0.09380199  0.88039883  0.25000000  1
  Li  Li2  1  0.27456817  0.12327747  0.02451812  1
  Li  Li3  1  0.27456817  0.12327747  0.47548188  1
  Li  Li4  1  0.27429578  0.62355595  0.02511923  1
  Li  Li5  1  0.27429578  0.62355595  0.47488077  1
  Li  Li6  1  0.72571175  0.37541768  0.52407768  1
  Li  Li7  1  0.72571175  0.37541768  0.97592232  1
  Li  Li8  1  0.72588852  0.87715062  0.52409147  1
  Li  Li9  1  0.72588852  0.87715062  0.97590853  1
  Li  Li10  1  0.90635456  0.11972035  0.75000000  1
  Li  Li11  1  0.90726419  0.62025572  0.75000000  1
  Cr  Cr12  1  0.66520029  0.60761279  0.25000000  1
  Fe  Fe13  1  0.33501101  0.39289317  0.75000000  1
  Fe  Fe14  1  0.33463624  0.89336921  0.75000000  1
  Fe  Fe15  1  0.66485434  0.10632623  0.25000000  1
  P  P16  1  0.41247333  0.35888672  0.25000000  1
  P  P17  1  0.41026261  0.85968344  0.25000000  1
  P  P18  1  0.58806541  0.14095147  0.75000000  1
  P  P19  1  0.58741937  0.64119509  0.75000000  1
  C  C20  1  0.03439401  0.35187479  0.75000000  1
  C  C21  1  0.03437754  0.85157847  0.75000000  1
  C  C22  1  0.96449783  0.14830632  0.25000000  1
  C  C23  1  0.96776012  0.64685978  0.25000000  1
  O  O24  1  0.07094594  0.47528490  0.75000000  1
  O  O25  1  0.11022546  0.17839183  0.25000000  1
  O  O26  1  0.07079423  0.97520006  0.75000000  1
  O  O27  1  0.14740699  0.25515082  0.75000000  1
  O  O28  1  0.11232117  0.67990987  0.25000000  1
  O  O29  1  0.14736214  0.75500322  0.75000000  1
  O  O30  1  0.31096965  0.41263134  0.06336905  1
  O  O31  1  0.31096965  0.41263134  0.43663095  1
  O  O32  1  0.30984151  0.91479253  0.06293463  1
  O  O33  1  0.30984151  0.91479253  0.43706537  1
  O  O34  1  0.42206169  0.09087741  0.75000000  1
  O  O35  1  0.42712745  0.20183081  0.25000000  1
  O  O36  1  0.42154248  0.59064910  0.75000000  1
  O  O37  1  0.42106833  0.70362779  0.25000000  1
  O  O38  1  0.57251019  0.29792265  0.75000000  1
  O  O39  1  0.57799312  0.40847370  0.25000000  1
  O  O40  1  0.57173317  0.79834366  0.75000000  1
  O  O41  1  0.57738503  0.90781199  0.25000000  1
  O  O42  1  0.68949498  0.08745130  0.93667377  1
  O  O43  1  0.68949498  0.08745130  0.56332623  1
  O  O44  1  0.68866097  0.58781301  0.56381381  1
  O  O45  1  0.68866097  0.58781301  0.93618619  1
  O  O46  1  0.85203484  0.24449182  0.25000000  1
  O  O47  1  0.88950740  0.32194060  0.75000000  1
  O  O48  1  0.85337799  0.74198906  0.25000000  1
  O  O49  1  0.92899217  0.02468439  0.25000000  1
  O  O50  1  0.88948364  0.82187178  0.75000000  1
  O  O51  1  0.93590546  0.52293445  0.25000000  1
