# generated using pymatgen
data_MgSO3
_symmetry_space_group_name_H-M   'P 1'
_cell_length_a   8.09343524
_cell_length_b   11.99189967
_cell_length_c   5.34505162
_cell_angle_alpha   90.00000000
_cell_angle_beta   80.11213029
_cell_angle_gamma   90.00000000
_symmetry_Int_Tables_number   1
_chemical_formula_structural   MgSO3
_chemical_formula_sum   'Mg8 S8 O24'
_cell_volume   511.06160440
_cell_formula_units_Z   8
loop_
 _symmetry_equiv_pos_site_id
 _symmetry_equiv_pos_as_xyz
  1  'x, y, z'
loop_
 _atom_site_type_symbol
 _atom_site_label
 _atom_site_symmetry_multiplicity
 _atom_site_fract_x
 _atom_site_fract_y
 _atom_site_fract_z
 _atom_site_occupancy
  Mg  Mg0  1  0.11807803  0.57871976  0.66866423  1
  Mg  Mg1  1  0.15379720  0.24376411  0.87948067  1
  Mg  Mg2  1  0.34620280  0.74376411  0.12051933  1
  Mg  Mg3  1  0.38192197  0.07871976  0.33133577  1
  Mg  Mg4  1  0.61807803  0.92128024  0.66866423  1
  Mg  Mg5  1  0.65379720  0.25623589  0.87948067  1
  Mg  Mg6  1  0.84620280  0.75623589  0.12051933  1
  Mg  Mg7  1  0.88192197  0.42128024  0.33133577  1
  S  S8  1  0.01551976  0.82611951  0.52461481  1
  S  S9  1  0.25715707  0.47858546  0.08833879  1
  S  S10  1  0.24284293  0.97858546  0.91166121  1
  S  S11  1  0.48448024  0.32611951  0.47538519  1
  S  S12  1  0.51551976  0.67388049  0.52461481  1
  S  S13  1  0.75715707  0.02141454  0.08833879  1
  S  S14  1  0.74284293  0.52141454  0.91166121  1
  S  S15  1  0.98448024  0.17388049  0.47538519  1
  O  O16  1  0.00143224  0.73855333  0.74405869  1
  O  O17  1  0.08137804  0.75781252  0.27898321  1
  O  O18  1  0.12815093  0.48234581  0.33818699  1
  O  O19  1  0.16633574  0.15606522  0.52512058  1
  O  O20  1  0.23956763  0.09785326  0.02655611  1
  O  O21  1  0.15715697  0.41827060  0.90228635  1
  O  O22  1  0.34284303  0.91827060  0.09771365  1
  O  O23  1  0.26043237  0.59785326  0.97344389  1
  O  O24  1  0.33366426  0.65606522  0.47487942  1
  O  O25  1  0.37184907  0.98234581  0.66181301  1
  O  O26  1  0.41862196  0.25781252  0.72101679  1
  O  O27  1  0.49856776  0.23855333  0.25594131  1
  O  O28  1  0.50143224  0.76144667  0.74405869  1
  O  O29  1  0.58137804  0.74218748  0.27898321  1
  O  O30  1  0.62815093  0.01765419  0.33818699  1
  O  O31  1  0.66633574  0.34393478  0.52512058  1
  O  O32  1  0.73956763  0.40214674  0.02655611  1
  O  O33  1  0.65715697  0.08172940  0.90228635  1
  O  O34  1  0.84284303  0.58172940  0.09771365  1
  O  O35  1  0.76043237  0.90214674  0.97344389  1
  O  O36  1  0.83366426  0.84393478  0.47487942  1
  O  O37  1  0.87184907  0.51765419  0.66181301  1
  O  O38  1  0.91862196  0.24218748  0.72101679  1
  O  O39  1  0.99856776  0.26144667  0.25594131  1
