# generated using pymatgen
data_Li5BO4
_symmetry_space_group_name_H-M   'P 1'
_cell_length_a   8.64407863
_cell_length_b   4.96069381
_cell_length_c   15.18050233
_cell_angle_alpha   90.00000000
_cell_angle_beta   90.00000000
_cell_angle_gamma   90.00000000
_symmetry_Int_Tables_number   1
_chemical_formula_structural   Li5BO4
_chemical_formula_sum   'Li40 B8 O32'
_cell_volume   650.94946344
_cell_formula_units_Z   8
loop_
 _symmetry_equiv_pos_site_id
 _symmetry_equiv_pos_as_xyz
  1  'x, y, z'
loop_
 _atom_site_type_symbol
 _atom_site_label
 _atom_site_symmetry_multiplicity
 _atom_site_fract_x
 _atom_site_fract_y
 _atom_site_fract_z
 _atom_site_occupancy
  Li  Li0  1  0.05557489  0.08152452  0.43562777  1
  Li  Li1  1  0.05557489  0.41847548  0.93562777  1
  Li  Li2  1  0.07564633  0.60015383  0.75132252  1
  Li  Li3  1  0.07564633  0.89984617  0.25132252  1
  Li  Li4  1  0.15983984  0.91231830  0.00403746  1
  Li  Li5  1  0.15983984  0.58768170  0.50403746  1
  Li  Li6  1  0.17266729  0.10371390  0.82778283  1
  Li  Li7  1  0.17266729  0.39628610  0.32778283  1
  Li  Li8  1  0.20143610  0.57716200  0.13957979  1
  Li  Li9  1  0.20143610  0.92283800  0.63957979  1
  Li  Li10  1  0.29856390  0.07716200  0.13957979  1
  Li  Li11  1  0.29856390  0.42283800  0.63957979  1
  Li  Li12  1  0.32733271  0.60371390  0.82778283  1
  Li  Li13  1  0.32733271  0.89628610  0.32778283  1
  Li  Li14  1  0.34016016  0.41231830  0.00403746  1
  Li  Li15  1  0.34016016  0.08768170  0.50403746  1
  Li  Li16  1  0.42435367  0.39984617  0.25132252  1
  Li  Li17  1  0.42435367  0.10015383  0.75132252  1
  Li  Li18  1  0.44442511  0.91847548  0.93562777  1
  Li  Li19  1  0.44442511  0.58152452  0.43562777  1
  Li  Li20  1  0.55557489  0.08152452  0.06437223  1
  Li  Li21  1  0.55557489  0.41847548  0.56437223  1
  Li  Li22  1  0.57564633  0.89984617  0.24867748  1
  Li  Li23  1  0.57564633  0.60015383  0.74867748  1
  Li  Li24  1  0.65983984  0.58768170  0.99596254  1
  Li  Li25  1  0.65983984  0.91231830  0.49596254  1
  Li  Li26  1  0.67266729  0.39628610  0.17221717  1
  Li  Li27  1  0.67266729  0.10371390  0.67221717  1
  Li  Li28  1  0.70143610  0.57716200  0.36042021  1
  Li  Li29  1  0.70143610  0.92283800  0.86042021  1
  Li  Li30  1  0.79856390  0.07716200  0.36042021  1
  Li  Li31  1  0.79856390  0.42283800  0.86042021  1
  Li  Li32  1  0.82733271  0.60371390  0.67221717  1
  Li  Li33  1  0.82733271  0.89628610  0.17221717  1
  Li  Li34  1  0.84016016  0.41231830  0.49596254  1
  Li  Li35  1  0.84016016  0.08768170  0.99596254  1
  Li  Li36  1  0.92435367  0.10015383  0.74867748  1
  Li  Li37  1  0.92435367  0.39984617  0.24867748  1
  Li  Li38  1  0.94442511  0.91847548  0.56437223  1
  Li  Li39  1  0.94442511  0.58152452  0.06437223  1
  B  B40  1  0.04013644  0.17524535  0.12503093  1
  B  B41  1  0.04013644  0.32475465  0.62503093  1
  B  B42  1  0.45986356  0.67524535  0.12503093  1
  B  B43  1  0.45986356  0.82475465  0.62503093  1
  B  B44  1  0.54013644  0.17524535  0.37496907  1
  B  B45  1  0.54013644  0.32475465  0.87496907  1
  B  B46  1  0.95986356  0.67524535  0.37496907  1
  B  B47  1  0.95986356  0.82475465  0.87496907  1
  O  O48  1  0.04601478  0.87488973  0.12041361  1
  O  O49  1  0.04601478  0.62511027  0.62041361  1
  O  O50  1  0.12267965  0.26473029  0.20900527  1
  O  O51  1  0.12267965  0.23526971  0.70900527  1
  O  O52  1  0.12401171  0.30054029  0.04823030  1
  O  O53  1  0.12401171  0.19945971  0.54823030  1
  O  O54  1  0.12829972  0.76537647  0.37321549  1
  O  O55  1  0.12829972  0.73462353  0.87321549  1
  O  O56  1  0.37170028  0.26537647  0.37321549  1
  O  O57  1  0.37170028  0.23462353  0.87321549  1
  O  O58  1  0.37598829  0.80054029  0.04823030  1
  O  O59  1  0.37598829  0.69945971  0.54823030  1
  O  O60  1  0.37732035  0.73526971  0.70900527  1
  O  O61  1  0.37732035  0.76473029  0.20900527  1
  O  O62  1  0.45398522  0.37488973  0.12041361  1
  O  O63  1  0.45398522  0.12511027  0.62041361  1
  O  O64  1  0.54601478  0.87488973  0.37958639  1
  O  O65  1  0.54601478  0.62511027  0.87958639  1
  O  O66  1  0.62267965  0.23526971  0.79099473  1
  O  O67  1  0.62267965  0.26473029  0.29099473  1
  O  O68  1  0.62401171  0.19945971  0.95176970  1
  O  O69  1  0.62401171  0.30054029  0.45176970  1
  O  O70  1  0.62829972  0.76537647  0.12678451  1
  O  O71  1  0.62829972  0.73462353  0.62678451  1
  O  O72  1  0.87170028  0.23462353  0.62678451  1
  O  O73  1  0.87170028  0.26537647  0.12678451  1
  O  O74  1  0.87598829  0.80054029  0.45176970  1
  O  O75  1  0.87598829  0.69945971  0.95176970  1
  O  O76  1  0.87732035  0.73526971  0.79099473  1
  O  O77  1  0.87732035  0.76473029  0.29099473  1
  O  O78  1  0.95398522  0.37488973  0.37958639  1
  O  O79  1  0.95398522  0.12511027  0.87958639  1
