# generated using pymatgen
data_Na3BSbPO7
_symmetry_space_group_name_H-M   'P 1'
_cell_length_a   9.31852843
_cell_length_b   6.95117019
_cell_length_c   5.47195430
_cell_angle_alpha   90.00000000
_cell_angle_beta   92.93771350
_cell_angle_gamma   90.00000000
_symmetry_Int_Tables_number   1
_chemical_formula_structural   Na3BSbPO7
_chemical_formula_sum   'Na6 B2 Sb2 P2 O14'
_cell_volume   353.97827639
_cell_formula_units_Z   2
loop_
 _symmetry_equiv_pos_site_id
 _symmetry_equiv_pos_as_xyz
  1  'x, y, z'
loop_
 _atom_site_type_symbol
 _atom_site_label
 _atom_site_symmetry_multiplicity
 _atom_site_fract_x
 _atom_site_fract_y
 _atom_site_fract_z
 _atom_site_occupancy
  Na  Na0  1  0.07023719  0.25000000  0.75951168  1
  Na  Na1  1  0.24817620  0.00795206  0.24930669  1
  Na  Na2  1  0.24817620  0.49204794  0.24930669  1
  Na  Na3  1  0.75182380  0.50795206  0.75069331  1
  Na  Na4  1  0.75182380  0.99204794  0.75069331  1
  Na  Na5  1  0.92976281  0.75000000  0.24048832  1
  B  B6  1  0.06625840  0.75000000  0.73595005  1
  B  B7  1  0.93374160  0.25000000  0.26404995  1
  Sb  Sb8  1  0.34541246  0.75000000  0.77797237  1
  Sb  Sb9  1  0.65458754  0.25000000  0.22202763  1
  P  P10  1  0.40003570  0.25000000  0.71929686  1
  P  P11  1  0.59996430  0.75000000  0.28070314  1
  O  O12  1  0.07668573  0.25000000  0.26991099  1
  O  O13  1  0.15425411  0.75000000  0.95955695  1
  O  O14  1  0.15170318  0.75000000  0.52911501  1
  O  O15  1  0.31640766  0.07370963  0.82267980  1
  O  O16  1  0.31640766  0.42629037  0.82267980  1
  O  O17  1  0.39041092  0.25000000  0.43938955  1
  O  O18  1  0.43751049  0.75000000  0.18782119  1
  O  O19  1  0.56248951  0.25000000  0.81217881  1
  O  O20  1  0.60958908  0.75000000  0.56061045  1
  O  O21  1  0.68359234  0.57370963  0.17732020  1
  O  O22  1  0.68359234  0.92629037  0.17732020  1
  O  O23  1  0.84829682  0.25000000  0.47088499  1
  O  O24  1  0.84574589  0.25000000  0.04044305  1
  O  O25  1  0.92331427  0.75000000  0.73008901  1
