# generated using pymatgen
data_Li3Bi(BO3)2
_symmetry_space_group_name_H-M   'P 1'
_cell_length_a   5.10635896
_cell_length_b   7.11885842
_cell_length_c   8.30860009
_cell_angle_alpha   69.99777990
_cell_angle_beta   92.35201648
_cell_angle_gamma   91.63584149
_symmetry_Int_Tables_number   1
_chemical_formula_structural   Li3Bi(BO3)2
_chemical_formula_sum   'Li6 Bi2 B4 O12'
_cell_volume   283.53805320
_cell_formula_units_Z   2
loop_
 _symmetry_equiv_pos_site_id
 _symmetry_equiv_pos_as_xyz
  1  'x, y, z'
loop_
 _atom_site_type_symbol
 _atom_site_label
 _atom_site_symmetry_multiplicity
 _atom_site_fract_x
 _atom_site_fract_y
 _atom_site_fract_z
 _atom_site_occupancy
  Li  Li0  1  0.17846272  0.92652688  0.91997145  1
  Li  Li1  1  0.31382268  0.05103200  0.26293682  1
  Li  Li2  1  0.32399536  0.76198037  0.62628392  1
  Li  Li3  1  0.67600464  0.23801963  0.37371608  1
  Li  Li4  1  0.68617732  0.94896800  0.73706318  1
  Li  Li5  1  0.82153728  0.07347312  0.08002855  1
  Bi  Bi6  1  0.16791480  0.56401307  0.28695486  1
  Bi  Bi7  1  0.83208520  0.43598693  0.71304514  1
  B  B8  1  0.17639446  0.14002699  0.56544819  1
  B  B9  1  0.33748803  0.31140557  0.91862872  1
  B  B10  1  0.66251197  0.68859443  0.08137128  1
  B  B11  1  0.82360554  0.85997301  0.43455181  1
  O  O12  1  0.08270932  0.80567011  0.41781000  1
  O  O13  1  0.24777223  0.47745141  0.77786796  1
  O  O14  1  0.17017382  0.17114624  0.01789949  1
  O  O15  1  0.29464599  0.23542892  0.40645794  1
  O  O16  1  0.30857448  0.00070428  0.69531678  1
  O  O17  1  0.39171185  0.70699547  0.05381079  1
  O  O18  1  0.60828815  0.29300453  0.94618921  1
  O  O19  1  0.69142552  0.99929572  0.30468322  1
  O  O20  1  0.70535401  0.76457108  0.59354206  1
  O  O21  1  0.82982618  0.82885376  0.98210051  1
  O  O22  1  0.75222777  0.52254859  0.22213204  1
  O  O23  1  0.91729068  0.19432989  0.58219000  1
