# generated using pymatgen
data_Ge2As2O7
_symmetry_space_group_name_H-M   'P 1'
_cell_length_a   13.07289856
_cell_length_b   7.21412355
_cell_length_c   7.28262830
_cell_angle_alpha   94.12946808
_cell_angle_beta   90.70419970
_cell_angle_gamma   96.09822516
_symmetry_Int_Tables_number   1
_chemical_formula_structural   Ge2As2O7
_chemical_formula_sum   'Ge8 As8 O28'
_cell_volume   681.02384132
_cell_formula_units_Z   4
loop_
 _symmetry_equiv_pos_site_id
 _symmetry_equiv_pos_as_xyz
  1  'x, y, z'
loop_
 _atom_site_type_symbol
 _atom_site_label
 _atom_site_symmetry_multiplicity
 _atom_site_fract_x
 _atom_site_fract_y
 _atom_site_fract_z
 _atom_site_occupancy
  Ge  Ge0  1  0.12079473  0.93229973  0.91613291  1
  Ge  Ge1  1  0.19119705  0.31174491  0.50906034  1
  Ge  Ge2  1  0.38103049  0.66207456  0.12938863  1
  Ge  Ge3  1  0.40562844  0.26339534  0.65429906  1
  Ge  Ge4  1  0.59437156  0.73660466  0.34570094  1
  Ge  Ge5  1  0.61896951  0.33792544  0.87061137  1
  Ge  Ge6  1  0.80880295  0.68825509  0.49093966  1
  Ge  Ge7  1  0.87920527  0.06770027  0.08386709  1
  As  As8  1  0.02691211  0.84002089  0.31280466  1
  As  As9  1  0.16155624  0.39827481  0.07459072  1
  As  As10  1  0.34475508  0.83555280  0.73422833  1
  As  As11  1  0.33583495  0.07506964  0.26396174  1
  As  As12  1  0.66416505  0.92493036  0.73603826  1
  As  As13  1  0.65524492  0.16444720  0.26577167  1
  As  As14  1  0.83844376  0.60172519  0.92540928  1
  As  As15  1  0.97308789  0.15997911  0.68719534  1
  O  O16  1  0.96911991  0.05420038  0.26874061  1
  O  O17  1  0.05597286  0.77854013  0.07297870  1
  O  O18  1  0.09814864  0.30514643  0.68541465  1
  O  O19  1  0.14094650  0.42482265  0.32507352  1
  O  O20  1  0.21740201  0.79485324  0.83844667  1
  O  O21  1  0.17136187  0.14393736  0.03967030  1
  O  O22  1  0.22745677  0.08750584  0.42878644  1
  O  O23  1  0.30785908  0.41757031  0.62225988  1
  O  O24  1  0.32507521  0.82190774  0.28640950  1
  O  O25  1  0.30207268  0.44683952  0.08994942  1
  O  O26  1  0.36737776  0.08639513  0.80387813  1
  O  O27  1  0.41942814  0.77053032  0.92783694  1
  O  O28  1  0.43752654  0.15570199  0.43724096  1
  O  O29  1  0.48994850  0.59008342  0.24222310  1
  O  O30  1  0.51005150  0.40991658  0.75777690  1
  O  O31  1  0.56247346  0.84429801  0.56275904  1
  O  O32  1  0.58057186  0.22946968  0.07216306  1
  O  O33  1  0.63262224  0.91360487  0.19612187  1
  O  O34  1  0.69792732  0.55316048  0.91005058  1
  O  O35  1  0.67492479  0.17809226  0.71359050  1
  O  O36  1  0.69214092  0.58242969  0.37774112  1
  O  O37  1  0.77254323  0.91249416  0.57121356  1
  O  O38  1  0.82863813  0.85606264  0.96032970  1
  O  O39  1  0.78259799  0.20514676  0.16155333  1
  O  O40  1  0.85905350  0.57517735  0.67492648  1
  O  O41  1  0.90185136  0.69485357  0.31458535  1
  O  O42  1  0.94402714  0.22145987  0.92702130  1
  O  O43  1  0.03088009  0.94579962  0.73125939  1
