# generated using pymatgen
data_BaSO3
_symmetry_space_group_name_H-M   'P 1'
_cell_length_a   4.71665764
_cell_length_b   5.57264332
_cell_length_c   6.79782869
_cell_angle_alpha   90.00000000
_cell_angle_beta   106.78654535
_cell_angle_gamma   90.00000000
_symmetry_Int_Tables_number   1
_chemical_formula_structural   BaSO3
_chemical_formula_sum   'Ba2 S2 O6'
_cell_volume   171.06198176
_cell_formula_units_Z   2
loop_
 _symmetry_equiv_pos_site_id
 _symmetry_equiv_pos_as_xyz
  1  'x, y, z'
loop_
 _atom_site_type_symbol
 _atom_site_label
 _atom_site_symmetry_multiplicity
 _atom_site_fract_x
 _atom_site_fract_y
 _atom_site_fract_z
 _atom_site_occupancy
  Ba  Ba0  1  0.34462238  0.75000000  0.72606923  1
  Ba  Ba1  1  0.65537762  0.25000000  0.27393077  1
  S  S2  1  0.07349665  0.75000000  0.17619978  1
  S  S3  1  0.92650335  0.25000000  0.82380022  1
  O  O4  1  0.26869874  0.25000000  0.87085438  1
  O  O5  1  0.17679939  0.53071807  0.31888322  1
  O  O6  1  0.17679939  0.96928193  0.31888322  1
  O  O7  1  0.82320061  0.03071807  0.68111678  1
  O  O8  1  0.82320061  0.46928193  0.68111678  1
  O  O9  1  0.73130126  0.75000000  0.12914562  1
