# generated using pymatgen
data_Dy2Sb2O7
_symmetry_space_group_name_H-M   'P 1'
_cell_length_a   7.54491642
_cell_length_b   7.54491642
_cell_length_c   7.54491642
_cell_angle_alpha   118.62947256
_cell_angle_beta   90.18653441
_cell_angle_gamma   121.17146464
_symmetry_Int_Tables_number   1
_chemical_formula_structural   Dy2Sb2O7
_chemical_formula_sum   'Dy4 Sb4 O14'
_cell_volume   303.97123873
_cell_formula_units_Z   2
loop_
 _symmetry_equiv_pos_site_id
 _symmetry_equiv_pos_as_xyz
  1  'x, y, z'
loop_
 _atom_site_type_symbol
 _atom_site_label
 _atom_site_symmetry_multiplicity
 _atom_site_fract_x
 _atom_site_fract_y
 _atom_site_fract_z
 _atom_site_occupancy
  Dy  Dy0  1  0.00000000  0.00000000  0.00000000  1
  Dy  Dy1  1  0.50000000  0.00000000  0.50000000  1
  Dy  Dy2  1  0.00000000  0.00000000  0.50000000  1
  Dy  Dy3  1  0.00000000  0.50000000  0.00000000  1
  Sb  Sb4  1  0.50000000  0.00000000  0.00000000  1
  Sb  Sb5  1  0.50000000  0.50000000  0.00000000  1
  Sb  Sb6  1  0.50000000  0.50000000  0.50000000  1
  Sb  Sb7  1  0.00000000  0.50000000  0.50000000  1
  O  O8  1  0.82725126  0.20345163  0.12972201  1
  O  O9  1  0.46590722  0.21590622  0.25000000  1
  O  O10  1  0.86613481  0.24737773  0.61875608  1
  O  O11  1  0.87137834  0.75262227  0.11875608  1
  O  O12  1  0.57372961  0.69752925  0.37027799  1
  O  O13  1  0.42627039  0.79654837  0.12380064  1
  O  O14  1  0.82725126  0.69752925  0.62380064  1
  O  O15  1  0.57372961  0.20345163  0.87619936  1
  O  O16  1  0.42627039  0.30247075  0.62972201  1
  O  O17  1  0.17274874  0.30247075  0.37619936  1
  O  O18  1  0.13386519  0.75262227  0.38124392  1
  O  O19  1  0.53409278  0.78409278  0.75000000  1
  O  O20  1  0.12862166  0.24737773  0.88124392  1
  O  O21  1  0.17274874  0.79654837  0.87027799  1
