# generated using pymatgen
data_Li2TiCo2O5
_symmetry_space_group_name_H-M   'P 1'
_cell_length_a   5.25637958
_cell_length_b   7.78043725
_cell_length_c   5.22210167
_cell_angle_alpha   70.43692450
_cell_angle_beta   112.10237323
_cell_angle_gamma   97.33225350
_symmetry_Int_Tables_number   1
_chemical_formula_structural   Li2TiCo2O5
_chemical_formula_sum   'Li4 Ti2 Co4 O10'
_cell_volume   186.45059581
_cell_formula_units_Z   2
loop_
 _symmetry_equiv_pos_site_id
 _symmetry_equiv_pos_as_xyz
  1  'x, y, z'
loop_
 _atom_site_type_symbol
 _atom_site_label
 _atom_site_symmetry_multiplicity
 _atom_site_fract_x
 _atom_site_fract_y
 _atom_site_fract_z
 _atom_site_occupancy
  Li  Li0  1  0.50048096  0.20425208  0.89758308  1
  Li  Li1  1  0.00044315  0.40228086  0.80007131  1
  Li  Li2  1  0.49804862  0.99996070  0.50174664  1
  Li  Li3  1  0.00138425  0.59521555  0.20101947  1
  Ti  Ti4  1  0.49927950  0.38959550  0.30494451  1
  Ti  Ti5  1  0.00205258  0.99572660  0.99808485  1
  Co  Co6  1  0.49997035  0.59967720  0.69996731  1
  Co  Co7  1  0.99927370  0.78957733  0.60456072  1
  Co  Co8  1  0.50187132  0.80183661  0.10244563  1
  Co  Co9  1  0.99632329  0.20659178  0.39539892  1
  O  O10  1  0.76261251  0.81485112  0.84905020  1
  O  O11  1  0.26613233  0.59275725  0.95884684  1
  O  O12  1  0.74991523  0.20118029  0.64740188  1
  O  O13  1  0.73569973  0.59025913  0.45351026  1
  O  O14  1  0.23698802  0.81448898  0.33608444  1
  O  O15  1  0.22850453  0.99910886  0.77102431  1
  O  O16  1  0.27404257  0.39938765  0.52380173  1
  O  O17  1  0.77448469  0.99922484  0.23238419  1
  O  O18  1  0.72424441  0.40178285  0.07345883  1
  O  O19  1  0.24824927  0.20224382  0.14861689  1
