# generated using pymatgen
data_LiLa5Ti8O24
_symmetry_space_group_name_H-M   'P 1'
_cell_length_a   7.79336909
_cell_length_b   8.70633245
_cell_length_c   8.76476477
_cell_angle_alpha   113.37546668
_cell_angle_beta   90.00000000
_cell_angle_gamma   63.41217585
_symmetry_Int_Tables_number   1
_chemical_formula_structural   LiLa5Ti8O24
_chemical_formula_sum   'Li1 La5 Ti8 O24'
_cell_volume   476.60514718
_cell_formula_units_Z   1
loop_
 _symmetry_equiv_pos_site_id
 _symmetry_equiv_pos_as_xyz
  1  'x, y, z'
loop_
 _atom_site_type_symbol
 _atom_site_label
 _atom_site_symmetry_multiplicity
 _atom_site_fract_x
 _atom_site_fract_y
 _atom_site_fract_z
 _atom_site_occupancy
  Li  Li0  1  0.49244932  0.01510036  0.99961611  1
  La  La1  1  0.62285877  0.75428146  0.49868767  1
  La  La2  1  0.87546151  0.24907798  0.50193255  1
  La  La3  1  0.12787191  0.74425717  0.49784452  1
  La  La4  1  0.24878589  0.50242922  0.99979421  1
  La  La5  1  0.37352324  0.25295452  0.50147962  1
  Ti  Ti6  1  0.93016651  0.63323222  0.76011125  1
  Ti  Ti7  1  0.81035541  0.87358961  0.23978221  1
  Ti  Ti8  1  0.31605397  0.87358961  0.23978221  1
  Ti  Ti9  1  0.57110452  0.36766068  0.24037956  1
  Ti  Ti10  1  0.69135120  0.12713060  0.75978194  1
  Ti  Ti11  1  0.43660127  0.63323222  0.76011125  1
  Ti  Ti12  1  0.06123480  0.36766068  0.24037956  1
  Ti  Ti13  1  0.18151820  0.12713060  0.75978194  1
  O  O14  1  0.81005939  0.86557706  0.73177807  1
  O  O15  1  0.89217047  0.73827286  0.00001234  1
  O  O16  1  0.94487639  0.63116883  0.26437445  1
  O  O17  1  0.69412676  0.61174748  0.72503905  1
  O  O18  1  0.94279546  0.11440908  0.72677694  1
  O  O19  1  0.80442775  0.39114351  0.27722967  1
  O  O20  1  0.55739665  0.88520670  0.26753398  1
  O  O21  1  0.55815731  0.36666701  0.73543782  1
  O  O22  1  0.59157534  0.25605007  0.99996278  1
  O  O23  1  0.32436355  0.86557706  0.73177807  1
  O  O24  1  0.68077403  0.13443461  0.26891458  1
  O  O25  1  0.42395478  0.63116883  0.26437445  1
  O  O26  1  0.36955667  0.73827286  0.00001234  1
  O  O27  1  0.49382390  0.49964365  0.50029872  1
  O  O28  1  0.74922159  0.99891493  0.49974793  1
  O  O29  1  0.06271146  0.87457707  0.26740150  1
  O  O30  1  0.43845033  0.12309934  0.73234942  1
  O  O31  1  0.19521723  0.60956655  0.73843828  1
  O  O32  1  0.30626586  0.38746727  0.26471120  1
  O  O33  1  0.00653245  0.49964365  0.50029872  1
  O  O34  1  0.07517468  0.36666701  0.73543782  1
  O  O35  1  0.25186347  0.99891493  0.49974793  1
  O  O36  1  0.15237459  0.25605007  0.99996278  1
  O  O37  1  0.18479135  0.13443461  0.26891458  1
