# generated using pymatgen
data_Li5BiO4
_symmetry_space_group_name_H-M   'P 1'
_cell_length_a   9.32720563
_cell_length_b   9.70163751
_cell_length_c   9.95823071
_cell_angle_alpha   90.00000000
_cell_angle_beta   90.00000000
_cell_angle_gamma   90.00000000
_symmetry_Int_Tables_number   1
_chemical_formula_structural   Li5BiO4
_chemical_formula_sum   'Li40 Bi8 O32'
_cell_volume   901.11201173
_cell_formula_units_Z   8
loop_
 _symmetry_equiv_pos_site_id
 _symmetry_equiv_pos_as_xyz
  1  'x, y, z'
loop_
 _atom_site_type_symbol
 _atom_site_label
 _atom_site_symmetry_multiplicity
 _atom_site_fract_x
 _atom_site_fract_y
 _atom_site_fract_z
 _atom_site_occupancy
  Li  Li0  1  0.11533969  0.58178455  0.14131828  1
  Li  Li1  1  0.11533969  0.91821545  0.64131828  1
  Li  Li2  1  0.11969485  0.13512339  0.84937982  1
  Li  Li3  1  0.11969485  0.36487661  0.34937982  1
  Li  Li4  1  0.12494892  0.85486499  0.40503054  1
  Li  Li5  1  0.12494892  0.64513501  0.90503054  1
  Li  Li6  1  0.13615838  0.84439955  0.14579212  1
  Li  Li7  1  0.13615838  0.65560045  0.64579212  1
  Li  Li8  1  0.17016524  0.11071996  0.41390204  1
  Li  Li9  1  0.17016524  0.38928004  0.91390204  1
  Li  Li10  1  0.32983476  0.88928004  0.91390204  1
  Li  Li11  1  0.32983476  0.61071996  0.41390204  1
  Li  Li12  1  0.36384162  0.15560045  0.64579212  1
  Li  Li13  1  0.36384162  0.34439955  0.14579212  1
  Li  Li14  1  0.37505108  0.14513501  0.90503054  1
  Li  Li15  1  0.37505108  0.35486499  0.40503054  1
  Li  Li16  1  0.38030515  0.63512339  0.84937982  1
  Li  Li17  1  0.38030515  0.86487661  0.34937982  1
  Li  Li18  1  0.38466031  0.08178455  0.14131828  1
  Li  Li19  1  0.38466031  0.41821545  0.64131828  1
  Li  Li20  1  0.61533969  0.58178455  0.35868172  1
  Li  Li21  1  0.61533969  0.91821545  0.85868172  1
  Li  Li22  1  0.61969485  0.13512339  0.65062018  1
  Li  Li23  1  0.61969485  0.36487661  0.15062018  1
  Li  Li24  1  0.62494892  0.64513501  0.59496946  1
  Li  Li25  1  0.62494892  0.85486499  0.09496946  1
  Li  Li26  1  0.63615838  0.65560045  0.85420788  1
  Li  Li27  1  0.63615838  0.84439955  0.35420788  1
  Li  Li28  1  0.67016524  0.11071996  0.08609796  1
  Li  Li29  1  0.67016524  0.38928004  0.58609796  1
  Li  Li30  1  0.82983476  0.61071996  0.08609796  1
  Li  Li31  1  0.82983476  0.88928004  0.58609796  1
  Li  Li32  1  0.86384162  0.34439955  0.35420788  1
  Li  Li33  1  0.86384162  0.15560045  0.85420788  1
  Li  Li34  1  0.87505108  0.14513501  0.59496946  1
  Li  Li35  1  0.87505108  0.35486499  0.09496946  1
  Li  Li36  1  0.88030515  0.63512339  0.65062018  1
  Li  Li37  1  0.88030515  0.86487661  0.15062018  1
  Li  Li38  1  0.88466031  0.08178455  0.35868172  1
  Li  Li39  1  0.88466031  0.41821545  0.85868172  1
  Bi  Bi40  1  0.07653962  0.14813271  0.14234288  1
  Bi  Bi41  1  0.07653962  0.35186729  0.64234288  1
  Bi  Bi42  1  0.42346038  0.64813271  0.14234288  1
  Bi  Bi43  1  0.42346038  0.85186729  0.64234288  1
  Bi  Bi44  1  0.57653962  0.14813271  0.35765712  1
  Bi  Bi45  1  0.57653962  0.35186729  0.85765712  1
  Bi  Bi46  1  0.92346038  0.64813271  0.35765712  1
  Bi  Bi47  1  0.92346038  0.85186729  0.85765712  1
  O  O48  1  0.99955069  0.22523629  0.44989707  1
  O  O49  1  0.99955069  0.27476371  0.94989707  1
  O  O50  1  0.02229513  0.96014378  0.26668626  1
  O  O51  1  0.02229513  0.53985622  0.76668626  1
  O  O52  1  0.22414530  0.03345113  0.01175698  1
  O  O53  1  0.22414530  0.46654887  0.51175698  1
  O  O54  1  0.25918461  0.22385798  0.26700149  1
  O  O55  1  0.25918461  0.27614202  0.76700149  1
  O  O56  1  0.24081539  0.72385798  0.26700149  1
  O  O57  1  0.24081539  0.77614202  0.76700149  1
  O  O58  1  0.27585470  0.53345113  0.01175698  1
  O  O59  1  0.27585470  0.96654887  0.51175698  1
  O  O60  1  0.47770587  0.46014378  0.26668626  1
  O  O61  1  0.47770587  0.03985622  0.76668626  1
  O  O62  1  0.50044931  0.72523629  0.44989707  1
  O  O63  1  0.50044931  0.77476371  0.94989707  1
  O  O64  1  0.49955069  0.22523629  0.05010293  1
  O  O65  1  0.49955069  0.27476371  0.55010293  1
  O  O66  1  0.52229513  0.96014378  0.23331374  1
  O  O67  1  0.52229513  0.53985622  0.73331374  1
  O  O68  1  0.72414530  0.03345113  0.48824302  1
  O  O69  1  0.72414530  0.46654887  0.98824302  1
  O  O70  1  0.75918461  0.22385798  0.23299851  1
  O  O71  1  0.75918461  0.27614202  0.73299851  1
  O  O72  1  0.74081539  0.72385798  0.23299851  1
  O  O73  1  0.74081539  0.77614202  0.73299851  1
  O  O74  1  0.77585470  0.53345113  0.48824302  1
  O  O75  1  0.77585470  0.96654887  0.98824302  1
  O  O76  1  0.97770487  0.03985622  0.73331374  1
  O  O77  1  0.97770487  0.46014378  0.23331374  1
  O  O78  1  0.00044931  0.72523629  0.05010293  1
  O  O79  1  0.00044931  0.77476371  0.55010293  1
