# generated using pymatgen
data_Ga3Cu
_symmetry_space_group_name_H-M   'P 1'
_cell_length_a   4.03532927
_cell_length_b   4.03534186
_cell_length_c   4.03532836
_cell_angle_alpha   89.99978092
_cell_angle_beta   89.99980236
_cell_angle_gamma   90.00039117
_symmetry_Int_Tables_number   1
_chemical_formula_structural   Ga3Cu
_chemical_formula_sum   'Ga3 Cu1'
_cell_volume   65.71101714
_cell_formula_units_Z   1
loop_
 _symmetry_equiv_pos_site_id
 _symmetry_equiv_pos_as_xyz
  1  'x, y, z'
loop_
 _atom_site_type_symbol
 _atom_site_label
 _atom_site_symmetry_multiplicity
 _atom_site_fract_x
 _atom_site_fract_y
 _atom_site_fract_z
 _atom_site_occupancy
  Ga  Ga0  1  0.99999685  0.50000499  0.49999290  1
  Ga  Ga1  1  0.49999748  0.00000515  0.49999268  1
  Ga  Ga2  1  0.49999702  0.50000404  0.99999341  1
  Cu  Cu3  1  0.00000864  -0.00001419  0.00002101  1
