# generated using pymatgen
data_Li5Mn2P2(CO7)2
_symmetry_space_group_name_H-M   'P 1'
_cell_length_a   9.55307312
_cell_length_b   10.16620762
_cell_length_c   6.44665141
_cell_angle_alpha   90.00000000
_cell_angle_beta   90.00000000
_cell_angle_gamma   62.25225028
_symmetry_Int_Tables_number   1
_chemical_formula_structural   Li5Mn2P2(CO7)2
_chemical_formula_sum   'Li10 Mn4 P4 C4 O28'
_cell_volume   554.09271674
_cell_formula_units_Z   2
loop_
 _symmetry_equiv_pos_site_id
 _symmetry_equiv_pos_as_xyz
  1  'x, y, z'
loop_
 _atom_site_type_symbol
 _atom_site_label
 _atom_site_symmetry_multiplicity
 _atom_site_fract_x
 _atom_site_fract_y
 _atom_site_fract_z
 _atom_site_occupancy
  Li  Li0  1  0.91031865  0.92180070  0.75000000  1
  Li  Li1  1  0.73872076  0.26376747  0.98122766  1
  Li  Li2  1  0.73872076  0.26376747  0.51877234  1
  Li  Li3  1  0.74475192  0.74586484  0.51965523  1
  Li  Li4  1  0.74475192  0.74586484  0.98034477  1
  Li  Li5  1  0.25524808  0.25413516  0.01965523  1
  Li  Li6  1  0.25524808  0.25413516  0.48034477  1
  Li  Li7  1  0.26127924  0.73623253  0.01877234  1
  Li  Li8  1  0.26127924  0.73623253  0.48122766  1
  Li  Li9  1  0.08968135  0.07819930  0.25000000  1
  Mn  Mn10  1  0.66415685  0.06181048  0.25000000  1
  Mn  Mn11  1  0.65955185  0.56171276  0.25000000  1
  Mn  Mn12  1  0.34044815  0.43828724  0.75000000  1
  Mn  Mn13  1  0.33584315  0.93818952  0.75000000  1
  P  P14  1  0.58501308  0.06556661  0.75000000  1
  P  P15  1  0.58027759  0.57370007  0.75000000  1
  P  P16  1  0.41972241  0.42629993  0.25000000  1
  P  P17  1  0.41498692  0.93443339  0.25000000  1
  C  C18  1  0.95411923  0.36929000  0.25000000  1
  C  C19  1  0.96635774  0.87356983  0.25000000  1
  C  C20  1  0.03364226  0.12643017  0.75000000  1
  C  C21  1  0.04588077  0.63071000  0.75000000  1
  O  O22  1  0.92773302  0.01452846  0.25000000  1
  O  O23  1  0.90222956  0.51142913  0.25000000  1
  O  O24  1  0.89025509  0.22734593  0.75000000  1
  O  O25  1  0.84986813  0.31973264  0.25000000  1
  O  O26  1  0.89654416  0.72526806  0.75000000  1
  O  O27  1  0.84761405  0.84089201  0.25000000  1
  O  O28  1  0.68779251  0.06881192  0.93605700  1
  O  O29  1  0.68779251  0.06881192  0.56394300  1
  O  O30  1  0.67460167  0.57905294  0.94096653  1
  O  O31  1  0.67460167  0.57905294  0.55903347  1
  O  O32  1  0.58949629  0.29319146  0.25000000  1
  O  O33  1  0.56349477  0.42711524  0.75000000  1
  O  O34  1  0.58345144  0.80215392  0.25000000  1
  O  O35  1  0.57227861  0.91817952  0.75000000  1
  O  O36  1  0.42772139  0.08182048  0.25000000  1
  O  O37  1  0.41654856  0.19784608  0.75000000  1
  O  O38  1  0.43650523  0.57288476  0.25000000  1
  O  O39  1  0.41050371  0.70680854  0.75000000  1
  O  O40  1  0.32539833  0.42094706  0.05903347  1
  O  O41  1  0.32539833  0.42094706  0.44096653  1
  O  O42  1  0.31220749  0.93118808  0.43605700  1
  O  O43  1  0.31220749  0.93118808  0.06394300  1
  O  O44  1  0.15238595  0.15910799  0.75000000  1
  O  O45  1  0.10345584  0.27473194  0.25000000  1
  O  O46  1  0.15013187  0.68026736  0.75000000  1
  O  O47  1  0.10974491  0.77265407  0.25000000  1
  O  O48  1  0.09777044  0.48857087  0.75000000  1
  O  O49  1  0.07226698  0.98547154  0.75000000  1
