# generated using pymatgen
data_Mn4CoO8
_symmetry_space_group_name_H-M   'P 1'
_cell_length_a   5.89975945
_cell_length_b   5.89975916
_cell_length_c   6.15690017
_cell_angle_alpha   87.84681879
_cell_angle_beta   59.74809709
_cell_angle_gamma   59.10624228
_symmetry_Int_Tables_number   1
_chemical_formula_structural   Mn4CoO8
_chemical_formula_sum   'Mn4 Co1 O8'
_cell_volume   151.62386348
_cell_formula_units_Z   1
loop_
 _symmetry_equiv_pos_site_id
 _symmetry_equiv_pos_as_xyz
  1  'x, y, z'
loop_
 _atom_site_type_symbol
 _atom_site_label
 _atom_site_symmetry_multiplicity
 _atom_site_fract_x
 _atom_site_fract_y
 _atom_site_fract_z
 _atom_site_occupancy
  Mn  Mn0  1  0.00000000  0.50000000  0.50000000  1
  Mn  Mn1  1  0.00000000  0.00000000  0.00000000  1
  Mn  Mn2  1  0.50000000  0.00000000  0.00000000  1
  Mn  Mn3  1  0.00000000  0.50000000  0.00000000  1
  Co  Co4  1  0.50000000  0.50000000  0.00000000  1
  O  O5  1  0.46539517  0.27364163  0.80824645  1
  O  O6  1  0.96427226  0.28582399  0.80003219  1
  O  O7  1  0.48579180  0.76430445  0.80003219  1
  O  O8  1  0.96278532  0.74889271  0.78610839  1
  O  O9  1  0.03721468  0.25110729  0.21389161  1
  O  O10  1  0.51420820  0.23569455  0.19996781  1
  O  O11  1  0.03572674  0.71417601  0.19996781  1
  O  O12  1  0.53460483  0.72635837  0.19175355  1
