# generated using pymatgen
data_CeHfO4
_symmetry_space_group_name_H-M   'P 1'
_cell_length_a   7.71319143
_cell_length_b   5.41320564
_cell_length_c   7.70280146
_cell_angle_alpha   90.00000000
_cell_angle_beta   96.47764849
_cell_angle_gamma   90.00000000
_symmetry_Int_Tables_number   1
_chemical_formula_structural   CeHfO4
_chemical_formula_sum   'Ce4 Hf4 O16'
_cell_volume   319.56255896
_cell_formula_units_Z   4
loop_
 _symmetry_equiv_pos_site_id
 _symmetry_equiv_pos_as_xyz
  1  'x, y, z'
loop_
 _atom_site_type_symbol
 _atom_site_label
 _atom_site_symmetry_multiplicity
 _atom_site_fract_x
 _atom_site_fract_y
 _atom_site_fract_z
 _atom_site_occupancy
  Ce  Ce0  1  0.35301693  0.72742374  0.61475133  1
  Ce  Ce1  1  0.35301693  0.77257626  0.11475133  1
  Ce  Ce2  1  0.64698307  0.22742374  0.88524867  1
  Ce  Ce3  1  0.64698307  0.27257626  0.38524867  1
  Hf  Hf4  1  0.15344939  0.22745743  0.81480518  1
  Hf  Hf5  1  0.15344939  0.27254257  0.31480518  1
  Hf  Hf6  1  0.84655061  0.72745743  0.68519482  1
  Hf  Hf7  1  0.84655061  0.77254257  0.18519482  1
  O  O8  1  0.08049464  0.90042314  0.68429638  1
  O  O9  1  0.08049464  0.59957686  0.18429638  1
  O  O10  1  0.17657871  0.39078615  0.57182865  1
  O  O11  1  0.17657871  0.10921385  0.07182865  1
  O  O12  1  0.33244700  0.50978591  0.88581030  1
  O  O13  1  0.39683509  0.00966820  0.83408728  1
  O  O14  1  0.33244700  0.99021409  0.38581030  1
  O  O15  1  0.39683509  0.49033180  0.33408728  1
  O  O16  1  0.60316491  0.50966820  0.66591272  1
  O  O17  1  0.66755300  0.00978591  0.61418970  1
  O  O18  1  0.60316491  0.99033180  0.16591272  1
  O  O19  1  0.66755300  0.49021409  0.11418970  1
  O  O20  1  0.82342129  0.89078615  0.92817135  1
  O  O21  1  0.82342129  0.60921385  0.42817135  1
  O  O22  1  0.91950536  0.40042314  0.81570362  1
  O  O23  1  0.91950536  0.09957686  0.31570362  1
