# generated using pymatgen
data_V2Si2O7
_symmetry_space_group_name_H-M   'P 1'
_cell_length_a   5.28860053
_cell_length_b   5.28860053
_cell_length_c   4.68882541
_cell_angle_alpha   82.94683074
_cell_angle_beta   97.05316926
_cell_angle_gamma   73.75505573
_symmetry_Int_Tables_number   1
_chemical_formula_structural   V2Si2O7
_chemical_formula_sum   'V2 Si2 O7'
_cell_volume   123.24333589
_cell_formula_units_Z   1
loop_
 _symmetry_equiv_pos_site_id
 _symmetry_equiv_pos_as_xyz
  1  'x, y, z'
loop_
 _atom_site_type_symbol
 _atom_site_label
 _atom_site_symmetry_multiplicity
 _atom_site_fract_x
 _atom_site_fract_y
 _atom_site_fract_z
 _atom_site_occupancy
  V  V0  1  0.68670599  0.68670599  0.00000000  1
  V  V1  1  0.31329401  0.31329401  0.00000000  1
  Si  Si2  1  0.22966049  0.77033951  0.40476099  1
  Si  Si3  1  0.77033951  0.22966049  0.59523901  1
  O  O4  1  0.07815908  0.60011874  0.20929042  1
  O  O5  1  0.39988126  0.92184092  0.20929042  1
  O  O6  1  0.39802623  0.60197377  0.72492559  1
  O  O7  1  0.00000000  0.00000000  0.50000000  1
  O  O8  1  0.60197377  0.39802623  0.27507441  1
  O  O9  1  0.60011874  0.07815908  0.79070958  1
  O  O10  1  0.92184092  0.39988126  0.79070958  1
