# generated using pymatgen
data_Li5Mn2P2(CO7)2
_symmetry_space_group_name_H-M   'P 1'
_cell_length_a   9.57784322
_cell_length_b   10.10127056
_cell_length_c   6.43937470
_cell_angle_alpha   90.00000000
_cell_angle_beta   90.00000000
_cell_angle_gamma   62.17437356
_symmetry_Int_Tables_number   1
_chemical_formula_structural   Li5Mn2P2(CO7)2
_chemical_formula_sum   'Li10 Mn4 P4 C4 O28'
_cell_volume   550.96314638
_cell_formula_units_Z   2
loop_
 _symmetry_equiv_pos_site_id
 _symmetry_equiv_pos_as_xyz
  1  'x, y, z'
loop_
 _atom_site_type_symbol
 _atom_site_label
 _atom_site_symmetry_multiplicity
 _atom_site_fract_x
 _atom_site_fract_y
 _atom_site_fract_z
 _atom_site_occupancy
  Li  Li0  1  0.90798734  0.42617185  0.75000000  1
  Li  Li1  1  0.73806667  0.25278392  0.97290474  1
  Li  Li2  1  0.73806667  0.25278392  0.52709526  1
  Li  Li3  1  0.74463923  0.75974874  0.51915697  1
  Li  Li4  1  0.74463923  0.75974874  0.98084303  1
  Li  Li5  1  0.26193333  0.24721608  0.02709526  1
  Li  Li6  1  0.26193333  0.24721608  0.47290474  1
  Li  Li7  1  0.25536077  0.74025126  0.01915697  1
  Li  Li8  1  0.25536077  0.74025126  0.48084303  1
  Li  Li9  1  0.09201266  0.07382815  0.25000000  1
  Mn  Mn10  1  0.66296046  0.06911077  0.25000000  1
  Mn  Mn11  1  0.66224629  0.55960591  0.25000000  1
  Mn  Mn12  1  0.33703954  0.43088923  0.75000000  1
  Mn  Mn13  1  0.33775371  0.94039409  0.75000000  1
  P  P14  1  0.58486052  0.07124576  0.75000000  1
  P  P15  1  0.58382981  0.56776814  0.75000000  1
  P  P16  1  0.41513948  0.42875424  0.25000000  1
  P  P17  1  0.41617019  0.93223186  0.25000000  1
  C  C18  1  0.96037484  0.37204066  0.25000000  1
  C  C19  1  0.95955766  0.88018822  0.25000000  1
  C  C20  1  0.03962516  0.12795934  0.75000000  1
  C  C21  1  0.04044234  0.61981178  0.75000000  1
  O  O22  1  0.92297080  0.02100181  0.25000000  1
  O  O23  1  0.92073675  0.51135325  0.25000000  1
  O  O24  1  0.89353020  0.23412425  0.75000000  1
  O  O25  1  0.84819017  0.32993064  0.25000000  1
  O  O26  1  0.89857874  0.72379687  0.75000000  1
  O  O27  1  0.83853124  0.84987037  0.25000000  1
  O  O28  1  0.67657214  0.08231229  0.94063308  1
  O  O29  1  0.67657214  0.08231229  0.55936692  1
  O  O30  1  0.68671149  0.56986379  0.93636740  1
  O  O31  1  0.68671149  0.56986379  0.56363260  1
  O  O32  1  0.58743906  0.29721457  0.25000000  1
  O  O33  1  0.56959543  0.42046693  0.75000000  1
  O  O34  1  0.58361136  0.79752483  0.25000000  1
  O  O35  1  0.57290814  0.92265747  0.75000000  1
  O  O36  1  0.43040457  0.07953307  0.25000000  1
  O  O37  1  0.41256094  0.20278543  0.75000000  1
  O  O38  1  0.42709186  0.57734253  0.25000000  1
  O  O39  1  0.41638864  0.70247517  0.75000000  1
  O  O40  1  0.32342786  0.41768771  0.05936692  1
  O  O41  1  0.32342786  0.41768771  0.44063308  1
  O  O42  1  0.31328851  0.93013621  0.43636740  1
  O  O43  1  0.31328851  0.93013621  0.06363260  1
  O  O44  1  0.15180983  0.17006936  0.75000000  1
  O  O45  1  0.10646980  0.26587575  0.25000000  1
  O  O46  1  0.16146876  0.65012963  0.75000000  1
  O  O47  1  0.10142126  0.77620313  0.25000000  1
  O  O48  1  0.07702920  0.47899819  0.75000000  1
  O  O49  1  0.07926325  0.98864675  0.75000000  1
