# generated using pymatgen
data_Ni2(SO4)3
_symmetry_space_group_name_H-M   'P 1'
_cell_length_a   7.72415846
_cell_length_b   7.72415846
_cell_length_c   8.70512505
_cell_angle_alpha   69.38766919
_cell_angle_beta   110.61233081
_cell_angle_gamma   113.30770186
_symmetry_Int_Tables_number   1
_chemical_formula_structural   Ni2(SO4)3
_chemical_formula_sum   'Ni4 S6 O24'
_cell_volume   432.56161474
_cell_formula_units_Z   2
loop_
 _symmetry_equiv_pos_site_id
 _symmetry_equiv_pos_as_xyz
  1  'x, y, z'
loop_
 _atom_site_type_symbol
 _atom_site_label
 _atom_site_symmetry_multiplicity
 _atom_site_fract_x
 _atom_site_fract_y
 _atom_site_fract_z
 _atom_site_occupancy
  Ni  Ni0  1  0.62368642  0.87564918  0.98168084  1
  Ni  Ni1  1  0.12435082  0.37631358  0.48168084  1
  Ni  Ni2  1  0.87564918  0.62368642  0.51831916  1
  Ni  Ni3  1  0.37631358  0.12435082  0.01831916  1
  S  S4  1  0.24956038  0.54162202  0.82026639  1
  S  S5  1  0.45837798  0.75043962  0.32026639  1
  S  S6  1  0.94918735  0.94918735  0.75000000  1
  S  S7  1  0.05081265  0.05081265  0.25000000  1
  S  S8  1  0.54162202  0.24956038  0.67973361  1
  S  S9  1  0.75043962  0.45837798  0.17973361  1
  O  O10  1  0.13258044  0.95970955  0.88433488  1
  O  O11  1  0.04029045  0.86741956  0.38433488  1
  O  O12  1  0.12750335  0.50353757  0.93190876  1
  O  O13  1  0.39180357  0.74030827  0.81213656  1
  O  O14  1  0.12925766  0.53692471  0.64058903  1
  O  O15  1  0.49646243  0.87249665  0.43190876  1
  O  O16  1  0.78691115  0.90759197  0.82272337  1
  O  O17  1  0.34887670  0.39345963  0.88028276  1
  O  O18  1  0.25969273  0.60819643  0.31213656  1
  O  O19  1  0.46307529  0.87074234  0.14058903  1
  O  O20  1  0.09240803  0.21308885  0.32272337  1
  O  O21  1  0.39345963  0.34887670  0.61971724  1
  O  O22  1  0.60654037  0.65112330  0.38028276  1
  O  O23  1  0.90759197  0.78691115  0.67727663  1
  O  O24  1  0.53692471  0.12925766  0.85941097  1
  O  O25  1  0.74030827  0.39180357  0.68786344  1
  O  O26  1  0.65112330  0.60654037  0.11971724  1
  O  O27  1  0.21308885  0.09240803  0.17727663  1
  O  O28  1  0.50353757  0.12750335  0.56809124  1
  O  O29  1  0.87074234  0.46307529  0.35941097  1
  O  O30  1  0.60819643  0.25969273  0.18786344  1
  O  O31  1  0.87249665  0.49646243  0.06809124  1
  O  O32  1  0.95970955  0.13258044  0.61566512  1
  O  O33  1  0.86741956  0.04029045  0.11566512  1
