# generated using pymatgen
data_Li2TiFeO4
_symmetry_space_group_name_H-M   'P 1'
_cell_length_a   4.15309106
_cell_length_b   4.14789214
_cell_length_c   8.95670207
_cell_angle_alpha   90.03943530
_cell_angle_beta   90.06259414
_cell_angle_gamma   89.92434438
_symmetry_Int_Tables_number   1
_chemical_formula_structural   Li2TiFeO4
_chemical_formula_sum   'Li4 Ti2 Fe2 O8'
_cell_volume   154.29302594
_cell_formula_units_Z   2
loop_
 _symmetry_equiv_pos_site_id
 _symmetry_equiv_pos_as_xyz
  1  'x, y, z'
loop_
 _atom_site_type_symbol
 _atom_site_label
 _atom_site_symmetry_multiplicity
 _atom_site_fract_x
 _atom_site_fract_y
 _atom_site_fract_z
 _atom_site_occupancy
  Li  Li0  1  0.50042285  0.99863087  0.24846846  1
  Li  Li1  1  0.49958809  0.00070842  0.74760088  1
  Li  Li2  1  0.99886833  0.00978870  0.01620300  1
  Li  Li3  1  0.50686045  0.49974108  0.51725147  1
  Ti  Ti4  1  0.49986432  0.54289250  0.99474508  1
  Ti  Ti5  1  0.04213458  0.00701795  0.49465872  1
  Fe  Fe6  1  -0.00104946  0.49485698  0.25252672  1
  Fe  Fe7  1  0.99721608  0.49929386  0.75187892  1
  O  O8  1  0.49893798  0.98228914  0.99729448  1
  O  O9  1  0.48212407  -0.00124387  0.49743126  1
  O  O10  1  0.49721658  0.49033043  0.21228410  1
  O  O11  1  0.99112614  0.99406027  0.27999379  1
  O  O12  1  0.49698712  0.49023395  0.77972493  1
  O  O13  1  0.99127445  0.99538569  0.71200597  1
  O  O14  1  -0.00147477  0.50172301  -0.00108390  1
  O  O15  1  -0.00009781  0.49429002  0.49901312  1
