# generated using pymatgen
data_Li3TiFe3O8
_symmetry_space_group_name_H-M   'P 1'
_cell_length_a   10.47499670
_cell_length_b   10.47499432
_cell_length_c   14.83189237
_cell_angle_alpha   19.27319007
_cell_angle_beta   19.27317311
_cell_angle_gamma   33.21957043
_symmetry_Int_Tables_number   1
_chemical_formula_structural   Li3TiFe3O8
_chemical_formula_sum   'Li3 Ti1 Fe3 O8'
_cell_volume   153.55057438
_cell_formula_units_Z   1
loop_
 _symmetry_equiv_pos_site_id
 _symmetry_equiv_pos_as_xyz
  1  'x, y, z'
loop_
 _atom_site_type_symbol
 _atom_site_label
 _atom_site_symmetry_multiplicity
 _atom_site_fract_x
 _atom_site_fract_y
 _atom_site_fract_z
 _atom_site_occupancy
  Li  Li0  1  0.99999873  0.49999864  0.50000197  1
  Li  Li1  1  0.49999860  0.99999842  0.50000222  1
  Li  Li2  1  0.50000011  0.50000007  0.50000014  1
  Ti  Ti3  1  0.00000292  0.00000319  -0.00000334  1
  Fe  Fe4  1  0.00000692  0.50000009  -0.00000398  1
  Fe  Fe5  1  0.50000327  0.00000655  -0.00000630  1
  Fe  Fe6  1  0.49999543  0.49999803  0.00000383  1
  O  O7  1  0.00000115  0.00000018  0.25831548  1
  O  O8  1  0.99999389  0.51995251  0.24730003  1
  O  O9  1  0.51995366  0.99999364  0.24730018  1
  O  O10  1  0.99999673  0.99999953  0.74168597  1
  O  O11  1  0.48004617  0.48004617  0.28721183  1
  O  O12  1  0.00000332  0.48004689  0.75270143  1
  O  O13  1  0.48004428  0.00000183  0.75270402  1
  O  O14  1  0.51995383  0.51995427  0.71278754  1
