# generated using pymatgen
data_Li5FeO4
_symmetry_space_group_name_H-M   'P 1'
_cell_length_a   5.53590497
_cell_length_b   6.82455101
_cell_length_c   11.04126443
_cell_angle_alpha   90.00000000
_cell_angle_beta   77.43748507
_cell_angle_gamma   90.00000000
_symmetry_Int_Tables_number   1
_chemical_formula_structural   Li5FeO4
_chemical_formula_sum   'Li20 Fe4 O16'
_cell_volume   407.15306886
_cell_formula_units_Z   4
loop_
 _symmetry_equiv_pos_site_id
 _symmetry_equiv_pos_as_xyz
  1  'x, y, z'
loop_
 _atom_site_type_symbol
 _atom_site_label
 _atom_site_symmetry_multiplicity
 _atom_site_fract_x
 _atom_site_fract_y
 _atom_site_fract_z
 _atom_site_occupancy
  Li  Li0  1  0.09630919  0.21505741  0.28622635  1
  Li  Li1  1  0.28308196  0.97094474  0.07802527  1
  Li  Li2  1  0.01636680  0.24744772  0.66300623  1
  Li  Li3  1  0.19744291  0.02116790  0.43682842  1
  Li  Li4  1  0.30255709  0.52116790  0.06317158  1
  Li  Li5  1  0.10596986  0.52855745  0.79794431  1
  Li  Li6  1  0.21691804  0.47094474  0.42197473  1
  Li  Li7  1  0.40369081  0.71505841  0.21377365  1
  Li  Li8  1  0.39403014  0.02855745  0.70205569  1
  Li  Li9  1  0.48363320  0.74744772  0.83699377  1
  Li  Li10  1  0.51636680  0.25255228  0.16300623  1
  Li  Li11  1  0.60596986  0.97144255  0.29794431  1
  Li  Li12  1  0.59630919  0.28494259  0.78622635  1
  Li  Li13  1  0.78308196  0.52905526  0.57802527  1
  Li  Li14  1  0.89403014  0.47144255  0.20205569  1
  Li  Li15  1  0.69744291  0.47883210  0.93682842  1
  Li  Li16  1  0.80255709  0.97883210  0.56317158  1
  Li  Li17  1  0.98363320  0.75255228  0.33699377  1
  Li  Li18  1  0.71691804  0.02905526  0.92197473  1
  Li  Li19  1  0.90369081  0.78494159  0.71377365  1
  Fe  Fe20  1  0.17042540  0.24367285  0.93935669  1
  Fe  Fe21  1  0.32957460  0.74367285  0.56064331  1
  Fe  Fe22  1  0.67042540  0.25632715  0.43935669  1
  Fe  Fe23  1  0.82957460  0.75632715  0.06064331  1
  O  O24  1  0.15615924  0.25877654  0.11393420  1
  O  O25  1  0.09530322  0.72917111  0.14575355  1
  O  O26  1  0.12862025  0.97524315  0.61504046  1
  O  O27  1  0.10823006  0.53428667  0.62015608  1
  O  O28  1  0.40469678  0.22917111  0.35424645  1
  O  O29  1  0.34384076  0.75877654  0.38606580  1
  O  O30  1  0.39176994  0.03428667  0.87984392  1
  O  O31  1  0.37137975  0.47524315  0.88495954  1
  O  O32  1  0.62862025  0.52475685  0.11504046  1
  O  O33  1  0.60823006  0.96571333  0.12015608  1
  O  O34  1  0.65615924  0.24122346  0.61393420  1
  O  O35  1  0.59530322  0.77082889  0.64575355  1
  O  O36  1  0.89176994  0.46571333  0.37984392  1
  O  O37  1  0.87137975  0.02475685  0.38495954  1
  O  O38  1  0.90469678  0.27082889  0.85424645  1
  O  O39  1  0.84384076  0.74122346  0.88606580  1
