# generated using pymatgen
data_CrSO4
_symmetry_space_group_name_H-M   'P 1'
_cell_length_a   4.83640125
_cell_length_b   4.83640125
_cell_length_c   6.96575271
_cell_angle_alpha   90.00000000
_cell_angle_beta   90.00000000
_cell_angle_gamma   67.27590011
_symmetry_Int_Tables_number   1
_chemical_formula_structural   CrSO4
_chemical_formula_sum   'Cr2 S2 O8'
_cell_volume   150.28670036
_cell_formula_units_Z   2
loop_
 _symmetry_equiv_pos_site_id
 _symmetry_equiv_pos_as_xyz
  1  'x, y, z'
loop_
 _atom_site_type_symbol
 _atom_site_label
 _atom_site_symmetry_multiplicity
 _atom_site_fract_x
 _atom_site_fract_y
 _atom_site_fract_z
 _atom_site_occupancy
  Cr  Cr0  1  0.00000000  0.00000000  0.00000000  1
  Cr  Cr1  1  0.00000000  0.00000000  0.50000000  1
  S  S2  1  0.34824133  0.34824133  0.25000000  1
  S  S3  1  0.65175867  0.65175867  0.75000000  1
  O  O4  1  0.22847261  0.68450759  0.25000000  1
  O  O5  1  0.31549241  0.77152739  0.75000000  1
  O  O6  1  0.24783404  0.24783404  0.07256458  1
  O  O7  1  0.24783404  0.24783404  0.42743542  1
  O  O8  1  0.75216596  0.75216596  0.57256458  1
  O  O9  1  0.75216596  0.75216596  0.92743542  1
  O  O10  1  0.68450759  0.22847261  0.25000000  1
  O  O11  1  0.77152739  0.31549241  0.75000000  1
