# generated using pymatgen
data_Li6MnFe3(PO4)6
_symmetry_space_group_name_H-M   'P 1'
_cell_length_a   8.53990888
_cell_length_b   8.68836139
_cell_length_c   8.51272245
_cell_angle_alpha   62.19147990
_cell_angle_beta   62.09669454
_cell_angle_gamma   61.24253175
_symmetry_Int_Tables_number   1
_chemical_formula_structural   Li6MnFe3(PO4)6
_chemical_formula_sum   'Li6 Mn1 Fe3 P6 O24'
_cell_volume   464.99168565
_cell_formula_units_Z   1
loop_
 _symmetry_equiv_pos_site_id
 _symmetry_equiv_pos_as_xyz
  1  'x, y, z'
loop_
 _atom_site_type_symbol
 _atom_site_label
 _atom_site_symmetry_multiplicity
 _atom_site_fract_x
 _atom_site_fract_y
 _atom_site_fract_z
 _atom_site_occupancy
  Li  Li0  1  0.02241945  0.01575627  0.98955510  1
  Li  Li1  1  0.75340907  0.14477608  0.35090427  1
  Li  Li2  1  0.47737764  0.50376073  0.49433633  1
  Li  Li3  1  0.24121274  0.84635580  0.65114419  1
  Li  Li4  1  0.66368033  0.25489394  0.84167249  1
  Li  Li5  1  0.83902898  0.64540929  0.24754106  1
  Mn  Mn6  1  0.85228153  0.84988869  0.85722392  1
  Fe  Fe7  1  0.14536678  0.14795972  0.13706529  1
  Fe  Fe8  1  0.35252445  0.36498341  0.35260136  1
  Fe  Fe9  1  0.64867957  0.64835348  0.64848387  1
  P  P10  1  0.04909877  0.75304569  0.45140545  1
  P  P11  1  0.45274346  0.04831439  0.74818744  1
  P  P12  1  0.74871439  0.44840692  0.05411011  1
  P  P13  1  0.24811959  0.54279856  0.95216016  1
  P  P14  1  0.54641137  0.96022975  0.24992639  1
  P  P15  1  0.95550760  0.25352800  0.53847237  1
  O  O16  1  0.12538134  0.30653467  0.48358395  1
  O  O17  1  0.30481869  0.51176416  0.11291860  1
  O  O18  1  0.04307300  0.92099562  0.27093212  1
  O  O19  1  0.53311022  0.11744311  0.29712939  1
  O  O20  1  0.24094524  0.59619539  0.42977990  1
  O  O21  1  0.01866243  0.80988060  0.61528512  1
  O  O22  1  0.26453113  0.06667681  0.90810623  1
  O  O23  1  0.45021696  0.22943044  0.58204898  1
  O  O24  1  0.59331899  0.42153010  0.24787363  1
  O  O25  1  0.19612247  0.38129117  0.98830880  1
  O  O26  1  0.08201249  0.73413206  0.93554757  1
  O  O27  1  0.37290985  0.00625656  0.20420018  1
  O  O28  1  0.61933047  0.01213131  0.80513941  1
  O  O29  1  0.90589882  0.25486368  0.06819913  1
  O  O30  1  0.80743134  0.60018072  0.03162151  1
  O  O31  1  0.40451308  0.57027341  0.75799453  1
  O  O32  1  0.56701800  0.76969075  0.40757798  1
  O  O33  1  0.73587479  0.93101324  0.08485991  1
  O  O34  1  0.97073917  0.19739112  0.38328524  1
  O  O35  1  0.76361726  0.41692913  0.56307824  1
  O  O36  1  0.48696504  0.88678210  0.69132185  1
  O  O37  1  0.94289001  0.10057822  0.73176741  1
  O  O38  1  0.68608425  0.48887589  0.89108508  1
  O  O39  1  0.88795925  0.68969804  0.49456444  1
