# generated using pymatgen
data_Li3B2SbO6
_symmetry_space_group_name_H-M   'P 1'
_cell_length_a   4.90144785
_cell_length_b   7.53956974
_cell_length_c   8.36851964
_cell_angle_alpha   64.92525660
_cell_angle_beta   94.26082158
_cell_angle_gamma   94.23411101
_symmetry_Int_Tables_number   1
_chemical_formula_structural   Li3B2SbO6
_chemical_formula_sum   'Li6 B4 Sb2 O12'
_cell_volume   279.03001351
_cell_formula_units_Z   2
loop_
 _symmetry_equiv_pos_site_id
 _symmetry_equiv_pos_as_xyz
  1  'x, y, z'
loop_
 _atom_site_type_symbol
 _atom_site_label
 _atom_site_symmetry_multiplicity
 _atom_site_fract_x
 _atom_site_fract_y
 _atom_site_fract_z
 _atom_site_occupancy
  Li  Li0  1  0.19627447  0.91882005  0.93492977  1
  Li  Li1  1  0.29601054  0.04853581  0.26432336  1
  Li  Li2  1  0.30766334  0.76185672  0.63215466  1
  Li  Li3  1  0.69233666  0.23814328  0.36784534  1
  Li  Li4  1  0.70398946  0.95146419  0.73567664  1
  Li  Li5  1  0.80372553  0.08117995  0.06507023  1
  B  B6  1  0.17612963  0.13071163  0.56614054  1
  B  B7  1  0.31565530  0.31399607  0.90107465  1
  B  B8  1  0.68434470  0.68600393  0.09892535  1
  B  B9  1  0.82387037  0.86928837  0.43385946  1
  Sb  Sb10  1  0.20851962  0.53357991  0.33147864  1
  Sb  Sb11  1  0.79148038  0.46642009  0.66852136  1
  O  O12  1  0.07534852  0.81278457  0.41411466  1
  O  O13  1  0.17826280  0.47705208  0.77219989  1
  O  O14  1  0.19060501  0.14953998  0.01392562  1
  O  O15  1  0.28928044  0.24213917  0.39340579  1
  O  O16  1  0.31469357  0.98415860  0.69427102  1
  O  O17  1  0.39252088  0.66678675  0.09883907  1
  O  O18  1  0.60747912  0.33321325  0.90116093  1
  O  O19  1  0.68530643  0.01584140  0.30572898  1
  O  O20  1  0.71071956  0.75786083  0.60659421  1
  O  O21  1  0.80939499  0.85046002  0.98607438  1
  O  O22  1  0.82173720  0.52294792  0.22780011  1
  O  O23  1  0.92465148  0.18721543  0.58588534  1
