# generated using pymatgen
data_Li2TiNi2O5
_symmetry_space_group_name_H-M   'P 1'
_cell_length_a   5.08347973
_cell_length_b   5.11219103
_cell_length_c   7.78540996
_cell_angle_alpha   83.72710236
_cell_angle_beta   70.94249433
_cell_angle_gamma   70.45389188
_symmetry_Int_Tables_number   1
_chemical_formula_structural   Li2TiNi2O5
_chemical_formula_sum   'Li4 Ti2 Ni4 O10'
_cell_volume   180.21545005
_cell_formula_units_Z   2
loop_
 _symmetry_equiv_pos_site_id
 _symmetry_equiv_pos_as_xyz
  1  'x, y, z'
loop_
 _atom_site_type_symbol
 _atom_site_label
 _atom_site_symmetry_multiplicity
 _atom_site_fract_x
 _atom_site_fract_y
 _atom_site_fract_z
 _atom_site_occupancy
  Li  Li0  1  0.20042900  0.99996436  0.59915058  1
  Li  Li1  1  0.30068207  0.50003550  0.39865072  1
  Li  Li2  1  0.79986962  0.00002420  0.40027628  1
  Li  Li3  1  0.49616761  0.50002924  0.00766606  1
  Ti  Ti4  1  0.39251105  0.00000425  0.21499652  1
  Ti  Ti5  1  0.69630235  0.49997508  0.60748231  1
  Ni  Ni6  1  0.10012787  0.49998290  0.79971217  1
  Ni  Ni7  1  0.00086942  0.99995292  0.99827289  1
  Ni  Ni8  1  0.60168252  0.99998905  0.79658149  1
  Ni  Ni9  1  0.89984213  0.50002387  0.20035988  1
  O  O10  1  0.05503809  0.24949108  0.39570472  1
  O  O11  1  0.36409575  0.74121123  0.78675997  1
  O  O12  1  0.46658720  0.26921375  0.60299138  1
  O  O13  1  0.16613109  0.76924187  0.19658840  1
  O  O14  1  0.24871269  0.24045145  0.00641821  1
  O  O15  1  0.84915706  0.25871213  0.78673823  1
  O  O16  1  0.63726325  0.23080271  0.19653708  1
  O  O17  1  0.54929905  0.75056218  0.39569483  1
  O  O18  1  0.93043687  0.73080237  0.60299340  1
  O  O19  1  0.74479531  0.75952988  0.00642788  1
