# generated using pymatgen
data_Dy2TiO5
_symmetry_space_group_name_H-M   'P 1'
_cell_length_a   7.45812197
_cell_length_b   3.63551305
_cell_length_c   15.56606465
_cell_angle_alpha   90.00000000
_cell_angle_beta   90.00000000
_cell_angle_gamma   90.00000000
_symmetry_Int_Tables_number   1
_chemical_formula_structural   Dy2TiO5
_chemical_formula_sum   'Dy8 Ti4 O20'
_cell_volume   422.05982964
_cell_formula_units_Z   4
loop_
 _symmetry_equiv_pos_site_id
 _symmetry_equiv_pos_as_xyz
  1  'x, y, z'
loop_
 _atom_site_type_symbol
 _atom_site_label
 _atom_site_symmetry_multiplicity
 _atom_site_fract_x
 _atom_site_fract_y
 _atom_site_fract_z
 _atom_site_occupancy
  Dy  Dy0  1  0.10792841  0.25000000  0.08343777  1
  Dy  Dy1  1  0.14907191  0.25000000  0.73815355  1
  Dy  Dy2  1  0.35092809  0.75000000  0.23815355  1
  Dy  Dy3  1  0.39207159  0.75000000  0.58343777  1
  Dy  Dy4  1  0.60792841  0.25000000  0.41656223  1
  Dy  Dy5  1  0.64907191  0.25000000  0.76184645  1
  Dy  Dy6  1  0.85092809  0.75000000  0.26184645  1
  Dy  Dy7  1  0.89207159  0.75000000  0.91656223  1
  Ti  Ti8  1  0.11993295  0.25000000  0.42355108  1
  Ti  Ti9  1  0.38006705  0.75000000  0.92355108  1
  Ti  Ti10  1  0.61993295  0.25000000  0.07644892  1
  Ti  Ti11  1  0.88006705  0.75000000  0.57644892  1
  O  O12  1  0.08316098  0.75000000  0.17401040  1
  O  O13  1  0.07908901  0.75000000  0.45357491  1
  O  O14  1  0.10968067  0.75000000  0.64917024  1
  O  O15  1  0.15556599  0.75000000  0.99511983  1
  O  O16  1  0.26035640  0.25000000  0.32491269  1
  O  O17  1  0.23964360  0.75000000  0.82491269  1
  O  O18  1  0.34443401  0.25000000  0.49511983  1
  O  O19  1  0.39031933  0.25000000  0.14917024  1
  O  O20  1  0.42091099  0.25000000  0.95357491  1
  O  O21  1  0.41683902  0.25000000  0.67401040  1
  O  O22  1  0.58316098  0.75000000  0.32598960  1
  O  O23  1  0.57908901  0.75000000  0.04642509  1
  O  O24  1  0.60968067  0.75000000  0.85082976  1
  O  O25  1  0.65556599  0.75000000  0.50488017  1
  O  O26  1  0.76035640  0.25000000  0.17508731  1
  O  O27  1  0.73964360  0.75000000  0.67508731  1
  O  O28  1  0.84443401  0.25000000  0.00488017  1
  O  O29  1  0.89031933  0.25000000  0.35082976  1
  O  O30  1  0.92091099  0.25000000  0.54642509  1
  O  O31  1  0.91683902  0.25000000  0.82598960  1
