# generated using pymatgen
data_LiFeB2O5
_symmetry_space_group_name_H-M   'P 1'
_cell_length_a   6.95362328
_cell_length_b   9.59086187
_cell_length_c   5.71753560
_cell_angle_alpha   90.00000000
_cell_angle_beta   74.05682271
_cell_angle_gamma   90.00000000
_symmetry_Int_Tables_number   1
_chemical_formula_structural   LiFeB2O5
_chemical_formula_sum   'Li4 Fe4 B8 O20'
_cell_volume   366.64231151
_cell_formula_units_Z   4
loop_
 _symmetry_equiv_pos_site_id
 _symmetry_equiv_pos_as_xyz
  1  'x, y, z'
loop_
 _atom_site_type_symbol
 _atom_site_label
 _atom_site_symmetry_multiplicity
 _atom_site_fract_x
 _atom_site_fract_y
 _atom_site_fract_z
 _atom_site_occupancy
  Li  Li0  1  0.21794783  0.42544743  0.31335171  1
  Li  Li1  1  0.21794783  0.07455257  0.81335171  1
  Li  Li2  1  0.78205217  0.92544743  0.18664829  1
  Li  Li3  1  0.78205217  0.57455257  0.68664829  1
  Fe  Fe4  1  0.24609673  0.82897062  0.21664182  1
  Fe  Fe5  1  0.24609673  0.67102938  0.71664182  1
  Fe  Fe6  1  0.75390327  0.32897062  0.28335818  1
  Fe  Fe7  1  0.75390327  0.17102938  0.78335818  1
  B  B8  1  0.08516973  0.11818338  0.32926419  1
  B  B9  1  0.08516973  0.38181662  0.82926419  1
  B  B10  1  0.45179639  0.09310603  0.25573121  1
  B  B11  1  0.54820361  0.59310603  0.24426879  1
  B  B12  1  0.45179639  0.40689397  0.75573121  1
  B  B13  1  0.54820361  0.90689397  0.74426879  1
  B  B14  1  0.91483027  0.61818338  0.17073581  1
  B  B15  1  0.91483027  0.88181662  0.67073581  1
  O  O16  1  0.07350940  0.70483883  0.07015148  1
  O  O17  1  0.06805311  0.99651118  0.21364431  1
  O  O18  1  0.07350940  0.79516117  0.57015148  1
  O  O19  1  0.06805311  0.50348882  0.71364431  1
  O  O20  1  0.27163058  0.16859190  0.34657658  1
  O  O21  1  0.37658447  0.66788418  0.34184509  1
  O  O22  1  0.27163058  0.33140810  0.84657658  1
  O  O23  1  0.46144234  0.95178925  0.26181302  1
  O  O24  1  0.37658447  0.83211582  0.84184509  1
  O  O25  1  0.53855766  0.45178925  0.23818698  1
  O  O26  1  0.46144234  0.54821075  0.76181302  1
  O  O27  1  0.62341553  0.16788418  0.15815491  1
  O  O28  1  0.53855766  0.04821075  0.73818698  1
  O  O29  1  0.72836942  0.66859190  0.15342342  1
  O  O30  1  0.62341553  0.33211582  0.65815491  1
  O  O31  1  0.72836942  0.83140810  0.65342342  1
  O  O32  1  0.93194689  0.49651118  0.28635569  1
  O  O33  1  0.92649060  0.20483883  0.42984852  1
  O  O34  1  0.93194689  0.00348882  0.78635569  1
  O  O35  1  0.92649060  0.29516117  0.92984852  1
