# generated using pymatgen
data_Li4Co7O16
_symmetry_space_group_name_H-M   'P 1'
_cell_length_a   8.04508663
_cell_length_b   8.09718460
_cell_length_c   8.10579498
_cell_angle_alpha   90.00534296
_cell_angle_beta   89.99068790
_cell_angle_gamma   89.63792495
_symmetry_Int_Tables_number   1
_chemical_formula_structural   Li4Co7O16
_chemical_formula_sum   'Li8 Co14 O32'
_cell_volume   528.02161456
_cell_formula_units_Z   2
loop_
 _symmetry_equiv_pos_site_id
 _symmetry_equiv_pos_as_xyz
  1  'x, y, z'
loop_
 _atom_site_type_symbol
 _atom_site_label
 _atom_site_symmetry_multiplicity
 _atom_site_fract_x
 _atom_site_fract_y
 _atom_site_fract_z
 _atom_site_occupancy
  Li  Li0  1  0.99514087  0.49895991  0.50187866  1
  Li  Li1  1  0.24913684  0.74923981  0.74800061  1
  Li  Li2  1  0.25095462  0.25079485  0.24811636  1
  Li  Li3  1  0.50408470  0.50071641  0.00182853  1
  Li  Li4  1  0.62862601  0.62362506  0.62736982  1
  Li  Li5  1  0.75294518  0.74479987  0.25192505  1
  Li  Li6  1  0.74721614  0.25513964  0.75232418  1
  Li  Li7  1  0.87145118  0.37636197  0.12717641  1
  Co  Co8  1  0.12659231  0.62482916  0.12326561  1
  Co  Co9  1  0.12221948  0.38025082  0.87305656  1
  Co  Co10  1  0.12017343  0.12348029  0.62095152  1
  Co  Co11  1  0.37980612  0.87658698  0.12126836  1
  Co  Co12  1  0.37778078  0.62007296  0.37328946  1
  Co  Co13  1  0.37340200  0.37527873  0.62303171  1
  Co  Co14  1  0.49493480  0.99251376  0.50064698  1
  Co  Co15  1  0.62216751  0.87933720  0.88191417  1
  Co  Co16  1  0.62213656  0.11717272  0.12534432  1
  Co  Co17  1  0.62192099  0.36785262  0.36974476  1
  Co  Co18  1  0.87808193  0.63224186  0.86984464  1
  Co  Co19  1  0.87791449  0.88273672  0.62530680  1
  Co  Co20  1  0.87784175  0.12047016  0.38165279  1
  Co  Co21  1  0.00561035  0.00738265  0.00033349  1
  O  O22  1  0.10051642  0.90425564  0.63753503  1
  O  O23  1  0.09812894  0.13625525  0.40041582  1
  O  O24  1  0.11359218  0.61400449  0.88691404  1
  O  O25  1  0.13686685  0.39895628  0.09617982  1
  O  O26  1  0.11209731  0.14482760  0.85932030  1
  O  O27  1  0.13790678  0.35746058  0.63876855  1
  O  O28  1  0.14452482  0.85909527  0.10940015  1
  O  O29  1  0.14862751  0.61352386  0.34344831  1
  O  O30  1  0.35130597  0.38655588  0.84310736  1
  O  O31  1  0.35538930  0.14111429  0.60888428  1
  O  O32  1  0.36198435  0.64269475  0.13914384  1
  O  O33  1  0.38786154  0.85551749  0.35959572  1
  O  O34  1  0.36364628  0.60128606  0.59641323  1
  O  O35  1  0.38643931  0.38637066  0.38678957  1
  O  O36  1  0.40192445  0.86315600  0.90075318  1
  O  O37  1  0.39946723  0.09576982  0.13752617  1
  O  O38  1  0.60081815  0.59882405  0.36938505  1
  O  O39  1  0.59547204  0.37011126  0.60425153  1
  O  O40  1  0.61441713  0.88366589  0.11315351  1
  O  O41  1  0.63433192  0.10234089  0.90607211  1
  O  O42  1  0.61687949  0.34793434  0.14636162  1
  O  O43  1  0.63711559  0.12938268  0.36396977  1
  O  O44  1  0.65416266  0.64840048  0.87997238  1
  O  O45  1  0.63618455  0.88252663  0.64590952  1
  O  O46  1  0.86378555  0.11718353  0.14568260  1
  O  O47  1  0.84591839  0.35140907  0.37959231  1
  O  O48  1  0.86287328  0.87075351  0.86392300  1
  O  O49  1  0.88291378  0.65197356  0.64643593  1
  O  O50  1  0.86541278  0.89746572  0.40602567  1
  O  O51  1  0.88556524  0.11625818  0.61295011  1
  O  O52  1  0.90455129  0.62977314  0.10430242  1
  O  O53  1  0.89918387  0.40135101  0.86958632  1
