# generated using pymatgen
data_HC3
_symmetry_space_group_name_H-M   'P 1'
_cell_length_a   2.46728589
_cell_length_b   3.85537247
_cell_length_c   8.19500105
_cell_angle_alpha   89.81114383
_cell_angle_beta   90.29945379
_cell_angle_gamma   89.96385012
_symmetry_Int_Tables_number   1
_chemical_formula_structural   HC3
_chemical_formula_sum   'H2 C6'
_cell_volume   77.95185411
_cell_formula_units_Z   2
loop_
 _symmetry_equiv_pos_site_id
 _symmetry_equiv_pos_as_xyz
  1  'x, y, z'
loop_
 _atom_site_type_symbol
 _atom_site_label
 _atom_site_symmetry_multiplicity
 _atom_site_fract_x
 _atom_site_fract_y
 _atom_site_fract_z
 _atom_site_occupancy
  H  H0  1  0.57161002  0.24176906  0.08335260  1
  H  H1  1  0.08836780  0.78163330  0.91659866  1
  C  C2  1  0.57738457  0.32362979  0.21053799  1
  C  C3  1  0.08583384  0.69969624  0.78940521  1
  C  C4  1  0.07910509  0.37505206  0.28983087  1
  C  C5  1  0.08369048  0.48483669  0.45881809  1
  C  C6  1  0.58487406  0.53861973  0.54110064  1
  C  C7  1  0.58490514  0.64835212  0.71010593  1
