# generated using pymatgen
data_FeCo9O20
_symmetry_space_group_name_H-M   'P 1'
_cell_length_a   7.52758246
_cell_length_b   4.92288804
_cell_length_c   9.79259128
_cell_angle_alpha   85.71569187
_cell_angle_beta   80.39040811
_cell_angle_gamma   71.14885988
_symmetry_Int_Tables_number   1
_chemical_formula_structural   FeCo9O20
_chemical_formula_sum   'Fe1 Co9 O20'
_cell_volume   338.52077336
_cell_formula_units_Z   1
loop_
 _symmetry_equiv_pos_site_id
 _symmetry_equiv_pos_as_xyz
  1  'x, y, z'
loop_
 _atom_site_type_symbol
 _atom_site_label
 _atom_site_symmetry_multiplicity
 _atom_site_fract_x
 _atom_site_fract_y
 _atom_site_fract_z
 _atom_site_occupancy
  Fe  Fe0  1  0.15000000  0.05000000  0.25000000  1
  Co  Co1  1  0.94555348  0.65145940  0.24829695  1
  Co  Co2  1  0.85005836  0.94987784  0.74998549  1
  Co  Co3  1  0.74811798  0.25249665  0.24857340  1
  Co  Co4  1  0.65000000  0.55000000  0.75000000  1
  Co  Co5  1  0.44994164  0.15012216  0.75001451  1
  Co  Co6  1  0.55188202  0.84750335  0.25142660  1
  Co  Co7  1  0.35444652  0.44854060  0.25170305  1
  Co  Co8  1  0.25002635  0.75008696  0.74984134  1
  Co  Co9  1  0.04997365  0.34991304  0.75015866  1
  O  O10  1  0.95591576  0.34045529  0.14740510  1
  O  O11  1  0.87035765  0.62029130  0.65376245  1
  O  O12  1  0.82975313  0.27907366  0.84629160  1
  O  O13  1  0.92215717  0.97907009  0.34788749  1
  O  O14  1  0.67029872  0.22062695  0.65372619  1
  O  O15  1  0.72922401  0.58048551  0.34676366  1
  O  O16  1  0.76828106  0.92160300  0.15254851  1
  O  O17  1  0.62970128  0.87937305  0.84627381  1
  O  O18  1  0.53171894  0.17839700  0.34745149  1
  O  O19  1  0.47024687  0.82092634  0.65370840  1
  O  O20  1  0.57077599  0.51951449  0.15323634  1
  O  O21  1  0.42964235  0.47970870  0.84623755  1
  O  O22  1  0.37784283  0.12092991  0.15211251  1
  O  O23  1  0.27007020  0.42048972  0.65365590  1
  O  O24  1  0.22969902  0.07945141  0.84647306  1
  O  O25  1  0.34408424  0.75954471  0.35259490  1
  O  O26  1  0.07030098  0.02054859  0.65352694  1
  O  O27  1  0.17220037  0.71715918  0.15255862  1
  O  O28  1  0.02992980  0.67951028  0.84634410  1
  O  O29  1  0.12779963  0.38284082  0.34744138  1
