# generated using pymatgen
data_Li3CrFe3O8
_symmetry_space_group_name_H-M   'P 1'
_cell_length_a   10.44630521
_cell_length_b   10.44024015
_cell_length_c   14.78315152
_cell_angle_alpha   19.26417489
_cell_angle_beta   19.26169598
_cell_angle_gamma   33.23163912
_symmetry_Int_Tables_number   1
_chemical_formula_structural   Li3CrFe3O8
_chemical_formula_sum   'Li3 Cr1 Fe3 O8'
_cell_volume   151.70090836
_cell_formula_units_Z   1
loop_
 _symmetry_equiv_pos_site_id
 _symmetry_equiv_pos_as_xyz
  1  'x, y, z'
loop_
 _atom_site_type_symbol
 _atom_site_label
 _atom_site_symmetry_multiplicity
 _atom_site_fract_x
 _atom_site_fract_y
 _atom_site_fract_z
 _atom_site_occupancy
  Li  Li0  1  0.99994605  0.50000278  0.50003683  1
  Li  Li1  1  0.49998860  0.00003808  0.49997541  1
  Li  Li2  1  0.49994884  0.50003933  0.50000757  1
  Cr  Cr3  1  0.00012105  -0.00009090  -0.00000774  1
  Fe  Fe4  1  0.00006080  0.50010110  -0.00011697  1
  Fe  Fe5  1  0.49992202  -0.00004889  0.00009245  1
  Fe  Fe6  1  0.50004901  0.49994289  0.00000169  1
  O  O7  1  0.00107507  0.00052357  0.25789869  1
  O  O8  1  0.99964139  0.52415928  0.24513443  1
  O  O9  1  0.52361606  0.99941726  0.24558120  1
  O  O10  1  0.99886175  0.99952576  0.74210835  1
  O  O11  1  0.47324293  0.47297503  0.29745548  1
  O  O12  1  0.00036172  0.47581915  0.75486055  1
  O  O13  1  0.47641138  0.00057902  0.75441836  1
  O  O14  1  0.52675331  0.52701655  0.70255268  1
