# generated using pymatgen
data_NaLi2MnPCO7
_symmetry_space_group_name_H-M   'P 1'
_cell_length_a   8.74180173
_cell_length_b   6.64771340
_cell_length_c   5.03820482
_cell_angle_alpha   90.27588021
_cell_angle_beta   88.71848588
_cell_angle_gamma   89.25673263
_symmetry_Int_Tables_number   1
_chemical_formula_structural   NaLi2MnPCO7
_chemical_formula_sum   'Na2 Li4 Mn2 P2 C2 O14'
_cell_volume   292.68348083
_cell_formula_units_Z   2
loop_
 _symmetry_equiv_pos_site_id
 _symmetry_equiv_pos_as_xyz
  1  'x, y, z'
loop_
 _atom_site_type_symbol
 _atom_site_label
 _atom_site_symmetry_multiplicity
 _atom_site_fract_x
 _atom_site_fract_y
 _atom_site_fract_z
 _atom_site_occupancy
  Na  Na0  1  0.08501070  0.24730518  0.75493503  1
  Na  Na1  1  0.74854734  0.50105241  0.75265053  1
  Li  Li2  1  0.26722846  0.02045101  0.22911347  1
  Li  Li3  1  0.26630830  0.48010234  0.22847556  1
  Li  Li4  1  0.73172783  0.98020582  0.77104616  1
  Li  Li5  1  0.91707403  0.76375056  0.25366082  1
  Mn  Mn6  1  0.35660786  0.74844256  0.77712533  1
  Mn  Mn7  1  0.64272289  0.24479491  0.22610615  1
  P  P8  1  0.41072288  0.24400135  0.70844580  1
  P  P9  1  0.59005171  0.75372842  0.29997166  1
  C  C10  1  0.04471843  0.75880807  0.72735875  1
  C  C11  1  0.95085712  0.24726880  0.26406925  1
  O  O12  1  0.09960425  0.25004699  0.27737935  1
  O  O13  1  0.08594674  0.75203444  0.97323173  1
  O  O14  1  0.14688459  0.74634375  0.53525310  1
  O  O15  1  0.31567101  0.06348404  0.81122876  1
  O  O16  1  0.32544938  0.43383501  0.81999732  1
  O  O17  1  0.41192588  0.24772998  0.39657942  1
  O  O18  1  0.42268608  0.75260586  0.19909732  1
  O  O19  1  0.57907760  0.23270053  0.79877480  1
  O  O20  1  0.58059450  0.77258972  0.60899313  1
  O  O21  1  0.68280629  0.56082070  0.22130251  1
  O  O22  1  0.68652457  0.92914202  0.18330337  1
  O  O23  1  0.86577228  0.24226222  0.47885406  1
  O  O24  1  0.88448877  0.24905233  0.03635681  1
  O  O25  1  0.90099051  0.77744096  0.66668880  1
