# generated using pymatgen
data_Na3CoBAsO7
_symmetry_space_group_name_H-M   'P 1'
_cell_length_a   8.95684473
_cell_length_b   7.03442398
_cell_length_c   5.21576208
_cell_angle_alpha   90.00000000
_cell_angle_beta   88.16886621
_cell_angle_gamma   90.00000000
_symmetry_Int_Tables_number   1
_chemical_formula_structural   Na3CoBAsO7
_chemical_formula_sum   'Na6 Co2 B2 As2 O14'
_cell_volume   328.45776039
_cell_formula_units_Z   2
loop_
 _symmetry_equiv_pos_site_id
 _symmetry_equiv_pos_as_xyz
  1  'x, y, z'
loop_
 _atom_site_type_symbol
 _atom_site_label
 _atom_site_symmetry_multiplicity
 _atom_site_fract_x
 _atom_site_fract_y
 _atom_site_fract_z
 _atom_site_occupancy
  Na  Na0  1  0.07822123  0.25000000  0.76375903  1
  Na  Na1  1  0.25348590  0.00350962  0.25130153  1
  Na  Na2  1  0.25348590  0.49649038  0.25130153  1
  Na  Na3  1  0.74651410  0.50350962  0.74869847  1
  Na  Na4  1  0.74651410  0.99649038  0.74869847  1
  Na  Na5  1  0.92177877  0.75000000  0.23624097  1
  Co  Co6  1  0.32940370  0.75000000  0.78570166  1
  Co  Co7  1  0.67059630  0.25000000  0.21429834  1
  B  B8  1  0.06531256  0.75000000  0.72753029  1
  B  B9  1  0.93468744  0.25000000  0.27246971  1
  As  As10  1  0.42056280  0.25000000  0.71398192  1
  As  As11  1  0.57943720  0.75000000  0.28601808  1
  O  O12  1  0.08275721  0.25000000  0.29835592  1
  O  O13  1  0.13662762  0.75000000  0.96278811  1
  O  O14  1  0.17447816  0.75000000  0.52871969  1
  O  O15  1  0.30663605  0.05789885  0.78045958  1
  O  O16  1  0.30663605  0.44210115  0.78045958  1
  O  O17  1  0.46885913  0.25000000  0.38739832  1
  O  O18  1  0.41377149  0.75000000  0.12708306  1
  O  O19  1  0.58622851  0.25000000  0.87291694  1
  O  O20  1  0.53114087  0.75000000  0.61260168  1
  O  O21  1  0.69336395  0.55789885  0.21954042  1
  O  O22  1  0.69336395  0.94210115  0.21954042  1
  O  O23  1  0.82552184  0.25000000  0.47128031  1
  O  O24  1  0.86337238  0.25000000  0.03721189  1
  O  O25  1  0.91724279  0.75000000  0.70164408  1
