# generated using pymatgen
data_LiLa6Mn3O14
_symmetry_space_group_name_H-M   'P 1'
_cell_length_a   5.60092924
_cell_length_b   5.59662340
_cell_length_c   20.55081390
_cell_angle_alpha   89.81100563
_cell_angle_beta   90.00043853
_cell_angle_gamma   90.00025396
_symmetry_Int_Tables_number   1
_chemical_formula_structural   LiLa6Mn3O14
_chemical_formula_sum   'Li2 La12 Mn6 O28'
_cell_volume   644.18830169
_cell_formula_units_Z   2
loop_
 _symmetry_equiv_pos_site_id
 _symmetry_equiv_pos_as_xyz
  1  'x, y, z'
loop_
 _atom_site_type_symbol
 _atom_site_label
 _atom_site_symmetry_multiplicity
 _atom_site_fract_x
 _atom_site_fract_y
 _atom_site_fract_z
 _atom_site_occupancy
  Li  Li0  1  0.74440955  0.74415930  0.40581309  1
  Li  Li1  1  0.75558086  0.24417051  0.90583447  1
  La  La2  1  0.22777067  0.76021652  0.32060783  1
  La  La3  1  0.23615217  0.76111994  0.68229927  1
  La  La4  1  0.26822764  0.75800839  0.49488128  1
  La  La5  1  0.23179188  0.25803008  0.99489160  1
  La  La6  1  0.26389090  0.26116101  0.18230167  1
  La  La7  1  0.27226088  0.26024515  0.82061413  1
  La  La8  1  0.73737624  0.73492758  0.18258409  1
  La  La9  1  0.74026573  0.72880546  0.82083331  1
  La  La10  1  0.74117201  0.76751317  0.99497760  1
  La  La11  1  0.75881345  0.26752672  0.49495933  1
  La  La12  1  0.75974146  0.22885159  0.32081772  1
  La  La13  1  0.76261105  0.23490476  0.68258650  1
  Mn  Mn14  1  0.24501871  0.75394177  0.09784817  1
  Mn  Mn15  1  0.24534908  0.75433218  0.90305399  1
  Mn  Mn16  1  0.25466210  0.25430578  0.40303727  1
  Mn  Mn17  1  0.25498260  0.25388917  0.59783550  1
  Mn  Mn18  1  0.74862856  0.74756390  0.59614442  1
  Mn  Mn19  1  0.75136924  0.24760291  0.09616977  1
  O  O20  1  0.00295466  0.99704291  0.12094260  1
  O  O21  1  0.00198318  0.50080708  0.09919094  1
  O  O22  1  0.01138480  0.00987071  0.41745524  1
  O  O23  1  0.00693303  0.49312714  0.40254918  1
  O  O24  1  0.00564559  0.00376985  0.57959017  1
  O  O25  1  0.00211589  0.49703939  0.59913370  1
  O  O26  1  0.00986697  0.99131396  0.88266849  1
  O  O27  1  0.00677837  0.50642450  0.90269069  1
  O  O28  1  0.19633700  0.80297640  0.00343219  1
  O  O29  1  0.20055741  0.19970972  0.29256736  1
  O  O30  1  0.20467575  0.20194169  0.70305484  1
  O  O31  1  0.29532781  0.70193964  0.20301969  1
  O  O32  1  0.29946274  0.69968864  0.79264476  1
  O  O33  1  0.30370535  0.30293852  0.50341981  1
  O  O34  1  0.49788564  0.99714120  0.09915251  1
  O  O35  1  0.49439714  0.50385393  0.07959378  1
  O  O36  1  0.49016926  0.49132785  0.38261190  1
  O  O37  1  0.49324733  0.00640037  0.40262450  1
  O  O38  1  0.49801708  0.00081909  0.59919275  1
  O  O39  1  0.49703653  0.49702774  0.62095502  1
  O  O40  1  0.49305606  0.99311879  0.90260379  1
  O  O41  1  0.48860098  0.50989584  0.91750500  1
  O  O42  1  0.68414341  0.68297955  0.50040503  1
  O  O43  1  0.69672429  0.29931720  0.20648560  1
  O  O44  1  0.69439697  0.30308309  0.79074548  1
  O  O45  1  0.80556994  0.80309651  0.29068272  1
  O  O46  1  0.80329244  0.79927000  0.70654348  1
  O  O47  1  0.81584058  0.18298182  0.00044678  1
