# generated using pymatgen
data_Li4Fe3NiO8
_symmetry_space_group_name_H-M   'P 1'
_cell_length_a   5.54519296
_cell_length_b   6.49334081
_cell_length_c   5.11107325
_cell_angle_alpha   89.95394934
_cell_angle_beta   90.13192056
_cell_angle_gamma   90.07568119
_symmetry_Int_Tables_number   1
_chemical_formula_structural   Li4Fe3NiO8
_chemical_formula_sum   'Li4 Fe3 Ni1 O8'
_cell_volume   184.03282654
_cell_formula_units_Z   1
loop_
 _symmetry_equiv_pos_site_id
 _symmetry_equiv_pos_as_xyz
  1  'x, y, z'
loop_
 _atom_site_type_symbol
 _atom_site_label
 _atom_site_symmetry_multiplicity
 _atom_site_fract_x
 _atom_site_fract_y
 _atom_site_fract_z
 _atom_site_occupancy
  Li  Li0  1  0.08184559  0.62529932  0.99304769  1
  Li  Li1  1  0.41877162  0.12304272  0.49796246  1
  Li  Li2  1  0.58443351  0.87594856  0.99341190  1
  Li  Li3  1  0.91591105  0.37553837  0.49769712  1
  Fe  Fe4  1  0.08227503  0.12283280  0.00079924  1
  Fe  Fe5  1  0.41585395  0.62971806  0.49777521  1
  Fe  Fe6  1  0.58272407  0.37427149  0.99812601  1
  Ni  Ni7  1  0.91592527  0.87247662  0.49979021  1
  O  O8  1  0.06863064  0.10880233  0.37016512  1
  O  O9  1  0.08980020  0.64162384  0.39196579  1
  O  O10  1  0.41147313  0.13292031  0.89095292  1
  O  O11  1  0.42628290  0.61706423  0.87381150  1
  O  O12  1  0.56935127  0.38544615  0.37366285  1
  O  O13  1  0.59602095  0.86322649  0.39211175  1
  O  O14  1  0.91210921  0.36514385  0.89154329  1
  O  O15  1  0.92859059  0.88664486  0.86357794  1
