# generated using pymatgen
data_Li2Ti3MnO8
_symmetry_space_group_name_H-M   'P 1'
_cell_length_a   6.13823972
_cell_length_b   6.13824030
_cell_length_c   6.13824082
_cell_angle_alpha   58.34841993
_cell_angle_beta   58.34842354
_cell_angle_gamma   58.34842059
_symmetry_Int_Tables_number   1
_chemical_formula_structural   Li2Ti3MnO8
_chemical_formula_sum   'Li2 Ti3 Mn1 O8'
_cell_volume   157.35336461
_cell_formula_units_Z   1
loop_
 _symmetry_equiv_pos_site_id
 _symmetry_equiv_pos_as_xyz
  1  'x, y, z'
loop_
 _atom_site_type_symbol
 _atom_site_label
 _atom_site_symmetry_multiplicity
 _atom_site_fract_x
 _atom_site_fract_y
 _atom_site_fract_z
 _atom_site_occupancy
  Li  Li0  1  0.11975069  0.11975069  0.11975069  1
  Li  Li1  1  0.88024931  0.88024931  0.88024931  1
  Ti  Ti2  1  0.00000000  0.50000000  0.50000000  1
  Ti  Ti3  1  0.50000000  0.00000000  0.50000000  1
  Ti  Ti4  1  0.50000000  0.50000000  0.00000000  1
  Mn  Mn5  1  0.50000000  0.50000000  0.50000000  1
  O  O6  1  0.26263675  0.26263675  0.26263675  1
  O  O7  1  0.24957059  0.24957059  0.70961889  1
  O  O8  1  0.24957059  0.70961889  0.24957059  1
  O  O9  1  0.70961889  0.24957059  0.24957059  1
  O  O10  1  0.29038111  0.75042941  0.75042941  1
  O  O11  1  0.75042941  0.29038111  0.75042941  1
  O  O12  1  0.75042941  0.75042941  0.29038111  1
  O  O13  1  0.73736325  0.73736325  0.73736325  1
