# generated using pymatgen
data_Sr2LaCl7
_symmetry_space_group_name_H-M   'P 1'
_cell_length_a   6.90341674
_cell_length_b   15.48724423
_cell_length_c   10.42071074
_cell_angle_alpha   90.00000000
_cell_angle_beta   90.91360980
_cell_angle_gamma   90.00000000
_symmetry_Int_Tables_number   1
_chemical_formula_structural   Sr2LaCl7
_chemical_formula_sum   'Sr8 La4 Cl28'
_cell_volume   1113.98762158
_cell_formula_units_Z   4
loop_
 _symmetry_equiv_pos_site_id
 _symmetry_equiv_pos_as_xyz
  1  'x, y, z'
loop_
 _atom_site_type_symbol
 _atom_site_label
 _atom_site_symmetry_multiplicity
 _atom_site_fract_x
 _atom_site_fract_y
 _atom_site_fract_z
 _atom_site_occupancy
  Sr  Sr0  1  0.27606631  0.56263189  0.67566889  1
  Sr  Sr1  1  0.27822711  0.22124399  0.55266389  1
  Sr  Sr2  1  0.27606631  0.93736811  0.17566889  1
  Sr  Sr3  1  0.27822711  0.27875601  0.05266389  1
  Sr  Sr4  1  0.72177289  0.72124399  0.94733611  1
  Sr  Sr5  1  0.72393369  0.06263189  0.82433111  1
  Sr  Sr6  1  0.72177289  0.77875601  0.44733611  1
  Sr  Sr7  1  0.72393369  0.43736811  0.32433111  1
  La  La8  1  0.21825522  0.87312899  0.71724134  1
  La  La9  1  0.21825522  0.62687101  0.21724134  1
  La  La10  1  0.78174478  0.37312899  0.78275866  1
  La  La11  1  0.78174478  0.12687101  0.28275866  1
  Cl  Cl12  1  0.00637528  0.21923639  0.79180153  1
  Cl  Cl13  1  0.00579479  0.39770627  0.56100333  1
  Cl  Cl14  1  0.00637528  0.28076361  0.29180153  1
  Cl  Cl15  1  0.00579479  0.10229373  0.06100333  1
  Cl  Cl16  1  0.15566064  0.42819434  0.87682083  1
  Cl  Cl17  1  0.15566064  0.07180566  0.37682083  1
  Cl  Cl18  1  0.29742324  0.64481872  0.95402545  1
  Cl  Cl19  1  0.29742324  0.85518128  0.45402545  1
  Cl  Cl20  1  0.31357696  0.04764341  0.70892314  1
  Cl  Cl21  1  0.31357696  0.45235659  0.20892314  1
  Cl  Cl22  1  0.50018700  0.89682734  0.92578927  1
  Cl  Cl23  1  0.50276631  0.73904985  0.69146474  1
  Cl  Cl24  1  0.50018700  0.60317266  0.42578927  1
  Cl  Cl25  1  0.50276631  0.76095015  0.19146474  1
  Cl  Cl26  1  0.49723369  0.23904985  0.80853526  1
  Cl  Cl27  1  0.49981300  0.39682634  0.57421073  1
  Cl  Cl28  1  0.49723369  0.26095015  0.30853526  1
  Cl  Cl29  1  0.49981300  0.10317366  0.07421073  1
  Cl  Cl30  1  0.68642304  0.54764341  0.79107686  1
  Cl  Cl31  1  0.68642304  0.95235659  0.29107686  1
  Cl  Cl32  1  0.70257676  0.14481872  0.54597455  1
  Cl  Cl33  1  0.70257676  0.35518128  0.04597455  1
  Cl  Cl34  1  0.84433936  0.92819434  0.62317917  1
  Cl  Cl35  1  0.84433936  0.57180566  0.12317917  1
  Cl  Cl36  1  0.99420521  0.89770627  0.93899667  1
  Cl  Cl37  1  0.99362472  0.71923639  0.70819847  1
  Cl  Cl38  1  0.99420521  0.60229373  0.43899667  1
  Cl  Cl39  1  0.99362472  0.78076361  0.20819847  1
