# generated using pymatgen
data_V4SnO12
_symmetry_space_group_name_H-M   'P 1'
_cell_length_a   6.92478620
_cell_length_b   6.92478622
_cell_length_c   5.98518663
_cell_angle_alpha   74.50036112
_cell_angle_beta   105.49964030
_cell_angle_gamma   96.99470073
_symmetry_Int_Tables_number   1
_chemical_formula_structural   V4SnO12
_chemical_formula_sum   'V4 Sn1 O12'
_cell_volume   266.11738970
_cell_formula_units_Z   1
loop_
 _symmetry_equiv_pos_site_id
 _symmetry_equiv_pos_as_xyz
  1  'x, y, z'
loop_
 _atom_site_type_symbol
 _atom_site_label
 _atom_site_symmetry_multiplicity
 _atom_site_fract_x
 _atom_site_fract_y
 _atom_site_fract_z
 _atom_site_occupancy
  V  V0  1  0.20481522  0.61306855  0.76109351  1
  V  V1  1  0.39083652  0.78772912  0.27412563  1
  V  V2  1  0.61306855  0.20481522  0.73890649  1
  V  V3  1  0.78772912  0.39083652  0.22587437  1
  Sn  Sn4  1  0.91786568  0.91786568  0.25000000  1
  O  O5  1  0.02661497  0.78894786  0.60575749  1
  O  O6  1  0.09007757  0.39272169  0.80442022  1
  O  O7  1  0.20868080  0.95640469  0.19488813  1
  O  O8  1  0.35930431  0.62863500  0.55087634  1
  O  O9  1  0.39272169  0.09007757  0.69557978  1
  O  O10  1  0.35012542  0.65072894  0.05434952  1
  O  O11  1  0.62863500  0.35930431  0.94912366  1
  O  O12  1  0.62836195  0.90317572  0.30780260  1
  O  O13  1  0.65072894  0.35012542  0.44565048  1
  O  O14  1  0.78894786  0.02661497  0.89424251  1
  O  O15  1  0.90317572  0.62836195  0.19219740  1
  O  O16  1  0.95640469  0.20868080  0.30511187  1
