# generated using pymatgen
data_SiH6CI3N
_symmetry_space_group_name_H-M   'P 1'
_cell_length_a   8.59336923
_cell_length_b   8.58244408
_cell_length_c   12.95676868
_cell_angle_alpha   91.09395837
_cell_angle_beta   90.03011832
_cell_angle_gamma   88.83690136
_symmetry_Int_Tables_number   1
_chemical_formula_structural   SiH6CI3N
_chemical_formula_sum   'Si4 H24 C4 I12 N4'
_cell_volume   955.21800752
_cell_formula_units_Z   4
loop_
 _symmetry_equiv_pos_site_id
 _symmetry_equiv_pos_as_xyz
  1  'x, y, z'
loop_
 _atom_site_type_symbol
 _atom_site_label
 _atom_site_symmetry_multiplicity
 _atom_site_fract_x
 _atom_site_fract_y
 _atom_site_fract_z
 _atom_site_occupancy
  Si  Si0  1  0.02217300  0.00056143  0.03627412  1
  Si  Si1  1  0.49173600  0.47805440  0.53654023  1
  Si  Si2  1  0.99844384  0.97665226  0.53639667  1
  Si  Si3  1  0.52179123  0.50102850  0.03635604  1
  H  H4  1  0.41805941  0.91819312  0.70581479  1
  H  H5  1  0.62117775  0.96339044  0.70716798  1
  H  H6  1  0.39543666  0.03466792  0.87850859  1
  H  H7  1  0.58124108  0.08314512  0.87991114  1
  H  H8  1  0.53469895  0.89593539  0.87935159  1
  H  H9  1  0.92224427  0.41484175  0.70383953  1
  H  H10  1  0.12276284  0.46955332  0.70724315  1
  H  H11  1  0.89163995  0.52682391  0.87745376  1
  H  H12  1  0.07522869  0.58329464  0.88022373  1
  H  H13  1  0.03687218  0.39422267  0.87792275  1
  H  H14  1  0.88343714  0.48998921  0.20413156  1
  H  H15  1  0.07137444  0.39527165  0.20769681  1
  H  H16  1  0.92925515  0.59265159  0.37785789  1
  H  H17  1  0.10593706  0.51062851  0.38121965  1
  H  H18  1  0.94818507  0.40005932  0.37777700  1
  H  H19  1  0.42313907  0.91484961  0.20444285  1
  H  H20  1  0.62217492  0.97479260  0.20723345  1
  H  H21  1  0.39295919  0.02326462  0.37901995  1
  H  H22  1  0.57513294  0.08387660  0.38109173  1
  H  H23  1  0.54087902  0.89431195  0.37780970  1
  H  H24  1  0.05615560  0.60427801  0.20752251  1
  H  H25  1  0.97202244  0.61710841  0.70670094  1
  H  H26  1  0.47723713  0.11759658  0.70636613  1
  H  H27  1  0.46795706  0.11853687  0.20867920  1
  C  C28  1  0.50384811  0.00170441  0.23387163  1
  C  C29  1  0.00440586  0.50007744  0.73304541  1
  C  C30  1  0.00248779  0.49703287  0.23353095  1
  C  C31  1  0.50499492  0.00004668  0.73363462  1
  I  I32  1  0.00878807  0.00361531  0.23903557  1
  I  I33  1  0.50127437  0.49822052  0.73859935  1
  I  I34  1  0.00039747  0.99806248  0.73848405  1
  I  I35  1  0.50337233  0.50536985  0.23904587  1
  I  I36  1  0.23535105  0.75920601  0.00580232  1
  I  I37  1  0.74537441  0.25606882  0.50433953  1
  I  I38  1  0.22714929  0.22982964  0.00703638  1
  I  I39  1  0.76513884  0.76399765  0.50637715  1
  I  I40  1  0.73372458  0.25767513  0.00817662  1
  I  I41  1  0.24340584  0.75431419  0.50855052  1
  I  I42  1  0.72907384  0.72807672  0.00863623  1
  I  I43  1  0.26633712  0.26242751  0.50953262  1
  N  N44  1  0.50232164  0.00079656  0.34881923  1
  N  N45  1  0.00194824  0.50102932  0.84800813  1
  N  N46  1  0.99676902  0.50033670  0.34843676  1
  N  N47  1  0.50381816  0.00331080  0.84864562  1
