# generated using pymatgen
data_Mn4CrO8
_symmetry_space_group_name_H-M   'P 1'
_cell_length_a   5.99790992
_cell_length_b   5.99791015
_cell_length_c   6.18618995
_cell_angle_alpha   88.31976446
_cell_angle_beta   60.78296158
_cell_angle_gamma   58.21049048
_symmetry_Int_Tables_number   1
_chemical_formula_structural   Mn4CrO8
_chemical_formula_sum   'Mn4 Cr1 O8'
_cell_volume   157.11947014
_cell_formula_units_Z   1
loop_
 _symmetry_equiv_pos_site_id
 _symmetry_equiv_pos_as_xyz
  1  'x, y, z'
loop_
 _atom_site_type_symbol
 _atom_site_label
 _atom_site_symmetry_multiplicity
 _atom_site_fract_x
 _atom_site_fract_y
 _atom_site_fract_z
 _atom_site_occupancy
  Mn  Mn0  1  0.00000000  0.50000000  0.50000000  1
  Mn  Mn1  1  0.00000000  0.00000000  0.00000000  1
  Mn  Mn2  1  0.50000000  0.00000000  0.00000000  1
  Mn  Mn3  1  0.00000000  0.50000000  0.00000000  1
  Cr  Cr4  1  0.50000000  0.50000000  0.00000000  1
  O  O5  1  0.45839385  0.26758933  0.80919548  1
  O  O6  1  0.97166247  0.27815115  0.80509389  1
  O  O7  1  0.47305625  0.77675736  0.80509389  1
  O  O8  1  0.95716433  0.74316133  0.78599799  1
  O  O9  1  0.04283567  0.25683867  0.21400201  1
  O  O10  1  0.52694375  0.22324264  0.19490611  1
  O  O11  1  0.02833753  0.72184885  0.19490611  1
  O  O12  1  0.54160615  0.73241067  0.19080452  1
