# generated using pymatgen
data_Li2FeNi3O8
_symmetry_space_group_name_H-M   'P 1'
_cell_length_a   5.77070239
_cell_length_b   5.67875163
_cell_length_c   9.35816711
_cell_angle_alpha   90.21006928
_cell_angle_beta   89.89665155
_cell_angle_gamma   119.47429981
_symmetry_Int_Tables_number   1
_chemical_formula_structural   Li2FeNi3O8
_chemical_formula_sum   'Li4 Fe2 Ni6 O16'
_cell_volume   266.97854486
_cell_formula_units_Z   2
loop_
 _symmetry_equiv_pos_site_id
 _symmetry_equiv_pos_as_xyz
  1  'x, y, z'
loop_
 _atom_site_type_symbol
 _atom_site_label
 _atom_site_symmetry_multiplicity
 _atom_site_fract_x
 _atom_site_fract_y
 _atom_site_fract_z
 _atom_site_occupancy
  Li  Li0  1  0.33258128  0.66537791  0.89155445  1
  Li  Li1  1  0.99600996  0.99833286  0.99834910  1
  Li  Li2  1  0.00399004  0.00232290  0.49834910  1
  Li  Li3  1  0.66741872  0.33279663  0.39155445  1
  Fe  Fe4  1  0.32722711  0.66261560  0.49364046  1
  Fe  Fe5  1  0.67277289  0.33538749  0.99364046  1
  Ni  Ni6  1  0.17087902  0.83220678  0.21328243  1
  Ni  Ni7  1  0.17014859  0.33924732  0.21365158  1
  Ni  Ni8  1  0.66098492  0.82946530  0.21630940  1
  Ni  Ni9  1  0.33901508  0.16848137  0.71630940  1
  Ni  Ni10  1  0.82912098  0.66132676  0.71328243  1
  Ni  Ni11  1  0.82985141  0.16909873  0.71365158  1
  O  O12  1  0.15663836  0.83523835  0.60546136  1
  O  O13  1  0.03729119  0.52082496  0.33063035  1
  O  O14  1  0.31230737  0.65523624  0.10562746  1
  O  O15  1  0.02384833  0.01294541  0.31111606  1
  O  O16  1  0.97615167  0.98909708  0.81111606  1
  O  O17  1  0.15378347  0.32264963  0.60497594  1
  O  O18  1  0.47530578  0.96143737  0.33290506  1
  O  O19  1  0.47213079  0.50951219  0.33477764  1
  O  O20  1  0.32055246  0.15990641  0.10163870  1
  O  O21  1  0.67944654  0.83935295  0.60163870  1
  O  O22  1  0.52469422  0.48613059  0.83290506  1
  O  O23  1  0.52786921  0.03738140  0.83477764  1
  O  O24  1  0.68769263  0.34292787  0.60562746  1
  O  O25  1  0.84336064  0.67859899  0.10546136  1
  O  O26  1  0.96270881  0.48353378  0.83063035  1
  O  O27  1  0.84621653  0.16886616  0.10497594  1
