# generated using pymatgen
data_Li2V2SiGeO10
_symmetry_space_group_name_H-M   'P 1'
_cell_length_a   6.48222050
_cell_length_b   6.38286231
_cell_length_c   4.65362028
_cell_angle_alpha   90.00000000
_cell_angle_beta   87.56347207
_cell_angle_gamma   90.00000000
_symmetry_Int_Tables_number   1
_chemical_formula_structural   Li2V2SiGeO10
_chemical_formula_sum   'Li2 V2 Si1 Ge1 O10'
_cell_volume   192.37002826
_cell_formula_units_Z   1
loop_
 _symmetry_equiv_pos_site_id
 _symmetry_equiv_pos_as_xyz
  1  'x, y, z'
loop_
 _atom_site_type_symbol
 _atom_site_label
 _atom_site_symmetry_multiplicity
 _atom_site_fract_x
 _atom_site_fract_y
 _atom_site_fract_z
 _atom_site_occupancy
  Li  Li0  1  0.49190171  0.99207459  0.99969790  1
  Li  Li1  1  0.49190171  0.50792541  0.99969790  1
  V  V2  1  0.24420170  0.25000000  0.61068133  1
  V  V3  1  0.76314160  0.75000000  0.38880758  1
  Si  Si4  1  0.25953564  0.75000000  0.50151986  1
  Ge  Ge5  1  0.74624960  0.25000000  0.49920531  1
  O  O6  1  0.04128161  0.75000000  0.33165920  1
  O  O7  1  0.26941339  0.25000000  0.26016350  1
  O  O8  1  0.27013881  0.53950164  0.70590082  1
  O  O9  1  0.27013881  0.96049836  0.70590082  1
  O  O10  1  0.45343096  0.75000000  0.26380189  1
  O  O11  1  0.53491588  0.25000000  0.75173661  1
  O  O12  1  0.73450009  0.02917959  0.26977458  1
  O  O13  1  0.73450009  0.47082041  0.26977458  1
  O  O14  1  0.72488419  0.75000000  0.73866255  1
  O  O15  1  0.96986521  0.25000000  0.70301458  1
