# generated using pymatgen
data_LiNb13O33
_symmetry_space_group_name_H-M   'P 1'
_cell_length_a   11.59430774
_cell_length_b   11.59430774
_cell_length_c   15.70028707
_cell_angle_alpha   88.24650750
_cell_angle_beta   91.75349250
_cell_angle_gamma   160.82639277
_symmetry_Int_Tables_number   1
_chemical_formula_structural   LiNb13O33
_chemical_formula_sum   'Li1 Nb13 O33'
_cell_volume   692.83998870
_cell_formula_units_Z   1
loop_
 _symmetry_equiv_pos_site_id
 _symmetry_equiv_pos_as_xyz
  1  'x, y, z'
loop_
 _atom_site_type_symbol
 _atom_site_label
 _atom_site_symmetry_multiplicity
 _atom_site_fract_x
 _atom_site_fract_y
 _atom_site_fract_z
 _atom_site_occupancy
  Li  Li0  1  0.50000000  0.50000000  0.50000000  1
  Nb  Nb1  1  0.07056213  0.92943787  0.23011937  1
  Nb  Nb2  1  0.08655439  0.91344561  0.67469677  1
  Nb  Nb3  1  0.13611209  0.86388791  0.46962368  1
  Nb  Nb4  1  0.15488784  0.84511216  0.90389093  1
  Nb  Nb5  1  0.22417506  0.77582494  0.13679297  1
  Nb  Nb6  1  0.29153367  0.70846633  0.37395783  1
  Nb  Nb7  1  0.00000000  0.00000000  0.00000000  1
  Nb  Nb8  1  0.70846633  0.29153367  0.62604217  1
  Nb  Nb9  1  0.77582494  0.22417506  0.86320703  1
  Nb  Nb10  1  0.84511216  0.15488784  0.09610907  1
  Nb  Nb11  1  0.86388791  0.13611209  0.53037632  1
  Nb  Nb12  1  0.91344561  0.08655439  0.32530323  1
  Nb  Nb13  1  0.92943787  0.07056213  0.76988063  1
  O  O14  1  0.01190815  0.98809185  0.70930028  1
  O  O15  1  0.03579003  0.96420997  0.12064957  1
  O  O16  1  0.06651485  0.93348515  0.54354119  1
  O  O17  1  0.08166832  0.91833168  0.95145962  1
  O  O18  1  0.10022126  0.89977874  0.36647362  1
  O  O19  1  0.12708684  0.87291216  0.78732963  1
  O  O20  1  0.15299581  0.84700419  0.19467443  1
  O  O21  1  0.18128910  0.81871090  0.61127537  1
  O  O22  1  0.19377730  0.80622270  0.02698835  1
  O  O23  1  0.22182593  0.77817407  0.42979656  1
  O  O24  1  0.25022282  0.74977718  0.86305830  1
  O  O25  1  0.26680196  0.73319804  0.26388355  1
  O  O26  1  0.32032483  0.67967517  0.09919241  1
  O  O27  1  0.34740479  0.65259521  0.50284696  1
  O  O28  1  0.39060505  0.60939495  0.33727271  1
  O  O29  1  0.43005965  0.56994035  0.75030818  1
  O  O30  1  0.50000000  0.50000000  0.00000000  1
  O  O31  1  0.56994035  0.43005965  0.24969182  1
  O  O32  1  0.60939495  0.39060505  0.66272729  1
  O  O33  1  0.65259521  0.34740479  0.49715304  1
  O  O34  1  0.67967517  0.32032483  0.90080759  1
  O  O35  1  0.73319804  0.26680196  0.73611645  1
  O  O36  1  0.74977718  0.25022282  0.13694170  1
  O  O37  1  0.77817407  0.22182593  0.57020344  1
  O  O38  1  0.80622270  0.19377730  0.97301165  1
  O  O39  1  0.81871090  0.18128910  0.38872463  1
  O  O40  1  0.84700419  0.15299581  0.80532557  1
  O  O41  1  0.87291216  0.12708684  0.21267037  1
  O  O42  1  0.89977874  0.10022126  0.63352638  1
  O  O43  1  0.91833168  0.08166832  0.04854038  1
  O  O44  1  0.93348515  0.06651485  0.45645881  1
  O  O45  1  0.96420997  0.03579003  0.87935043  1
  O  O46  1  0.98809185  0.01190815  0.29069972  1
