# generated using pymatgen
data_CrO3
_symmetry_space_group_name_H-M   'P 1'
_cell_length_a   6.86999360
_cell_length_b   6.86999332
_cell_length_c   5.85759530
_cell_angle_alpha   74.73410516
_cell_angle_beta   105.26589328
_cell_angle_gamma   95.60705791
_symmetry_Int_Tables_number   1
_chemical_formula_structural   CrO3
_chemical_formula_sum   'Cr4 O12'
_cell_volume   257.17423453
_cell_formula_units_Z   4
loop_
 _symmetry_equiv_pos_site_id
 _symmetry_equiv_pos_as_xyz
  1  'x, y, z'
loop_
 _atom_site_type_symbol
 _atom_site_label
 _atom_site_symmetry_multiplicity
 _atom_site_fract_x
 _atom_site_fract_y
 _atom_site_fract_z
 _atom_site_occupancy
  Cr  Cr0  1  0.20364946  0.61740435  0.77009545  1
  Cr  Cr1  1  0.38259565  0.79635054  0.27009545  1
  Cr  Cr2  1  0.61740435  0.20364946  0.72990455  1
  Cr  Cr3  1  0.79635054  0.38259565  0.22990455  1
  O  O4  1  0.03025481  0.77638208  0.66718974  1
  O  O5  1  0.10293142  0.39580900  0.81295320  1
  O  O6  1  0.22361792  0.96974519  0.16718974  1
  O  O7  1  0.35065391  0.64297632  0.55478654  1
  O  O8  1  0.39580900  0.10293142  0.68704680  1
  O  O9  1  0.35702368  0.64934609  0.05478654  1
  O  O10  1  0.64297632  0.35065391  0.94521346  1
  O  O11  1  0.60419100  0.89706858  0.31295320  1
  O  O12  1  0.64934609  0.35702368  0.44521346  1
  O  O13  1  0.77638208  0.03025481  0.83281026  1
  O  O14  1  0.89706858  0.60419100  0.18704680  1
  O  O15  1  0.96974519  0.22361792  0.33281026  1
