# generated using pymatgen
data_Li8Te2O9
_symmetry_space_group_name_H-M   'P 1'
_cell_length_a   15.74743566
_cell_length_b   9.14449341
_cell_length_c   6.02130078
_cell_angle_alpha   109.06995593
_cell_angle_beta   101.37555819
_cell_angle_gamma   85.85745780
_symmetry_Int_Tables_number   1
_chemical_formula_structural   Li8Te2O9
_chemical_formula_sum   'Li32 Te8 O36'
_cell_volume   803.36907964
_cell_formula_units_Z   4
loop_
 _symmetry_equiv_pos_site_id
 _symmetry_equiv_pos_as_xyz
  1  'x, y, z'
loop_
 _atom_site_type_symbol
 _atom_site_label
 _atom_site_symmetry_multiplicity
 _atom_site_fract_x
 _atom_site_fract_y
 _atom_site_fract_z
 _atom_site_occupancy
  Li  Li0  1  0.02582880  0.12885758  0.93879732  1
  Li  Li1  1  0.03687266  0.61850033  0.71388625  1
  Li  Li2  1  0.04264148  0.13202630  0.48388942  1
  Li  Li3  1  0.04788698  0.61640995  0.20670582  1
  Li  Li4  1  0.14601798  0.40991688  0.40890855  1
  Li  Li5  1  0.14799272  0.83753123  0.12272703  1
  Li  Li6  1  0.23625161  0.62152599  0.83072799  1
  Li  Li7  1  0.26122275  0.12198364  0.59277189  1
  Li  Li8  1  0.23805701  0.62439249  0.29186100  1
  Li  Li9  1  0.26183421  0.12181882  0.05375427  1
  Li  Li10  1  0.34697981  0.32681994  0.47306411  1
  Li  Li11  1  0.36063923  0.91156326  0.76250461  1
  Li  Li12  1  0.45323436  0.63550977  0.94205846  1
  Li  Li13  1  0.45424903  0.11700896  0.65753667  1
  Li  Li14  1  0.45961601  0.11906468  0.17090316  1
  Li  Li15  1  0.47404596  0.63120173  0.41433959  1
  Li  Li16  1  0.52595404  0.36879827  0.58566041  1
  Li  Li17  1  0.54038399  0.88093532  0.82909684  1
  Li  Li18  1  0.54575097  0.88299204  0.34246333  1
  Li  Li19  1  0.54676564  0.36449023  0.05794154  1
  Li  Li20  1  0.63936077  0.08843674  0.23749539  1
  Li  Li21  1  0.65302019  0.67318006  0.52693589  1
  Li  Li22  1  0.73816579  0.87818118  0.94624573  1
  Li  Li23  1  0.76194299  0.37560751  0.70813900  1
  Li  Li24  1  0.73877725  0.87801636  0.40722811  1
  Li  Li25  1  0.76374839  0.37847401  0.16927201  1
  Li  Li26  1  0.85200728  0.16246877  0.87727297  1
  Li  Li27  1  0.85398202  0.59008312  0.59109145  1
  Li  Li28  1  0.95211302  0.38359005  0.79329418  1
  Li  Li29  1  0.95735852  0.86797370  0.51611058  1
  Li  Li30  1  0.96312734  0.38149967  0.28611375  1
  Li  Li31  1  0.97417120  0.87114242  0.06120268  1
  Te  Te32  1  0.14261369  0.37184448  0.88749327  1
  Te  Te33  1  0.14214244  0.86683990  0.63725998  1
  Te  Te34  1  0.36409934  0.36912402  0.00158743  1
  Te  Te35  1  0.35247240  0.87827989  0.24714638  1
  Te  Te36  1  0.64752760  0.12172011  0.75285362  1
  Te  Te37  1  0.63590066  0.63087598  0.99841257  1
  Te  Te38  1  0.85785756  0.13316010  0.36274002  1
  Te  Te39  1  0.85738631  0.62815552  0.11250673  1
  O  O40  1  0.05411255  0.37505777  0.61039942  1
  O  O41  1  0.05261219  0.87497449  0.82830410  1
  O  O42  1  0.06145604  0.88094445  0.35273599  1
  O  O43  1  0.05449611  0.36675236  0.07150342  1
  O  O44  1  0.14796657  0.14726705  0.76668522  1
  O  O45  1  0.15305281  0.64300488  0.52669571  1
  O  O46  1  0.14573517  0.59867911  0.00499833  1
  O  O47  1  0.25772355  0.87990623  0.97953878  1
  O  O48  1  0.23218541  0.37141966  0.69031081  1
  O  O49  1  0.26396244  0.87390554  0.43540142  1
  O  O50  1  0.22997951  0.36585114  0.17667875  1
  O  O51  1  0.35777427  0.14364019  0.88058974  1
  O  O52  1  0.34744977  0.10555545  0.35936681  1
  O  O53  1  0.35192930  0.65158713  0.12409809  1
  O  O54  1  0.43939588  0.38069435  0.78505125  1
  O  O55  1  0.44303788  0.87379675  0.52038635  1
  O  O56  1  0.45488644  0.37086043  0.27875428  1
  O  O57  1  0.43969103  0.87841289  0.05396311  1
  O  O58  1  0.56030897  0.12158711  0.94603689  1
  O  O59  1  0.54511356  0.62913957  0.72124572  1
  O  O60  1  0.55696212  0.12620325  0.47961365  1
  O  O61  1  0.56060412  0.61930565  0.21494875  1
  O  O62  1  0.64807070  0.34841287  0.87590191  1
  O  O63  1  0.65255023  0.89444455  0.64063319  1
  O  O64  1  0.64222573  0.85635981  0.11941026  1
  O  O65  1  0.77002049  0.63414886  0.82332125  1
  O  O66  1  0.73603756  0.12609446  0.56459858  1
  O  O67  1  0.76781459  0.62858034  0.30968919  1
  O  O68  1  0.74227645  0.12009377  0.02046122  1
  O  O69  1  0.84694719  0.35699512  0.47330429  1
  O  O70  1  0.85203343  0.85273295  0.23331478  1
  O  O71  1  0.85426483  0.40132089  0.99500167  1
  O  O72  1  0.94550389  0.63324764  0.92849658  1
  O  O73  1  0.93854396  0.11905555  0.64726401  1
  O  O74  1  0.94738781  0.12502551  0.17169590  1
  O  O75  1  0.94588745  0.62494223  0.38960058  1
