# generated using pymatgen
data_Li2NbNi3O8
_symmetry_space_group_name_H-M   'P 1'
_cell_length_a   5.87660022
_cell_length_b   5.87581562
_cell_length_c   9.63638902
_cell_angle_alpha   90.23047337
_cell_angle_beta   89.88477965
_cell_angle_gamma   119.99558308
_symmetry_Int_Tables_number   1
_chemical_formula_structural   Li2NbNi3O8
_chemical_formula_sum   'Li4 Nb2 Ni6 O16'
_cell_volume   288.17418697
_cell_formula_units_Z   2
loop_
 _symmetry_equiv_pos_site_id
 _symmetry_equiv_pos_as_xyz
  1  'x, y, z'
loop_
 _atom_site_type_symbol
 _atom_site_label
 _atom_site_symmetry_multiplicity
 _atom_site_fract_x
 _atom_site_fract_y
 _atom_site_fract_z
 _atom_site_occupancy
  Li  Li0  1  0.33324500  0.66658070  0.89391453  1
  Li  Li1  1  0.00009521  0.99995148  0.99241235  1
  Li  Li2  1  0.99990479  0.99985626  0.49241235  1
  Li  Li3  1  0.66675500  0.33333569  0.39391453  1
  Nb  Nb4  1  0.33327834  0.66519252  0.49612641  1
  Nb  Nb5  1  0.66672166  0.33191418  0.99612641  1
  Ni  Ni6  1  0.16902274  0.83061705  0.21540683  1
  Ni  Ni7  1  0.16943490  0.33863391  0.21551390  1
  Ni  Ni8  1  0.66144737  0.83068004  0.21550653  1
  Ni  Ni9  1  0.33855263  0.16923268  0.71550653  1
  Ni  Ni10  1  0.83097726  0.66159431  0.71540683  1
  Ni  Ni11  1  0.83056510  0.16919801  0.71551390  1
  O  O12  1  0.16589814  0.83674559  0.59262240  1
  O  O13  1  0.03414334  0.51789210  0.34239973  1
  O  O14  1  0.33342026  0.66674548  0.11818262  1
  O  O15  1  0.99991665  0.00000611  0.30254196  1
  O  O16  1  0.00008335  0.00008946  0.80254196  1
  O  O17  1  0.16423997  0.33047262  0.59233032  1
  O  O18  1  0.48409379  0.96578067  0.34165532  1
  O  O19  1  0.48212171  0.51607001  0.34288795  1
  O  O20  1  0.32990661  0.16491374  0.09241814  1
  O  O21  1  0.67009339  0.83500813  0.59241814  1
  O  O22  1  0.51590621  0.48168687  0.84165532  1
  O  O23  1  0.51787829  0.03394830  0.84288795  1
  O  O24  1  0.66657974  0.33332422  0.61818262  1
  O  O25  1  0.83410186  0.67084744  0.09262240  1
  O  O26  1  0.96585666  0.48374877  0.84239973  1
  O  O27  1  0.83576003  0.16623265  0.09233032  1
