# generated using pymatgen
data_Li2NiBiO4
_symmetry_space_group_name_H-M   'P 1'
_cell_length_a   5.45190846
_cell_length_b   4.43341865
_cell_length_c   4.43341865
_cell_angle_alpha   90.00000679
_cell_angle_beta   66.00899562
_cell_angle_gamma   66.00899562
_symmetry_Int_Tables_number   1
_chemical_formula_structural   Li2NiBiO4
_chemical_formula_sum   'Li2 Ni1 Bi1 O4'
_cell_volume   87.67124681
_cell_formula_units_Z   1
loop_
 _symmetry_equiv_pos_site_id
 _symmetry_equiv_pos_as_xyz
  1  'x, y, z'
loop_
 _atom_site_type_symbol
 _atom_site_label
 _atom_site_symmetry_multiplicity
 _atom_site_fract_x
 _atom_site_fract_y
 _atom_site_fract_z
 _atom_site_occupancy
  Li  Li0  1  0.50000000  0.75000000  0.25000000  1
  Li  Li1  1  0.00000000  0.50000000  0.50000000  1
  Ni  Ni2  1  0.50000000  0.25000000  0.75000000  1
  Bi  Bi3  1  0.00000000  0.00000000  0.00000000  1
  O  O4  1  0.96617579  0.01691211  0.51691211  1
  O  O5  1  0.49996151  0.75001925  0.75001925  1
  O  O6  1  0.50003849  0.24998075  0.24998075  1
  O  O7  1  0.03382421  0.48308789  0.98308789  1
