# generated using pymatgen
data_Li7Fe4(PO4)6
_symmetry_space_group_name_H-M   'P 1'
_cell_length_a   9.74397537
_cell_length_b   9.80250611
_cell_length_c   9.80250544
_cell_angle_alpha   88.08850911
_cell_angle_beta   88.12174187
_cell_angle_gamma   88.12173897
_symmetry_Int_Tables_number   1
_chemical_formula_structural   Li7Fe4(PO4)6
_chemical_formula_sum   'Li14 Fe8 P12 O48'
_cell_volume   934.79569304
_cell_formula_units_Z   2
loop_
 _symmetry_equiv_pos_site_id
 _symmetry_equiv_pos_as_xyz
  1  'x, y, z'
loop_
 _atom_site_type_symbol
 _atom_site_label
 _atom_site_symmetry_multiplicity
 _atom_site_fract_x
 _atom_site_fract_y
 _atom_site_fract_z
 _atom_site_occupancy
  Li  Li0  1  0.16115232  0.05371033  0.71780951  1
  Li  Li1  1  0.27604667  0.85420874  0.94880047  1
  Li  Li2  1  0.34802866  0.78762868  0.46699315  1
  Li  Li3  1  0.95846030  0.28289997  0.83238872  1
  Li  Li4  1  0.21379682  0.53252892  0.65533863  1
  Li  Li5  1  0.53884665  0.64891341  0.22027722  1
  Li  Li6  1  0.00147522  0.00294248  0.99499236  1
  Li  Li7  1  0.50147522  0.49499236  0.50294248  1
  Li  Li8  1  0.45846030  0.33238872  0.78289997  1
  Li  Li9  1  0.03884665  0.72027722  0.14891341  1
  Li  Li10  1  0.77604667  0.44880047  0.35420874  1
  Li  Li11  1  0.66115232  0.21780951  0.55371033  1
  Li  Li12  1  0.71379682  0.15533863  0.03252892  1
  Li  Li13  1  0.84802866  0.96699315  0.28762868  1
  Fe  Fe14  1  0.52952102  0.97021502  0.75199990  1
  Fe  Fe15  1  0.24725808  0.46861677  0.03078030  1
  Fe  Fe16  1  0.02952102  0.25199990  0.47021502  1
  Fe  Fe17  1  0.74357269  0.75655016  0.75018985  1
  Fe  Fe18  1  0.24357269  0.25018985  0.25655016  1
  Fe  Fe19  1  0.74725808  0.53078030  0.96861677  1
  Fe  Fe20  1  0.97018327  0.75062541  0.53030969  1
  Fe  Fe21  1  0.47018327  0.03030969  0.25062541  1
  P  P22  1  0.14781768  0.94819647  0.32606830  1
  P  P23  1  0.04702257  0.67303191  0.85338445  1
  P  P24  1  0.17416959  0.55381400  0.35299623  1
  P  P25  1  0.44681354  0.64002060  0.82789458  1
  P  P26  1  0.64781768  0.82606830  0.44819647  1
  P  P27  1  0.67416959  0.85299623  0.05381400  1
  P  P28  1  0.33077977  0.14894202  0.95468681  1
  P  P29  1  0.35704129  0.16835179  0.54947553  1
  P  P30  1  0.54702257  0.35338445  0.17303191  1
  P  P31  1  0.83077977  0.45468681  0.64894202  1
  P  P32  1  0.94681354  0.32789458  0.14002060  1
  P  P33  1  0.85704129  0.04947553  0.66835179  1
  O  O34  1  0.05525064  0.90043587  0.21484335  1
  O  O35  1  0.10833772  0.88325973  0.46885836  1
  O  O36  1  0.09292517  0.78496533  0.94624802  1
  O  O37  1  0.08591149  0.69472793  0.69905954  1
  O  O38  1  0.30411212  0.91212256  0.30423564  1
  O  O39  1  0.02984264  0.61627605  0.39379529  1
  O  O40  1  0.11241202  0.53128865  0.89447873  1
  O  O41  1  0.40607782  0.79184250  0.80242465  1
  O  O42  1  0.19551787  0.59014015  0.19735556  1
  O  O43  1  0.60833772  0.96885836  0.38325973  1
  O  O44  1  0.52984264  0.89379529  0.11627605  1
  O  O45  1  0.28523973  0.60225434  0.44601739  1
  O  O46  1  0.10907407  0.33316129  0.12259901  1
  O  O47  1  0.17075406  0.39539152  0.37589534  1
  O  O48  1  0.38663068  0.59861343  0.97227385  1
  O  O49  1  0.67075406  0.87589534  0.89539152  1
  O  O50  1  0.62226870  0.83024568  0.60649017  1
  O  O51  1  0.40323322  0.54182618  0.71934791  1
  O  O52  1  0.55525064  0.71484335  0.40043587  1
  O  O53  1  0.78523973  0.94601739  0.10225434  1
  O  O54  1  0.87887097  0.88708667  0.66756621  1
  O  O55  1  0.60907407  0.62259901  0.83316129  1
  O  O56  1  0.29497965  0.30205438  0.91650690  1
  O  O57  1  0.20660808  0.20951303  0.58806978  1
  O  O58  1  0.69551787  0.69735556  0.09014015  1
  O  O59  1  0.80411212  0.80423564  0.41212256  1
  O  O60  1  0.12226870  0.10649017  0.33024568  1
  O  O61  1  0.38613733  0.37701406  0.16801433  1
  O  O62  1  0.22399861  0.05043336  0.90549050  1
  O  O63  1  0.46155111  0.27130428  0.59507289  1
  O  O64  1  0.59292517  0.44624802  0.28496533  1
  O  O65  1  0.33049472  0.12401407  0.11540002  1
  O  O66  1  0.37887097  0.16756621  0.38708667  1
  O  O67  1  0.61241202  0.39447873  0.03128865  1
  O  O68  1  0.83049472  0.61540002  0.62401407  1
  O  O69  1  0.88613633  0.66801433  0.87701406  1
  O  O70  1  0.72399861  0.40549050  0.55043336  1
  O  O71  1  0.47584030  0.12238648  0.89303643  1
  O  O72  1  0.38214316  0.02244671  0.60873650  1
  O  O73  1  0.79497965  0.41650690  0.80205438  1
  O  O74  1  0.58591149  0.19905954  0.19472793  1
  O  O75  1  0.88663068  0.47227385  0.09861343  1
  O  O76  1  0.97584030  0.39303643  0.62238648  1
  O  O77  1  0.70660808  0.08806978  0.70951303  1
  O  O78  1  0.90607782  0.30242465  0.29184250  1
  O  O79  1  0.90323322  0.21934791  0.04182618  1
  O  O80  1  0.88214316  0.10873650  0.52244671  1
  O  O81  1  0.96155111  0.09507289  0.77130428  1
