# generated using pymatgen
data_Li2Mn3WO8
_symmetry_space_group_name_H-M   'P 1'
_cell_length_a   6.05140153
_cell_length_b   6.05101796
_cell_length_c   9.89045026
_cell_angle_alpha   89.97998542
_cell_angle_beta   90.01000473
_cell_angle_gamma   119.99790106
_symmetry_Int_Tables_number   1
_chemical_formula_structural   Li2Mn3WO8
_chemical_formula_sum   'Li4 Mn6 W2 O16'
_cell_volume   313.64637006
_cell_formula_units_Z   2
loop_
 _symmetry_equiv_pos_site_id
 _symmetry_equiv_pos_as_xyz
  1  'x, y, z'
loop_
 _atom_site_type_symbol
 _atom_site_label
 _atom_site_symmetry_multiplicity
 _atom_site_fract_x
 _atom_site_fract_y
 _atom_site_fract_z
 _atom_site_occupancy
  Li  Li0  1  0.33330463  0.66675986  0.90645614  1
  Li  Li1  1  0.99994313  0.99985237  0.98530936  1
  Li  Li2  1  0.00005687  0.99991024  0.48530936  1
  Li  Li3  1  0.66669537  0.33345523  0.40645614  1
  Mn  Mn4  1  0.17037864  0.82960848  0.21332829  1
  Mn  Mn5  1  0.17033406  0.34070877  0.21338569  1
  Mn  Mn6  1  0.65924986  0.82957851  0.21335716  1
  Mn  Mn7  1  0.34075014  0.17032765  0.71335716  1
  Mn  Mn8  1  0.82962136  0.65922985  0.71332829  1
  Mn  Mn9  1  0.82966594  0.17037571  0.71338569  1
  W  W10  1  0.33335022  0.66667129  0.48597325  1
  W  W11  1  0.66664978  0.33332208  0.98597325  1
  O  O12  1  0.17342430  0.82643642  0.58612594  1
  O  O13  1  0.03954966  0.52002962  0.35593934  1
  O  O14  1  0.33318324  0.66697833  0.11473251  1
  O  O15  1  0.00008876  0.99970078  0.29528937  1
  O  O16  1  0.99991124  0.99961202  0.79528937  1
  O  O17  1  0.17339278  0.34687539  0.58598497  1
  O  O18  1  0.48015660  0.96053800  0.35596672  1
  O  O19  1  0.48017149  0.51980038  0.35601920  1
  O  O20  1  0.34690979  0.17332986  0.08605306  1
  O  O21  1  0.65309021  0.82642008  0.58605306  1
  O  O22  1  0.51984340  0.48038139  0.85596672  1
  O  O23  1  0.51982851  0.03962889  0.85601920  1
  O  O24  1  0.66681676  0.33379510  0.61473251  1
  O  O25  1  0.82657570  0.65301212  0.08612594  1
  O  O26  1  0.96045034  0.48047996  0.85593934  1
  O  O27  1  0.82660722  0.17348261  0.08598497  1
