# generated using pymatgen
data_Li4Cr3P4O15
_symmetry_space_group_name_H-M   'P 1'
_cell_length_a   18.16280551
_cell_length_b   6.42295670
_cell_length_c   10.57326426
_cell_angle_alpha   90.00000000
_cell_angle_beta   90.00000000
_cell_angle_gamma   89.99990202
_symmetry_Int_Tables_number   1
_chemical_formula_structural   Li4Cr3P4O15
_chemical_formula_sum   'Li16 Cr12 P16 O60'
_cell_volume   1233.46551904
_cell_formula_units_Z   4
loop_
 _symmetry_equiv_pos_site_id
 _symmetry_equiv_pos_as_xyz
  1  'x, y, z'
loop_
 _atom_site_type_symbol
 _atom_site_label
 _atom_site_symmetry_multiplicity
 _atom_site_fract_x
 _atom_site_fract_y
 _atom_site_fract_z
 _atom_site_occupancy
  Li  Li0  1  0.00885941  0.31720481  0.48036755  1
  Li  Li1  1  0.03173361  0.19701129  0.05050409  1
  Li  Li2  1  0.09208323  0.95123936  0.80903839  1
  Li  Li3  1  0.20255553  0.35014744  0.24362435  1
  Li  Li4  1  0.29744377  0.85014184  0.74362724  1
  Li  Li5  1  0.40791601  0.45123617  0.30904089  1
  Li  Li6  1  0.46826692  0.69701088  0.55050340  1
  Li  Li7  1  0.49114097  0.81720587  0.98036660  1
  Li  Li8  1  0.50885941  0.31720481  0.01963245  1
  Li  Li9  1  0.53173361  0.19701129  0.44949591  1
  Li  Li10  1  0.59208323  0.95123936  0.69096161  1
  Li  Li11  1  0.70255553  0.35014744  0.25637565  1
  Li  Li12  1  0.79744377  0.85014184  0.75637276  1
  Li  Li13  1  0.90791601  0.45123617  0.19095911  1
  Li  Li14  1  0.96826692  0.69701088  0.94949660  1
  Li  Li15  1  0.99114097  0.81720587  0.51963340  1
  Cr  Cr16  1  0.13514048  0.59766777  0.49154339  1
  Cr  Cr17  1  0.15900168  0.60253066  0.99568632  1
  Cr  Cr18  1  0.24847170  0.33527521  0.74187041  1
  Cr  Cr19  1  0.25152133  0.83526620  0.24186842  1
  Cr  Cr20  1  0.34099876  0.10251717  0.49568880  1
  Cr  Cr21  1  0.36486055  0.09765358  0.99153440  1
  Cr  Cr22  1  0.63514048  0.59766777  0.00845661  1
  Cr  Cr23  1  0.65900168  0.60253066  0.50431368  1
  Cr  Cr24  1  0.74847170  0.33527521  0.75812959  1
  Cr  Cr25  1  0.75152133  0.83526620  0.25813158  1
  Cr  Cr26  1  0.84099876  0.10251717  0.00431120  1
  Cr  Cr27  1  0.86486055  0.09765358  0.50846560  1
  P  P28  1  0.04782650  0.62758702  0.23063638  1
  P  P29  1  0.05910001  0.45267162  0.75617170  1
  P  P30  1  0.17414054  0.09440413  0.48477924  1
  P  P31  1  0.20086271  0.10060152  0.00119074  1
  P  P32  1  0.29913815  0.60059861  0.50119062  1
  P  P33  1  0.32586035  0.59440726  0.98477784  1
  P  P34  1  0.44089968  0.95266990  0.25617108  1
  P  P35  1  0.45217274  0.12758749  0.73063653  1
  P  P36  1  0.54782650  0.62758702  0.26936362  1
  P  P37  1  0.55910001  0.45267162  0.74382830  1
  P  P38  1  0.67414054  0.09440413  0.01522076  1
  P  P39  1  0.70086271  0.10060152  0.49880926  1
  P  P40  1  0.79913815  0.60059861  0.99880938  1
  P  P41  1  0.82586035  0.59440726  0.51522216  1
  P  P42  1  0.94089968  0.95266990  0.24382892  1
  P  P43  1  0.95217274  0.12758749  0.76936347  1
  O  O44  1  0.00832621  0.49443332  0.13018536  1
  O  O45  1  0.02247619  0.86961571  0.19651213  1
  O  O46  1  0.02320161  0.58952485  0.36737410  1
  O  O47  1  0.04624149  0.55654580  0.62707240  1
  O  O48  1  0.07599914  0.61972658  0.85755641  1
  O  O49  1  0.11229492  0.26966120  0.75776025  1
  O  O50  1  0.12436420  0.90733235  0.51334555  1
  O  O51  1  0.13135911  0.61975949  0.21508887  1
  O  O52  1  0.12508096  0.28755576  0.46668714  1
  O  O53  1  0.14946645  0.91614548  0.97383521  1
  O  O54  1  0.15024618  0.28882708  0.02931328  1
  O  O55  1  0.23422313  0.11807647  0.59225367  1
  O  O56  1  0.22016914  0.07521406  0.36017059  1
  O  O57  1  0.24691398  0.57372064  0.61615629  1
  O  O58  1  0.24440518  0.62322079  0.38718183  1
  O  O59  1  0.25559526  0.12321685  0.88718079  1
  O  O60  1  0.25308545  0.07372567  0.11615420  1
  O  O61  1  0.27983113  0.57521531  0.86016928  1
  O  O62  1  0.26577575  0.61807779  0.09225700  1
  O  O63  1  0.34975503  0.78882445  0.52931279  1
  O  O64  1  0.35053223  0.41614429  0.47383486  1
  O  O65  1  0.37491982  0.78756137  0.96668583  1
  O  O66  1  0.36864190  0.11975737  0.71508735  1
  O  O67  1  0.37563864  0.40733105  0.01334605  1
  O  O68  1  0.38770517  0.76965942  0.25775919  1
  O  O69  1  0.42400089  0.11972607  0.35755515  1
  O  O70  1  0.45375813  0.05654975  0.12707187  1
  O  O71  1  0.47679912  0.08952777  0.86737363  1
  O  O72  1  0.47752509  0.36961576  0.69651054  1
  O  O73  1  0.49167387  0.99443172  0.63018886  1
  O  O74  1  0.50832621  0.49443332  0.36981464  1
  O  O75  1  0.52247619  0.86961571  0.30348787  1
  O  O76  1  0.52320161  0.58952485  0.13262590  1
  O  O77  1  0.54624149  0.55654580  0.87292760  1
  O  O78  1  0.57599914  0.61972658  0.64244359  1
  O  O79  1  0.61229492  0.26966120  0.74223975  1
  O  O80  1  0.62436420  0.90733235  0.98665445  1
  O  O81  1  0.63135911  0.61975949  0.28491113  1
  O  O82  1  0.62508096  0.28755576  0.03331286  1
  O  O83  1  0.64946645  0.91614548  0.52616479  1
  O  O84  1  0.65024618  0.28882708  0.47068672  1
  O  O85  1  0.73422313  0.11807647  0.90774633  1
  O  O86  1  0.72016914  0.07521406  0.13982941  1
  O  O87  1  0.74691398  0.57372064  0.88384371  1
  O  O88  1  0.74440518  0.62322079  0.11281817  1
  O  O89  1  0.75559526  0.12321685  0.61281921  1
  O  O90  1  0.75308545  0.07372567  0.38384580  1
  O  O91  1  0.77983113  0.57521531  0.63983072  1
  O  O92  1  0.76577575  0.61807779  0.40774300  1
  O  O93  1  0.84975503  0.78882445  0.97068721  1
  O  O94  1  0.85053223  0.41614429  0.02616514  1
  O  O95  1  0.87491982  0.78756137  0.53331417  1
  O  O96  1  0.86864190  0.11975737  0.78491265  1
  O  O97  1  0.87563864  0.40733105  0.48665395  1
  O  O98  1  0.88770517  0.76965942  0.24224081  1
  O  O99  1  0.92400089  0.11972607  0.14244485  1
  O  O100  1  0.95375813  0.05654975  0.37292813  1
  O  O101  1  0.97679912  0.08952777  0.63262637  1
  O  O102  1  0.97752509  0.36961576  0.80348946  1
  O  O103  1  0.99167387  0.99443172  0.86981114  1
