# generated using pymatgen
data_NaLi2MnPCO7
_symmetry_space_group_name_H-M   'P 1'
_cell_length_a   8.68884647
_cell_length_b   6.70327949
_cell_length_c   10.08331654
_cell_angle_alpha   90.05612383
_cell_angle_beta   88.82205656
_cell_angle_gamma   89.65033811
_symmetry_Int_Tables_number   1
_chemical_formula_structural   NaLi2MnPCO7
_chemical_formula_sum   'Na4 Li8 Mn4 P4 C4 O28'
_cell_volume   587.15492874
_cell_formula_units_Z   4
loop_
 _symmetry_equiv_pos_site_id
 _symmetry_equiv_pos_as_xyz
  1  'x, y, z'
loop_
 _atom_site_type_symbol
 _atom_site_label
 _atom_site_symmetry_multiplicity
 _atom_site_fract_x
 _atom_site_fract_y
 _atom_site_fract_z
 _atom_site_occupancy
  Na  Na0  1  0.08387103  0.25238131  0.87808692  1
  Na  Na1  1  0.25134131  0.99859042  0.62447010  1
  Na  Na2  1  0.25168380  0.50159217  0.12665436  1
  Na  Na3  1  0.74793419  0.49947437  0.37591167  1
  Li  Li4  1  0.08161971  0.23983913  0.37656973  1
  Li  Li5  1  0.26725992  0.48111039  0.61450031  1
  Li  Li6  1  0.26766596  0.01633508  0.12095872  1
  Li  Li7  1  0.73346192  0.51875259  0.88291908  1
  Li  Li8  1  0.73326371  0.98006723  0.88426542  1
  Li  Li9  1  0.73531568  0.98601693  0.38366100  1
  Li  Li10  1  0.91437177  0.74672480  0.62548207  1
  Li  Li11  1  0.91303943  0.76385068  0.12438803  1
  Mn  Mn12  1  0.35843447  0.75232837  0.88736522  1
  Mn  Mn13  1  0.35825513  0.74761455  0.38880015  1
  Mn  Mn14  1  0.64618296  0.24489362  0.61284942  1
  Mn  Mn15  1  0.64392558  0.25004469  0.10982115  1
  P  P16  1  0.41512065  0.25482347  0.85034469  1
  P  P17  1  0.40549402  0.24064613  0.35152298  1
  P  P18  1  0.59725898  0.74420831  0.64911676  1
  P  P19  1  0.59408621  0.75932077  0.14592583  1
  C  C20  1  0.04120776  0.74942691  0.86724497  1
  C  C21  1  0.04490848  0.76022894  0.36538926  1
  C  C22  1  0.95403551  0.25798795  0.62942060  1
  C  C23  1  0.94768339  0.23889535  0.13901655  1
  O  O24  1  0.10037020  0.28128636  0.64734161  1
  O  O25  1  0.09573685  0.22326293  0.15383634  1
  O  O26  1  0.08913862  0.75031596  0.98852465  1
  O  O27  1  0.09031679  0.75119362  0.48768254  1
  O  O28  1  0.14087034  0.74984376  0.76861768  1
  O  O29  1  0.14617494  0.75080155  0.26807688  1
  O  O30  1  0.32238602  0.06892625  0.89766770  1
  O  O31  1  0.32378476  0.43887797  0.90273319  1
  O  O32  1  0.30393734  0.06289473  0.39788969  1
  O  O33  1  0.31426346  0.43064982  0.39722037  1
  O  O34  1  0.42092343  0.26155203  0.69544636  1
  O  O35  1  0.42978497  0.73257657  0.59668368  1
  O  O36  1  0.42007715  0.23615540  0.19652899  1
  O  O37  1  0.42692376  0.76863696  0.09372570  1
  O  O38  1  0.58421529  0.25041141  0.89896966  1
  O  O39  1  0.58537699  0.75316976  0.80458252  1
  O  O40  1  0.57061896  0.23291000  0.40684233  1
  O  O41  1  0.58149566  0.76777420  0.30072599  1
  O  O42  1  0.69712589  0.56194794  0.60640809  1
  O  O43  1  0.68703506  0.92821134  0.59614015  1
  O  O44  1  0.68354015  0.56826620  0.10078841  1
  O  O45  1  0.69521703  0.93367011  0.09280877  1
  O  O46  1  0.85998263  0.24433828  0.73132916  1
  O  O47  1  0.85737807  0.24431189  0.24311928  1
  O  O48  1  0.90161992  0.24662340  0.50993354  1
  O  O49  1  0.88817985  0.25052904  0.02224870  1
  O  O50  1  0.89520642  0.74858365  0.84184197  1
  O  O51  1  0.90089792  0.77712770  0.33759708  1
