# generated using pymatgen
data_VCr2O6
_symmetry_space_group_name_H-M   'P 1'
_cell_length_a   4.44210393
_cell_length_b   16.65831781
_cell_length_c   4.91906694
_cell_angle_alpha   90.00001414
_cell_angle_beta   89.99818196
_cell_angle_gamma   90.00011449
_symmetry_Int_Tables_number   1
_chemical_formula_structural   VCr2O6
_chemical_formula_sum   'V4 Cr8 O24'
_cell_volume   364.00101209
_cell_formula_units_Z   4
loop_
 _symmetry_equiv_pos_site_id
 _symmetry_equiv_pos_as_xyz
  1  'x, y, z'
loop_
 _atom_site_type_symbol
 _atom_site_label
 _atom_site_symmetry_multiplicity
 _atom_site_fract_x
 _atom_site_fract_y
 _atom_site_fract_z
 _atom_site_occupancy
  V  V0  1  -0.00000444  0.38769847  0.25000094  1
  V  V1  1  0.00000512  0.61233167  0.75000222  1
  V  V2  1  0.50000362  0.11230768  0.74999982  1
  V  V3  1  0.49999377  0.88768961  0.24999812  1
  Cr  Cr4  1  -0.00000208  0.05048190  0.24999912  1
  Cr  Cr5  1  0.00000340  0.28238090  0.74999721  1
  Cr  Cr6  1  -0.00000403  0.71756837  0.25000275  1
  Cr  Cr7  1  -0.00000182  0.94951968  0.74999505  1
  Cr  Cr8  1  0.49999603  0.21758351  0.24999821  1
  Cr  Cr9  1  0.49999874  0.55046716  0.25000447  1
  Cr  Cr10  1  0.50000536  0.78242972  0.75000440  1
  Cr  Cr11  1  0.49999882  0.44953129  0.75000440  1
  O  O12  1  0.23957310  0.04144903  0.59195444  1
  O  O13  1  0.23952993  0.95853190  0.09197663  1
  O  O14  1  0.27491562  0.20577203  0.58735812  1
  O  O15  1  0.27490731  0.79421237  0.08737978  1
  O  O16  1  0.22506488  0.37154678  0.56986883  1
  O  O17  1  0.22510364  0.62846108  0.06989158  1
  O  O18  1  0.27494689  0.12843969  0.06985476  1
  O  O19  1  0.27487910  0.87155033  0.56987712  1
  O  O20  1  0.22505134  0.29422240  0.08738957  1
  O  O21  1  0.22508656  0.70580322  0.58738386  1
  O  O22  1  0.26042958  0.45854461  0.09195848  1
  O  O23  1  0.26048330  0.54147137  0.59196505  1
  O  O24  1  0.73956868  0.45854358  0.40804770  1
  O  O25  1  0.73951656  0.54147174  0.90803984  1
  O  O26  1  0.77494964  0.29422160  0.41260908  1
  O  O27  1  0.77491737  0.70580338  0.91261337  1
  O  O28  1  0.72505054  0.12843947  0.43014398  1
  O  O29  1  0.72512545  0.87155019  0.93011767  1
  O  O30  1  0.77493878  0.37154720  0.93013448  1
  O  O31  1  0.77489654  0.62846126  0.43010925  1
  O  O32  1  0.72508095  0.20577231  0.91264087  1
  O  O33  1  0.72509824  0.79421278  0.41261784  1
  O  O34  1  0.76042307  0.04144903  0.90804316  1
  O  O35  1  0.76047043  0.95853269  0.40801784  1
