# generated using pymatgen
data_Li2Fe2(PO4)3
_symmetry_space_group_name_H-M   'P 1'
_cell_length_a   8.54628005
_cell_length_b   8.53604359
_cell_length_c   8.96037424
_cell_angle_alpha   89.98707379
_cell_angle_beta   60.19377283
_cell_angle_gamma   119.50497231
_symmetry_Int_Tables_number   1
_chemical_formula_structural   Li2Fe2(PO4)3
_chemical_formula_sum   'Li4 Fe4 P6 O24'
_cell_volume   466.93292026
_cell_formula_units_Z   2
loop_
 _symmetry_equiv_pos_site_id
 _symmetry_equiv_pos_as_xyz
  1  'x, y, z'
loop_
 _atom_site_type_symbol
 _atom_site_label
 _atom_site_symmetry_multiplicity
 _atom_site_fract_x
 _atom_site_fract_y
 _atom_site_fract_z
 _atom_site_occupancy
  Li  Li0  1  0.47532444  0.22143540  0.12793443  1
  Li  Li1  1  0.34161307  0.34882193  0.45246741  1
  Li  Li2  1  0.65838693  0.65117807  0.54753259  1
  Li  Li3  1  0.52467556  0.77856460  0.87206557  1
  Fe  Fe4  1  0.20784929  0.84976069  0.44004151  1
  Fe  Fe5  1  0.20980951  0.35588836  0.92688889  1
  Fe  Fe6  1  0.79019049  0.64411164  0.07311111  1
  Fe  Fe7  1  0.79215071  0.15023931  0.55995849  1
  P  P8  1  0.28309920  0.53333611  0.25090459  1
  P  P9  1  0.29425061  0.75440845  0.74898524  1
  P  P10  1  0.00606806  0.03906888  0.74502393  1
  P  P11  1  0.99393194  0.96093112  0.25497607  1
  P  P12  1  0.70574939  0.24559155  0.25101476  1
  P  P13  1  0.71690080  0.46666389  0.74909541  1
  O  O14  1  0.18290703  0.98782353  0.26303075  1
  O  O15  1  0.21379265  0.66909692  0.30638092  1
  O  O16  1  0.32099442  0.52916963  0.06287636  1
  O  O17  1  0.09414947  0.12007369  0.09204447  1
  O  O18  1  0.11803275  0.32891873  0.39185603  1
  O  O19  1  0.26953093  0.75982653  0.59215153  1
  O  O20  1  0.07892007  0.68234628  0.93483026  1
  O  O21  1  0.49456939  0.59867732  0.24018150  1
  O  O22  1  0.46938319  0.94763724  0.73955834  1
  O  O23  1  0.14014937  0.24239815  0.74969704  1
  O  O24  1  0.37045447  0.62021801  0.74794204  1
  O  O25  1  0.18240335  0.04657155  0.56119492  1
  O  O26  1  0.81759665  0.95342845  0.43880508  1
  O  O27  1  0.62954553  0.37978199  0.25205796  1
  O  O28  1  0.85985063  0.75760185  0.25030296  1
  O  O29  1  0.53061681  0.05236276  0.26044166  1
  O  O30  1  0.50543061  0.40132268  0.75981850  1
  O  O31  1  0.92107993  0.31765372  0.06516974  1
  O  O32  1  0.73046907  0.24017347  0.40784847  1
  O  O33  1  0.88196725  0.67108127  0.60814397  1
  O  O34  1  0.90585053  0.87992631  0.90795553  1
  O  O35  1  0.67900558  0.47083037  0.93712364  1
  O  O36  1  0.78620735  0.33090308  0.69361908  1
  O  O37  1  0.81709297  0.01217647  0.73696925  1
