# generated using pymatgen
data_Mn5Ni(PO4)6
_symmetry_space_group_name_H-M   'P 1'
_cell_length_a   8.58513917
_cell_length_b   8.56369013
_cell_length_c   8.56368998
_cell_angle_alpha   59.99999853
_cell_angle_beta   60.08260850
_cell_angle_gamma   60.08261379
_symmetry_Int_Tables_number   1
_chemical_formula_structural   Mn5Ni(PO4)6
_chemical_formula_sum   'Mn5 Ni1 P6 O24'
_cell_volume   445.75413461
_cell_formula_units_Z   1
loop_
 _symmetry_equiv_pos_site_id
 _symmetry_equiv_pos_as_xyz
  1  'x, y, z'
loop_
 _atom_site_type_symbol
 _atom_site_label
 _atom_site_symmetry_multiplicity
 _atom_site_fract_x
 _atom_site_fract_y
 _atom_site_fract_z
 _atom_site_occupancy
  Mn  Mn0  1  0.98947848  0.00350684  0.00350684  1
  Mn  Mn1  1  0.07059662  0.64313479  0.64313479  1
  Mn  Mn2  1  0.49773607  0.50075498  0.50075498  1
  Mn  Mn3  1  0.42933187  0.85688938  0.85688938  1
  Mn  Mn4  1  0.93112821  0.35629093  0.35629093  1
  Ni  Ni5  1  0.57139838  0.14286721  0.14286721  1
  P  P6  1  0.25026252  0.24905010  0.54053723  1
  P  P7  1  0.25026252  0.96015015  0.24905010  1
  P  P8  1  0.25026252  0.54053723  0.96015015  1
  P  P9  1  0.75390744  0.46048858  0.03709670  1
  P  P10  1  0.75390744  0.03709670  0.74850829  1
  P  P11  1  0.75390744  0.74850829  0.46048858  1
  O  O12  1  0.06399159  0.12213434  0.30259346  1
  O  O13  1  0.06399159  0.51128060  0.12213434  1
  O  O14  1  0.06399159  0.30259346  0.51128060  1
  O  O15  1  0.23192260  0.08400516  0.74137600  1
  O  O16  1  0.43313972  0.19628649  0.38696747  1
  O  O17  1  0.25590273  0.41924637  0.56242027  1
  O  O18  1  0.23192260  0.94269723  0.08400516  1
  O  O19  1  0.25590273  0.76243063  0.41924637  1
  O  O20  1  0.56731311  0.62108501  0.00890899  1
  O  O21  1  0.25590273  0.56242027  0.76243063  1
  O  O22  1  0.77165888  0.26554887  0.05476961  1
  O  O23  1  0.56731311  0.00890899  0.80269188  1
  O  O24  1  0.43313972  0.98360632  0.19628649  1
  O  O25  1  0.23192260  0.74137600  0.94269723  1
  O  O26  1  0.73952965  0.44950182  0.23382597  1
  O  O27  1  0.43313972  0.38696747  0.98360632  1
  O  O28  1  0.73952965  0.23382597  0.57714257  1
  O  O29  1  0.77165888  0.05476961  0.90802364  1
  O  O30  1  0.73952965  0.57714257  0.44950182  1
  O  O31  1  0.56731311  0.80269188  0.62108501  1
  O  O32  1  0.77165888  0.90802364  0.26554887  1
  O  O33  1  0.93581489  0.68971627  0.49884646  1
  O  O34  1  0.93581489  0.49884646  0.87562239  1
  O  O35  1  0.93581489  0.87562239  0.68971627  1
