# generated using pymatgen
data_Er2(WO4)3
_symmetry_space_group_name_H-M   'P 1'
_cell_length_a   6.90449994
_cell_length_b   6.90449959
_cell_length_c   11.38700814
_cell_angle_alpha   79.01201731
_cell_angle_beta   100.98798001
_cell_angle_gamma   67.85232215
_symmetry_Int_Tables_number   1
_chemical_formula_structural   Er2(WO4)3
_chemical_formula_sum   'Er4 W6 O24'
_cell_volume   472.56124356
_cell_formula_units_Z   2
loop_
 _symmetry_equiv_pos_site_id
 _symmetry_equiv_pos_as_xyz
  1  'x, y, z'
loop_
 _atom_site_type_symbol
 _atom_site_label
 _atom_site_symmetry_multiplicity
 _atom_site_fract_x
 _atom_site_fract_y
 _atom_site_fract_z
 _atom_site_occupancy
  Er  Er0  1  0.04968197  0.69502858  0.09254368  1
  Er  Er1  1  0.30497142  0.95031803  0.59254368  1
  Er  Er2  1  0.69502858  0.04968197  0.40745632  1
  Er  Er3  1  0.95031803  0.30497142  0.90745632  1
  W  W4  1  0.11831879  0.11831879  0.25000000  1
  W  W5  1  0.20446787  0.51016795  0.45035766  1
  W  W6  1  0.48983205  0.79553213  0.95035766  1
  W  W7  1  0.51016795  0.20446787  0.04964234  1
  W  W8  1  0.79553213  0.48983205  0.54964234  1
  W  W9  1  0.88168121  0.88168121  0.75000000  1
  O  O10  1  0.05354777  0.02658774  0.39484699  1
  O  O11  1  0.02658774  0.05354777  0.10515301  1
  O  O12  1  0.10374365  0.31993397  0.57600774  1
  O  O13  1  0.31993397  0.10374365  0.92399226  1
  O  O14  1  0.00999275  0.41024634  0.21957211  1
  O  O15  1  0.41024634  0.00999275  0.28042789  1
  O  O16  1  0.38135004  0.21836526  0.46184257  1
  O  O17  1  0.21836526  0.38135004  0.03815743  1
  O  O18  1  0.20267112  0.65437308  0.29722658  1
  O  O19  1  0.32997065  0.60868105  0.56208289  1
  O  O20  1  0.34562692  0.79732888  0.79722658  1
  O  O21  1  0.60868105  0.32997065  0.93791711  1
  O  O22  1  0.39131895  0.67002935  0.06208289  1
  O  O23  1  0.65437308  0.20267112  0.20277342  1
  O  O24  1  0.67002935  0.39131895  0.43791711  1
  O  O25  1  0.79732888  0.34562692  0.70277342  1
  O  O26  1  0.78163474  0.61864996  0.96184257  1
  O  O27  1  0.61864996  0.78163474  0.53815743  1
  O  O28  1  0.58975366  0.99000725  0.71957211  1
  O  O29  1  0.99000725  0.58975366  0.78042789  1
  O  O30  1  0.68006603  0.89625635  0.07600774  1
  O  O31  1  0.89625635  0.68006603  0.42399226  1
  O  O32  1  0.97341226  0.94645223  0.89484699  1
  O  O33  1  0.94645223  0.97341226  0.60515301  1
