# generated using pymatgen
data_MnPO4
_symmetry_space_group_name_H-M   'P 1'
_cell_length_a   8.62601975
_cell_length_b   8.58204330
_cell_length_c   8.58204312
_cell_angle_alpha   60.00000414
_cell_angle_beta   60.16850611
_cell_angle_gamma   60.16850547
_symmetry_Int_Tables_number   1
_chemical_formula_structural   MnPO4
_chemical_formula_sum   'Mn6 P6 O24'
_cell_volume   450.37918182
_cell_formula_units_Z   6
loop_
 _symmetry_equiv_pos_site_id
 _symmetry_equiv_pos_as_xyz
  1  'x, y, z'
loop_
 _atom_site_type_symbol
 _atom_site_label
 _atom_site_symmetry_multiplicity
 _atom_site_fract_x
 _atom_site_fract_y
 _atom_site_fract_z
 _atom_site_occupancy
  Mn  Mn0  1  0.00000000  0.00000000  0.00000000  1
  Mn  Mn1  1  0.06874484  0.64375139  0.64375139  1
  Mn  Mn2  1  0.56874484  0.14375139  0.14375139  1
  Mn  Mn3  1  0.50000000  0.50000000  0.50000000  1
  Mn  Mn4  1  0.43125516  0.85624861  0.85624861  1
  Mn  Mn5  1  0.93125516  0.35624861  0.35624861  1
  P  P6  1  0.25000000  0.25000000  0.54020126  1
  P  P7  1  0.25000000  0.95979874  0.25000000  1
  P  P8  1  0.25000000  0.54020126  0.95979874  1
  P  P9  1  0.75000000  0.45979874  0.04020126  1
  P  P10  1  0.75000000  0.04020126  0.75000000  1
  P  P11  1  0.75000000  0.75000000  0.45979874  1
  O  O12  1  0.06700551  0.11986745  0.30142156  1
  O  O13  1  0.06700551  0.51170548  0.11986745  1
  O  O14  1  0.06700551  0.30142156  0.51170548  1
  O  O15  1  0.23671643  0.08352572  0.73606289  1
  O  O16  1  0.43299449  0.19857944  0.38013255  1
  O  O17  1  0.26328357  0.41647428  0.55630504  1
  O  O18  1  0.23671643  0.94369496  0.08352572  1
  O  O19  1  0.26328357  0.76393711  0.41647428  1
  O  O20  1  0.56700551  0.61986745  0.01170548  1
  O  O21  1  0.26328357  0.55630504  0.76393711  1
  O  O22  1  0.76328357  0.26393711  0.05630504  1
  O  O23  1  0.56700551  0.01170548  0.80142056  1
  O  O24  1  0.43299449  0.98829452  0.19857944  1
  O  O25  1  0.23671643  0.73606289  0.94369496  1
  O  O26  1  0.73671643  0.44369496  0.23606289  1
  O  O27  1  0.43299449  0.38013255  0.98829452  1
  O  O28  1  0.73671643  0.23606289  0.58352572  1
  O  O29  1  0.76328357  0.05630504  0.91647428  1
  O  O30  1  0.73671643  0.58352572  0.44369496  1
  O  O31  1  0.56700551  0.80142056  0.61986745  1
  O  O32  1  0.76328357  0.91647428  0.26393711  1
  O  O33  1  0.93299449  0.69857944  0.48829452  1
  O  O34  1  0.93299449  0.48829452  0.88013255  1
  O  O35  1  0.93299449  0.88013255  0.69857944  1
