# generated using pymatgen
data_Mn3CuNi2(PO4)6
_symmetry_space_group_name_H-M   'P 1'
_cell_length_a   8.43322431
_cell_length_b   8.43322475
_cell_length_c   8.43322444
_cell_angle_alpha   60.61911414
_cell_angle_beta   60.61911149
_cell_angle_gamma   60.61911193
_symmetry_Int_Tables_number   1
_chemical_formula_structural   Mn3CuNi2(PO4)6
_chemical_formula_sum   'Mn3 Cu1 Ni2 P6 O24'
_cell_volume   430.02705739
_cell_formula_units_Z   1
loop_
 _symmetry_equiv_pos_site_id
 _symmetry_equiv_pos_as_xyz
  1  'x, y, z'
loop_
 _atom_site_type_symbol
 _atom_site_label
 _atom_site_symmetry_multiplicity
 _atom_site_fract_x
 _atom_site_fract_y
 _atom_site_fract_z
 _atom_site_occupancy
  Mn  Mn0  1  0.14148180  0.14148180  0.14148180  1
  Mn  Mn1  1  0.35804256  0.35804256  0.35804256  1
  Mn  Mn2  1  0.64187938  0.64187938  0.64187938  1
  Cu  Cu3  1  0.85700156  0.85700156  0.85700156  1
  Ni  Ni4  1  0.99801636  0.99801636  0.99801636  1
  Ni  Ni5  1  0.49980684  0.49980684  0.49980684  1
  P  P6  1  0.04112411  0.75052059  0.45817082  1
  P  P7  1  0.45817082  0.04112411  0.75052059  1
  P  P8  1  0.75052059  0.45817082  0.04112411  1
  P  P9  1  0.24987912  0.54091584  0.96065774  1
  P  P10  1  0.54091584  0.96065774  0.24987912  1
  P  P11  1  0.96065774  0.24987912  0.54091584  1
  O  O12  1  0.12296268  0.31010101  0.50447710  1
  O  O13  1  0.31010101  0.50447710  0.12296268  1
  O  O14  1  0.05642686  0.91374066  0.25732285  1
  O  O15  1  0.50447710  0.12296268  0.31010101  1
  O  O16  1  0.01920157  0.80462865  0.61545075  1
  O  O17  1  0.24166507  0.58275721  0.43999969  1
  O  O18  1  0.25732285  0.05642686  0.91374066  1
  O  O19  1  0.43999969  0.24166507  0.58275721  1
  O  O20  1  0.19509361  0.37863120  0.99023331  1
  O  O21  1  0.58275721  0.43999969  0.24166507  1
  O  O22  1  0.08914711  0.73915368  0.94791640  1
  O  O23  1  0.37863120  0.99023331  0.19509361  1
  O  O24  1  0.61545075  0.01920157  0.80462865  1
  O  O25  1  0.91374066  0.25732285  0.05642686  1
  O  O26  1  0.41711066  0.55235379  0.76172656  1
  O  O27  1  0.80462865  0.61545075  0.01920157  1
  O  O28  1  0.55235379  0.76172656  0.41711066  1
  O  O29  1  0.73915368  0.94791640  0.08914711  1
  O  O30  1  0.76172656  0.41711066  0.55235379  1
  O  O31  1  0.99023331  0.19509361  0.37863120  1
  O  O32  1  0.48914678  0.87903437  0.69421970  1
  O  O33  1  0.94791640  0.08914711  0.73915368  1
  O  O34  1  0.69421970  0.48914678  0.87903437  1
  O  O35  1  0.87903437  0.69421970  0.48914678  1
