# generated using pymatgen
data_LiTiNiO4
_symmetry_space_group_name_H-M   'P 1'
_cell_length_a   5.97050804
_cell_length_b   5.82446864
_cell_length_c   5.82446833
_cell_angle_alpha   61.91750636
_cell_angle_beta   59.16705666
_cell_angle_gamma   59.16705850
_symmetry_Int_Tables_number   1
_chemical_formula_structural   LiTiNiO4
_chemical_formula_sum   'Li2 Ti2 Ni2 O8'
_cell_volume   143.26986876
_cell_formula_units_Z   2
loop_
 _symmetry_equiv_pos_site_id
 _symmetry_equiv_pos_as_xyz
  1  'x, y, z'
loop_
 _atom_site_type_symbol
 _atom_site_label
 _atom_site_symmetry_multiplicity
 _atom_site_fract_x
 _atom_site_fract_y
 _atom_site_fract_z
 _atom_site_occupancy
  Li  Li0  1  0.12192825  0.12807175  0.12807175  1
  Li  Li1  1  0.87807175  0.87192825  0.87192825  1
  Ti  Ti2  1  0.50000000  0.00000000  0.50000000  1
  Ti  Ti3  1  0.50000000  0.50000000  0.00000000  1
  Ni  Ni4  1  0.00000000  0.50000000  0.50000000  1
  Ni  Ni5  1  0.50000000  0.50000000  0.50000000  1
  O  O6  1  0.26389499  0.26308390  0.26308390  1
  O  O7  1  0.26157705  0.26003071  0.71681518  1
  O  O8  1  0.26157705  0.71681518  0.26003071  1
  O  O9  1  0.70993721  0.26308390  0.26308390  1
  O  O10  1  0.29006279  0.73691610  0.73691610  1
  O  O11  1  0.73842295  0.73996929  0.28318482  1
  O  O12  1  0.73842295  0.28318482  0.73996929  1
  O  O13  1  0.73610501  0.73691610  0.73691610  1
