# generated using pymatgen
data_NaLi5Mn2P2(CO7)2
_symmetry_space_group_name_H-M   'P 1'
_cell_length_a   8.63863792
_cell_length_b   6.70172211
_cell_length_c   10.00903733
_cell_angle_alpha   89.84086408
_cell_angle_beta   87.41027400
_cell_angle_gamma   89.12205097
_symmetry_Int_Tables_number   1
_chemical_formula_structural   NaLi5Mn2P2(CO7)2
_chemical_formula_sum   'Na2 Li10 Mn4 P4 C4 O28'
_cell_volume   578.79968420
_cell_formula_units_Z   2
loop_
 _symmetry_equiv_pos_site_id
 _symmetry_equiv_pos_as_xyz
  1  'x, y, z'
loop_
 _atom_site_type_symbol
 _atom_site_label
 _atom_site_symmetry_multiplicity
 _atom_site_fract_x
 _atom_site_fract_y
 _atom_site_fract_z
 _atom_site_occupancy
  Na  Na0  1  0.24763145  0.50146759  0.12594273  1
  Na  Na1  1  0.75236855  0.49853241  0.37405727  1
  Li  Li2  1  0.08522228  0.24147453  0.86933281  1
  Li  Li3  1  0.09129006  0.22138496  0.37452095  1
  Li  Li4  1  0.26836261  0.03373937  0.61674009  1
  Li  Li5  1  0.26683891  0.46647397  0.61515982  1
  Li  Li6  1  0.27315672  0.02762539  0.11380899  1
  Li  Li7  1  0.73316109  0.53352603  0.88484018  1
  Li  Li8  1  0.73163739  0.96626063  0.88325991  1
  Li  Li9  1  0.72684328  0.97237461  0.38619101  1
  Li  Li10  1  0.91477772  0.75852547  0.63066719  1
  Li  Li11  1  0.90870994  0.77861504  0.12547905  1
  Mn  Mn12  1  0.34934043  0.75694330  0.88196964  1
  Mn  Mn13  1  0.35362291  0.75133778  0.39329893  1
  Mn  Mn14  1  0.65065957  0.24305670  0.61803036  1
  Mn  Mn15  1  0.64637709  0.24866222  0.10670107  1
  P  P16  1  0.40657334  0.25231679  0.85230121  1
  P  P17  1  0.40963819  0.24077096  0.36017398  1
  P  P18  1  0.59342666  0.74768321  0.64769879  1
  P  P19  1  0.59036181  0.75922904  0.13982602  1
  C  C20  1  0.03613357  0.75073506  0.86341884  1
  C  C21  1  0.04168184  0.76304734  0.36207060  1
  C  C22  1  0.96386643  0.24926494  0.63658116  1
  C  C23  1  0.95831816  0.23695266  0.13792940  1
  O  O24  1  0.10914441  0.25471219  0.66660698  1
  O  O25  1  0.10043556  0.21858609  0.17466510  1
  O  O26  1  0.07606964  0.74832363  0.98661096  1
  O  O27  1  0.07511233  0.75393831  0.48636694  1
  O  O28  1  0.14091766  0.75983851  0.76609788  1
  O  O29  1  0.15278451  0.75381764  0.26923053  1
  O  O30  1  0.30833541  0.07502562  0.90786704  1
  O  O31  1  0.31387834  0.44155236  0.89698658  1
  O  O32  1  0.30563374  0.06845619  0.41606136  1
  O  O33  1  0.31974490  0.43369980  0.40578749  1
  O  O34  1  0.41757647  0.24226616  0.69565858  1
  O  O35  1  0.42382786  0.75112111  0.60028946  1
  O  O36  1  0.42235454  0.22942905  0.20407197  1
  O  O37  1  0.42375968  0.76973013  0.08859439  1
  O  O38  1  0.57617214  0.24887889  0.89971054  1
  O  O39  1  0.58242353  0.75773384  0.80434142  1
  O  O40  1  0.57624032  0.23026987  0.41140561  1
  O  O41  1  0.57764546  0.77057095  0.29592803  1
  O  O42  1  0.68612166  0.55844764  0.60301342  1
  O  O43  1  0.69166459  0.92497438  0.59213296  1
  O  O44  1  0.68025510  0.56630020  0.09421251  1
  O  O45  1  0.69436626  0.93154381  0.08393864  1
  O  O46  1  0.85908234  0.24016149  0.73390212  1
  O  O47  1  0.84721549  0.24618236  0.23076947  1
  O  O48  1  0.92393036  0.25167637  0.51338904  1
  O  O49  1  0.92488767  0.24606169  0.01363306  1
  O  O50  1  0.89085559  0.74528781  0.83339302  1
  O  O51  1  0.89956444  0.78141391  0.32533490  1
