# generated using pymatgen
data_Li7Fe3Ni(PO4)6
_symmetry_space_group_name_H-M   'P 1'
_cell_length_a   8.81594897
_cell_length_b   8.81594945
_cell_length_c   8.66528173
_cell_angle_alpha   59.42314171
_cell_angle_beta   59.42313525
_cell_angle_gamma   59.99999828
_symmetry_Int_Tables_number   1
_chemical_formula_structural   Li7Fe3Ni(PO4)6
_chemical_formula_sum   'Li7 Fe3 Ni1 P6 O24'
_cell_volume   472.02344337
_cell_formula_units_Z   1
loop_
 _symmetry_equiv_pos_site_id
 _symmetry_equiv_pos_as_xyz
  1  'x, y, z'
loop_
 _atom_site_type_symbol
 _atom_site_label
 _atom_site_symmetry_multiplicity
 _atom_site_fract_x
 _atom_site_fract_y
 _atom_site_fract_z
 _atom_site_occupancy
  Li  Li0  1  0.24242772  0.70111756  0.61806700  1
  Li  Li1  1  0.43838672  0.24242772  0.61806700  1
  Li  Li2  1  0.20422672  0.66082269  0.28961311  1
  Li  Li3  1  0.70111756  0.43838672  0.61806700  1
  Li  Li4  1  0.66082269  0.84533847  0.28961311  1
  Li  Li5  1  0.84533847  0.20422672  0.28961311  1
  Li  Li6  1  0.99018935  0.99018935  0.02943296  1
  Fe  Fe7  1  0.35371973  0.35371973  0.93884080  1
  Fe  Fe8  1  0.13946693  0.13946693  0.58160020  1
  Fe  Fe9  1  0.64514561  0.64514561  0.06456417  1
  Ni  Ni10  1  0.85139757  0.85139757  0.44580728  1
  P  P11  1  0.04699870  0.45586142  0.75005881  1
  P  P12  1  0.45586142  0.74708106  0.75005881  1
  P  P13  1  0.74708106  0.04699870  0.75005881  1
  P  P14  1  0.24649624  0.95935616  0.24710262  1
  P  P15  1  0.54704497  0.24649624  0.24710262  1
  P  P16  1  0.95935616  0.54704497  0.24710262  1
  O  O17  1  0.05652374  0.27115296  0.75968357  1
  O  O18  1  0.24102628  0.42745652  0.74233100  1
  O  O19  1  0.03198975  0.62027070  0.56303171  1
  O  O20  1  0.50207135  0.68234244  0.92625792  1
  O  O21  1  0.27115296  0.91263973  0.75968357  1
  O  O22  1  0.42745652  0.58918719  0.74233100  1
  O  O23  1  0.68234244  0.88932929  0.92625792  1
  O  O24  1  0.58918719  0.24102628  0.74233100  1
  O  O25  1  0.21065099  0.97250267  0.43643799  1
  O  O26  1  0.06832203  0.96972989  0.23992327  1
  O  O27  1  0.88932929  0.50207135  0.92625792  1
  O  O28  1  0.38040835  0.21065099  0.43643799  1
  O  O29  1  0.62027070  0.78470784  0.56303171  1
  O  O30  1  0.11501131  0.49676790  0.07419373  1
  O  O31  1  0.91263973  0.05652374  0.75968357  1
  O  O32  1  0.78470784  0.03198975  0.56303171  1
  O  O33  1  0.38743653  0.75967079  0.25143146  1
  O  O34  1  0.31402705  0.11501131  0.07419373  1
  O  O35  1  0.60146121  0.38743653  0.25143146  1
  O  O36  1  0.49676790  0.31402705  0.07419373  1
  O  O37  1  0.72202381  0.06832203  0.23992327  1
  O  O38  1  0.97250267  0.38040835  0.43643799  1
  O  O39  1  0.75967079  0.60146121  0.25143146  1
  O  O40  1  0.96972989  0.72202381  0.23992327  1
