# generated using pymatgen
data_Li5Fe8(BO3)8
_symmetry_space_group_name_H-M   'P 1'
_cell_length_a   5.25138243
_cell_length_b   9.12913762
_cell_length_c   10.14163181
_cell_angle_alpha   91.90057271
_cell_angle_beta   90.75427475
_cell_angle_gamma   89.14734106
_symmetry_Int_Tables_number   1
_chemical_formula_structural   Li5Fe8(BO3)8
_chemical_formula_sum   'Li5 Fe8 B8 O24'
_cell_volume   485.83551527
_cell_formula_units_Z   1
loop_
 _symmetry_equiv_pos_site_id
 _symmetry_equiv_pos_as_xyz
  1  'x, y, z'
loop_
 _atom_site_type_symbol
 _atom_site_label
 _atom_site_symmetry_multiplicity
 _atom_site_fract_x
 _atom_site_fract_y
 _atom_site_fract_z
 _atom_site_occupancy
  Li  Li0  1  0.82365772  0.83301613  0.15457168  1
  Li  Li1  1  0.67927201  0.66923856  0.42136309  1
  Li  Li2  1  0.66435352  0.67550121  0.90473783  1
  Li  Li3  1  0.34243358  0.32802213  0.65370791  1
  Li  Li4  1  0.16638388  0.17021521  0.39143845  1
  Fe  Fe5  1  0.83905773  0.15836747  0.63427218  1
  Fe  Fe6  1  0.82770410  0.49497218  0.13538619  1
  Fe  Fe7  1  0.68613281  0.00542128  0.87835854  1
  Fe  Fe8  1  0.65393144  0.33757330  0.37574858  1
  Fe  Fe9  1  0.32626720  0.66286790  0.63001789  1
  Fe  Fe10  1  0.33309629  0.00219035  0.12583664  1
  Fe  Fe11  1  0.16622429  0.84153459  0.38297601  1
  Fe  Fe12  1  0.16739497  0.50118270  0.88132550  1
  B  B13  1  0.83069391  0.49103541  0.63182093  1
  B  B14  1  0.83070494  0.16315818  0.13630882  1
  B  B15  1  0.66690456  0.00116431  0.37486191  1
  B  B16  1  0.67533090  0.34140455  0.86790783  1
  B  B17  1  0.33957521  0.00530093  0.62461867  1
  B  B18  1  0.33204205  0.67599908  0.11859194  1
  B  B19  1  0.16252897  0.50154249  0.38268623  1
  B  B20  1  0.16984114  0.82695020  0.88741617  1
  O  O21  1  0.90320638  0.51230412  0.34760642  1
  O  O22  1  0.91085110  0.82760502  0.88979952  1
  O  O23  1  0.80966783  0.21365262  0.83260796  1
  O  O24  1  0.79404927  0.12332100  0.42837711  1
  O  O25  1  0.78693998  0.86658944  0.35772223  1
  O  O26  1  0.80603779  0.46573711  0.91335413  1
  O  O27  1  0.70026662  0.61853112  0.61850770  1
  O  O28  1  0.69529295  0.03641470  0.09466776  1
  O  O29  1  0.71328351  0.35666489  0.59653569  1
  O  O30  1  0.70292530  0.29031911  0.16849325  1
  O  O31  1  0.59256279  0.67366775  0.11093882  1
  O  O32  1  0.59116184  0.01177162  0.66921097  1
  O  O33  1  0.41275073  0.01729360  0.33341467  1
  O  O34  1  0.41561938  0.35014801  0.85274298  1
  O  O35  1  0.30397108  0.69783255  0.84450580  1
  O  O36  1  0.29875110  0.62942439  0.41340458  1
  O  O37  1  0.27807553  0.36638143  0.39208629  1
  O  O38  1  0.31621025  0.94503555  0.93109545  1
  O  O39  1  0.18579671  0.55784402  0.07535807  1
  O  O40  1  0.20244021  0.13712384  0.61333840  1
  O  O41  1  0.23207500  0.87507514  0.58781739  1
  O  O42  1  0.20186504  0.80411123  0.16469494  1
  O  O43  1  0.09031869  0.15133122  0.14789683  1
  O  O44  1  0.08523371  0.48679639  0.67744004  1
