# generated using pymatgen
data_YReN3
_symmetry_space_group_name_H-M   'P 1'
_cell_length_a   3.95057031
_cell_length_b   3.95056645
_cell_length_c   3.93828243
_cell_angle_alpha   88.10488355
_cell_angle_beta   89.06255373
_cell_angle_gamma   89.70689813
_symmetry_Int_Tables_number   1
_chemical_formula_structural   YReN3
_chemical_formula_sum   'Y1 Re1 N3'
_cell_volume   61.42225191
_cell_formula_units_Z   1
loop_
 _symmetry_equiv_pos_site_id
 _symmetry_equiv_pos_as_xyz
  1  'x, y, z'
loop_
 _atom_site_type_symbol
 _atom_site_label
 _atom_site_symmetry_multiplicity
 _atom_site_fract_x
 _atom_site_fract_y
 _atom_site_fract_z
 _atom_site_occupancy
  Y  Y0  1  0.01919153  0.04040047  0.06547570  1
  Re  Re1  1  0.49716552  0.49751061  0.47879625  1
  N  N2  1  0.99551411  0.49235647  0.46328767  1
  N  N3  1  0.49242898  0.48610406  0.97068539  1
  N  N4  1  0.49473185  0.99363439  0.46099699  1
