# generated using pymatgen
data_Fe4OF7
_symmetry_space_group_name_H-M   'P 1'
_cell_length_a   4.81036900
_cell_length_b   10.15955800
_cell_length_c   6.48787021
_cell_angle_alpha   71.55223077
_cell_angle_beta   90.26270241
_cell_angle_gamma   90.80432762
_symmetry_Int_Tables_number   1
_chemical_formula_structural   Fe4OF7
_chemical_formula_sum   'Fe8 O2 F14'
_cell_volume   300.74707395
_cell_formula_units_Z   2
loop_
 _symmetry_equiv_pos_site_id
 _symmetry_equiv_pos_as_xyz
  1  'x, y, z'
loop_
 _atom_site_type_symbol
 _atom_site_label
 _atom_site_symmetry_multiplicity
 _atom_site_fract_x
 _atom_site_fract_y
 _atom_site_fract_z
 _atom_site_occupancy
  Fe  Fe0  1  0.50818340  0.25808288  0.62155018  1
  Fe  Fe1  1  0.48846296  0.74501097  0.87832300  1
  Fe  Fe2  1  0.51856110  0.76052891  0.36995057  1
  Fe  Fe3  1  0.50145440  0.24985703  0.12808629  1
  Fe  Fe4  1  0.98129027  0.99247081  0.49118465  1
  Fe  Fe5  1  0.98999822  0.49624728  0.74366163  1
  Fe  Fe6  1  0.98899468  0.99559400  0.00902707  1
  Fe  Fe7  1  0.98247613  0.49249940  0.27541867  1
  O  O8  1  0.80445850  0.40647730  0.53287151  1
  O  O9  1  0.80981493  0.90709306  0.31184964  1
  F  F10  1  0.80162948  0.40170226  0.06606025  1
  F  F11  1  0.79733935  0.90108192  0.78361691  1
  F  F12  1  0.70584346  0.14755358  0.42895404  1
  F  F13  1  0.71025891  0.64944448  0.16874110  1
  F  F14  1  0.69704907  0.14977022  0.92691242  1
  F  F15  1  0.69645933  0.64915327  0.68254733  1
  F  F16  1  0.29651936  0.84984242  0.06887202  1
  F  F17  1  0.28882853  0.85255066  0.58228758  1
  F  F18  1  0.29546896  0.34937131  0.83260612  1
  F  F19  1  0.29005850  0.35365004  0.31835254  1
  F  F20  1  0.18567462  0.59229781  0.97277945  1
  F  F21  1  0.20045719  0.10070490  0.21938670  1
  F  F22  1  0.20932547  0.60441784  0.43097717  1
  F  F23  1  0.19029919  0.09655265  0.68473519  1
