# generated using pymatgen
data_Li4V3P8O29
_symmetry_space_group_name_H-M   'P 1'
_cell_length_a   9.79047352
_cell_length_b   9.75412456
_cell_length_c   14.20973350
_cell_angle_alpha   89.96311872
_cell_angle_beta   90.10204762
_cell_angle_gamma   60.09521453
_symmetry_Int_Tables_number   1
_chemical_formula_structural   Li4V3P8O29
_chemical_formula_sum   'Li8 V6 P16 O58'
_cell_volume   1176.31348201
_cell_formula_units_Z   2
loop_
 _symmetry_equiv_pos_site_id
 _symmetry_equiv_pos_as_xyz
  1  'x, y, z'
loop_
 _atom_site_type_symbol
 _atom_site_label
 _atom_site_symmetry_multiplicity
 _atom_site_fract_x
 _atom_site_fract_y
 _atom_site_fract_z
 _atom_site_occupancy
  Li  Li0  1  0.77376810  0.91719180  0.55970611  1
  Li  Li1  1  0.91901676  0.30371847  0.55493246  1
  Li  Li2  1  0.76242393  0.32750251  0.06159082  1
  Li  Li3  1  0.33645317  0.89440855  0.05805495  1
  Li  Li4  1  0.32239189  0.77274806  0.55612521  1
  Li  Li5  1  0.09103567  0.68323579  0.43636039  1
  Li  Li6  1  0.09403100  0.23127637  0.94321035  1
  Li  Li7  1  0.98027865  0.93581501  0.01260643  1
  V  V8  1  0.56734515  0.43448993  0.25126457  1
  V  V9  1  0.43360672  0.56464228  0.75425652  1
  V  V10  1  0.56457683  0.00412133  0.75300461  1
  V  V11  1  0.43587199  0.99951532  0.24977647  1
  V  V12  1  0.99584275  0.57176052  0.24482446  1
  V  V13  1  -0.00002163  0.43489754  0.74865106  1
  P  P14  1  0.91525464  0.77591070  0.83851438  1
  P  P15  1  0.76868951  0.91410145  0.34374225  1
  P  P16  1  0.91326243  0.31831753  0.33965640  1
  P  P17  1  0.66260579  0.66782567  0.12976364  1
  P  P18  1  0.66336952  0.66902661  0.63225879  1
  P  P19  1  0.77199888  0.31545553  0.84500657  1
  P  P20  1  0.68622176  0.22863695  0.66239754  1
  P  P21  1  0.31449302  0.91459090  0.84163735  1
  P  P22  1  0.69245614  0.08495084  0.16078125  1
  P  P23  1  0.31916836  0.77179212  0.34160178  1
  P  P24  1  0.22504123  0.69179483  0.16016029  1
  P  P25  1  0.33207738  0.33611641  0.36723890  1
  P  P26  1  0.33338892  0.33177451  0.86974724  1
  P  P27  1  0.09041527  0.68056358  0.65754220  1
  P  P28  1  0.22954613  0.08649226  0.65920284  1
  P  P29  1  0.08845150  0.22613284  0.15913078  1
  O  O30  1  0.00572095  0.75330075  0.56686141  1
  O  O31  1  0.91738819  0.74839427  0.33716899  1
  O  O32  1  0.79454115  0.00217876  0.07942816  1
  O  O33  1  0.74123230  0.91390535  0.82828469  1
  O  O34  1  0.92007432  0.61661694  0.83030459  1
  O  O35  1  0.80393953  0.67652718  0.17116499  1
  O  O36  1  0.90645129  0.47746301  0.31897066  1
  O  O37  1  0.00280458  0.22154599  0.07181876  1
  O  O38  1  0.91668870  0.33942389  0.83576594  1
  O  O39  1  0.66491932  0.81838700  0.67327547  1
  O  O40  1  0.61946332  0.90080299  0.31865205  1
  O  O41  1  0.81336808  0.51817966  0.67134703  1
  O  O42  1  0.64728850  0.66736092  0.02555231  1
  O  O43  1  0.65520822  0.67253134  0.52757232  1
  O  O44  1  0.67280674  0.51126713  0.17153830  1
  O  O45  1  0.47340125  0.91085817  0.82667098  1
  O  O46  1  0.50654376  0.81391152  0.17196602  1
  O  O47  1  0.74316023  0.34366962  0.32918149  1
  O  O48  1  0.78581883  0.20319158  0.75887246  1
  O  O49  1  0.77488430  0.23472553  0.57969864  1
  O  O50  1  0.77220573  0.24299698  0.93696228  1
  O  O51  1  0.61695983  0.47560237  0.82586531  1
  O  O52  1  0.51458930  0.66808335  0.67612580  1
  O  O53  1  0.65485685  0.26079222  0.16273419  1
  O  O54  1  0.47947544  0.62022236  0.32195494  1
  O  O55  1  0.34189366  0.91693711  0.33471868  1
  O  O56  1  0.78562211  0.01298059  0.25861502  1
  O  O57  1  0.75256983  0.99282840  0.43520735  1
  O  O58  1  0.23900105  0.98913291  0.57684512  1
  O  O59  1  0.66104365  0.08340999  0.66105906  1
  O  O60  1  0.52566359  0.38226392  0.67928182  1
  O  O61  1  0.34094185  0.74497050  0.83406904  1
  O  O62  1  0.47591089  0.34314206  0.31884328  1
  O  O63  1  0.38523765  0.53857841  0.16916229  1
  O  O64  1  0.20650843  0.79779097  0.07945446  1
  O  O65  1  0.24747004  0.75809614  0.43187426  1
  O  O66  1  0.20314894  0.78923439  0.25745210  1
  O  O67  1  0.25752956  0.66208004  0.66080508  1
  O  O68  1  0.48373785  0.18700758  0.82206829  1
  O  O69  1  0.53807524  0.07752845  0.16930743  1
  O  O70  1  0.33152132  0.48193593  0.82374616  1
  O  O71  1  0.34558411  0.32649337  0.97368150  1
  O  O72  1  0.34736652  0.32355950  0.47077770  1
  O  O73  1  0.18178588  0.48695855  0.33222724  1
  O  O74  1  0.38137359  0.09462607  0.67812588  1
  O  O75  1  0.34016391  0.18603671  0.31714708  1
  O  O76  1  0.08912467  0.65466329  0.16480687  1
  O  O77  1  0.99587553  0.79586123  0.74279724  1
  O  O78  1  0.99399080  0.79782008  0.92048593  1
  O  O79  1  0.10255130  0.51916901  0.67785551  1
  O  O80  1  0.18836831  0.32307675  0.83207302  1
  O  O81  1  0.09312809  0.37914830  0.17027124  1
  O  O82  1  0.25840132  0.07979913  0.16085686  1
  O  O83  1  0.23687918  0.99515089  0.93235287  1
  O  O84  1  0.20273369  0.01005820  0.75540602  1
  O  O85  1  0.08403578  0.25503553  0.65819496  1
  O  O86  1  0.98786968  0.24593620  0.43010855  1
  O  O87  1  0.00523379  0.20347674  0.25152270  1
