# generated using pymatgen
data_Li2CrO3
_symmetry_space_group_name_H-M   'P 1'
_cell_length_a   15.22718915
_cell_length_b   9.78899406
_cell_length_c   9.78899401
_cell_angle_alpha   17.10076264
_cell_angle_beta   16.62051376
_cell_angle_gamma   16.62051708
_symmetry_Int_Tables_number   1
_chemical_formula_structural   Li2CrO3
_chemical_formula_sum   'Li4 Cr2 O6'
_cell_volume   106.02147673
_cell_formula_units_Z   2
loop_
 _symmetry_equiv_pos_site_id
 _symmetry_equiv_pos_as_xyz
  1  'x, y, z'
loop_
 _atom_site_type_symbol
 _atom_site_label
 _atom_site_symmetry_multiplicity
 _atom_site_fract_x
 _atom_site_fract_y
 _atom_site_fract_z
 _atom_site_occupancy
  Li  Li0  1  0.66666700  0.00000000  0.00000000  1
  Li  Li1  1  0.16666700  0.50000000  0.50000000  1
  Li  Li2  1  0.51169547  0.49447709  0.49447709  1
  Li  Li3  1  0.82163753  0.50552291  0.50552291  1
  Cr  Cr4  1  0.02803779  0.98088288  0.98088288  1
  Cr  Cr5  1  0.30529621  0.01911712  0.01911712  1
  O  O6  1  0.21547003  0.28180477  0.28180477  1
  O  O7  1  0.57364444  0.26575935  0.26575935  1
  O  O8  1  0.11786297  0.71819523  0.71819523  1
  O  O9  1  0.94586156  0.23220194  0.23220194  1
  O  O10  1  0.38747144  0.76779806  0.76779806  1
  O  O11  1  0.75968856  0.73424065  0.73424065  1
