# generated using pymatgen
data_V3Fe2CuO12
_symmetry_space_group_name_H-M   'P 1'
_cell_length_a   8.23748070
_cell_length_b   9.98729943
_cell_length_c   6.70119434
_cell_angle_alpha   102.66572258
_cell_angle_beta   102.24645007
_cell_angle_gamma   107.14189439
_symmetry_Int_Tables_number   1
_chemical_formula_structural   V3Fe2CuO12
_chemical_formula_sum   'V6 Fe4 Cu2 O24'
_cell_volume   490.83268157
_cell_formula_units_Z   2
loop_
 _symmetry_equiv_pos_site_id
 _symmetry_equiv_pos_as_xyz
  1  'x, y, z'
loop_
 _atom_site_type_symbol
 _atom_site_label
 _atom_site_symmetry_multiplicity
 _atom_site_fract_x
 _atom_site_fract_y
 _atom_site_fract_z
 _atom_site_occupancy
  V  V0  1  0.16767154  0.76469756  0.22920758  1
  V  V1  1  0.22504724  0.37862453  0.40989195  1
  V  V2  1  0.39832434  0.16681028  0.88006426  1
  V  V3  1  0.60167566  0.83318972  0.11993574  1
  V  V4  1  0.77495276  0.62137547  0.59010805  1
  V  V5  1  0.83232846  0.23530244  0.77079242  1
  Fe  Fe6  1  0.29455825  0.48459614  0.95223474  1
  Fe  Fe7  1  0.56201723  0.89409204  0.62253235  1
  Fe  Fe8  1  0.43798277  0.10590796  0.37746765  1
  Fe  Fe9  1  0.70544175  0.51540386  0.04776526  1
  Cu  Cu10  1  0.23558929  0.73446074  0.74866209  1
  Cu  Cu11  1  0.76441071  0.26553926  0.25133791  1
  O  O12  1  0.05239796  0.32551312  0.82087674  1
  O  O13  1  0.20529837  0.94132929  0.22753391  1
  O  O14  1  0.23081988  0.67583881  -0.00027929  1
  O  O15  1  0.99679701  0.28147087  0.32208406  1
  O  O16  1  0.28255549  0.76747075  0.49435924  1
  O  O17  1  0.27858074  0.50679517  0.66144537  1
  O  O18  1  0.18983449  0.07711108  0.84073809  1
  O  O19  1  0.48190834  0.84759314  0.86810764  1
  O  O20  1  0.28173060  0.47626114  0.23499997  1
  O  O21  1  0.43865075  0.35751735  0.91998396  1
  O  O22  1  0.53127204  0.92070429  0.33567621  1
  O  O23  1  0.33754111  0.25635984  0.42549644  1
  O  O24  1  0.66245889  0.74364016  0.57450356  1
  O  O25  1  0.46872796  0.07929571  0.66432379  1
  O  O26  1  0.56134925  0.64248265  0.08001604  1
  O  O27  1  0.71826940  0.52373886  0.76500003  1
  O  O28  1  0.51809166  0.15240686  0.13189236  1
  O  O29  1  0.81016551  0.92288892  0.15926191  1
  O  O30  1  0.72141926  0.49320483  0.33855463  1
  O  O31  1  0.71744451  0.23252925  0.50564076  1
  O  O32  1  0.00320299  0.71852913  0.67791594  1
  O  O33  1  0.76918012  0.32416119  0.00027929  1
  O  O34  1  0.79470163  0.05867071  0.77246609  1
  O  O35  1  0.94760204  0.67448688  0.17912326  1
