# generated using pymatgen
data_Fe19(SiO4)12
_symmetry_space_group_name_H-M   'P 1'
_cell_length_a   11.44279483
_cell_length_b   11.46432698
_cell_length_c   7.70350838
_cell_angle_alpha   74.64030044
_cell_angle_beta   81.69128920
_cell_angle_gamma   68.23685856
_symmetry_Int_Tables_number   1
_chemical_formula_structural   Fe19(SiO4)12
_chemical_formula_sum   'Fe19 Si12 O48'
_cell_volume   903.81399757
_cell_formula_units_Z   1
loop_
 _symmetry_equiv_pos_site_id
 _symmetry_equiv_pos_as_xyz
  1  'x, y, z'
loop_
 _atom_site_type_symbol
 _atom_site_label
 _atom_site_symmetry_multiplicity
 _atom_site_fract_x
 _atom_site_fract_y
 _atom_site_fract_z
 _atom_site_occupancy
  Fe  Fe0  1  0.00000000  0.50000000  0.00000000  1
  Fe  Fe1  1  0.00510744  0.22851238  0.26436403  1
  Fe  Fe2  1  0.00836427  0.72539341  0.25621773  1
  Fe  Fe3  1  0.34148961  0.99514458  0.31982619  1
  Fe  Fe4  1  0.16319695  0.99391020  0.68217966  1
  Fe  Fe5  1  0.32988070  0.27376866  0.07154519  1
  Fe  Fe6  1  0.32500906  0.77106112  0.07152412  1
  Fe  Fe7  1  0.33555850  0.50023103  0.33154559  1
  Fe  Fe8  1  0.33702379  0.23021017  0.60055930  1
  Fe  Fe9  1  0.33744896  0.72000871  0.58843854  1
  Fe  Fe10  1  0.65851039  0.00485542  0.68017381  1
  Fe  Fe11  1  0.83680305  0.00608980  0.31782034  1
  Fe  Fe12  1  0.66255104  0.27999129  0.41156146  1
  Fe  Fe13  1  0.66297621  0.76978983  0.39944070  1
  Fe  Fe14  1  0.66444150  0.49976897  0.66845441  1
  Fe  Fe15  1  0.67499094  0.22893888  0.92847588  1
  Fe  Fe16  1  0.67011930  0.72623134  0.92845481  1
  Fe  Fe17  1  0.99163573  0.27460659  0.74378227  1
  Fe  Fe18  1  0.99489256  0.77148762  0.73563597  1
  Si  Si19  1  0.13490379  0.40347734  0.38448226  1
  Si  Si20  1  0.09580371  0.90721507  0.33712287  1
  Si  Si21  1  0.23754433  0.09695590  0.98551337  1
  Si  Si22  1  0.56916025  0.09755714  0.32484666  1
  Si  Si23  1  0.19600477  0.59678256  0.94881810  1
  Si  Si24  1  0.53165293  0.59826928  0.27687286  1
  Si  Si25  1  0.46834707  0.40173072  0.72312714  1
  Si  Si26  1  0.80399523  0.40321744  0.05118190  1
  Si  Si27  1  0.43083975  0.90244286  0.67515334  1
  Si  Si28  1  0.76245567  0.90304410  0.01448663  1
  Si  Si29  1  0.90419629  0.09278493  0.66287713  1
  Si  Si30  1  0.86509621  0.59652266  0.61551774  1
  O  O31  1  0.00164748  0.05605886  0.26130876  1
  O  O32  1  0.19302268  0.16873009  0.16025404  1
  O  O33  1  0.03403194  0.39044429  0.26828674  1
  O  O34  1  0.04405433  0.66825172  0.01936123  1
  O  O35  1  0.12631871  0.55255929  0.36573022  1
  O  O36  1  0.13914952  0.31953184  0.59550520  1
  O  O37  1  0.28679234  0.32976377  0.32076897  1
  O  O38  1  0.12634572  0.10863739  0.86512121  1
  O  O39  1  0.45227604  0.10836753  0.21717565  1
  O  O40  1  0.29957718  0.60923529  0.06026334  1
  O  O41  1  0.14439292  0.82028422  0.18538323  1
  O  O42  1  0.99816493  0.83242326  0.45891442  1
  O  O43  1  0.33374217  0.05161295  0.58849117  1
  O  O44  1  0.31906158  0.94698383  0.08245509  1
  O  O45  1  0.66783840  0.16697471  0.20152247  1
  O  O46  1  0.32730623  0.17895568  0.87017700  1
  O  O47  1  0.52155084  0.16227524  0.50401451  1
  O  O48  1  0.36669920  0.39039313  0.60498332  1
  O  O49  1  0.20631791  0.90640669  0.45468738  1
  O  O50  1  0.37988018  0.67434887  0.33338863  1
  O  O51  1  0.18322156  0.68319563  0.73978535  1
  O  O52  1  0.52763109  0.68186074  0.06432897  1
  O  O53  1  0.53595408  0.45161393  0.29649895  1
  O  O54  1  0.20685420  0.44686372  0.96955199  1
  O  O55  1  0.46404592  0.54838607  0.70350105  1
  O  O56  1  0.79314580  0.55313628  0.03044801  1
  O  O57  1  0.47236891  0.31813926  0.93567103  1
  O  O58  1  0.81677844  0.31680437  0.26021465  1
  O  O59  1  0.62011982  0.32565113  0.66661137  1
  O  O60  1  0.79368209  0.09359331  0.54531262  1
  O  O61  1  0.63330080  0.60960687  0.39501668  1
  O  O62  1  0.47844916  0.83772476  0.49598549  1
  O  O63  1  0.33216160  0.83302529  0.79847753  1
  O  O64  1  0.67269377  0.82104432  0.12982300  1
  O  O65  1  0.68093842  0.05301617  0.91754491  1
  O  O66  1  0.66625783  0.94838705  0.41150883  1
  O  O67  1  0.00183507  0.16757674  0.54108558  1
  O  O68  1  0.85560708  0.17971578  0.81461677  1
  O  O69  1  0.70042282  0.39076471  0.93973666  1
  O  O70  1  0.87365428  0.89136261  0.13487879  1
  O  O71  1  0.54772396  0.89163247  0.78282435  1
  O  O72  1  0.71320766  0.67023623  0.67923103  1
  O  O73  1  0.86085048  0.68046816  0.40449480  1
  O  O74  1  0.87368129  0.44744071  0.63426978  1
  O  O75  1  0.95594567  0.33174828  0.98063877  1
  O  O76  1  0.96596806  0.60955571  0.73171326  1
  O  O77  1  0.80697732  0.83126991  0.83974596  1
  O  O78  1  0.99835252  0.94394014  0.73869124  1
