# generated using pymatgen
data_LiFe2(BO3)2
_symmetry_space_group_name_H-M   'P 1'
_cell_length_a   5.26593562
_cell_length_b   9.07275566
_cell_length_c   10.21963553
_cell_angle_alpha   89.99999833
_cell_angle_beta   91.32572753
_cell_angle_gamma   90.00000123
_symmetry_Int_Tables_number   1
_chemical_formula_structural   LiFe2(BO3)2
_chemical_formula_sum   'Li4 Fe8 B8 O24'
_cell_volume   488.12820248
_cell_formula_units_Z   4
loop_
 _symmetry_equiv_pos_site_id
 _symmetry_equiv_pos_as_xyz
  1  'x, y, z'
loop_
 _atom_site_type_symbol
 _atom_site_label
 _atom_site_symmetry_multiplicity
 _atom_site_fract_x
 _atom_site_fract_y
 _atom_site_fract_z
 _atom_site_occupancy
  Li  Li0  1  0.64468156  0.00431299  0.08515715  1
  Li  Li1  1  0.85282578  0.48619512  0.33347151  1
  Li  Li2  1  0.85282578  0.51380488  0.83347151  1
  Li  Li3  1  0.64468156  0.99568701  0.58515715  1
  Fe  Fe4  1  0.16068253  0.17438996  0.12641178  1
  Fe  Fe5  1  0.84243056  0.15208313  0.37218977  1
  Fe  Fe6  1  0.34076365  0.32442413  0.86485375  1
  Fe  Fe7  1  0.65558936  0.34267272  0.61523391  1
  Fe  Fe8  1  0.34076365  0.67557587  0.36485375  1
  Fe  Fe9  1  0.16068253  0.82561004  0.62641178  1
  Fe  Fe10  1  0.65558936  0.65732728  0.11523391  1
  Fe  Fe11  1  0.84243056  0.84791687  0.87218977  1
  B  B12  1  0.15330115  0.15489199  0.62736877  1
  B  B13  1  0.34495469  0.34510239  0.36456875  1
  B  B14  1  0.82609996  0.18024559  0.87956211  1
  B  B15  1  0.66746028  0.32073790  0.12309305  1
  B  B16  1  0.34495469  0.65489761  0.86456875  1
  B  B17  1  0.66746028  0.67926210  0.62309305  1
  B  B18  1  0.15330115  0.84510801  0.12736877  1
  B  B19  1  0.82609996  0.81975441  0.37956211  1
  O  O20  1  0.28386708  0.02241723  0.62162159  1
  O  O21  1  0.07760958  0.19237534  0.92494170  1
  O  O22  1  0.70162606  0.04927702  0.88588451  1
  O  O23  1  0.20695608  0.22254384  0.31859241  1
  O  O24  1  0.28764890  0.27804564  0.67313988  1
  O  O25  1  0.79278013  0.18707013  0.15656277  1
  O  O26  1  0.89928467  0.16369670  0.58739578  1
  O  O27  1  0.42473276  0.30637154  0.06667480  1
  O  O28  1  0.21882293  0.47805691  0.36852668  1
  O  O29  1  0.59942614  0.33356999  0.40440369  1
  O  O30  1  0.70807213  0.31101166  0.83614438  1
  O  O31  1  0.21882293  0.52194309  0.86852668  1
  O  O32  1  0.77681004  0.45282875  0.14496025  1
  O  O33  1  0.28764890  0.72195436  0.17313988  1
  O  O34  1  0.42473276  0.69362846  0.56667480  1
  O  O35  1  0.77681004  0.54717125  0.64496025  1
  O  O36  1  0.59942614  0.66643001  0.90440369  1
  O  O37  1  0.07760958  0.80762466  0.42494170  1
  O  O38  1  0.20695608  0.77745616  0.81859241  1
  O  O39  1  0.70807213  0.68898834  0.33614438  1
  O  O40  1  0.79278013  0.81292987  0.65656277  1
  O  O41  1  0.28386708  0.97758277  0.12162159  1
  O  O42  1  0.89928467  0.83630330  0.08739578  1
  O  O43  1  0.70162606  0.95072298  0.38588451  1
