# generated using pymatgen
data_Na6Mn7O10
_symmetry_space_group_name_H-M   'P 1'
_cell_length_a   3.52521935
_cell_length_b   11.33807964
_cell_length_c   8.70607290
_cell_angle_alpha   72.50442189
_cell_angle_beta   90.00000000
_cell_angle_gamma   81.05656614
_symmetry_Int_Tables_number   1
_chemical_formula_structural   Na6Mn7O10
_chemical_formula_sum   'Na6 Mn7 O10'
_cell_volume   327.43916954
_cell_formula_units_Z   1
loop_
 _symmetry_equiv_pos_site_id
 _symmetry_equiv_pos_as_xyz
  1  'x, y, z'
loop_
 _atom_site_type_symbol
 _atom_site_label
 _atom_site_symmetry_multiplicity
 _atom_site_fract_x
 _atom_site_fract_y
 _atom_site_fract_z
 _atom_site_occupancy
  Na  Na0  1  0.99953687  0.00092726  0.17435419  1
  Na  Na1  1  0.12532535  0.74934830  0.74183856  1
  Na  Na2  1  0.71645543  0.56708813  0.65065789  1
  Na  Na3  1  0.29319215  0.41361570  0.40030725  1
  Na  Na4  1  0.89192435  0.21615129  0.26111850  1
  Na  Na5  1  0.99109098  0.01781804  0.82476440  1
  Mn  Mn6  1  0.60240191  0.79519518  0.96252403  1
  Mn  Mn7  1  0.56390387  0.87219226  0.47407940  1
  Mn  Mn8  1  0.15525404  0.68949291  0.28129812  1
  Mn  Mn9  1  0.74918144  0.50163612  0.08538560  1
  Mn  Mn10  1  0.84962638  0.30074624  0.70040713  1
  Mn  Mn11  1  0.44846895  0.10306111  0.53661513  1
  Mn  Mn12  1  0.35691677  0.28616746  0.96841342  1
  O  O13  1  0.53742912  0.92514077  0.70710168  1
  O  O14  1  0.11525966  0.76948168  0.47028088  1
  O  O15  1  0.08104691  0.83790618  0.05977315  1
  O  O16  1  0.67873209  0.64253483  0.87941818  1
  O  O17  1  0.71028322  0.57943255  0.28745460  1
  O  O18  1  0.30022224  0.39955452  0.70345319  1
  O  O19  1  0.30979815  0.38040270  0.13888036  1
  O  O20  1  0.90501487  0.18997127  0.94761523  1
  O  O21  1  0.89698116  0.20603768  0.53570856  1
  O  O22  1  0.47316209  0.05367582  0.32558153  1
