# generated using pymatgen
data_Li4Cr3Fe2Sn3O16
_symmetry_space_group_name_H-M   'P 1'
_cell_length_a   6.09833215
_cell_length_b   6.10427473
_cell_length_c   9.66613415
_cell_angle_alpha   90.24995990
_cell_angle_beta   89.54180805
_cell_angle_gamma   120.11146657
_symmetry_Int_Tables_number   1
_chemical_formula_structural   Li4Cr3Fe2Sn3O16
_chemical_formula_sum   'Li4 Cr3 Fe2 Sn3 O16'
_cell_volume   311.26176211
_cell_formula_units_Z   1
loop_
 _symmetry_equiv_pos_site_id
 _symmetry_equiv_pos_as_xyz
  1  'x, y, z'
loop_
 _atom_site_type_symbol
 _atom_site_label
 _atom_site_symmetry_multiplicity
 _atom_site_fract_x
 _atom_site_fract_y
 _atom_site_fract_z
 _atom_site_occupancy
  Li  Li0  1  0.34302322  0.66765488  0.88881490  1
  Li  Li1  1  0.97348175  0.98774220  0.99225490  1
  Li  Li2  1  0.98369272  0.99000512  0.50068502  1
  Li  Li3  1  0.66869258  0.33456769  0.39703590  1
  Cr  Cr4  1  0.65973776  0.83044996  0.21562345  1
  Cr  Cr5  1  0.83165130  0.65983171  0.71418754  1
  Cr  Cr6  1  0.83318534  0.17042833  0.71260589  1
  Fe  Fe7  1  0.34007564  0.67633095  0.49342415  1
  Fe  Fe8  1  0.67896552  0.34050342  0.98808862  1
  Sn  Sn9  1  0.16999565  0.83160877  0.21391573  1
  Sn  Sn10  1  0.17006706  0.33914886  0.21411086  1
  Sn  Sn11  1  0.34087130  0.16899863  0.71441544  1
  O  O12  1  0.16111992  0.83536234  0.59629870  1
  O  O13  1  0.03519824  0.51836195  0.34586693  1
  O  O14  1  0.34249387  0.67128725  0.09834986  1
  O  O15  1  0.98978381  0.99544862  0.31563941  1
  O  O16  1  0.99078447  0.99776636  0.80900657  1
  O  O17  1  0.14909633  0.32417967  0.60064599  1
  O  O18  1  0.48575824  0.96324458  0.34226424  1
  O  O19  1  0.48536768  0.52402798  0.34365914  1
  O  O20  1  0.32307906  0.16100658  0.09140992  1
  O  O21  1  0.67206543  0.84806080  0.60846787  1
  O  O22  1  0.52829745  0.48419934  0.84320307  1
  O  O23  1  0.53680983  0.04009368  0.83812641  1
  O  O24  1  0.67789044  0.33570585  0.60358112  1
  O  O25  1  0.83465717  0.67156876  0.09760828  1
  O  O26  1  0.96035109  0.46948055  0.83045644  1
  O  O27  1  0.83380515  0.16323216  0.09809464  1
