# generated using pymatgen
data_LiSnPCO7
_symmetry_space_group_name_H-M   'P 1'
_cell_length_a   8.51344356
_cell_length_b   5.09619137
_cell_length_c   6.58108604
_cell_angle_alpha   90.00000000
_cell_angle_beta   90.00000000
_cell_angle_gamma   85.19674961
_symmetry_Int_Tables_number   1
_chemical_formula_structural   LiSnPCO7
_chemical_formula_sum   'Li2 Sn2 P2 C2 O14'
_cell_volume   284.52516211
_cell_formula_units_Z   2
loop_
 _symmetry_equiv_pos_site_id
 _symmetry_equiv_pos_as_xyz
  1  'x, y, z'
loop_
 _atom_site_type_symbol
 _atom_site_label
 _atom_site_symmetry_multiplicity
 _atom_site_fract_x
 _atom_site_fract_y
 _atom_site_fract_z
 _atom_site_occupancy
  Li  Li0  1  0.09262573  0.75735942  0.25000000  1
  Li  Li1  1  0.90737427  0.24264058  0.75000000  1
  Sn  Sn2  1  0.32323388  0.80174474  0.75000000  1
  Sn  Sn3  1  0.67676612  0.19825526  0.25000000  1
  P  P4  1  0.41949823  0.71969455  0.25000000  1
  P  P5  1  0.58050177  0.28030545  0.75000000  1
  C  C6  1  0.03497551  0.69861698  0.75000000  1
  C  C7  1  0.96502449  0.30138302  0.25000000  1
  O  O8  1  0.07691865  0.94818700  0.75000000  1
  O  O9  1  0.10334093  0.36334319  0.25000000  1
  O  O10  1  0.15854158  0.52131741  0.75000000  1
  O  O11  1  0.30986701  0.79601001  0.06719139  1
  O  O12  1  0.30986701  0.79601001  0.43280861  1
  O  O13  1  0.42517940  0.14507622  0.75000000  1
  O  O14  1  0.46615997  0.41918092  0.25000000  1
  O  O15  1  0.53384003  0.58081908  0.75000000  1
  O  O16  1  0.57482060  0.85492378  0.25000000  1
  O  O17  1  0.69013299  0.20398999  0.56719139  1
  O  O18  1  0.69013299  0.20398999  0.93280861  1
  O  O19  1  0.84145842  0.47868259  0.25000000  1
  O  O20  1  0.89665907  0.63665681  0.75000000  1
  O  O21  1  0.92308135  0.05181300  0.25000000  1
