# generated using pymatgen
data_LiVF4
_symmetry_space_group_name_H-M   'P 1'
_cell_length_a   4.61411749
_cell_length_b   11.87664811
_cell_length_c   5.18541001
_cell_angle_alpha   90.00000000
_cell_angle_beta   90.00000000
_cell_angle_gamma   90.00000000
_symmetry_Int_Tables_number   1
_chemical_formula_structural   LiVF4
_chemical_formula_sum   'Li4 V4 F16'
_cell_volume   284.16176369
_cell_formula_units_Z   4
loop_
 _symmetry_equiv_pos_site_id
 _symmetry_equiv_pos_as_xyz
  1  'x, y, z'
loop_
 _atom_site_type_symbol
 _atom_site_label
 _atom_site_symmetry_multiplicity
 _atom_site_fract_x
 _atom_site_fract_y
 _atom_site_fract_z
 _atom_site_occupancy
  Li  Li0  1  0.00000000  0.32097364  0.75000000  1
  Li  Li1  1  0.00000000  0.67902636  0.25000000  1
  Li  Li2  1  0.50000000  0.17902636  0.25000000  1
  Li  Li3  1  0.50000000  0.82097364  0.75000000  1
  V  V4  1  0.00000000  0.07111274  0.75000000  1
  V  V5  1  0.00000000  0.92888726  0.25000000  1
  V  V6  1  0.50000000  0.42888726  0.25000000  1
  V  V7  1  0.50000000  0.57111274  0.75000000  1
  F  F8  1  0.22872333  0.05384831  0.08681649  1
  F  F9  1  0.22872333  0.94615169  0.58681649  1
  F  F10  1  0.23135108  0.81658542  0.08996716  1
  F  F11  1  0.23135108  0.18341458  0.58996716  1
  F  F12  1  0.26864892  0.31658542  0.08996716  1
  F  F13  1  0.26864892  0.68341458  0.58996716  1
  F  F14  1  0.27127667  0.55384831  0.08681649  1
  F  F15  1  0.27127667  0.44615169  0.58681649  1
  F  F16  1  0.72872333  0.44615169  0.91318351  1
  F  F17  1  0.72872333  0.55384831  0.41318351  1
  F  F18  1  0.73135108  0.68341458  0.91003284  1
  F  F19  1  0.73135108  0.31658542  0.41003284  1
  F  F20  1  0.76864892  0.18341458  0.91003284  1
  F  F21  1  0.76864892  0.81658542  0.41003284  1
  F  F22  1  0.77127667  0.94615169  0.91318351  1
  F  F23  1  0.77127667  0.05384831  0.41318351  1
