# generated using pymatgen
data_LiNi(SO4)2
_symmetry_space_group_name_H-M   'P 1'
_cell_length_a   9.02463314
_cell_length_b   8.99830604
_cell_length_c   9.00874681
_cell_angle_alpha   55.58187889
_cell_angle_beta   55.29546667
_cell_angle_gamma   55.29543001
_symmetry_Int_Tables_number   1
_chemical_formula_structural   LiNi(SO4)2
_chemical_formula_sum   'Li3 Ni3 S6 O24'
_cell_volume   461.90369791
_cell_formula_units_Z   3
loop_
 _symmetry_equiv_pos_site_id
 _symmetry_equiv_pos_as_xyz
  1  'x, y, z'
loop_
 _atom_site_type_symbol
 _atom_site_label
 _atom_site_symmetry_multiplicity
 _atom_site_fract_x
 _atom_site_fract_y
 _atom_site_fract_z
 _atom_site_occupancy
  Li  Li0  1  0.35463398  0.35969822  0.35021345  1
  Li  Li1  1  0.18572744  0.42917463  0.75321377  1
  Li  Li2  1  0.75442470  0.18329755  0.43318490  1
  Ni  Ni3  1  0.16046833  0.14580862  0.15648645  1
  Ni  Ni4  1  0.64119289  0.64282805  0.64593855  1
  Ni  Ni5  1  0.84619139  0.84635136  0.85135058  1
  S  S6  1  0.03645522  0.75381086  0.46134655  1
  S  S7  1  0.45983773  0.03461791  0.76017631  1
  S  S8  1  0.75847385  0.46107477  0.03697741  1
  S  S9  1  0.24480838  0.54966847  0.95192360  1
  S  S10  1  0.54817366  0.95261814  0.24748402  1
  S  S11  1  0.95446463  0.24182826  0.55214959  1
  O  O12  1  0.10738041  0.28718366  0.51480231  1
  O  O13  1  0.28774530  0.51077891  0.10731561  1
  O  O14  1  0.99914049  0.96289551  0.34265410  1
  O  O15  1  0.52500780  0.10460416  0.28755843  1
  O  O16  1  0.02572729  0.71175749  0.65693935  1
  O  O17  1  0.23375550  0.62828553  0.37951102  1
  O  O18  1  0.37668965  0.23608256  0.63578420  1
  O  O19  1  0.33905802  0.00006978  0.96565134  1
  O  O20  1  0.64224270  0.36894143  0.23658759  1
  O  O21  1  0.03667561  0.68131286  0.98918613  1
  O  O22  1  0.26907196  0.36683658  0.95691783  1
  O  O23  1  0.35728880  0.96818202  0.28497249  1
  O  O24  1  0.65709135  0.02094993  0.71481469  1
  O  O25  1  0.72137371  0.65051396  0.02825616  1
  O  O26  1  0.96910658  0.33690391  0.99650916  1
  O  O27  1  0.37024121  0.63829797  0.75798958  1
  O  O28  1  0.67388399  0.98767230  0.03919302  1
  O  O29  1  0.63590877  0.75697909  0.37115939  1
  O  O30  1  0.75766193  0.36948113  0.63776093  1
  O  O31  1  0.96013377  0.26667008  0.36874410  1
  O  O32  1  0.48734069  0.89520768  0.70203610  1
  O  O33  1  0.98573001  0.03530938  0.68383612  1
  O  O34  1  0.70172510  0.49016355  0.89603859  1
  O  O35  1  0.88966516  0.70414369  0.49163859  1
