# generated using pymatgen
data_TiFe3Cu2(PO4)6
_symmetry_space_group_name_H-M   'P 1'
_cell_length_a   8.54587600
_cell_length_b   8.54587595
_cell_length_c   8.54587602
_cell_angle_alpha   60.58866085
_cell_angle_beta   60.58865652
_cell_angle_gamma   60.58865662
_symmetry_Int_Tables_number   1
_chemical_formula_structural   TiFe3Cu2(PO4)6
_chemical_formula_sum   'Ti1 Fe3 Cu2 P6 O24'
_cell_volume   447.18892394
_cell_formula_units_Z   1
loop_
 _symmetry_equiv_pos_site_id
 _symmetry_equiv_pos_as_xyz
  1  'x, y, z'
loop_
 _atom_site_type_symbol
 _atom_site_label
 _atom_site_symmetry_multiplicity
 _atom_site_fract_x
 _atom_site_fract_y
 _atom_site_fract_z
 _atom_site_occupancy
  Ti  Ti0  1  0.85629015  0.85629015  0.85629015  1
  Fe  Fe1  1  0.14445740  0.14445740  0.14445740  1
  Fe  Fe2  1  0.35620201  0.35620201  0.35620201  1
  Fe  Fe3  1  0.64409530  0.64409530  0.64409530  1
  Cu  Cu4  1  0.00076605  0.00076605  0.00076605  1
  Cu  Cu5  1  0.50059771  0.50059771  0.50059771  1
  P  P6  1  0.74936969  0.45478840  0.04458944  1
  P  P7  1  0.04458944  0.74936969  0.45478840  1
  P  P8  1  0.45478840  0.04458944  0.74936969  1
  P  P9  1  0.25081243  0.54337056  0.95573943  1
  P  P10  1  0.54337056  0.95573943  0.25081243  1
  P  P11  1  0.95573943  0.25081243  0.54337056  1
  O  O12  1  0.11295152  0.31325858  0.50676253  1
  O  O13  1  0.31325858  0.50676253  0.11295152  1
  O  O14  1  0.06015650  0.91167851  0.25932338  1
  O  O15  1  0.50676253  0.11295152  0.31325858  1
  O  O16  1  0.99512676  0.81611218  0.61791131  1
  O  O17  1  0.24024459  0.58739336  0.44764308  1
  O  O18  1  0.25932338  0.06015650  0.91167851  1
  O  O19  1  0.44764308  0.24024459  0.58739336  1
  O  O20  1  0.18513069  0.38737156  0.99491576  1
  O  O21  1  0.58739336  0.44764308  0.24024459  1
  O  O22  1  0.08674424  0.74121047  0.93863016  1
  O  O23  1  0.38737156  0.99491576  0.18513069  1
  O  O24  1  0.61791131  0.99512676  0.81611218  1
  O  O25  1  0.91167851  0.25932338  0.06015650  1
  O  O26  1  0.41189235  0.55962633  0.75783052  1
  O  O27  1  0.81611218  0.61791131  0.99512676  1
  O  O28  1  0.55962633  0.75783052  0.41189235  1
  O  O29  1  0.74121047  0.93863016  0.08674424  1
  O  O30  1  0.75783052  0.41189235  0.55962633  1
  O  O31  1  0.99491576  0.18513069  0.38737156  1
  O  O32  1  0.49446306  0.88813964  0.68440634  1
  O  O33  1  0.93863016  0.08674424  0.74121047  1
  O  O34  1  0.68440634  0.49446306  0.88813964  1
  O  O35  1  0.88813964  0.68440634  0.49446306  1
