# generated using pymatgen
data_Li4Co3Sn2Sb3O16
_symmetry_space_group_name_H-M   'P 1'
_cell_length_a   6.22615157
_cell_length_b   6.18332406
_cell_length_c   9.92151405
_cell_angle_alpha   89.99743416
_cell_angle_beta   90.69376001
_cell_angle_gamma   119.77207720
_symmetry_Int_Tables_number   1
_chemical_formula_structural   Li4Co3Sn2Sb3O16
_chemical_formula_sum   'Li4 Co3 Sn2 Sb3 O16'
_cell_volume   331.51336916
_cell_formula_units_Z   1
loop_
 _symmetry_equiv_pos_site_id
 _symmetry_equiv_pos_as_xyz
  1  'x, y, z'
loop_
 _atom_site_type_symbol
 _atom_site_label
 _atom_site_symmetry_multiplicity
 _atom_site_fract_x
 _atom_site_fract_y
 _atom_site_fract_z
 _atom_site_occupancy
  Li  Li0  1  0.32383484  0.66192449  0.88472402  1
  Li  Li1  1  0.97710067  0.98855463  0.98336892  1
  Li  Li2  1  0.98488831  0.99245252  0.50255863  1
  Li  Li3  1  0.65113801  0.32557721  0.40669899  1
  Co  Co4  1  0.66269493  0.83136591  0.21421884  1
  Co  Co5  1  0.83472393  0.66044983  0.71199874  1
  Co  Co6  1  0.83473418  0.17429210  0.71198725  1
  Sn  Sn7  1  0.35596531  0.67799704  0.50344612  1
  Sn  Sn8  1  0.69034305  0.34519954  0.97755085  1
  Sb  Sb9  1  0.17013619  0.83220531  0.21601640  1
  Sb  Sb10  1  0.17013419  0.33794291  0.21603611  1
  Sb  Sb11  1  0.34271255  0.17136705  0.71463744  1
  O  O12  1  0.17719836  0.84974188  0.59416640  1
  O  O13  1  0.03162095  0.51582273  0.33914869  1
  O  O14  1  0.32005560  0.66001667  0.10524432  1
  O  O15  1  0.00757059  0.00380728  0.31548961  1
  O  O16  1  0.01708288  0.00856654  0.80230959  1
  O  O17  1  0.17717827  0.32749300  0.59416339  1
  O  O18  1  0.47035176  0.96011594  0.33941237  1
  O  O19  1  0.47034502  0.51021694  0.33940793  1
  O  O20  1  0.32304215  0.16158445  0.10291824  1
  O  O21  1  0.68445808  0.84224562  0.59626852  1
  O  O22  1  0.50419595  0.47209326  0.84329932  1
  O  O23  1  0.50417647  0.03211237  0.84333548  1
  O  O24  1  0.64852658  0.32426573  0.60636609  1
  O  O25  1  0.84851054  0.68178144  0.10116730  1
  O  O26  1  0.96872235  0.48436716  0.84072533  1
  O  O27  1  0.84855829  0.16674045  0.10117609  1
