# generated using pymatgen
data_CrCo3(PO4)4
_symmetry_space_group_name_H-M   'P 1'
_cell_length_a   4.78290342
_cell_length_b   9.88283777
_cell_length_c   5.83449542
_cell_angle_alpha   90.00000000
_cell_angle_beta   90.00000000
_cell_angle_gamma   89.11114107
_symmetry_Int_Tables_number   1
_chemical_formula_structural   CrCo3(PO4)4
_chemical_formula_sum   'Cr1 Co3 P4 O16'
_cell_volume   275.75558572
_cell_formula_units_Z   1
loop_
 _symmetry_equiv_pos_site_id
 _symmetry_equiv_pos_as_xyz
  1  'x, y, z'
loop_
 _atom_site_type_symbol
 _atom_site_label
 _atom_site_symmetry_multiplicity
 _atom_site_fract_x
 _atom_site_fract_y
 _atom_site_fract_z
 _atom_site_occupancy
  Cr  Cr0  1  0.96705253  0.27099315  0.25000000  1
  Co  Co1  1  0.05332076  0.72080072  0.75000000  1
  Co  Co2  1  0.47114434  0.22925211  0.75000000  1
  Co  Co3  1  0.55250600  0.77988969  0.25000000  1
  P  P4  1  0.09017650  0.59357240  0.25000000  1
  P  P5  1  0.40970245  0.09497281  0.25000000  1
  P  P6  1  0.58170119  0.90571828  0.75000000  1
  P  P7  1  0.90972833  0.40488392  0.75000000  1
  O  O8  1  0.17288700  0.44454792  0.25000000  1
  O  O9  1  0.23383391  0.66993370  0.04298418  1
  O  O10  1  0.23383391  0.66993370  0.45701582  1
  O  O11  1  0.22895678  0.38122629  0.75000000  1
  O  O12  1  0.26630192  0.88735237  0.75000000  1
  O  O13  1  0.25635572  0.17027352  0.04559531  1
  O  O14  1  0.25635572  0.17027352  0.45440469  1
  O  O15  1  0.33587878  0.94452746  0.25000000  1
  O  O16  1  0.65205568  0.05761192  0.75000000  1
  O  O17  1  0.73268815  0.83065497  0.54451791  1
  O  O18  1  0.73268815  0.83065497  0.95548209  1
  O  O19  1  0.72431462  0.11273600  0.25000000  1
  O  O20  1  0.77238001  0.61387366  0.25000000  1
  O  O21  1  0.76506131  0.33040853  0.54370449  1
  O  O22  1  0.76506131  0.33040853  0.95629551  1
  O  O23  1  0.83601491  0.55549784  0.75000000  1
