# generated using pymatgen
data_LiV18O44
_symmetry_space_group_name_H-M   'P 1'
_cell_length_a   21.91847412
_cell_length_b   3.66644128
_cell_length_c   10.27967869
_cell_angle_alpha   90.00000000
_cell_angle_beta   103.14205027
_cell_angle_gamma   90.00000000
_symmetry_Int_Tables_number   1
_chemical_formula_structural   LiV18O44
_chemical_formula_sum   'Li1 V18 O44'
_cell_volume   804.46756132
_cell_formula_units_Z   1
loop_
 _symmetry_equiv_pos_site_id
 _symmetry_equiv_pos_as_xyz
  1  'x, y, z'
loop_
 _atom_site_type_symbol
 _atom_site_label
 _atom_site_symmetry_multiplicity
 _atom_site_fract_x
 _atom_site_fract_y
 _atom_site_fract_z
 _atom_site_occupancy
  Li  Li0  1  0.51036748  0.75000000  0.53417292  1
  V  V1  1  0.02611466  0.25000000  0.40544565  1
  V  V2  1  0.09325183  0.75000000  0.86438901  1
  V  V3  1  0.05913107  0.25000000  0.09113008  1
  V  V4  1  0.28665965  0.25000000  0.84722405  1
  V  V5  1  0.25163893  0.75000000  0.07034977  1
  V  V6  1  0.31190078  0.25000000  0.52590080  1
  V  V7  1  0.36264900  0.75000000  0.33255402  1
  V  V8  1  0.43162070  0.25000000  0.78629193  1
  V  V9  1  0.40716188  0.75000000  0.01814561  1
  V  V10  1  0.59284606  0.25000000  0.98288694  1
  V  V11  1  0.56815614  0.75000000  0.21549455  1
  V  V12  1  0.63608672  0.25000000  0.66626567  1
  V  V13  1  0.68792187  0.75000000  0.47292171  1
  V  V14  1  0.74880056  0.25000000  0.92952835  1
  V  V15  1  0.71328196  0.75000000  0.15164290  1
  V  V16  1  0.94080066  0.75000000  0.90945314  1
  V  V17  1  0.90692498  0.25000000  0.13602194  1
  V  V18  1  0.97392930  0.75000000  0.59482547  1
  O  O19  1  0.00318194  0.75000000  0.42390639  1
  O  O20  1  0.00687624  0.25000000  0.21836856  1
  O  O21  1  0.08089300  0.25000000  0.90850633  1
  O  O22  1  0.10259584  0.75000000  0.71295801  1
  O  O23  1  0.04442089  0.75000000  0.04420687  1
  O  O24  1  0.10056225  0.25000000  0.44439040  1
  O  O25  1  0.17257762  0.75000000  0.96984679  1
  O  O26  1  0.12718298  0.25000000  0.18865845  1
  O  O27  1  0.21714453  0.25000000  0.75595974  1
  O  O28  1  0.23736664  0.25000000  0.49125332  1
  O  O29  1  0.30309051  0.75000000  0.89485799  1
  O  O30  1  0.24439292  0.75000000  0.22427198  1
  O  O31  1  0.33368217  0.25000000  0.71342218  1
  O  O32  1  0.26563920  0.25000000  0.02963436  1
  O  O33  1  0.33304196  0.75000000  0.50570308  1
  O  O34  1  0.39055703  0.25000000  0.97597772  1
  O  O35  1  0.34034739  0.25000000  0.35477319  1
  O  O36  1  0.35226960  0.75000000  0.15429869  1
  O  O37  1  0.42661137  0.75000000  0.83941238  1
  O  O38  1  0.44006354  0.25000000  0.63057196  1
  O  O39  1  0.43828633  0.75000000  0.38570669  1
  O  O40  1  0.52058087  0.25000000  0.87860990  1
  O  O41  1  0.47935849  0.75000000  0.12157572  1
  O  O42  1  0.55960761  0.25000000  0.60955036  1
  O  O43  1  0.56068776  0.75000000  0.37240118  1
  O  O44  1  0.57336250  0.25000000  0.16090348  1
  O  O45  1  0.64607708  0.25000000  0.84321101  1
  O  O46  1  0.65779508  0.75000000  0.64458190  1
  O  O47  1  0.60939274  0.75000000  0.02467753  1
  O  O48  1  0.66717984  0.25000000  0.49560466  1
  O  O49  1  0.73409621  0.75000000  0.97024626  1
  O  O50  1  0.66644242  0.75000000  0.28675132  1
  O  O51  1  0.75534052  0.25000000  0.77535633  1
  O  O52  1  0.69671722  0.25000000  0.10457950  1
  O  O53  1  0.76252189  0.75000000  0.50854147  1
  O  O54  1  0.78284230  0.75000000  0.24386988  1
  O  O55  1  0.87273526  0.75000000  0.81117995  1
  O  O56  1  0.82730236  0.25000000  0.02959064  1
  O  O57  1  0.89927057  0.75000000  0.55554471  1
  O  O58  1  0.95571167  0.25000000  0.95565810  1
  O  O59  1  0.89739386  0.25000000  0.28709728  1
  O  O60  1  0.91886535  0.75000000  0.09101599  1
  O  O61  1  0.99329292  0.75000000  0.78165259  1
  O  O62  1  0.99686628  0.25000000  0.57597364  1
