# generated using pymatgen
data_LiV4O5F7
_symmetry_space_group_name_H-M   'P 1'
_cell_length_a   5.09088274
_cell_length_b   5.36525665
_cell_length_c   9.06237405
_cell_angle_alpha   106.32506629
_cell_angle_beta   105.00715132
_cell_angle_gamma   62.91057263
_symmetry_Int_Tables_number   1
_chemical_formula_structural   LiV4O5F7
_chemical_formula_sum   'Li1 V4 O5 F7'
_cell_volume   208.99081499
_cell_formula_units_Z   1
loop_
 _symmetry_equiv_pos_site_id
 _symmetry_equiv_pos_as_xyz
  1  'x, y, z'
loop_
 _atom_site_type_symbol
 _atom_site_label
 _atom_site_symmetry_multiplicity
 _atom_site_fract_x
 _atom_site_fract_y
 _atom_site_fract_z
 _atom_site_occupancy
  Li  Li0  1  0.57273169  0.73665016  0.85911080  1
  V  V1  1  0.00711205  0.00427064  0.00836408  1
  V  V2  1  0.20444152  0.26683205  0.74509086  1
  V  V3  1  0.48473936  0.48329991  0.49704594  1
  V  V4  1  0.79273456  0.74030458  0.24743065  1
  O  O5  1  0.16500393  0.14477575  0.91495954  1
  O  O6  1  0.34437724  0.33519637  0.58245905  1
  O  O7  1  0.15710402  0.58935884  0.32757061  1
  O  O8  1  0.83455679  0.43306489  0.67700831  1
  O  O9  1  0.82966939  0.82385188  0.06482058  1
  F  F10  1  0.26156115  0.60924610  0.87877494  1
  F  F11  1  0.65989354  0.05984451  0.82547864  1
  F  F12  1  0.28701369  0.87177646  0.63138504  1
  F  F13  1  0.72794319  0.13121442  0.36900121  1
  F  F14  1  0.34007028  0.92123365  0.18041176  1
  F  F15  1  0.66128793  0.67547802  0.42192610  1
  F  F16  1  0.77203668  0.37966376  0.12481091  1
