# generated using pymatgen
data_Ti3Cu2Ni(PO4)6
_symmetry_space_group_name_H-M   'P 1'
_cell_length_a   8.56691923
_cell_length_b   8.56691982
_cell_length_c   8.56691922
_cell_angle_alpha   60.42680631
_cell_angle_beta   60.42681264
_cell_angle_gamma   60.42681023
_symmetry_Int_Tables_number   1
_chemical_formula_structural   Ti3Cu2Ni(PO4)6
_chemical_formula_sum   'Ti3 Cu2 Ni1 P6 O24'
_cell_volume   448.87983208
_cell_formula_units_Z   1
loop_
 _symmetry_equiv_pos_site_id
 _symmetry_equiv_pos_as_xyz
  1  'x, y, z'
loop_
 _atom_site_type_symbol
 _atom_site_label
 _atom_site_symmetry_multiplicity
 _atom_site_fract_x
 _atom_site_fract_y
 _atom_site_fract_z
 _atom_site_occupancy
  Ti  Ti0  1  0.14295861  0.14295861  0.14295861  1
  Ti  Ti1  1  0.35606979  0.35606979  0.35606979  1
  Ti  Ti2  1  0.64436096  0.64436096  0.64436096  1
  Cu  Cu3  1  0.99695344  0.99695344  0.99695344  1
  Cu  Cu4  1  0.49910229  0.49910229  0.49910229  1
  Ni  Ni5  1  0.85741612  0.85741612  0.85741612  1
  P  P6  1  0.24890955  0.54488289  0.95654511  1
  P  P7  1  0.54488289  0.95654511  0.24890955  1
  P  P8  1  0.95654511  0.24890955  0.54488289  1
  P  P9  1  0.04268535  0.75197984  0.45890739  1
  P  P10  1  0.45890739  0.04268535  0.75197984  1
  P  P11  1  0.75197984  0.45890739  0.04268535  1
  O  O12  1  0.11893689  0.31512583  0.49446103  1
  O  O13  1  0.31512583  0.49446103  0.11893689  1
  O  O14  1  0.05583737  0.91499156  0.26123724  1
  O  O15  1  0.49446103  0.11893689  0.31512583  1
  O  O16  1  0.01261007  0.80807348  0.61394730  1
  O  O17  1  0.23709762  0.58583880  0.43425261  1
  O  O18  1  0.26123724  0.05583737  0.91499156  1
  O  O19  1  0.43425261  0.23709762  0.58583880  1
  O  O20  1  0.19074960  0.37844480  0.00077026  1
  O  O21  1  0.58583880  0.43425261  0.23709762  1
  O  O22  1  0.08892270  0.73656593  0.94678420  1
  O  O23  1  0.37844480  0.00077026  0.19074960  1
  O  O24  1  0.61394730  0.01261007  0.80807348  1
  O  O25  1  0.91499156  0.26123724  0.05583737  1
  O  O26  1  0.41617635  0.55452038  0.76390051  1
  O  O27  1  0.80807348  0.61394730  0.01261007  1
  O  O28  1  0.55452038  0.76390051  0.41617635  1
  O  O29  1  0.73656593  0.94678420  0.08892270  1
  O  O30  1  0.76390051  0.41617635  0.55452038  1
  O  O31  1  0.00077026  0.19074960  0.37844480  1
  O  O32  1  0.50041795  0.87793673  0.69162845  1
  O  O33  1  0.94678420  0.08892270  0.73656593  1
  O  O34  1  0.69162845  0.50041795  0.87793673  1
  O  O35  1  0.87793673  0.69162845  0.50041795  1
