# generated using pymatgen
data_V3Fe2Te(PO4)6
_symmetry_space_group_name_H-M   'P 1'
_cell_length_a   8.64464407
_cell_length_b   8.76659861
_cell_length_c   8.76659879
_cell_angle_alpha   59.99999523
_cell_angle_beta   59.53221501
_cell_angle_gamma   59.53221798
_symmetry_Int_Tables_number   1
_chemical_formula_structural   V3Fe2Te(PO4)6
_chemical_formula_sum   'V3 Fe2 Te1 P6 O24'
_cell_volume   466.43077347
_cell_formula_units_Z   1
loop_
 _symmetry_equiv_pos_site_id
 _symmetry_equiv_pos_as_xyz
  1  'x, y, z'
loop_
 _atom_site_type_symbol
 _atom_site_label
 _atom_site_symmetry_multiplicity
 _atom_site_fract_x
 _atom_site_fract_y
 _atom_site_fract_z
 _atom_site_occupancy
  V  V0  1  0.06764191  0.64411936  0.64411936  1
  V  V1  1  0.42853767  0.85715378  0.85715378  1
  V  V2  1  0.92621520  0.35792793  0.35792793  1
  Fe  Fe3  1  0.01160075  0.99613275  0.99613275  1
  Fe  Fe4  1  0.49862834  0.50045689  0.50045689  1
  Te  Te5  1  0.56515924  0.14494659  0.14494659  1
  P  P6  1  0.24084421  0.25326699  0.55419414  1
  P  P7  1  0.24084421  0.95169465  0.25326699  1
  P  P8  1  0.24084421  0.55419414  0.95169465  1
  P  P9  1  0.75210909  0.46334531  0.04196106  1
  P  P10  1  0.75210909  0.04196106  0.74258454  1
  P  P11  1  0.75210909  0.74258454  0.46334531  1
  O  O12  1  0.07004697  0.11516932  0.31107115  1
  O  O13  1  0.07004697  0.50371256  0.11516932  1
  O  O14  1  0.07004697  0.31107115  0.50371256  1
  O  O15  1  0.22493165  0.09349376  0.74502671  1
  O  O16  1  0.43348175  0.18940850  0.40287684  1
  O  O17  1  0.25845212  0.41383134  0.56998872  1
  O  O18  1  0.22493165  0.93654788  0.09349376  1
  O  O19  1  0.25845212  0.75772781  0.41383134  1
  O  O20  1  0.57112411  0.61283371  0.00297352  1
  O  O21  1  0.25845212  0.56998872  0.75772781  1
  O  O22  1  0.78563808  0.26461117  0.05037147  1
  O  O23  1  0.57112411  0.00297352  0.81306867  1
  O  O24  1  0.43348175  0.97423291  0.18940850  1
  O  O25  1  0.22493165  0.74502671  0.93654788  1
  O  O26  1  0.73122060  0.44424139  0.23797538  1
  O  O27  1  0.43348175  0.40287684  0.97423291  1
  O  O28  1  0.73122060  0.23797538  0.58656263  1
  O  O29  1  0.78563808  0.05037147  0.89937927  1
  O  O30  1  0.73122060  0.58656263  0.44424139  1
  O  O31  1  0.57112411  0.81306867  0.61283371  1
  O  O32  1  0.78563808  0.89937927  0.26461117  1
  O  O33  1  0.93289171  0.67371973  0.50688652  1
  O  O34  1  0.93289171  0.50688652  0.88650205  1
  O  O35  1  0.93289171  0.88650205  0.67371973  1
