# generated using pymatgen
data_Li4Ti3Nb2Cr3O16
_symmetry_space_group_name_H-M   'P 1'
_cell_length_a   5.99664118
_cell_length_b   5.98114160
_cell_length_c   9.74489855
_cell_angle_alpha   89.98815801
_cell_angle_beta   90.56660595
_cell_angle_gamma   119.89462619
_symmetry_Int_Tables_number   1
_chemical_formula_structural   Li4Ti3Nb2Cr3O16
_chemical_formula_sum   'Li4 Ti3 Nb2 Cr3 O16'
_cell_volume   302.99299233
_cell_formula_units_Z   1
loop_
 _symmetry_equiv_pos_site_id
 _symmetry_equiv_pos_as_xyz
  1  'x, y, z'
loop_
 _atom_site_type_symbol
 _atom_site_label
 _atom_site_symmetry_multiplicity
 _atom_site_fract_x
 _atom_site_fract_y
 _atom_site_fract_z
 _atom_site_occupancy
  Li  Li0  1  0.32922422  0.66464531  0.89784125  1
  Li  Li1  1  -0.00034740  0.99977159  0.99205969  1
  Li  Li2  1  0.99691091  0.99846685  0.49492682  1
  Li  Li3  1  0.66583110  0.33291870  0.40195197  1
  Ti  Ti4  1  0.34200557  0.17100813  0.72100508  1
  Ti  Ti5  1  0.17704772  0.83538168  0.21884806  1
  Ti  Ti6  1  0.17708529  0.34180015  0.21881893  1
  Nb  Nb7  1  0.33323599  0.66664964  0.49301444  1
  Nb  Nb8  1  0.67671708  0.33840982  0.99073102  1
  Cr  Cr9  1  0.66400924  0.83198492  0.21091477  1
  Cr  Cr10  1  0.83152301  0.66109776  0.71268770  1
  Cr  Cr11  1  0.83153583  0.17045803  0.71267270  1
  O  O12  1  0.16795732  0.83839271  0.59724954  1
  O  O13  1  0.03654751  0.51827018  0.33973298  1
  O  O14  1  0.32414934  0.66207205  0.10771101  1
  O  O15  1  0.00270853  0.00144153  0.30897766  1
  O  O16  1  0.00716275  0.00355529  0.80704175  1
  O  O17  1  0.16796844  0.32960058  0.59722035  1
  O  O18  1  0.47569766  0.96168354  0.33761931  1
  O  O19  1  0.47576749  0.51404102  0.33759924  1
  O  O20  1  0.32885757  0.16444620  0.10028061  1
  O  O21  1  0.66565153  0.83283620  0.59387462  1
  O  O22  1  0.51351512  0.47603398  0.83953775  1
  O  O23  1  0.51355828  0.03751326  0.83953637  1
  O  O24  1  0.65273935  0.32642910  0.60739485  1
  O  O25  1  0.84182656  0.67055064  0.09414246  1
  O  O26  1  0.95933282  0.47962333  0.84031814  1
  O  O27  1  0.84178119  0.17121881  0.09413096  1
