# generated using pymatgen
data_Mn8O13F3
_symmetry_space_group_name_H-M   'P 1'
_cell_length_a   5.97357805
_cell_length_b   9.34988479
_cell_length_c   4.52668417
_cell_angle_alpha   94.12408075
_cell_angle_beta   90.00000000
_cell_angle_gamma   90.00000000
_symmetry_Int_Tables_number   1
_chemical_formula_structural   Mn8O13F3
_chemical_formula_sum   'Mn8 O13 F3'
_cell_volume   252.17091574
_cell_formula_units_Z   1
loop_
 _symmetry_equiv_pos_site_id
 _symmetry_equiv_pos_as_xyz
  1  'x, y, z'
loop_
 _atom_site_type_symbol
 _atom_site_label
 _atom_site_symmetry_multiplicity
 _atom_site_fract_x
 _atom_site_fract_y
 _atom_site_fract_z
 _atom_site_occupancy
  Mn  Mn0  1  0.00000000  0.00071776  0.99651544  1
  Mn  Mn1  1  0.24930944  0.26436271  0.46080080  1
  Mn  Mn2  1  0.50000000  0.98667403  0.02995037  1
  Mn  Mn3  1  0.00000000  0.50493890  0.98992098  1
  Mn  Mn4  1  0.25733163  0.73970226  0.52716120  1
  Mn  Mn5  1  0.75069056  0.26436271  0.46080080  1
  Mn  Mn6  1  0.50000000  0.50090367  0.99672247  1
  Mn  Mn7  1  0.74266837  0.73970226  0.52716120  1
  O  O8  1  0.24896779  0.08988509  0.21647060  1
  O  O9  1  0.25193189  0.90766360  0.79407113  1
  O  O10  1  0.00000000  0.34002563  0.25917816  1
  O  O11  1  0.74806811  0.90766360  0.79407113  1
  O  O12  1  0.24864352  0.41564895  0.77624692  1
  O  O13  1  0.50000000  0.34347007  0.26299503  1
  O  O14  1  0.75103221  0.08988509  0.21647060  1
  O  O15  1  0.24963233  0.58338457  0.22074941  1
  O  O16  1  0.00000000  0.66140634  0.73159703  1
  O  O17  1  0.75036767  0.58338457  0.22074941  1
  O  O18  1  0.50000000  0.66116209  0.72789531  1
  O  O19  1  0.75135648  0.41564895  0.77624692  1
  O  O20  1  0.50000000  0.82345566  0.32457840  1
  F  F21  1  0.00000000  0.17192979  0.69173037  1
  F  F22  1  0.00000000  0.82813944  0.31486438  1
  F  F23  1  0.50000000  0.17588026  0.68305294  1
