# generated using pymatgen
data_Li4V3Cr2Sn3O16
_symmetry_space_group_name_H-M   'P 1'
_cell_length_a   6.13119536
_cell_length_b   6.09750388
_cell_length_c   9.67615037
_cell_angle_alpha   89.69360107
_cell_angle_beta   89.93109471
_cell_angle_gamma   119.92195706
_symmetry_Int_Tables_number   1
_chemical_formula_structural   Li4V3Cr2Sn3O16
_chemical_formula_sum   'Li4 V3 Cr2 Sn3 O16'
_cell_volume   313.51688657
_cell_formula_units_Z   1
loop_
 _symmetry_equiv_pos_site_id
 _symmetry_equiv_pos_as_xyz
  1  'x, y, z'
loop_
 _atom_site_type_symbol
 _atom_site_label
 _atom_site_symmetry_multiplicity
 _atom_site_fract_x
 _atom_site_fract_y
 _atom_site_fract_z
 _atom_site_occupancy
  Li  Li0  1  0.34654403  0.67547194  0.88997975  1
  Li  Li1  1  0.97759900  0.98891915  0.99183543  1
  Li  Li2  1  0.98545492  0.99070986  0.49997921  1
  Li  Li3  1  0.66804609  0.33473214  0.39539714  1
  V  V4  1  0.66283340  0.83150227  0.21307006  1
  V  V5  1  0.82979715  0.16806711  0.70957073  1
  V  V6  1  0.83727727  0.65834405  0.71380199  1
  Cr  Cr7  1  0.33844247  0.66581669  0.48705981  1
  Cr  Cr8  1  0.67191255  0.33747516  0.98305767  1
  Sn  Sn9  1  0.17102630  0.83190280  0.21337009  1
  Sn  Sn10  1  0.17081616  0.33906226  0.21315589  1
  Sn  Sn11  1  0.33947767  0.17099517  0.71394583  1
  O  O12  1  0.15550150  0.82488645  0.60135842  1
  O  O13  1  0.04096823  0.51961135  0.34904773  1
  O  O14  1  0.33293489  0.66728910  0.09633437  1
  O  O15  1  -0.00001863  0.99939983  0.31656617  1
  O  O16  1  0.99356816  0.98693172  0.80916479  1
  O  O17  1  0.15582866  0.32728261  0.60051384  1
  O  O18  1  0.48557164  0.96045753  0.34366060  1
  O  O19  1  0.48455663  0.52364391  0.34304942  1
  O  O20  1  0.32483641  0.16306736  0.09156704  1
  O  O21  1  0.67404801  0.82564708  0.60884863  1
  O  O22  1  0.53247219  0.48929623  0.84300722  1
  O  O23  1  0.53239970  0.04614843  0.84295874  1
  O  O24  1  0.66955932  0.34849533  0.60000855  1
  O  O25  1  0.83015643  0.67099603  0.10197022  1
  O  O26  1  0.95684097  0.49350066  0.83488836  1
  O  O27  1  0.83155088  0.16064679  0.10067331  1
