# generated using pymatgen
data_Na5Mn2P(CO4)4
_symmetry_space_group_name_H-M   'P 1'
_cell_length_a   9.90450423
_cell_length_b   9.89790209
_cell_length_c   10.07974647
_cell_angle_alpha   120.56601635
_cell_angle_beta   60.63753131
_cell_angle_gamma   118.80336197
_symmetry_Int_Tables_number   1
_chemical_formula_structural   Na5Mn2P(CO4)4
_chemical_formula_sum   'Na10 Mn4 P2 C8 O32'
_cell_volume   705.06816173
_cell_formula_units_Z   2
loop_
 _symmetry_equiv_pos_site_id
 _symmetry_equiv_pos_as_xyz
  1  'x, y, z'
loop_
 _atom_site_type_symbol
 _atom_site_label
 _atom_site_symmetry_multiplicity
 _atom_site_fract_x
 _atom_site_fract_y
 _atom_site_fract_z
 _atom_site_occupancy
  Na  Na0  1  0.91511951  0.17917704  0.34077242  1
  Na  Na1  1  0.91577602  0.16577602  0.91577602  1
  Na  Na2  1  0.91183244  0.58236876  0.34030645  1
  Na  Na3  1  0.65922758  0.42328512  0.08488049  1
  Na  Na4  1  0.34030645  0.16977013  0.91183244  1
  Na  Na5  1  0.65969355  0.83022987  0.08816756  1
  Na  Na6  1  0.34077242  0.57671488  0.91511951  1
  Na  Na7  1  0.08816756  0.41763124  0.65969355  1
  Na  Na8  1  0.08422398  0.83422398  0.08422398  1
  Na  Na9  1  0.08488049  0.82082296  0.65922758  1
  Mn  Mn10  1  0.50000000  0.00000000  0.00000000  1
  Mn  Mn11  1  0.50000000  0.00000000  0.50000000  1
  Mn  Mn12  1  0.50000000  0.50000000  0.50000000  1
  Mn  Mn13  1  0.00000000  0.00000000  0.50000000  1
  P  P14  1  0.87531459  0.62531459  0.87531459  1
  P  P15  1  0.12468541  0.37468541  0.12468541  1
  C  C16  1  0.71151162  0.14491134  0.71347462  1
  C  C17  1  0.64938884  0.21948609  0.27945257  1
  C  C18  1  0.27945257  0.20935532  0.64938884  1
  C  C19  1  0.28652538  0.21992510  0.28848838  1
  C  C20  1  0.71347462  0.78007490  0.71151162  1
  C  C21  1  0.72054743  0.79064468  0.35061116  1
  C  C22  1  0.35061116  0.78051391  0.72054743  1
  C  C23  1  0.28848838  0.85508866  0.28652538  1
  O  O24  1  0.85671405  0.15580522  0.69223480  1
  O  O25  1  0.65773637  0.10658861  0.30077642  1
  O  O26  1  0.68491456  0.12746196  0.59062075  1
  O  O27  1  0.65337833  0.19707808  0.13904249  1
  O  O28  1  0.60058317  0.15542758  0.85400424  1
  O  O29  1  0.94160639  0.56125460  0.93711487  1
  O  O30  1  0.94119108  0.56132882  0.68692818  1
  O  O31  1  0.64514643  0.36149392  0.39897482  1
  O  O32  1  0.30776520  0.10685737  0.14328595  1
  O  O33  1  0.39897482  0.18262732  0.64514643  1
  O  O34  1  0.93711487  0.81746666  0.94160639  1
  O  O35  1  0.68692818  0.56679044  0.94119108  1
  O  O36  1  0.69922358  0.64807482  0.34226363  1
  O  O37  1  0.85400424  0.79915983  0.60058317  1
  O  O38  1  0.40937925  0.35192665  0.31508544  1
  O  O39  1  0.13904249  0.09534274  0.65337833  1
  O  O40  1  0.86095751  0.90465726  0.34662167  1
  O  O41  1  0.59062075  0.64807335  0.68491456  1
  O  O42  1  0.30077642  0.35192518  0.65773637  1
  O  O43  1  0.14599576  0.20084017  0.39941683  1
  O  O44  1  0.31307182  0.43320956  0.05880892  1
  O  O45  1  0.06288513  0.18253334  0.05839361  1
  O  O46  1  0.60102518  0.81737268  0.35485357  1
  O  O47  1  0.69223480  0.89314263  0.85671405  1
  O  O48  1  0.35485357  0.63850608  0.60102518  1
  O  O49  1  0.05880892  0.43867118  0.31307182  1
  O  O50  1  0.05839361  0.43874540  0.06288513  1
  O  O51  1  0.39941683  0.84457242  0.14599576  1
  O  O52  1  0.34662167  0.80292192  0.86095751  1
  O  O53  1  0.31508544  0.87253804  0.40937925  1
  O  O54  1  0.34226363  0.89341139  0.69922358  1
  O  O55  1  0.14328595  0.84419478  0.30776520  1
