# generated using pymatgen
data_Na7Co3O8
_symmetry_space_group_name_H-M   'P 1'
_cell_length_a   10.46683014
_cell_length_b   5.51780772
_cell_length_c   8.24105411
_cell_angle_alpha   88.88947769
_cell_angle_beta   89.62461263
_cell_angle_gamma   89.42248460
_symmetry_Int_Tables_number   1
_chemical_formula_structural   Na7Co3O8
_chemical_formula_sum   'Na14 Co6 O16'
_cell_volume   475.83028927
_cell_formula_units_Z   2
loop_
 _symmetry_equiv_pos_site_id
 _symmetry_equiv_pos_as_xyz
  1  'x, y, z'
loop_
 _atom_site_type_symbol
 _atom_site_label
 _atom_site_symmetry_multiplicity
 _atom_site_fract_x
 _atom_site_fract_y
 _atom_site_fract_z
 _atom_site_occupancy
  Na  Na0  1  0.02028631  0.27775389  0.34999907  1
  Na  Na1  1  0.12625553  0.47609370  0.87726465  1
  Na  Na2  1  0.17444415  0.14141898  0.62153502  1
  Na  Na3  1  0.24069611  0.71365152  0.38504754  1
  Na  Na4  1  0.27644553  0.28385516  0.11407662  1
  Na  Na5  1  0.37927020  0.47998818  0.63263092  1
  Na  Na6  1  0.47300412  0.74317455  0.11749118  1
  Na  Na7  1  0.52699588  0.25682545  0.88250882  1
  Na  Na8  1  0.62072980  0.52001182  0.36736908  1
  Na  Na9  1  0.72355447  0.71614484  0.88592338  1
  Na  Na10  1  0.75930389  0.28634848  0.61495246  1
  Na  Na11  1  0.82555585  0.85858102  0.37846498  1
  Na  Na12  1  0.87374447  0.52390630  0.12273535  1
  Na  Na13  1  0.97971369  0.72224611  0.65000093  1
  Co  Co14  1  0.07871827  0.86375312  0.10860609  1
  Co  Co15  1  0.30356096  0.88183842  0.83905051  1
  Co  Co16  1  0.43747930  0.13634949  0.37835440  1
  Co  Co17  1  0.56252070  0.86365051  0.62164560  1
  Co  Co18  1  0.69643904  0.11816158  0.16094949  1
  Co  Co19  1  0.92128173  0.13624688  0.89139391  1
  O  O20  1  0.02612828  0.76017493  0.30882994  1
  O  O21  1  0.03918299  0.20571178  0.06923129  1
  O  O22  1  0.20898953  0.73850451  0.68426307  1
  O  O23  1  0.27730190  0.26050260  0.39669653  1
  O  O24  1  0.24470387  0.75682462  0.05913226  1
  O  O25  1  0.30774123  0.20548806  0.84418250  1
  O  O26  1  0.45979138  0.79550513  0.42821831  1
  O  O27  1  0.48604580  0.76607580  0.81933094  1
  O  O28  1  0.51395420  0.23392420  0.18066906  1
  O  O29  1  0.54020862  0.20449487  0.57178169  1
  O  O30  1  0.69225877  0.79451194  0.15581750  1
  O  O31  1  0.75529613  0.24317538  0.94086774  1
  O  O32  1  0.72269810  0.73949740  0.60330347  1
  O  O33  1  0.79101047  0.26149549  0.31573693  1
  O  O34  1  0.96081701  0.79428822  0.93076871  1
  O  O35  1  0.97387172  0.23982507  0.69117006  1
