# generated using pymatgen
data_LiCoPO4
_symmetry_space_group_name_H-M   'P 1'
_cell_length_a   9.07694115
_cell_length_b   6.40544552
_cell_length_c   4.94296868
_cell_angle_alpha   89.94410236
_cell_angle_beta   90.00000000
_cell_angle_gamma   90.00000000
_symmetry_Int_Tables_number   1
_chemical_formula_structural   LiCoPO4
_chemical_formula_sum   'Li4 Co4 P4 O16'
_cell_volume   287.39321677
_cell_formula_units_Z   4
loop_
 _symmetry_equiv_pos_site_id
 _symmetry_equiv_pos_as_xyz
  1  'x, y, z'
loop_
 _atom_site_type_symbol
 _atom_site_label
 _atom_site_symmetry_multiplicity
 _atom_site_fract_x
 _atom_site_fract_y
 _atom_site_fract_z
 _atom_site_occupancy
  Li  Li0  1  0.16103998  0.75001212  0.44935310  1
  Li  Li1  1  0.33896002  0.25001212  0.94935310  1
  Li  Li2  1  0.66103998  0.74998788  0.05064690  1
  Li  Li3  1  0.83896002  0.24998788  0.55064690  1
  Co  Co4  1  0.00000000  0.00000000  0.00000000  1
  Co  Co5  1  0.00000000  0.50000000  0.00000000  1
  Co  Co6  1  0.50000000  0.00000000  0.50000000  1
  Co  Co7  1  0.50000000  0.50000000  0.50000000  1
  P  P8  1  0.17928157  0.25011932  0.46994054  1
  P  P9  1  0.32071843  0.75011932  0.96994054  1
  P  P10  1  0.67928157  0.24988068  0.03005946  1
  P  P11  1  0.82071843  0.74988068  0.53005946  1
  O  O12  1  0.12010778  0.05016410  0.33443758  1
  O  O13  1  0.11985259  0.44995202  0.33406292  1
  O  O14  1  0.13528830  0.25005763  0.77503180  1
  O  O15  1  0.14804262  0.75040249  0.92679774  1
  O  O16  1  0.35195738  0.25040249  0.42679774  1
  O  O17  1  0.36471170  0.75005763  0.27503180  1
  O  O18  1  0.37989222  0.55016410  0.83443758  1
  O  O19  1  0.38014741  0.94995202  0.83406292  1
  O  O20  1  0.61985259  0.05004798  0.16593708  1
  O  O21  1  0.62010778  0.44983590  0.16556242  1
  O  O22  1  0.63528830  0.24994237  0.72496820  1
  O  O23  1  0.64804262  0.74959751  0.57320226  1
  O  O24  1  0.85195738  0.24959751  0.07320226  1
  O  O25  1  0.86471170  0.74994237  0.22496820  1
  O  O26  1  0.88014741  0.55004798  0.66593708  1
  O  O27  1  0.87989222  0.94983590  0.66556242  1
