# generated using pymatgen
data_Li4V5Fe3O16
_symmetry_space_group_name_H-M   'P 1'
_cell_length_a   5.97630523
_cell_length_b   5.95171688
_cell_length_c   9.54574564
_cell_angle_alpha   90.60930399
_cell_angle_beta   90.19637415
_cell_angle_gamma   120.69788013
_symmetry_Int_Tables_number   1
_chemical_formula_structural   Li4V5Fe3O16
_chemical_formula_sum   'Li4 V5 Fe3 O16'
_cell_volume   291.92458977
_cell_formula_units_Z   1
loop_
 _symmetry_equiv_pos_site_id
 _symmetry_equiv_pos_as_xyz
  1  'x, y, z'
loop_
 _atom_site_type_symbol
 _atom_site_label
 _atom_site_symmetry_multiplicity
 _atom_site_fract_x
 _atom_site_fract_y
 _atom_site_fract_z
 _atom_site_occupancy
  Li  Li0  1  0.34182279  0.67356134  0.89674837  1
  Li  Li1  1  0.99340977  0.99401179  0.99471564  1
  Li  Li2  1  -0.00087166  0.99197910  0.49475131  1
  Li  Li3  1  0.67310731  0.34319872  0.39204458  1
  V  V4  1  0.82941380  0.65051742  0.71967746  1
  V  V5  1  0.33333119  0.66627782  0.49075300  1
  V  V6  1  0.65347815  0.83156406  0.22108776  1
  V  V7  1  0.66696470  0.33266451  0.99003910  1
  V  V8  1  0.83182643  0.17419268  0.71009696  1
  Fe  Fe9  1  0.17066582  0.83046890  0.21184865  1
  Fe  Fe10  1  0.16902185  0.33614291  0.21061560  1
  Fe  Fe11  1  0.33427859  0.16734503  0.71275579  1
  O  O12  1  0.16147119  0.82697775  0.59619211  1
  O  O13  1  0.05222351  0.52662379  0.34641170  1
  O  O14  1  0.35395302  0.67502133  0.10439949  1
  O  O15  1  0.98572678  0.98978070  0.30543791  1
  O  O16  1  0.99176402  0.98443598  0.80577232  1
  O  O17  1  0.15939896  0.32981206  0.59810891  1
  O  O18  1  0.49060509  0.96439738  0.34414218  1
  O  O19  1  0.48549711  0.52722231  0.34292954  1
  O  O20  1  0.33100399  0.16086660  0.09710108  1
  O  O21  1  0.65129821  0.82857181  0.59466013  1
  O  O22  1  0.52737571  0.48705206  0.84384027  1
  O  O23  1  0.52755863  0.05176116  0.84598310  1
  O  O24  1  0.66779955  0.35306228  0.60249818  1
  O  O25  1  0.82411632  0.64998903  0.09445825  1
  O  O26  1  0.96556125  0.49122247  0.84341035  1
  O  O27  1  0.82819893  0.16158104  0.09735829  1
