# generated using pymatgen
data_LiV4O5F7
_symmetry_space_group_name_H-M   'P 1'
_cell_length_a   5.37875225
_cell_length_b   9.12873762
_cell_length_c   9.09816681
_cell_angle_alpha   110.16530960
_cell_angle_beta   87.64552735
_cell_angle_gamma   91.99442722
_symmetry_Int_Tables_number   1
_chemical_formula_structural   LiV4O5F7
_chemical_formula_sum   'Li2 V8 O10 F14'
_cell_volume   418.89182560
_cell_formula_units_Z   2
loop_
 _symmetry_equiv_pos_site_id
 _symmetry_equiv_pos_as_xyz
  1  'x, y, z'
loop_
 _atom_site_type_symbol
 _atom_site_label
 _atom_site_symmetry_multiplicity
 _atom_site_fract_x
 _atom_site_fract_y
 _atom_site_fract_z
 _atom_site_occupancy
  Li  Li0  1  0.97397399  0.13009650  0.37788422  1
  Li  Li1  1  0.51224757  0.11990643  0.88573974  1
  V  V2  1  0.99768033  0.50574097  0.48332493  1
  V  V3  1  0.02901941  0.74513165  0.24019352  1
  V  V4  1  0.45827216  0.25119139  0.25009611  1
  V  V5  1  0.02276585  0.99874099  0.01924954  1
  V  V6  1  0.52904012  0.74433061  0.74010594  1
  V  V7  1  0.95992528  0.25105298  0.74928661  1
  V  V8  1  0.52022860  0.99891452  0.52044637  1
  V  V9  1  0.49758778  0.50484312  0.98290172  1
  O  O10  1  0.00006060  0.93098961  0.17558475  1
  O  O11  1  0.28062617  0.66526995  0.12856827  1
  O  O12  1  0.99873181  0.58464468  0.34105549  1
  O  O13  1  0.30774749  0.12495189  0.06757747  1
  O  O14  1  0.78132333  0.66535562  0.62865272  1
  O  O15  1  0.20094562  0.31932028  0.37237757  1
  O  O16  1  0.50015755  0.93045187  0.67625518  1
  O  O17  1  0.80642670  0.12508367  0.56813192  1
  O  O18  1  0.49921137  0.58454876  0.84098327  1
  O  O19  1  0.70252287  0.31957821  0.87263564  1
  F  F20  1  0.79261626  0.62542954  0.08198976  1
  F  F21  1  0.79745472  0.17480837  0.12753334  1
  F  F22  1  0.50103721  0.42110617  0.16699305  1
  F  F23  1  0.71028097  0.82903033  0.37271395  1
  F  F24  1  0.71016496  0.36171475  0.41741042  1
  F  F25  1  0.20185741  0.88610765  0.42284245  1
  F  F26  1  0.50168249  0.07551479  0.32738040  1
  F  F27  1  0.29359256  0.62504937  0.58137332  1
  F  F28  1  0.69921359  0.88777405  0.92302355  1
  F  F29  1  0.29661602  0.17469596  0.62768063  1
  F  F30  1  0.00099189  0.42159079  0.66647553  1
  F  F31  1  0.20977274  0.82812835  0.87198698  1
  F  F32  1  0.20809370  0.36392245  0.91785149  1
  F  F33  1  0.99304788  0.07488972  0.82832615  1
