# generated using pymatgen
data_LiCr(PO3)3
_symmetry_space_group_name_H-M   'P 1'
_cell_length_a   6.59834311
_cell_length_b   7.42078168
_cell_length_c   6.84113438
_cell_angle_alpha   96.43048067
_cell_angle_beta   96.64578608
_cell_angle_gamma   88.84840639
_symmetry_Int_Tables_number   1
_chemical_formula_structural   LiCr(PO3)3
_chemical_formula_sum   'Li2 Cr2 P6 O18'
_cell_volume   330.62239528
_cell_formula_units_Z   2
loop_
 _symmetry_equiv_pos_site_id
 _symmetry_equiv_pos_as_xyz
  1  'x, y, z'
loop_
 _atom_site_type_symbol
 _atom_site_label
 _atom_site_symmetry_multiplicity
 _atom_site_fract_x
 _atom_site_fract_y
 _atom_site_fract_z
 _atom_site_occupancy
  Li  Li0  1  0.13685968  0.17417143  0.45435908  1
  Li  Li1  1  0.86314032  0.82582857  0.54564092  1
  Cr  Cr2  1  0.18245943  0.13202538  0.92748215  1
  Cr  Cr3  1  0.81754057  0.86797462  0.07251785  1
  P  P4  1  0.15352343  0.54140781  0.77766428  1
  P  P5  1  0.31563449  0.77034123  0.13056434  1
  P  P6  1  0.37036380  0.79710905  0.57651355  1
  P  P7  1  0.62963620  0.20289095  0.42348645  1
  P  P8  1  0.68436551  0.22965877  0.86943566  1
  P  P9  1  0.84647657  0.45859219  0.22233572  1
  O  O10  1  0.03660037  0.35143138  0.26492630  1
  O  O11  1  0.14839396  0.33621998  0.73870907  1
  O  O12  1  0.14032526  0.90853417  0.10026573  1
  O  O13  1  0.19674680  0.92790247  0.61389900  1
  O  O14  1  0.24182247  0.58008379  0.01093581  1
  O  O15  1  0.33782291  0.60976347  0.67111898  1
  O  O16  1  0.33632668  0.71113160  0.34494599  1
  O  O17  1  0.41278651  0.14949905  0.36895438  1
  O  O18  1  0.49087028  0.17252528  0.93609177  1
  O  O19  1  0.50912972  0.82747472  0.06390823  1
  O  O20  1  0.58721349  0.85050095  0.63104562  1
  O  O21  1  0.66367332  0.28886840  0.65505401  1
  O  O22  1  0.66217709  0.39023653  0.32888102  1
  O  O23  1  0.75817753  0.41991621  0.98906419  1
  O  O24  1  0.80325320  0.07209753  0.38610100  1
  O  O25  1  0.85967474  0.09146583  0.89973427  1
  O  O26  1  0.85160604  0.66378002  0.26129093  1
  O  O27  1  0.96339963  0.64856862  0.73507370  1
