# generated using pymatgen
data_Li4Ti3Mn2Cr3O16
_symmetry_space_group_name_H-M   'P 1'
_cell_length_a   5.90047969
_cell_length_b   5.94094070
_cell_length_c   9.58243645
_cell_angle_alpha   90.00019868
_cell_angle_beta   91.32119034
_cell_angle_gamma   120.22786280
_symmetry_Int_Tables_number   1
_chemical_formula_structural   Li4Ti3Mn2Cr3O16
_chemical_formula_sum   'Li4 Ti3 Mn2 Cr3 O16'
_cell_volume   290.12999828
_cell_formula_units_Z   1
loop_
 _symmetry_equiv_pos_site_id
 _symmetry_equiv_pos_as_xyz
  1  'x, y, z'
loop_
 _atom_site_type_symbol
 _atom_site_label
 _atom_site_symmetry_multiplicity
 _atom_site_fract_x
 _atom_site_fract_y
 _atom_site_fract_z
 _atom_site_occupancy
  Li  Li0  1  0.33675295  0.66838548  0.89611347  1
  Li  Li1  1  0.98957273  0.99478378  0.99457033  1
  Li  Li2  1  0.98139382  0.99068997  0.49594596  1
  Li  Li3  1  0.67553915  0.33779406  0.39877339  1
  Ti  Ti4  1  0.32595482  0.16298852  0.70807131  1
  Ti  Ti5  1  0.18104596  0.83922115  0.21480027  1
  Ti  Ti6  1  0.18099724  0.34183624  0.21480359  1
  Mn  Mn7  1  0.33816934  0.66909850  0.48986640  1
  Mn  Mn8  1  0.67384897  0.33693449  0.97969665  1
  Cr  Cr9  1  0.66306458  0.83152906  0.20778311  1
  Cr  Cr10  1  0.82339083  0.65831517  0.71539999  1
  Cr  Cr11  1  0.82340458  0.16511137  0.71540099  1
  O  O12  1  0.16195457  0.84199056  0.60416069  1
  O  O13  1  0.05190025  0.52595674  0.34140374  1
  O  O14  1  0.31902384  0.65952125  0.10337153  1
  O  O15  1  0.01080431  0.00540396  0.30849688  1
  O  O16  1  0.00225586  0.00114910  0.81156733  1
  O  O17  1  0.16194825  0.31997391  0.60415337  1
  O  O18  1  0.48666704  0.96970295  0.33198210  1
  O  O19  1  0.48664947  0.51697905  0.33199107  1
  O  O20  1  0.32987319  0.16494839  0.10081915  1
  O  O21  1  0.66422941  0.83213322  0.59983149  1
  O  O22  1  0.51970288  0.47532698  0.84631428  1
  O  O23  1  0.51970657  0.04440849  0.84631195  1
  O  O24  1  0.65085334  0.32544129  0.60560898  1
  O  O25  1  0.84161599  0.66853714  0.09868891  1
  O  O26  1  0.95805903  0.47905327  0.84322744  1
  O  O27  1  0.84162308  0.17308791  0.09868465  1
