# generated using pymatgen
data_La2Nb2N2O5
_symmetry_space_group_name_H-M   'P 1'
_cell_length_a   8.06580035
_cell_length_b   13.76007504
_cell_length_c   5.70178377
_cell_angle_alpha   90.48831587
_cell_angle_beta   89.85301311
_cell_angle_gamma   98.43171155
_symmetry_Int_Tables_number   1
_chemical_formula_structural   La2Nb2N2O5
_chemical_formula_sum   'La8 Nb8 N8 O20'
_cell_volume   625.95506405
_cell_formula_units_Z   4
loop_
 _symmetry_equiv_pos_site_id
 _symmetry_equiv_pos_as_xyz
  1  'x, y, z'
loop_
 _atom_site_type_symbol
 _atom_site_label
 _atom_site_symmetry_multiplicity
 _atom_site_fract_x
 _atom_site_fract_y
 _atom_site_fract_z
 _atom_site_occupancy
  La  La0  1  0.13507386  0.57093385  0.34104486  1
  La  La1  1  0.22479008  0.90335928  0.74875748  1
  La  La2  1  0.27811304  0.12037016  0.25675156  1
  La  La3  1  0.34426849  0.38621158  0.76159218  1
  La  La4  1  0.66448827  0.61493329  0.27814065  1
  La  La5  1  0.72184003  0.87475151  0.75051735  1
  La  La6  1  0.77633837  0.09312052  0.26945528  1
  La  La7  1  0.85975992  0.43254108  0.82623429  1
  Nb  Nb8  1  0.06451002  0.31534224  0.25399187  1
  Nb  Nb9  1  0.01526778  0.10117986  0.74911326  1
  Nb  Nb10  1  0.40002560  0.67351064  0.78523724  1
  Nb  Nb11  1  0.48828835  0.88285348  0.25839938  1
  Nb  Nb12  1  0.53460029  0.11813033  0.76883751  1
  Nb  Nb13  1  0.58845695  0.32449728  0.28045536  1
  Nb  Nb14  1  0.96695748  0.87927948  0.24621180  1
  Nb  Nb15  1  0.92598446  0.67310891  0.79086084  1
  N  N16  1  0.18019618  0.69785581  0.69117359  1
  N  N17  1  0.72439128  0.91312492  0.18261705  1
  N  N18  1  0.96252514  0.98867859  0.54719034  1
  N  N19  1  0.87121182  0.57042940  0.56011023  1
  N  N20  1  0.77259264  0.11233836  0.82182078  1
  N  N21  1  0.82588929  0.30462701  0.19880315  1
  N  N22  1  0.97599181  0.82395841  0.94087342  1
  N  N23  1  0.91272078  0.58666386  0.05093231  1
  O  O24  1  0.09107003  0.40604470  0.53976219  1
  O  O25  1  0.02922977  0.18742518  0.45482152  1
  O  O26  1  0.22507273  0.89757199  0.31972499  1
  O  O27  1  0.13475586  0.42835603  0.05187647  1
  O  O28  1  0.04613184  0.02513317  0.04563090  1
  O  O29  1  0.12327771  0.22793665  0.98320816  1
  O  O30  1  0.37709892  0.61269180  0.07928718  1
  O  O31  1  0.43360777  0.82220056  0.94245501  1
  O  O32  1  0.27629494  0.09020335  0.67874204  1
  O  O33  1  0.33352037  0.30271590  0.35812436  1
  O  O34  1  0.40913752  0.55814949  0.58422567  1
  O  O35  1  0.53016332  0.98189801  0.53433872  1
  O  O36  1  0.50153974  0.77312799  0.45892910  1
  O  O37  1  0.49756712  0.22859405  0.96631989  1
  O  O38  1  0.46265022  0.02244913  0.03195898  1
  O  O39  1  0.58592420  0.43533324  0.07789964  1
  O  O40  1  0.67106453  0.69947495  0.84957930  1
  O  O41  1  0.56376449  0.17814017  0.44218851  1
  O  O42  1  0.61769705  0.38560178  0.57773472  1
  O  O43  1  0.87614995  0.77515098  0.44905185  1
