# generated using pymatgen
data_LiFe2OF3
_symmetry_space_group_name_H-M   'P 1'
_cell_length_a   5.01973041
_cell_length_b   10.77414429
_cell_length_c   6.16410173
_cell_angle_alpha   90.00931836
_cell_angle_beta   90.00311305
_cell_angle_gamma   89.99534215
_symmetry_Int_Tables_number   1
_chemical_formula_structural   LiFe2OF3
_chemical_formula_sum   'Li4 Fe8 O4 F12'
_cell_volume   333.37495547
_cell_formula_units_Z   4
loop_
 _symmetry_equiv_pos_site_id
 _symmetry_equiv_pos_as_xyz
  1  'x, y, z'
loop_
 _atom_site_type_symbol
 _atom_site_label
 _atom_site_symmetry_multiplicity
 _atom_site_fract_x
 _atom_site_fract_y
 _atom_site_fract_z
 _atom_site_occupancy
  Li  Li0  1  0.05308881  0.59229408  0.24987017  1
  Li  Li1  1  0.44691529  0.09240086  0.25002949  1
  Li  Li2  1  0.55306186  0.90779719  0.74996920  1
  Li  Li3  1  0.94688343  0.40755150  0.75013458  1
  Fe  Fe4  1  0.99997573  0.99999440  0.00000780  1
  Fe  Fe5  1  -0.00000729  0.99996676  0.49999031  1
  Fe  Fe6  1  0.95559889  0.71133672  0.74996250  1
  Fe  Fe7  1  0.54433559  0.21140403  0.74999310  1
  Fe  Fe8  1  0.49999998  0.49998013  0.50001354  1
  Fe  Fe9  1  0.49999440  0.49996693  -0.00000287  1
  Fe  Fe10  1  0.45569861  0.78864806  0.24999208  1
  Fe  Fe11  1  0.04438697  0.28860030  0.25004253  1
  O  O12  1  0.26879170  0.44041335  0.24996297  1
  O  O13  1  0.23133536  0.94048900  0.24998156  1
  O  O14  1  0.76878629  0.05960000  0.75001061  1
  O  O15  1  0.73128054  0.55949517  0.75004427  1
  F  F16  1  0.23225181  0.66842690  0.01033870  1
  F  F17  1  0.23225044  0.66843784  0.48955550  1
  F  F18  1  0.18769006  0.88165060  0.74996106  1
  F  F19  1  0.31229733  0.38163151  0.74997630  1
  F  F20  1  0.26772538  0.16842088  0.01036616  1
  F  F21  1  0.26763422  0.16846505  0.48969229  1
  F  F22  1  0.73237274  0.83155653  0.51041403  1
  F  F23  1  0.73228634  0.83160965  0.98953021  1
  F  F24  1  0.68765910  0.61838717  0.25001529  1
  F  F25  1  0.81231552  0.11837555  0.25005008  1
  F  F26  1  0.76769341  0.33154704  0.51038073  1
  F  F27  1  0.76769750  0.33155280  0.98971782  1
