# generated using pymatgen
data_Mn3(OF2)2
_symmetry_space_group_name_H-M   'P 1'
_cell_length_a   7.83902753
_cell_length_b   5.78276811
_cell_length_c   5.78276811
_cell_angle_alpha   68.10776959
_cell_angle_beta   69.85371532
_cell_angle_gamma   69.85371532
_symmetry_Int_Tables_number   1
_chemical_formula_structural   Mn3(OF2)2
_chemical_formula_sum   'Mn6 O4 F8'
_cell_volume   221.22322355
_cell_formula_units_Z   2
loop_
 _symmetry_equiv_pos_site_id
 _symmetry_equiv_pos_as_xyz
  1  'x, y, z'
loop_
 _atom_site_type_symbol
 _atom_site_label
 _atom_site_symmetry_multiplicity
 _atom_site_fract_x
 _atom_site_fract_y
 _atom_site_fract_z
 _atom_site_occupancy
  Mn  Mn0  1  0.84233948  0.64464733  0.66893609  1
  Mn  Mn1  1  0.67090087  0.34942501  0.31035893  1
  Mn  Mn2  1  0.32909913  0.68964107  0.65057499  1
  Mn  Mn3  1  0.15766152  0.33106391  0.35535267  1
  Mn  Mn4  1  0.50000000  0.98419485  0.01580515  1
  Mn  Mn5  1  0.00000000  0.98823200  0.01176800  1
  O  O6  1  0.32400728  0.98626147  0.36646540  1
  O  O7  1  0.67599272  0.63353460  0.01373853  1
  O  O8  1  0.00000000  0.29188247  0.70811753  1
  O  O9  1  0.00000000  0.68453078  0.31546922  1
  F  F10  1  0.67342211  0.03302920  0.62131943  1
  F  F11  1  0.32657789  0.37868057  0.96697080  1
  F  F12  1  0.29885113  0.89797740  0.89759940  1
  F  F13  1  0.62195165  0.56841256  0.55996556  1
  F  F14  1  0.95997004  0.22716563  0.23111289  1
  F  F15  1  0.70114887  0.10240060  0.10202260  1
  F  F16  1  0.04002996  0.76888711  0.77283437  1
  F  F17  1  0.37804835  0.44003444  0.43158744  1
