# generated using pymatgen
data_LiMnF3
_symmetry_space_group_name_H-M   'P 1'
_cell_length_a   10.06838688
_cell_length_b   9.33973070
_cell_length_c   5.89076147
_cell_angle_alpha   90.00000000
_cell_angle_beta   90.00000000
_cell_angle_gamma   90.00000000
_symmetry_Int_Tables_number   1
_chemical_formula_structural   LiMnF3
_chemical_formula_sum   'Li8 Mn8 F24'
_cell_volume   553.94377544
_cell_formula_units_Z   8
loop_
 _symmetry_equiv_pos_site_id
 _symmetry_equiv_pos_as_xyz
  1  'x, y, z'
loop_
 _atom_site_type_symbol
 _atom_site_label
 _atom_site_symmetry_multiplicity
 _atom_site_fract_x
 _atom_site_fract_y
 _atom_site_fract_z
 _atom_site_occupancy
  Li  Li0  1  0.20334702  0.42031785  0.54884610  1
  Li  Li1  1  0.20334702  0.57968215  0.04884610  1
  Li  Li2  1  0.29665298  0.07968215  0.04884610  1
  Li  Li3  1  0.29665298  0.92031785  0.54884610  1
  Li  Li4  1  0.70334702  0.07968215  0.45115390  1
  Li  Li5  1  0.70334702  0.92031785  0.95115390  1
  Li  Li6  1  0.79665298  0.42031785  0.95115390  1
  Li  Li7  1  0.79665298  0.57968215  0.45115390  1
  Mn  Mn8  1  0.00000000  0.28225424  0.25000000  1
  Mn  Mn9  1  0.00000000  0.09372029  0.75000000  1
  Mn  Mn10  1  0.00000000  0.90627971  0.25000000  1
  Mn  Mn11  1  0.00000000  0.71774576  0.75000000  1
  Mn  Mn12  1  0.50000000  0.59372029  0.75000000  1
  Mn  Mn13  1  0.50000000  0.78225424  0.25000000  1
  Mn  Mn14  1  0.50000000  0.21774576  0.75000000  1
  Mn  Mn15  1  0.50000000  0.40627971  0.25000000  1
  F  F16  1  0.10377764  0.08735660  0.08565491  1
  F  F17  1  0.10377764  0.91264340  0.58565491  1
  F  F18  1  0.09910728  0.25068696  0.56939327  1
  F  F19  1  0.09910728  0.74931304  0.06939327  1
  F  F20  1  0.15383464  0.43017469  0.23474119  1
  F  F21  1  0.15383464  0.56982531  0.73474119  1
  F  F22  1  0.34616536  0.93017469  0.23474119  1
  F  F23  1  0.34616536  0.06982531  0.73474119  1
  F  F24  1  0.40089272  0.24931304  0.06939327  1
  F  F25  1  0.40089272  0.75068696  0.56939327  1
  F  F26  1  0.39622236  0.58735660  0.08565491  1
  F  F27  1  0.39622236  0.41264340  0.58565491  1
  F  F28  1  0.60377764  0.41264340  0.91434509  1
  F  F29  1  0.60377764  0.58735660  0.41434509  1
  F  F30  1  0.59910728  0.24931304  0.43060673  1
  F  F31  1  0.59910728  0.75068696  0.93060673  1
  F  F32  1  0.65383464  0.93017469  0.26525881  1
  F  F33  1  0.65383464  0.06982531  0.76525881  1
  F  F34  1  0.84616536  0.43017469  0.26525881  1
  F  F35  1  0.84616536  0.56982531  0.76525881  1
  F  F36  1  0.90089272  0.25068696  0.93060673  1
  F  F37  1  0.90089272  0.74931304  0.43060673  1
  F  F38  1  0.89622236  0.08735660  0.41434509  1
  F  F39  1  0.89622236  0.91264340  0.91434509  1
