# generated using pymatgen
data_Li5Fe8(BO3)8
_symmetry_space_group_name_H-M   'P 1'
_cell_length_a   5.21850947
_cell_length_b   9.11761349
_cell_length_c   11.33062943
_cell_angle_alpha   67.64962414
_cell_angle_beta   77.44869737
_cell_angle_gamma   90.02449499
_symmetry_Int_Tables_number   1
_chemical_formula_structural   Li5Fe8(BO3)8
_chemical_formula_sum   'Li5 Fe8 B8 O24'
_cell_volume   484.63411699
_cell_formula_units_Z   1
loop_
 _symmetry_equiv_pos_site_id
 _symmetry_equiv_pos_as_xyz
  1  'x, y, z'
loop_
 _atom_site_type_symbol
 _atom_site_label
 _atom_site_symmetry_multiplicity
 _atom_site_fract_x
 _atom_site_fract_y
 _atom_site_fract_z
 _atom_site_occupancy
  Li  Li0  1  0.97130410  0.96626205  0.39716591  1
  Li  Li1  1  0.69960857  0.72234163  0.91590542  1
  Li  Li2  1  0.51289216  0.49224390  0.66061911  1
  Li  Li3  1  0.02118989  0.99667258  0.66085204  1
  Li  Li4  1  0.23719865  0.25074142  0.15878260  1
  Fe  Fe5  1  0.97900028  0.64015421  0.37541693  1
  Fe  Fe6  1  0.73331784  0.07722367  0.88117193  1
  Fe  Fe7  1  0.51498101  0.84313625  0.62943095  1
  Fe  Fe8  1  0.76027939  0.43463209  0.13614663  1
  Fe  Fe9  1  0.22729397  0.55310628  0.87862112  1
  Fe  Fe10  1  0.47089814  0.15501477  0.38870341  1
  Fe  Fe11  1  0.03619293  0.34872684  0.62884598  1
  Fe  Fe12  1  0.25189035  0.93054231  0.12702248  1
  B  B13  1  0.97236082  0.31531934  0.37549117  1
  B  B14  1  0.73284408  0.40032753  0.87598063  1
  B  B15  1  0.52077230  0.17955403  0.63764737  1
  B  B16  1  0.76411770  0.11224492  0.12739149  1
  B  B17  1  0.48539761  0.81401569  0.37695235  1
  B  B18  1  0.23698365  0.89535768  0.87586750  1
  B  B19  1  0.02816190  0.68936427  0.61855267  1
  B  B20  1  0.26686536  0.59294237  0.13245472  1
  O  O21  1  0.97649300  0.91323909  0.86340116  1
  O  O22  1  0.88769745  0.29156692  0.84086323  1
  O  O23  1  0.83231178  0.49967995  0.92887032  1
  O  O24  1  0.91692738  0.82908393  0.61112059  1
  O  O25  1  0.90949314  0.57978456  0.58215460  1
  O  O26  1  0.75892811  0.14703641  0.67979402  1
  O  O27  1  0.74424349  0.34508679  0.32775025  1
  O  O28  1  0.48683555  0.41195546  0.85454957  1
  O  O29  1  0.37719202  0.77988623  0.84474563  1
  O  O30  1  0.57979053  0.93046758  0.41282001  1
  O  O31  1  0.63187193  0.69265894  0.37129308  1
  O  O32  1  0.36194813  0.99157043  0.91985010  1
  O  O33  1  0.64978937  0.02223749  0.07404204  1
  O  O34  1  0.40547656  0.31369612  0.63318219  1
  O  O35  1  0.41111928  0.07077380  0.59799815  1
  O  O36  1  0.60865972  0.22479493  0.16084414  1
  O  O37  1  0.53705899  0.60217348  0.11193472  1
  O  O38  1  0.26135941  0.65586923  0.66162227  1
  O  O39  1  0.23232679  0.82345345  0.34821203  1
  O  O40  1  0.06101335  0.41844185  0.42390808  1
  O  O41  1  0.10213522  0.18478603  0.37138566  1
  O  O42  1  0.14427112  0.47986529  0.09988717  1
  O  O43  1  0.11991361  0.69283181  0.17906291  1
  O  O44  1  0.01255935  0.09579840  0.14764669  1
