# generated using pymatgen
data_Li3MnV(PO4)3
_symmetry_space_group_name_H-M   'P 1'
_cell_length_a   9.01854520
_cell_length_b   8.48381447
_cell_length_c   8.48381413
_cell_angle_alpha   119.99999790
_cell_angle_beta   89.99999806
_cell_angle_gamma   61.94273196
_symmetry_Int_Tables_number   1
_chemical_formula_structural   Li3MnV(PO4)3
_chemical_formula_sum   'Li6 Mn2 V2 P6 O24'
_cell_volume   472.00986747
_cell_formula_units_Z   2
loop_
 _symmetry_equiv_pos_site_id
 _symmetry_equiv_pos_as_xyz
  1  'x, y, z'
loop_
 _atom_site_type_symbol
 _atom_site_label
 _atom_site_symmetry_multiplicity
 _atom_site_fract_x
 _atom_site_fract_y
 _atom_site_fract_z
 _atom_site_occupancy
  Li  Li0  1  0.14921830  0.18709789  0.92102123  1
  Li  Li1  1  0.14921830  0.58470404  0.66368380  1
  Li  Li2  1  0.14921830  0.92976046  0.26607766  1
  Li  Li3  1  0.85001714  0.07249976  0.73695862  1
  Li  Li4  1  0.85001714  0.41302523  0.33554113  1
  Li  Li5  1  0.85001714  0.81444172  0.07748410  1
  Mn  Mn6  1  0.04279940  0.30480073  0.65239987  1
  Mn  Mn7  1  0.56245281  0.29169812  0.14584906  1
  V  V8  1  0.43951651  0.70698833  0.85349416  1
  V  V9  1  0.95319353  0.69787098  0.34893549  1
  P  P10  1  0.25046005  0.20958310  0.25048990  1
  P  P11  1  0.25046005  0.49905006  0.95909220  1
  P  P12  1  0.25046005  0.79044775  0.53995686  1
  P  P13  1  0.75016569  0.20835733  0.45917821  1
  P  P14  1  0.75016569  0.50065419  0.04147599  1
  P  P15  1  0.75016569  0.79065611  0.74918012  1
  O  O16  1  0.09718230  0.36523061  0.20881940  1
  O  O17  1  0.19453714  0.29754905  0.46324040  1
  O  O18  1  0.19453714  0.34222245  0.83430865  1
  O  O19  1  0.09718230  0.69399730  0.15641121  1
  O  O20  1  0.09718230  0.74640549  0.53758610  1
  O  O21  1  0.42169930  0.18881263  0.19807902  1
  O  O22  1  0.26806375  0.61268014  0.86716153  1
  O  O23  1  0.42169930  0.38022267  0.99073460  1
  O  O24  1  0.19453714  0.97115421  0.50791380  1
  O  O25  1  0.26806375  0.86477472  0.74551862  1
  O  O26  1  0.42169930  0.58756710  0.38948807  1
  O  O27  1  0.26806375  0.98641664  0.11925511  1
  O  O28  1  0.73320451  0.01058895  0.87047628  1
  O  O29  1  0.57943106  0.41790829  0.61579411  1
  O  O30  1  0.73320451  0.12668282  0.25620654  1
  O  O31  1  0.80463540  0.02910345  0.49554890  1
  O  O32  1  0.57943106  0.61845476  0.00266165  1
  O  O33  1  0.73320451  0.39631821  0.14011267  1
  O  O34  1  0.57943106  0.80477583  0.80211418  1
  O  O35  1  0.90206294  0.24987644  0.45708370  1
  O  O36  1  0.90206294  0.30514432  0.84806062  1
  O  O37  1  0.80463540  0.66180905  0.16626114  1
  O  O38  1  0.80463540  0.69981569  0.53355455  1
  O  O39  1  0.90206294  0.64085337  0.79279274  1
