# generated using pymatgen
data_Fe3OF5
_symmetry_space_group_name_H-M   'P 1'
_cell_length_a   7.50100433
_cell_length_b   5.78408685
_cell_length_c   5.78408685
_cell_angle_alpha   72.17314813
_cell_angle_beta   72.93901043
_cell_angle_gamma   72.93901043
_symmetry_Int_Tables_number   1
_chemical_formula_structural   Fe3OF5
_chemical_formula_sum   'Fe6 O2 F10'
_cell_volume   222.60169493
_cell_formula_units_Z   2
loop_
 _symmetry_equiv_pos_site_id
 _symmetry_equiv_pos_as_xyz
  1  'x, y, z'
loop_
 _atom_site_type_symbol
 _atom_site_label
 _atom_site_symmetry_multiplicity
 _atom_site_fract_x
 _atom_site_fract_y
 _atom_site_fract_z
 _atom_site_occupancy
  Fe  Fe0  1  0.83333300  0.66666700  0.66666700  1
  Fe  Fe1  1  0.68245198  0.31237683  0.31237683  1
  Fe  Fe2  1  0.33333300  0.66666700  0.66666700  1
  Fe  Fe3  1  0.16080467  0.33042432  0.33042432  1
  Fe  Fe4  1  0.50586233  0.00290868  0.00290868  1
  Fe  Fe5  1  0.98421502  0.02095617  0.02095617  1
  O  O6  1  0.95730602  0.23307347  0.23307347  1
  O  O7  1  0.70936098  0.10026053  0.10026053  1
  F  F8  1  0.65710375  0.03003813  0.63108441  1
  F  F9  1  0.33333300  0.36818495  0.96514905  1
  F  F10  1  0.27978268  0.90949577  0.90949577  1
  F  F11  1  0.64401514  0.55005190  0.55005190  1
  F  F12  1  0.02265186  0.78328110  0.78328110  1
  F  F13  1  0.38688432  0.42383823  0.42383823  1
  F  F14  1  0.33333300  0.96514905  0.36818495  1
  F  F15  1  0.65710375  0.63108441  0.03003813  1
  F  F16  1  0.00956225  0.30329587  0.70224859  1
  F  F17  1  0.00956225  0.70224859  0.30329587  1
