# generated using pymatgen
data_V6O7F5
_symmetry_space_group_name_H-M   'P 1'
_cell_length_a   4.75405277
_cell_length_b   4.75405277
_cell_length_c   9.14497528
_cell_angle_alpha   90.00000000
_cell_angle_beta   90.00000000
_cell_angle_gamma   94.28702500
_symmetry_Int_Tables_number   1
_chemical_formula_structural   V6O7F5
_chemical_formula_sum   'V6 O7 F5'
_cell_volume   206.10745986
_cell_formula_units_Z   1
loop_
 _symmetry_equiv_pos_site_id
 _symmetry_equiv_pos_as_xyz
  1  'x, y, z'
loop_
 _atom_site_type_symbol
 _atom_site_label
 _atom_site_symmetry_multiplicity
 _atom_site_fract_x
 _atom_site_fract_y
 _atom_site_fract_z
 _atom_site_occupancy
  V  V0  1  0.01025567  0.98974433  0.00740356  1
  V  V1  1  0.01025567  0.98974433  0.32592944  1
  V  V2  1  0.00059762  0.99940238  0.66666700  1
  V  V3  1  0.46898890  0.53101110  0.16666700  1
  V  V4  1  0.50318880  0.49681120  0.83446054  1
  V  V5  1  0.50318880  0.49681120  0.49887246  1
  O  O6  1  0.19831821  0.80168179  0.16666700  1
  O  O7  1  0.29967707  0.30601983  0.00578389  1
  O  O8  1  0.29967707  0.30601983  0.32754911  1
  O  O9  1  0.30233032  0.29724796  0.66666700  1
  O  O10  1  0.69398017  0.70032293  0.00578389  1
  O  O11  1  0.69398017  0.70032293  0.32754911  1
  O  O12  1  0.70275204  0.69766968  0.66666700  1
  F  F13  1  0.19901483  0.80098517  0.50006513  1
  F  F14  1  0.19901483  0.80098517  0.83326787  1
  F  F15  1  0.80175872  0.19824128  0.16666700  1
  F  F16  1  0.80651106  0.19348894  0.83597954  1
  F  F17  1  0.80651106  0.19348894  0.49735446  1
