# generated using pymatgen
data_Li3Fe(Si2O5)3
_symmetry_space_group_name_H-M   'P 1'
_cell_length_a   10.12554835
_cell_length_b   10.12553757
_cell_length_c   14.25717448
_cell_angle_alpha   90.00002954
_cell_angle_beta   90.00006243
_cell_angle_gamma   59.99987117
_symmetry_Int_Tables_number   1
_chemical_formula_structural   Li3Fe(Si2O5)3
_chemical_formula_sum   'Li12 Fe4 Si24 O60'
_cell_volume   1265.90225478
_cell_formula_units_Z   4
loop_
 _symmetry_equiv_pos_site_id
 _symmetry_equiv_pos_as_xyz
  1  'x, y, z'
loop_
 _atom_site_type_symbol
 _atom_site_label
 _atom_site_symmetry_multiplicity
 _atom_site_fract_x
 _atom_site_fract_y
 _atom_site_fract_z
 _atom_site_occupancy
  Li  Li0  1  0.99999408  0.50000375  0.24999990  1
  Li  Li1  1  0.99999408  0.50000350  0.75000008  1
  Li  Li2  1  0.33330331  0.33339845  0.00000004  1
  Li  Li3  1  0.66660277  0.66669899  -0.00000003  1
  Li  Li4  1  0.99999485  0.00000387  0.24999981  1
  Li  Li5  1  0.99999509  0.00000221  0.75000011  1
  Li  Li6  1  0.33330073  0.33329951  0.50000014  1
  Li  Li7  1  0.50000223  0.49999840  0.24999938  1
  Li  Li8  1  0.49999794  0.49999546  0.75000054  1
  Li  Li9  1  0.66670589  0.66669865  0.50000007  1
  Li  Li10  1  0.49999846  0.00000633  0.24999975  1
  Li  Li11  1  0.50000284  0.99999939  0.74999972  1
  Fe  Fe12  1  0.33333354  0.33333202  0.24999984  1
  Fe  Fe13  1  0.66665960  0.66666551  0.25000012  1
  Fe  Fe14  1  0.66666475  0.66666840  0.75000108  1
  Fe  Fe15  1  0.33333169  0.33332947  0.74999968  1
  Si  Si16  1  0.11991379  0.64358687  0.61226682  1
  Si  Si17  1  0.11991158  0.64359276  0.38773484  1
  Si  Si18  1  0.35640563  0.88009058  0.11226695  1
  Si  Si19  1  0.35640669  0.88008771  0.88773251  1
  Si  Si20  1  0.23649012  0.64359413  0.11226670  1
  Si  Si21  1  0.23649267  0.64359127  0.88773314  1
  Si  Si22  1  0.35640881  0.76350435  0.38773386  1
  Si  Si23  1  0.35640741  0.76350292  0.61226591  1
  Si  Si24  1  0.11991022  0.23649826  0.88773462  1
  Si  Si25  1  0.11991130  0.23650144  0.11226619  1
  Si  Si26  1  0.76350280  0.88008779  0.38773221  1
  Si  Si27  1  0.76350485  0.88008633  0.61226650  1
  Si  Si28  1  0.23649201  0.11991379  0.61226757  1
  Si  Si29  1  0.23649294  0.11991585  0.38773351  1
  Si  Si30  1  0.88008423  0.76350693  0.88773327  1
  Si  Si31  1  0.88008232  0.76350648  0.11226570  1
  Si  Si32  1  0.64359041  0.23649764  0.38773459  1
  Si  Si33  1  0.64358818  0.23649683  0.61226614  1
  Si  Si34  1  0.76350469  0.35640858  0.11226511  1
  Si  Si35  1  0.76350268  0.35640904  0.88773357  1
  Si  Si36  1  0.64358917  0.11991574  0.11226572  1
  Si  Si37  1  0.64359064  0.11991405  0.88773408  1
  Si  Si38  1  0.88008364  0.35641167  0.38773407  1
  Si  Si39  1  0.88008236  0.35641115  0.61226611  1
  O  O40  1  0.05409167  0.72493727  0.13626270  1
  O  O41  1  0.05409348  0.72493472  0.86373529  1
  O  O42  1  0.27506646  0.94590711  0.36373729  1
  O  O43  1  0.27506059  0.94590575  0.63626145  1
  O  O44  1  0.22096666  0.72493561  0.63626294  1
  O  O45  1  0.22096543  0.72493924  0.36373666  1
  O  O46  1  0.27505771  0.77903726  0.13626091  1
  O  O47  1  0.27506249  0.77903051  0.86373835  1
  O  O48  1  0.14349062  0.59504643  0.49999881  1
  O  O49  1  0.40495886  0.85649759  -0.00000045  1
  O  O50  1  0.26145646  0.59504252  0.00000082  1
  O  O51  1  0.40495001  0.73854387  0.50000073  1
  O  O52  1  0.16349351  0.49179420  0.33000005  1
  O  O53  1  0.16349527  0.49178887  0.66999956  1
  O  O54  1  0.50820576  0.83650425  0.83000109  1
  O  O55  1  0.50820479  0.83650588  0.16999854  1
  O  O56  1  0.16349497  0.34471637  0.16999962  1
  O  O57  1  0.16349323  0.34471156  0.83000057  1
  O  O58  1  0.65528501  0.83650582  0.33000339  1
  O  O59  1  0.65528523  0.83650406  0.66999499  1
  O  O60  1  0.05409673  0.22096932  0.36373677  1
  O  O61  1  0.05409259  0.22097050  0.63626322  1
  O  O62  1  0.77902619  0.94590764  0.13626380  1
  O  O63  1  0.77903113  0.94590498  0.86373604  1
  O  O64  1  0.34470734  0.49179552  0.16999990  1
  O  O65  1  0.34470701  0.49178947  0.83000496  1
  O  O66  1  0.50820213  0.65529231  0.32999547  1
  O  O67  1  0.50820220  0.65529089  0.67000351  1
  O  O68  1  0.14348816  0.26146312  -0.00000002  1
  O  O69  1  0.73854200  0.85649716  0.50000117  1
  O  O70  1  0.26145617  0.14350178  0.49999953  1
  O  O71  1  0.85650887  0.73854233  0.00000027  1
  O  O72  1  0.49179081  0.34470821  0.67000049  1
  O  O73  1  0.49179214  0.34471432  0.32999897  1
  O  O74  1  0.65528515  0.50821023  0.16999658  1
  O  O75  1  0.65528357  0.50821112  0.83000068  1
  O  O76  1  0.22096812  0.05409729  0.13626311  1
  O  O77  1  0.22096664  0.05409406  0.86373803  1
  O  O78  1  0.94590433  0.77903275  0.36373631  1
  O  O79  1  0.94590237  0.77903119  0.63626328  1
  O  O80  1  0.34470971  0.16349391  0.66999783  1
  O  O81  1  0.34470735  0.16350284  0.33000467  1
  O  O82  1  0.83649648  0.65529404  0.17000000  1
  O  O83  1  0.83649846  0.65529508  0.82999839  1
  O  O84  1  0.49179078  0.16350096  0.17000140  1
  O  O85  1  0.49179466  0.16349254  0.82999961  1
  O  O86  1  0.83649764  0.50821041  0.33000198  1
  O  O87  1  0.83649796  0.50821045  0.66999761  1
  O  O88  1  0.59504829  0.26145821  0.49999859  1
  O  O89  1  0.73853827  0.40495215  0.00000138  1
  O  O90  1  0.59504986  0.14349324  -0.00000002  1
  O  O91  1  0.85651029  0.40495550  0.50000024  1
  O  O92  1  0.72493825  0.22096939  0.13626322  1
  O  O93  1  0.72493324  0.22097070  0.86373551  1
  O  O94  1  0.77903114  0.27506368  0.36373671  1
  O  O95  1  0.77902766  0.27506589  0.63626293  1
  O  O96  1  0.72493235  0.05409639  0.36373752  1
  O  O97  1  0.72493448  0.05409494  0.63626184  1
  O  O98  1  0.94590115  0.27506860  0.13626471  1
  O  O99  1  0.94590113  0.27506595  0.86373560  1
