# generated using pymatgen
data_Mn2OF3
_symmetry_space_group_name_H-M   'P 1'
_cell_length_a   9.47971093
_cell_length_b   5.80770532
_cell_length_c   5.80770532
_cell_angle_alpha   72.11314292
_cell_angle_beta   86.32839542
_cell_angle_gamma   86.32839542
_symmetry_Int_Tables_number   1
_chemical_formula_structural   Mn2OF3
_chemical_formula_sum   'Mn8 O4 F12'
_cell_volume   303.33428214
_cell_formula_units_Z   4
loop_
 _symmetry_equiv_pos_site_id
 _symmetry_equiv_pos_as_xyz
  1  'x, y, z'
loop_
 _atom_site_type_symbol
 _atom_site_label
 _atom_site_symmetry_multiplicity
 _atom_site_fract_x
 _atom_site_fract_y
 _atom_site_fract_z
 _atom_site_occupancy
  Mn  Mn0  1  0.88483318  0.64619003  0.64619003  1
  Mn  Mn1  1  0.60824467  0.88585570  0.88585570  1
  Mn  Mn2  1  0.76293211  0.25449684  0.25449684  1
  Mn  Mn3  1  0.50000000  0.50000000  0.50000000  1
  Mn  Mn4  1  0.23706789  0.74550216  0.74550216  1
  Mn  Mn5  1  0.39175533  0.11414430  0.11414430  1
  Mn  Mn6  1  0.11516682  0.35380997  0.35380997  1
  Mn  Mn7  1  0.00000000  0.00000000  0.00000000  1
  O  O8  1  0.50000000  0.18806476  0.81193524  1
  O  O9  1  0.97243239  0.20570858  0.20570858  1
  O  O10  1  0.02756761  0.79429142  0.79429142  1
  O  O11  1  0.50000000  0.81193524  0.18806476  1
  F  F12  1  0.73260543  0.57549742  0.95286151  1
  F  F13  1  0.73260543  0.95286151  0.57549742  1
  F  F14  1  0.45807938  0.72167789  0.72167789  1
  F  F15  1  0.73444556  0.48305866  0.48305866  1
  F  F16  1  0.21864147  0.97667325  0.97667325  1
  F  F17  1  0.78135853  0.02332675  0.02332675  1
  F  F18  1  0.26555444  0.51694134  0.51694134  1
  F  F19  1  0.54192062  0.27832211  0.27832211  1
  F  F20  1  0.00000000  0.30624039  0.69375961  1
  F  F21  1  0.26739457  0.04713849  0.42450258  1
  F  F22  1  0.00000000  0.69375961  0.30624039  1
  F  F23  1  0.26739457  0.42450258  0.04713849  1
