# generated using pymatgen
data_Na7(FeO4)2
_symmetry_space_group_name_H-M   'P 1'
_cell_length_a   5.88404148
_cell_length_b   9.14751600
_cell_length_c   18.07970965
_cell_angle_alpha   90.23895112
_cell_angle_beta   90.88225438
_cell_angle_gamma   89.46241847
_symmetry_Int_Tables_number   1
_chemical_formula_structural   Na7(FeO4)2
_chemical_formula_sum   'Na28 Fe8 O32'
_cell_volume   972.96278451
_cell_formula_units_Z   4
loop_
 _symmetry_equiv_pos_site_id
 _symmetry_equiv_pos_as_xyz
  1  'x, y, z'
loop_
 _atom_site_type_symbol
 _atom_site_label
 _atom_site_symmetry_multiplicity
 _atom_site_fract_x
 _atom_site_fract_y
 _atom_site_fract_z
 _atom_site_occupancy
  Na  Na0  1  0.09336867  0.16375875  0.88948240  1
  Na  Na1  1  0.12119199  0.99592564  0.72018766  1
  Na  Na2  1  0.09264667  0.33395269  0.38946358  1
  Na  Na3  1  0.22222423  0.80474995  0.86414738  1
  Na  Na4  1  0.12180250  0.50345820  0.21961253  1
  Na  Na5  1  0.16678477  0.10189240  0.54048953  1
  Na  Na6  1  0.22024834  0.69353909  0.36459371  1
  Na  Na7  1  0.16978982  0.39755406  0.04052570  1
  Na  Na8  1  0.26781907  0.44595181  0.54176380  1
  Na  Na9  1  0.43152396  0.46315229  0.86203649  1
  Na  Na10  1  0.38761679  0.66335722  0.68679225  1
  Na  Na11  1  0.26819443  0.05365327  0.04152953  1
  Na  Na12  1  0.43561275  0.03632082  0.36268724  1
  Na  Na13  1  0.39556287  0.84008912  0.18529523  1
  Na  Na14  1  0.60443713  0.15991088  0.81470477  1
  Na  Na15  1  0.56438725  0.96367918  0.63731276  1
  Na  Na16  1  0.73180557  0.94634673  0.95847047  1
  Na  Na17  1  0.61238321  0.33664278  0.31320775  1
  Na  Na18  1  0.56847604  0.53684771  0.13796351  1
  Na  Na19  1  0.73218093  0.55404819  0.45823620  1
  Na  Na20  1  0.83021018  0.60244594  0.95947430  1
  Na  Na21  1  0.77975166  0.30646091  0.63540629  1
  Na  Na22  1  0.83321523  0.89810760  0.45951047  1
  Na  Na23  1  0.87819750  0.49654180  0.78038747  1
  Na  Na24  1  0.77777577  0.19525005  0.13585262  1
  Na  Na25  1  0.90735333  0.66604731  0.61053642  1
  Na  Na26  1  0.87880801  0.00407436  0.27981234  1
  Na  Na27  1  0.90663133  0.83624125  0.11051760  1
  Fe  Fe28  1  0.28525031  0.33073924  0.70294040  1
  Fe  Fe29  1  0.29371864  0.78153923  0.52244191  1
  Fe  Fe30  1  0.28189814  0.17212867  0.20276787  1
  Fe  Fe31  1  0.29343801  0.71745518  0.02273556  1
  Fe  Fe32  1  0.70656199  0.28254482  0.97726444  1
  Fe  Fe33  1  0.71810186  0.82787133  0.79723213  1
  Fe  Fe34  1  0.70628136  0.21846077  0.47755809  1
  Fe  Fe35  1  0.71474969  0.66926076  0.29705960  1
  O  O36  1  0.09212922  0.85255020  0.98972106  1
  O  O37  1  0.11173006  0.47741660  0.66740117  1
  O  O38  1  0.12350334  0.24634661  0.77224512  1
  O  O39  1  0.09263967  0.64812310  0.48932482  1
  O  O40  1  0.20730861  0.86553166  0.60630056  1
  O  O41  1  0.10631071  0.02943999  0.16644639  1
  O  O42  1  0.10253960  0.24867045  0.26976368  1
  O  O43  1  0.23823759  0.58281812  0.95290725  1
  O  O44  1  0.21109660  0.63573045  0.10769733  1
  O  O45  1  0.24194681  0.91492807  0.45190634  1
  O  O46  1  0.36598351  0.18432007  0.64462045  1
  O  O47  1  0.37683054  0.31055503  0.14433168  1
  O  O48  1  0.45737195  0.18341135  0.94600260  1
  O  O49  1  0.45563464  0.90820087  0.76770156  1
  O  O50  1  0.54672329  0.41720428  0.72962987  1
  O  O51  1  0.54312140  0.68320276  0.55495502  1
  O  O52  1  0.45687860  0.31679724  0.44504498  1
  O  O53  1  0.45327671  0.58279572  0.27037013  1
  O  O54  1  0.54436536  0.09179913  0.23229844  1
  O  O55  1  0.54262805  0.81658865  0.05399740  1
  O  O56  1  0.62316946  0.68944497  0.85566832  1
  O  O57  1  0.63401649  0.81567993  0.35537955  1
  O  O58  1  0.75805319  0.08507193  0.54809366  1
  O  O59  1  0.78890340  0.36426955  0.89230267  1
  O  O60  1  0.76176241  0.41718188  0.04709275  1
  O  O61  1  0.89746040  0.75132955  0.73023632  1
  O  O62  1  0.89368929  0.97056001  0.83355361  1
  O  O63  1  0.79269139  0.13446834  0.39369944  1
  O  O64  1  0.90736033  0.35187690  0.51067518  1
  O  O65  1  0.87649666  0.75365339  0.22775488  1
  O  O66  1  0.88826994  0.52258340  0.33259883  1
  O  O67  1  0.90787078  0.14744980  0.01027894  1
