# generated using pymatgen
data_Ba3(BrO)2
_symmetry_space_group_name_H-M   'P 1'
_cell_length_a   19.73879570
_cell_length_b   6.36713663
_cell_length_c   7.58459844
_cell_angle_alpha   90.00000000
_cell_angle_beta   90.00000000
_cell_angle_gamma   90.00000000
_symmetry_Int_Tables_number   1
_chemical_formula_structural   Ba3(BrO)2
_chemical_formula_sum   'Ba12 Br8 O8'
_cell_volume   953.22936737
_cell_formula_units_Z   4
loop_
 _symmetry_equiv_pos_site_id
 _symmetry_equiv_pos_as_xyz
  1  'x, y, z'
loop_
 _atom_site_type_symbol
 _atom_site_label
 _atom_site_symmetry_multiplicity
 _atom_site_fract_x
 _atom_site_fract_y
 _atom_site_fract_z
 _atom_site_occupancy
  Ba  Ba0  1  0.02198486  0.25000000  0.15280614  1
  Ba  Ba1  1  0.10864033  0.25000000  0.69411058  1
  Ba  Ba2  1  0.15855185  0.75000000  0.04899289  1
  Ba  Ba3  1  0.34144815  0.25000000  0.54899289  1
  Ba  Ba4  1  0.39135967  0.75000000  0.19411058  1
  Ba  Ba5  1  0.47801514  0.75000000  0.65280614  1
  Ba  Ba6  1  0.52198486  0.25000000  0.34719386  1
  Ba  Ba7  1  0.60864033  0.25000000  0.80588942  1
  Ba  Ba8  1  0.65855185  0.75000000  0.45100711  1
  Ba  Ba9  1  0.84144815  0.25000000  0.95100711  1
  Ba  Ba10  1  0.89135967  0.75000000  0.30588942  1
  Ba  Ba11  1  0.97801514  0.75000000  0.84719386  1
  Br  Br12  1  0.05925891  0.75000000  0.41839796  1
  Br  Br13  1  0.22697150  0.25000000  0.22612996  1
  Br  Br14  1  0.27302850  0.75000000  0.72612996  1
  Br  Br15  1  0.44074109  0.25000000  0.91839796  1
  Br  Br16  1  0.55925891  0.75000000  0.08160204  1
  Br  Br17  1  0.72697150  0.25000000  0.27387004  1
  Br  Br18  1  0.77302850  0.75000000  0.77387004  1
  Br  Br19  1  0.94074109  0.25000000  0.58160204  1
  O  O20  1  0.07934650  0.49965171  0.91977108  1
  O  O21  1  0.07934650  0.00034829  0.91977108  1
  O  O22  1  0.42065350  -0.00034829  0.41977108  1
  O  O23  1  0.42065350  0.50034829  0.41977108  1
  O  O24  1  0.57934650  0.49965171  0.58022892  1
  O  O25  1  0.57934650  0.00034829  0.58022892  1
  O  O26  1  0.92065350  -0.00034829  0.08022892  1
  O  O27  1  0.92065350  0.50034829  0.08022892  1
