# generated using pymatgen
data_Ba3(ClO)2
_symmetry_space_group_name_H-M   'P 1'
_cell_length_a   12.36027335
_cell_length_b   10.60025656
_cell_length_c   14.37400589
_cell_angle_alpha   90.00000000
_cell_angle_beta   67.88534502
_cell_angle_gamma   90.00000000
_symmetry_Int_Tables_number   1
_chemical_formula_structural   Ba3(ClO)2
_chemical_formula_sum   'Ba24 Cl16 O16'
_cell_volume   1744.76118868
_cell_formula_units_Z   8
loop_
 _symmetry_equiv_pos_site_id
 _symmetry_equiv_pos_as_xyz
  1  'x, y, z'
loop_
 _atom_site_type_symbol
 _atom_site_label
 _atom_site_symmetry_multiplicity
 _atom_site_fract_x
 _atom_site_fract_y
 _atom_site_fract_z
 _atom_site_occupancy
  Ba  Ba0  1  0.02185429  0.82381489  0.36542897  1
  Ba  Ba1  1  0.09632983  0.41369472  0.37749552  1
  Ba  Ba2  1  0.20332434  0.11135675  0.14698384  1
  Ba  Ba3  1  0.02185429  0.67618511  0.86542897  1
  Ba  Ba4  1  0.33449651  0.47821682  0.07789054  1
  Ba  Ba5  1  0.09632983  0.08630528  0.87749552  1
  Ba  Ba6  1  0.20332434  0.38864325  0.64698384  1
  Ba  Ba7  1  0.43352635  0.93423572  0.26872036  1
  Ba  Ba8  1  0.33449651  0.02178318  0.57789054  1
  Ba  Ba9  1  0.57039547  0.15759127  0.01569106  1
  Ba  Ba10  1  0.42960453  0.65759127  0.48430894  1
  Ba  Ba11  1  0.56647365  0.43423572  0.23127964  1
  Ba  Ba12  1  0.43352635  0.56576428  0.76872036  1
  Ba  Ba13  1  0.57039547  0.34240873  0.51569106  1
  Ba  Ba14  1  0.42960453  0.84240873  0.98430894  1
  Ba  Ba15  1  0.66550349  0.97821682  0.42210946  1
  Ba  Ba16  1  0.56647365  0.06576428  0.73127964  1
  Ba  Ba17  1  0.79667566  0.61135675  0.35301616  1
  Ba  Ba18  1  0.90367017  0.91369472  0.12250448  1
  Ba  Ba19  1  0.66550349  0.52178318  0.92210946  1
  Ba  Ba20  1  0.97814571  0.32381489  0.13457103  1
  Ba  Ba21  1  0.79667566  0.88864325  0.85301616  1
  Ba  Ba22  1  0.90367017  0.58630528  0.62250448  1
  Ba  Ba23  1  0.97814571  0.17618511  0.63457103  1
  Cl  Cl24  1  0.15155129  0.78525473  0.12720319  1
  Cl  Cl25  1  0.15964863  0.06601350  0.38677063  1
  Cl  Cl26  1  0.15155129  0.71474527  0.62720319  1
  Cl  Cl27  1  0.32535959  0.61917273  0.29765508  1
  Cl  Cl28  1  0.15964863  0.43398650  0.88677063  1
  Cl  Cl29  1  0.38341198  0.26795506  0.41363184  1
  Cl  Cl30  1  0.32535959  0.88082727  0.79765508  1
  Cl  Cl31  1  0.61658802  0.76795506  0.08636816  1
  Cl  Cl32  1  0.38341198  0.23204494  0.91363184  1
  Cl  Cl33  1  0.67464041  0.11917273  0.20234492  1
  Cl  Cl34  1  0.61658802  0.73204494  0.58636816  1
  Cl  Cl35  1  0.84035137  0.56601350  0.11322937  1
  Cl  Cl36  1  0.67464041  0.38082727  0.70234492  1
  Cl  Cl37  1  0.84844871  0.28525473  0.37279681  1
  Cl  Cl38  1  0.84035137  0.93398650  0.61322937  1
  Cl  Cl39  1  0.84844871  0.21474527  0.87279681  1
  O  O40  1  0.03647483  0.10659628  0.07329755  1
  O  O41  1  0.14938882  0.34409592  0.18503804  1
  O  O42  1  0.03647483  0.39340372  0.57329755  1
  O  O43  1  0.14938882  0.15590408  0.68503804  1
  O  O44  1  0.40241374  0.02257652  0.11864498  1
  O  O45  1  0.52616305  0.39119964  0.07374564  1
  O  O46  1  0.47383695  0.89119964  0.42625436  1
  O  O47  1  0.40241374  0.47742348  0.61864498  1
  O  O48  1  0.59758626  0.52257652  0.38135502  1
  O  O49  1  0.52616305  0.10880036  0.57374564  1
  O  O50  1  0.47383695  0.60880036  0.92625436  1
  O  O51  1  0.59758626  0.97742348  0.88135502  1
  O  O52  1  0.85061118  0.84409592  0.31496196  1
  O  O53  1  0.96352517  0.60659628  0.42670245  1
  O  O54  1  0.85061118  0.65590408  0.81496196  1
  O  O55  1  0.96352517  0.89340372  0.92670245  1
