# generated using pymatgen
data_LiFe2OF5
_symmetry_space_group_name_H-M   'P 1'
_cell_length_a   4.73531858
_cell_length_b   4.73531858
_cell_length_c   18.44756945
_cell_angle_alpha   90.05981417
_cell_angle_beta   89.94018583
_cell_angle_gamma   89.99938089
_symmetry_Int_Tables_number   1
_chemical_formula_structural   LiFe2OF5
_chemical_formula_sum   'Li4 Fe8 O4 F20'
_cell_volume   413.65386362
_cell_formula_units_Z   4
loop_
 _symmetry_equiv_pos_site_id
 _symmetry_equiv_pos_as_xyz
  1  'x, y, z'
loop_
 _atom_site_type_symbol
 _atom_site_label
 _atom_site_symmetry_multiplicity
 _atom_site_fract_x
 _atom_site_fract_y
 _atom_site_fract_z
 _atom_site_occupancy
  Li  Li0  1  0.00842000  0.99966111  0.99825810  1
  Li  Li1  1  0.00033889  0.99158000  0.49825810  1
  Li  Li2  1  0.50801612  0.50021793  0.24821900  1
  Li  Li3  1  0.49978207  0.49198388  0.74821900  1
  Fe  Fe4  1  0.97689115  0.97900867  0.16634555  1
  Fe  Fe5  1  0.01378619  0.99017850  0.33888116  1
  Fe  Fe6  1  0.02099133  0.02310885  0.66634555  1
  Fe  Fe7  1  0.00982150  0.98621381  0.83888116  1
  Fe  Fe8  1  0.48869042  0.48791932  0.58888205  1
  Fe  Fe9  1  0.51208068  0.51130958  0.08888205  1
  Fe  Fe10  1  0.47958421  0.52365993  0.41631452  1
  Fe  Fe11  1  0.47633907  0.52041579  0.91631452  1
  O  O12  1  0.19972220  0.79994517  0.41316040  1
  O  O13  1  0.20005483  0.80027780  0.91316040  1
  O  O14  1  0.30140781  0.29887676  0.66317077  1
  O  O15  1  0.70112324  0.69859219  0.16317077  1
  F  F16  1  0.20025546  0.80092576  0.08455906  1
  F  F17  1  0.19907424  0.79974454  0.58455906  1
  F  F18  1  0.19346460  0.80989534  0.25042478  1
  F  F19  1  0.19010466  0.80653540  0.75042478  1
  F  F20  1  0.31550870  0.31308975  0.00205050  1
  F  F21  1  0.30958684  0.30714541  0.50040442  1
  F  F22  1  0.29070326  0.28888534  0.16248954  1
  F  F23  1  0.29989139  0.29904816  0.83443474  1
  F  F24  1  0.30292565  0.30192965  0.33398218  1
  F  F25  1  0.70095184  0.70010861  0.33443474  1
  F  F26  1  0.69807035  0.69707435  0.83398218  1
  F  F27  1  0.71111466  0.70929674  0.66248954  1
  F  F28  1  0.69285459  0.69041316  0.00040442  1
  F  F29  1  0.68691025  0.68449130  0.50205050  1
  F  F30  1  0.81595872  0.18712535  0.25204303  1
  F  F31  1  0.81287465  0.18404128  0.75204303  1
  F  F32  1  0.80178420  0.19851135  0.08388417  1
  F  F33  1  0.78947049  0.21004490  0.41249603  1
  F  F34  1  0.80148865  0.19821580  0.58388417  1
  F  F35  1  0.78995510  0.21052951  0.91249603  1
