# generated using pymatgen
data_Li4V3Fe2Sn3O16
_symmetry_space_group_name_H-M   'P 1'
_cell_length_a   6.14853756
_cell_length_b   6.11104450
_cell_length_c   9.70501503
_cell_angle_alpha   89.66953653
_cell_angle_beta   89.96261526
_cell_angle_gamma   119.95276403
_symmetry_Int_Tables_number   1
_chemical_formula_structural   Li4V3Fe2Sn3O16
_chemical_formula_sum   'Li4 V3 Fe2 Sn3 O16'
_cell_volume   315.94377768
_cell_formula_units_Z   1
loop_
 _symmetry_equiv_pos_site_id
 _symmetry_equiv_pos_as_xyz
  1  'x, y, z'
loop_
 _atom_site_type_symbol
 _atom_site_label
 _atom_site_symmetry_multiplicity
 _atom_site_fract_x
 _atom_site_fract_y
 _atom_site_fract_z
 _atom_site_occupancy
  Li  Li0  1  0.34613726  0.67503235  0.89013561  1
  Li  Li1  1  0.98084406  0.99023972  0.99178712  1
  Li  Li2  1  0.98723225  0.99175607  0.49987410  1
  Li  Li3  1  0.66732751  0.33453797  0.39537358  1
  V  V4  1  0.66131601  0.83059781  0.21306886  1
  V  V5  1  0.82956353  0.16861025  0.71069782  1
  V  V6  1  0.83765340  0.65622553  0.71582124  1
  Fe  Fe7  1  0.34422110  0.66872737  0.49376154  1
  Fe  Fe8  1  0.67026543  0.33635311  0.98975442  1
  Sn  Sn9  1  0.16967953  0.83083864  0.21493155  1
  Sn  Sn10  1  0.16933364  0.33858673  0.21461626  1
  Sn  Sn11  1  0.33935706  0.17045570  0.71432753  1
  O  O12  1  0.15615210  0.82701591  0.59948727  1
  O  O13  1  0.03558412  0.51644999  0.34608535  1
  O  O14  1  0.33205883  0.66710025  0.09657326  1
  O  O15  1  0.99839798  0.99825685  0.31605794  1
  O  O16  1  0.99311381  0.98708278  0.80861671  1
  O  O17  1  0.15648638  0.32743117  0.59949922  1
  O  O18  1  0.48617384  0.96106248  0.34194674  1
  O  O19  1  0.48513053  0.52342355  0.34127418  1
  O  O20  1  0.32319313  0.16249600  0.09175633  1
  O  O21  1  0.67512795  0.82747781  0.60756432  1
  O  O22  1  0.53147186  0.48964241  0.84102390  1
  O  O23  1  0.53255071  0.04537189  0.84183676  1
  O  O24  1  0.66989927  0.34798652  0.60074060  1
  O  O25  1  0.82982242  0.67136368  0.10026640  1
  O  O26  1  0.96058140  0.49624404  0.83220477  1
  O  O27  1  0.83132589  0.15993343  0.09875761  1
