# generated using pymatgen
data_VO2F
_symmetry_space_group_name_H-M   'P 1'
_cell_length_a   5.06342828
_cell_length_b   5.11344302
_cell_length_c   8.42538245
_cell_angle_alpha   90.00000000
_cell_angle_beta   90.00000000
_cell_angle_gamma   90.00000000
_symmetry_Int_Tables_number   1
_chemical_formula_structural   VO2F
_chemical_formula_sum   'V4 O8 F4'
_cell_volume   218.14622779
_cell_formula_units_Z   4
loop_
 _symmetry_equiv_pos_site_id
 _symmetry_equiv_pos_as_xyz
  1  'x, y, z'
loop_
 _atom_site_type_symbol
 _atom_site_label
 _atom_site_symmetry_multiplicity
 _atom_site_fract_x
 _atom_site_fract_y
 _atom_site_fract_z
 _atom_site_occupancy
  V  V0  1  0.13045904  0.62220475  0.13095316  1
  V  V1  1  0.36954096  0.37779525  0.63095316  1
  V  V2  1  0.63045904  0.87779525  0.86904684  1
  V  V3  1  0.86954096  0.12220475  0.36904684  1
  O  O4  1  0.07976374  0.89690853  0.25500527  1
  O  O5  1  0.95676306  0.66024350  0.96523205  1
  O  O6  1  0.54323694  0.33975650  0.46523205  1
  O  O7  1  0.42023626  0.10309147  0.75500527  1
  O  O8  1  0.57976374  0.60309147  0.74499473  1
  O  O9  1  0.45676306  0.83975650  0.03476795  1
  O  O10  1  0.04323694  0.16024350  0.53476795  1
  O  O11  1  0.92023626  0.39690853  0.24499473  1
  F  F12  1  0.12053814  0.62540935  0.61502060  1
  F  F13  1  0.37946186  0.37459065  0.11502060  1
  F  F14  1  0.62053814  0.87459065  0.38497940  1
  F  F15  1  0.87946186  0.12540935  0.88497940  1
