# generated using pymatgen
data_Li11Mn6O16
_symmetry_space_group_name_H-M   'P 1'
_cell_length_a   8.63230883
_cell_length_b   8.23604034
_cell_length_c   8.29073270
_cell_angle_alpha   90.11316636
_cell_angle_beta   90.45586827
_cell_angle_gamma   89.78757425
_symmetry_Int_Tables_number   1
_chemical_formula_structural   Li11Mn6O16
_chemical_formula_sum   'Li22 Mn12 O32'
_cell_volume   589.41447114
_cell_formula_units_Z   2
loop_
 _symmetry_equiv_pos_site_id
 _symmetry_equiv_pos_as_xyz
  1  'x, y, z'
loop_
 _atom_site_type_symbol
 _atom_site_label
 _atom_site_symmetry_multiplicity
 _atom_site_fract_x
 _atom_site_fract_y
 _atom_site_fract_z
 _atom_site_occupancy
  Li  Li0  1  0.00496445  0.76417169  0.23981409  1
  Li  Li1  1  0.99134462  0.00122780  0.99186843  1
  Li  Li2  1  0.82151746  0.69164131  0.44142968  1
  Li  Li3  1  0.77210903  0.01925785  0.75753897  1
  Li  Li4  1  0.76735713  0.21605091  0.00489567  1
  Li  Li5  1  0.74904922  0.99519064  0.24988747  1
  Li  Li6  1  0.76654631  0.49399781  0.25865833  1
  Li  Li7  1  0.64946922  0.84656818  0.59260874  1
  Li  Li8  1  0.59200603  0.40740210  0.07882466  1
  Li  Li9  1  0.47387352  0.00942322  0.49239381  1
  Li  Li10  1  0.48261732  0.73342676  0.74331458  1
  Li  Li11  1  0.49432934  0.49624217  0.49724255  1
  Li  Li12  1  0.46268223  0.22485867  0.27431805  1
  Li  Li13  1  0.41212637  0.56145344  0.93958767  1
  Li  Li14  1  0.24683367  0.24655161  0.50372862  1
  Li  Li15  1  0.24438318  0.24446046  0.99889324  1
  Li  Li16  1  0.24562798  0.99331444  0.23706165  1
  Li  Li17  1  0.20781157  0.75726501  0.00246768  1
  Li  Li18  1  0.21170096  0.48644050  0.72840504  1
  Li  Li19  1  0.99318093  0.75026312  0.74245470  1
  Li  Li20  1  0.00638621  0.47777328  0.50393855  1
  Li  Li21  1  0.98982135  0.24308374  0.75287407  1
  Mn  Mn22  1  0.73719337  0.24415103  0.48714655  1
  Mn  Mn23  1  0.75051154  0.49389163  0.74158679  1
  Mn  Mn24  1  0.50529056  0.74311133  0.25261270  1
  Mn  Mn25  1  0.49867739  0.24644448  0.74787782  1
  Mn  Mn26  1  0.24799741  0.74474037  0.50268041  1
  Mn  Mn27  1  0.24515208  0.49679482  0.25292301  1
  Mn  Mn28  1  0.99865291  0.24618749  0.24832526  1
  Mn  Mn29  1  0.99776604  0.49635066  0.99712847  1
  Mn  Mn30  1  0.75378241  0.74688223  0.99569925  1
  Mn  Mn31  1  0.24534915  0.99334672  0.75103097  1
  Mn  Mn32  1  0.99515417  0.99773598  0.49750021  1
  Mn  Mn33  1  0.50408711  0.99246243  0.99435491  1
  O  O34  1  0.99755417  0.25276222  0.01419936  1
  O  O35  1  0.99670288  0.23553257  0.48418180  1
  O  O36  1  0.97658924  0.74168340  0.99790983  1
  O  O37  1  0.97314190  0.48620098  0.74343934  1
  O  O38  1  0.74460417  0.01370565  0.49426854  1
  O  O39  1  0.76899029  0.25079110  0.24724912  1
  O  O40  1  0.76644907  0.50632400  0.98267596  1
  O  O41  1  0.74724869  0.48317760  0.51042243  1
  O  O42  1  0.74580603  0.72773746  0.75643602  1
  O  O43  1  0.73247460  0.25794723  0.74382670  1
  O  O44  1  0.74663836  0.74046177  0.22676708  1
  O  O45  1  0.73651623  0.97789640  0.99423790  1
  O  O46  1  0.49671081  0.24571134  0.51673977  1
  O  O47  1  0.50834736  0.22389108  0.98681066  1
  O  O48  1  0.52263195  0.75576602  0.99361052  1
  O  O49  1  0.51835370  0.48012907  0.75687898  1
  O  O50  1  0.47454827  0.75149863  0.49735562  1
  O  O51  1  0.51127011  0.00593357  0.75723574  1
  O  O52  1  0.49323635  0.98183772  0.22771665  1
  O  O53  1  0.49690344  0.51167257  0.24536508  1
  O  O54  1  0.27547013  0.98717574  0.98221203  1
  O  O55  1  0.27653593  0.23709255  0.75022438  1
  O  O56  1  0.25109985  0.73761592  0.26310417  1
  O  O57  1  0.25134594  0.74648940  0.73710920  1
  O  O58  1  0.24349601  0.51168596  0.49210525  1
  O  O59  1  0.25041154  0.98259570  0.51563016  1
  O  O60  1  0.23052992  0.26026414  0.25288080  1
  O  O61  1  0.21903662  0.50711143  0.01115659  1
  O  O62  1  0.02114709  0.76102973  0.49333910  1
  O  O63  1  0.00022433  0.00446242  0.73639899  1
  O  O64  1  0.99237040  0.48087218  0.25552472  1
  O  O65  1  0.00600741  0.01134457  0.25559791  1
