# generated using pymatgen
data_Na6Bi2B4PO16
_symmetry_space_group_name_H-M   'P 1'
_cell_length_a   10.25301234
_cell_length_b   10.25301234
_cell_length_c   10.25301276
_cell_angle_alpha   60.00000338
_cell_angle_beta   89.99999867
_cell_angle_gamma   120.00000049
_symmetry_Int_Tables_number   1
_chemical_formula_structural   Na6Bi2B4PO16
_chemical_formula_sum   'Na12 Bi4 B8 P2 O32'
_cell_volume   762.14827956
_cell_formula_units_Z   2
loop_
 _symmetry_equiv_pos_site_id
 _symmetry_equiv_pos_as_xyz
  1  'x, y, z'
loop_
 _atom_site_type_symbol
 _atom_site_label
 _atom_site_symmetry_multiplicity
 _atom_site_fract_x
 _atom_site_fract_y
 _atom_site_fract_z
 _atom_site_occupancy
  Na  Na0  1  0.07820402  0.75000000  0.07820402  1
  Na  Na1  1  0.32820402  0.25000000  0.32820402  1
  Na  Na2  1  0.07820402  0.15640805  0.67179598  1
  Na  Na3  1  0.67179598  0.34359195  0.07820402  1
  Na  Na4  1  0.92179598  0.25000000  0.32820402  1
  Na  Na5  1  0.32820402  0.25000000  0.92179598  1
  Na  Na6  1  0.07820402  0.75000000  0.67179598  1
  Na  Na7  1  0.67179598  0.75000000  0.07820402  1
  Na  Na8  1  0.32820402  0.65640805  0.92179598  1
  Na  Na9  1  0.92179598  0.25000000  0.92179598  1
  Na  Na10  1  0.92179598  0.84359195  0.32820402  1
  Na  Na11  1  0.67179598  0.75000000  0.67179598  1
  Bi  Bi12  1  0.50000000  0.00000000  0.00000000  1
  Bi  Bi13  1  0.00000000  0.50000000  0.50000000  1
  Bi  Bi14  1  0.50000000  0.00000000  0.50000000  1
  Bi  Bi15  1  0.50000000  0.50000000  0.50000000  1
  B  B16  1  0.33923246  0.05948864  0.72025618  1
  B  B17  1  0.27974382  0.55948864  0.27974382  1
  B  B18  1  0.27974382  0.55948864  0.66076754  1
  B  B19  1  0.72025618  0.05948864  0.72025618  1
  B  B20  1  0.72025618  0.44051136  0.33923246  1
  B  B21  1  0.27974382  0.94051136  0.27974382  1
  B  B22  1  0.66076754  0.94051136  0.27974382  1
  B  B23  1  0.72025618  0.44051136  0.72025618  1
  P  P24  1  0.12500000  0.25000000  0.12500000  1
  P  P25  1  0.87500000  0.75000000  0.87500000  1
  O  O26  1  0.06294969  0.12589938  0.06294969  1
  O  O27  1  0.06294969  0.12589938  0.31115092  1
  O  O28  1  0.06294969  0.37410062  0.06294969  1
  O  O29  1  0.31115092  0.37410062  0.06294969  1
  O  O30  1  0.40723950  0.07051524  0.29215135  1
  O  O31  1  0.66327575  0.07051524  0.13733341  1
  O  O32  1  0.13733341  0.54457291  0.29215135  1
  O  O33  1  0.33672425  0.04457291  0.59276050  1
  O  O34  1  0.29215135  0.42948476  0.40723950  1
  O  O35  1  0.13733341  0.42948476  0.66327575  1
  O  O36  1  0.40723950  0.69938984  0.13733341  1
  O  O37  1  0.33672425  0.19938984  0.70784865  1
  O  O38  1  0.70784865  0.30061016  0.33672425  1
  O  O39  1  0.13733341  0.80061016  0.40723950  1
  O  O40  1  0.59276050  0.45542709  0.33672425  1
  O  O41  1  0.29215135  0.95542709  0.13733341  1
  O  O42  1  0.40723950  0.54457291  0.66327575  1
  O  O43  1  0.70784865  0.04457291  0.86266659  1
  O  O44  1  0.29215135  0.69938984  0.66327575  1
  O  O45  1  0.86266659  0.19938984  0.59276050  1
  O  O46  1  0.66327575  0.80061016  0.29215135  1
  O  O47  1  0.59276050  0.30061016  0.86266659  1
  O  O48  1  0.86266659  0.57051524  0.33672425  1
  O  O49  1  0.70784865  0.57051524  0.59276050  1
  O  O50  1  0.86266659  0.45542709  0.70784865  1
  O  O51  1  0.66327575  0.95542709  0.40723950  1
  O  O52  1  0.33672425  0.92948476  0.86266659  1
  O  O53  1  0.59276050  0.92948476  0.70784865  1
  O  O54  1  0.68884908  0.62589938  0.93705031  1
  O  O55  1  0.93705031  0.87410062  0.68884908  1
  O  O56  1  0.93705031  0.62589938  0.93705031  1
  O  O57  1  0.93705031  0.87410062  0.93705031  1
