# generated using pymatgen
data_Ta2Nb3O12
_symmetry_space_group_name_H-M   'P 1'
_cell_length_a   9.66938531
_cell_length_b   9.79054358
_cell_length_c   13.50027428
_cell_angle_alpha   90.00000000
_cell_angle_beta   90.28221908
_cell_angle_gamma   90.00000000
_symmetry_Int_Tables_number   1
_chemical_formula_structural   Ta2Nb3O12
_chemical_formula_sum   'Ta8 Nb12 O48'
_cell_volume   1278.03572808
_cell_formula_units_Z   4
loop_
 _symmetry_equiv_pos_site_id
 _symmetry_equiv_pos_as_xyz
  1  'x, y, z'
loop_
 _atom_site_type_symbol
 _atom_site_label
 _atom_site_symmetry_multiplicity
 _atom_site_fract_x
 _atom_site_fract_y
 _atom_site_fract_z
 _atom_site_occupancy
  Ta  Ta0  1  0.24860996  0.97104544  0.88215618  1
  Ta  Ta1  1  0.24628318  0.03353415  0.38191490  1
  Ta  Ta2  1  0.25371682  0.53353415  0.11808510  1
  Ta  Ta3  1  0.25139004  0.47104544  0.61784382  1
  Ta  Ta4  1  0.74860996  0.52895456  0.38215618  1
  Ta  Ta5  1  0.74628318  0.46646585  0.88191490  1
  Ta  Ta6  1  0.75371682  0.96646585  0.61808510  1
  Ta  Ta7  1  0.75139004  0.02895456  0.11784382  1
  Nb  Nb8  1  0.02475614  0.74956414  0.49983622  1
  Nb  Nb9  1  0.10521556  0.61858683  0.85631893  1
  Nb  Nb10  1  0.10885231  0.88178327  0.14362050  1
  Nb  Nb11  1  0.39114769  0.38178327  0.35637950  1
  Nb  Nb12  1  0.39478444  0.11858683  0.64368107  1
  Nb  Nb13  1  0.47524386  0.24956414  0.00016378  1
  Nb  Nb14  1  0.52475614  0.75043586  0.99983622  1
  Nb  Nb15  1  0.60521556  0.88141317  0.35631893  1
  Nb  Nb16  1  0.60885231  0.61821673  0.64362050  1
  Nb  Nb17  1  0.89114769  0.11821673  0.85637950  1
  Nb  Nb18  1  0.89478444  0.38141317  0.14368107  1
  Nb  Nb19  1  0.97524386  0.25043586  0.50016378  1
  O  O20  1  0.08305277  0.08908918  0.86589171  1
  O  O21  1  0.08801626  0.34981384  0.58844579  1
  O  O22  1  0.08861203  0.16495681  0.40628788  1
  O  O23  1  0.08659665  0.41682849  0.13548515  1
  O  O24  1  0.12786194  0.88255006  0.43174003  1
  O  O25  1  0.13970175  0.80677243  0.83810055  1
  O  O26  1  0.14542209  0.69535285  0.16528048  1
  O  O27  1  0.14735824  0.63013536  0.56399222  1
  O  O28  1  0.18141410  0.99113516  0.24677137  1
  O  O29  1  0.18434019  0.51504704  0.75206087  1
  O  O30  1  0.18793750  0.57034588  0.97685519  1
  O  O31  1  0.18742526  0.93204104  0.02338761  1
  O  O32  1  0.31257474  0.43204104  0.47661239  1
  O  O33  1  0.31206250  0.07034588  0.52314481  1
  O  O34  1  0.31565981  0.01504704  0.74793913  1
  O  O35  1  0.31858590  0.49113516  0.25322863  1
  O  O36  1  0.35264176  0.13013536  0.93600778  1
  O  O37  1  0.35457791  0.19535285  0.33471952  1
  O  O38  1  0.36029825  0.30677243  0.66189945  1
  O  O39  1  0.37213806  0.38255006  0.06825997  1
  O  O40  1  0.41198374  0.84981384  0.91155421  1
  O  O41  1  0.41340335  0.91682849  0.36451485  1
  O  O42  1  0.41138797  0.66495681  0.09371212  1
  O  O43  1  0.41694723  0.58908918  0.63410829  1
  O  O44  1  0.58305277  0.41091082  0.36589171  1
  O  O45  1  0.58861203  0.33504319  0.90628788  1
  O  O46  1  0.58659665  0.08317151  0.63548515  1
  O  O47  1  0.58801626  0.15018616  0.08844579  1
  O  O48  1  0.62786194  0.61744994  0.93174003  1
  O  O49  1  0.63970175  0.69322757  0.33810055  1
  O  O50  1  0.64542209  0.80464715  0.66528048  1
  O  O51  1  0.64735824  0.86986464  0.06399222  1
  O  O52  1  0.68141410  0.50886484  0.74677137  1
  O  O53  1  0.68434019  0.98495296  0.25206087  1
  O  O54  1  0.68793750  0.92965412  0.47685519  1
  O  O55  1  0.68742526  0.56795896  0.52338761  1
  O  O56  1  0.81257474  0.06795896  0.97661239  1
  O  O57  1  0.81206250  0.42965412  0.02314481  1
  O  O58  1  0.81565981  0.48495296  0.24793913  1
  O  O59  1  0.81858590  0.00886484  0.75322863  1
  O  O60  1  0.85264176  0.36986464  0.43600778  1
  O  O61  1  0.85457791  0.30464715  0.83471952  1
  O  O62  1  0.86029825  0.19322757  0.16189945  1
  O  O63  1  0.87213806  0.11744994  0.56825997  1
  O  O64  1  0.91340335  0.58317151  0.86451485  1
  O  O65  1  0.91138797  0.83504319  0.59371212  1
  O  O66  1  0.91198374  0.65018616  0.41155421  1
  O  O67  1  0.91694723  0.91091082  0.13410829  1
