# generated using pymatgen
data_LiMn(PO3)3
_symmetry_space_group_name_H-M   'P 1'
_cell_length_a   6.85388764
_cell_length_b   7.38929953
_cell_length_c   6.66417883
_cell_angle_alpha   97.83689749
_cell_angle_beta   97.10034945
_cell_angle_gamma   84.61944450
_symmetry_Int_Tables_number   1
_chemical_formula_structural   LiMn(PO3)3
_chemical_formula_sum   'Li2 Mn2 P6 O18'
_cell_volume   330.77666933
_cell_formula_units_Z   2
loop_
 _symmetry_equiv_pos_site_id
 _symmetry_equiv_pos_as_xyz
  1  'x, y, z'
loop_
 _atom_site_type_symbol
 _atom_site_label
 _atom_site_symmetry_multiplicity
 _atom_site_fract_x
 _atom_site_fract_y
 _atom_site_fract_z
 _atom_site_occupancy
  Li  Li0  1  0.16088460  0.17750604  0.46012870  1
  Li  Li1  1  0.83911540  0.82249396  0.53987130  1
  Mn  Mn2  1  0.21949988  0.12990124  0.95891655  1
  Mn  Mn3  1  0.78050012  0.87009876  0.04108345  1
  P  P4  1  0.15369962  0.54707897  0.79199844  1
  P  P5  1  0.29858545  0.77750793  0.14738917  1
  P  P6  1  0.38526983  0.78994665  0.60513988  1
  P  P7  1  0.61473017  0.21005335  0.39486012  1
  P  P8  1  0.70141455  0.22249207  0.85261083  1
  P  P9  1  0.84630038  0.45292103  0.20800156  1
  O  O10  1  0.02884386  0.32869361  0.24392302  1
  O  O11  1  0.14999814  0.34146220  0.74556713  1
  O  O12  1  0.12027942  0.91630740  0.14105279  1
  O  O13  1  0.23433710  0.94864149  0.64993571  1
  O  O14  1  0.24004601  0.58088080  0.03077565  1
  O  O15  1  0.32919807  0.60414300  0.67956379  1
  O  O16  1  0.35831313  0.71675577  0.36503469  1
  O  O17  1  0.40049181  0.18743033  0.33251375  1
  O  O18  1  0.53017886  0.16495802  0.94226543  1
  O  O19  1  0.46982114  0.83504198  0.05773457  1
  O  O20  1  0.59950819  0.81256967  0.66748625  1
  O  O21  1  0.64168687  0.28324423  0.63496531  1
  O  O22  1  0.67080193  0.39585700  0.32043621  1
  O  O23  1  0.75995399  0.41911920  0.96922435  1
  O  O24  1  0.76566290  0.05135851  0.35006429  1
  O  O25  1  0.87972058  0.08369260  0.85894721  1
  O  O26  1  0.85000186  0.65853780  0.25443287  1
  O  O27  1  0.97115614  0.67130739  0.75607698  1
