# generated using pymatgen
data_LiMnSiO4
_symmetry_space_group_name_H-M   'P 1'
_cell_length_a   6.40111904
_cell_length_b   9.03500992
_cell_length_c   4.91451265
_cell_angle_alpha   90.00000000
_cell_angle_beta   90.00000000
_cell_angle_gamma   90.00000000
_symmetry_Int_Tables_number   1
_chemical_formula_structural   LiMnSiO4
_chemical_formula_sum   'Li4 Mn4 Si4 O16'
_cell_volume   284.22677985
_cell_formula_units_Z   4
loop_
 _symmetry_equiv_pos_site_id
 _symmetry_equiv_pos_as_xyz
  1  'x, y, z'
loop_
 _atom_site_type_symbol
 _atom_site_label
 _atom_site_symmetry_multiplicity
 _atom_site_fract_x
 _atom_site_fract_y
 _atom_site_fract_z
 _atom_site_occupancy
  Li  Li0  1  0.25000000  0.16138555  0.45975875  1
  Li  Li1  1  0.25000000  0.66138555  0.04024125  1
  Li  Li2  1  0.75000000  0.33861445  0.95975875  1
  Li  Li3  1  0.75000000  0.83861445  0.54024125  1
  Mn  Mn4  1  0.00000000  0.00000000  0.00000000  1
  Mn  Mn5  1  0.00000000  0.50000000  0.50000000  1
  Mn  Mn6  1  0.50000000  0.00000000  0.00000000  1
  Mn  Mn7  1  0.50000000  0.50000000  0.50000000  1
  Si  Si8  1  0.25000000  0.32063466  0.96441752  1
  Si  Si9  1  0.25000000  0.82063466  0.53558248  1
  Si  Si10  1  0.75000000  0.17936534  0.46441752  1
  Si  Si11  1  0.75000000  0.67936534  0.03558248  1
  O  O12  1  0.03814837  0.38159784  0.81480793  1
  O  O13  1  0.03814837  0.88159784  0.68519207  1
  O  O14  1  0.25000000  0.13621173  0.90107335  1
  O  O15  1  0.25000000  0.36797370  0.28670020  1
  O  O16  1  0.25000000  0.86797370  0.21329980  1
  O  O17  1  0.25000000  0.63621173  0.59892665  1
  O  O18  1  0.46185163  0.38159784  0.81480793  1
  O  O19  1  0.46185163  0.88159784  0.68519207  1
  O  O20  1  0.53814837  0.11840216  0.31480793  1
  O  O21  1  0.53814837  0.61840216  0.18519207  1
  O  O22  1  0.75000000  0.13202630  0.78670020  1
  O  O23  1  0.75000000  0.36378727  0.40107335  1
  O  O24  1  0.75000000  0.63202630  0.71329980  1
  O  O25  1  0.75000000  0.86378827  0.09892665  1
  O  O26  1  0.96185163  0.11840216  0.31480793  1
  O  O27  1  0.96185163  0.61840216  0.18519207  1
