# generated using pymatgen
data_Mn6O5F7
_symmetry_space_group_name_H-M   'P 1'
_cell_length_a   4.77165227
_cell_length_b   4.73215584
_cell_length_c   9.49334399
_cell_angle_alpha   90.00000000
_cell_angle_beta   90.00000000
_cell_angle_gamma   94.48669244
_symmetry_Int_Tables_number   1
_chemical_formula_structural   Mn6O5F7
_chemical_formula_sum   'Mn6 O5 F7'
_cell_volume   213.70472160
_cell_formula_units_Z   1
loop_
 _symmetry_equiv_pos_site_id
 _symmetry_equiv_pos_as_xyz
  1  'x, y, z'
loop_
 _atom_site_type_symbol
 _atom_site_label
 _atom_site_symmetry_multiplicity
 _atom_site_fract_x
 _atom_site_fract_y
 _atom_site_fract_z
 _atom_site_occupancy
  Mn  Mn0  1  0.99393058  0.98160901  0.00000000  1
  Mn  Mn1  1  0.02518661  0.01239934  0.33912714  1
  Mn  Mn2  1  0.02518661  0.01239934  0.66087286  1
  Mn  Mn3  1  0.49179114  0.48190439  0.84175820  1
  Mn  Mn4  1  0.49179114  0.48190439  0.15824180  1
  Mn  Mn5  1  0.45901306  0.51077471  0.50000000  1
  O  O6  1  0.18853474  0.83299001  0.50000000  1
  O  O7  1  0.29552978  0.28124114  0.00000000  1
  O  O8  1  0.30719896  0.31684549  0.32497955  1
  O  O9  1  0.30719896  0.31684549  0.67502045  1
  O  O10  1  0.69311105  0.67893021  0.00000000  1
  F  F11  1  0.19414409  0.79882686  0.16416655  1
  F  F12  1  0.19414409  0.79882686  0.83583345  1
  F  F13  1  0.70473197  0.70730386  0.32625132  1
  F  F14  1  0.70473197  0.70730386  0.67374868  1
  F  F15  1  0.81847391  0.17969301  0.17435605  1
  F  F16  1  0.78682742  0.22050902  0.50000000  1
  F  F17  1  0.81847391  0.17969301  0.82564395  1
