# generated using pymatgen
data_LiFe2OF5
_symmetry_space_group_name_H-M   'P 1'
_cell_length_a   4.74463184
_cell_length_b   4.74750845
_cell_length_c   9.21801438
_cell_angle_alpha   90.14950367
_cell_angle_beta   90.00000000
_cell_angle_gamma   90.00000000
_symmetry_Int_Tables_number   1
_chemical_formula_structural   LiFe2OF5
_chemical_formula_sum   'Li2 Fe4 O2 F10'
_cell_volume   207.63672380
_cell_formula_units_Z   2
loop_
 _symmetry_equiv_pos_site_id
 _symmetry_equiv_pos_as_xyz
  1  'x, y, z'
loop_
 _atom_site_type_symbol
 _atom_site_label
 _atom_site_symmetry_multiplicity
 _atom_site_fract_x
 _atom_site_fract_y
 _atom_site_fract_z
 _atom_site_occupancy
  Li  Li0  1  0.99925940  0.99226599  0.99706884  1
  Li  Li1  1  0.50074060  0.49226599  0.49706884  1
  Fe  Fe2  1  0.01098409  0.98809995  0.67776200  1
  Fe  Fe3  1  0.02160248  0.02314455  0.33240335  1
  Fe  Fe4  1  0.48901591  0.48809995  0.17776200  1
  Fe  Fe5  1  0.47839752  0.52314455  0.83240335  1
  O  O6  1  0.19898340  0.79871614  0.82591103  1
  O  O7  1  0.30101660  0.29871614  0.32591103  1
  F  F8  1  0.19940065  0.79922010  0.16961954  1
  F  F9  1  0.18961279  0.80774375  0.50073460  1
  F  F10  1  0.31038721  0.30774375  0.00073460  1
  F  F11  1  0.30059935  0.29922010  0.66961954  1
  F  F12  1  0.68651652  0.68353167  0.00368368  1
  F  F13  1  0.71135493  0.70920189  0.32433705  1
  F  F14  1  0.69907075  0.69807796  0.66847991  1
  F  F15  1  0.80092925  0.19807796  0.16847991  1
  F  F16  1  0.81348348  0.18353167  0.50368368  1
  F  F17  1  0.78864507  0.20920189  0.82433705  1
