# generated using pymatgen
data_Li5FeO4
_symmetry_space_group_name_H-M   'P 1'
_cell_length_a   5.60540446
_cell_length_b   6.77921388
_cell_length_c   11.01692797
_cell_angle_alpha   89.89365624
_cell_angle_beta   78.17564913
_cell_angle_gamma   89.75783790
_symmetry_Int_Tables_number   1
_chemical_formula_structural   Li5FeO4
_chemical_formula_sum   'Li20 Fe4 O16'
_cell_volume   409.75848853
_cell_formula_units_Z   4
loop_
 _symmetry_equiv_pos_site_id
 _symmetry_equiv_pos_as_xyz
  1  'x, y, z'
loop_
 _atom_site_type_symbol
 _atom_site_label
 _atom_site_symmetry_multiplicity
 _atom_site_fract_x
 _atom_site_fract_y
 _atom_site_fract_z
 _atom_site_occupancy
  Li  Li0  1  0.09760614  0.21267667  0.28919756  1
  Li  Li1  1  0.00752204  0.25405318  0.65882691  1
  Li  Li2  1  0.09662320  0.98006271  0.80141970  1
  Li  Li3  1  0.10881958  0.52861610  0.79762952  1
  Li  Li4  1  0.27722053  0.96730503  0.07978855  1
  Li  Li5  1  0.22156939  0.47332949  0.42430689  1
  Li  Li6  1  0.31416517  0.53393881  0.05921711  1
  Li  Li7  1  0.18003471  0.02533391  0.44743714  1
  Li  Li8  1  0.40491690  0.71332856  0.21783357  1
  Li  Li9  1  0.50666396  0.25726182  0.17131009  1
  Li  Li10  1  0.58725211  0.96677360  0.30771145  1
  Li  Li11  1  0.49196766  0.75473072  0.82411425  1
  Li  Li12  1  0.54455969  0.26193363  0.76594456  1
  Li  Li13  1  0.77199623  0.98318234  0.57100258  1
  Li  Li14  1  0.67769590  0.04158742  0.93637202  1
  Li  Li15  1  0.91128068  0.47142804  0.19607610  1
  Li  Li16  1  0.79979879  0.53024999  0.56222589  1
  Li  Li17  1  0.69749619  0.46910906  0.92912681  1
  Li  Li18  1  0.98762581  0.75541149  0.33508003  1
  Li  Li19  1  0.88988555  0.75316586  0.70140049  1
  Fe  Fe20  1  0.17081825  0.25291992  0.94800959  1
  Fe  Fe21  1  0.68007920  0.26093360  0.43249643  1
  Fe  Fe22  1  0.82606880  0.75934893  0.06027812  1
  Fe  Fe23  1  0.32490896  0.75147771  0.56834757  1
  O  O24  1  0.09514109  0.73100496  0.14202456  1
  O  O25  1  0.16672718  0.26710121  0.11830544  1
  O  O26  1  0.10264199  0.96827356  0.62624595  1
  O  O27  1  0.11011215  0.53464106  0.62242299  1
  O  O28  1  0.33780536  0.76262904  0.39160035  1
  O  O29  1  0.39994532  0.22817893  0.35869584  1
  O  O30  1  0.36298706  0.02658476  0.88856936  1
  O  O31  1  0.37391262  0.47423326  0.88193643  1
  O  O32  1  0.63449576  0.52526787  0.11053651  1
  O  O33  1  0.60009112  0.96341788  0.12300700  1
  O  O34  1  0.60207725  0.75132721  0.64025619  1
  O  O35  1  0.68732443  0.26042287  0.60184812  1
  O  O36  1  0.90496283  0.46648467  0.37137649  1
  O  O37  1  0.86772615  0.02250533  0.38399438  1
  O  O38  1  0.85792676  0.75612841  0.88099990  1
  O  O39  1  0.90965746  0.25184438  0.85862258  1
