# generated using pymatgen
data_Na2FeO3
_symmetry_space_group_name_H-M   'P 1'
_cell_length_a   5.39715896
_cell_length_b   9.35876156
_cell_length_c   6.13403056
_cell_angle_alpha   90.00005187
_cell_angle_beta   90.01368592
_cell_angle_gamma   90.00021383
_symmetry_Int_Tables_number   1
_chemical_formula_structural   Na2FeO3
_chemical_formula_sum   'Na8 Fe4 O12'
_cell_volume   309.83431471
_cell_formula_units_Z   4
loop_
 _symmetry_equiv_pos_site_id
 _symmetry_equiv_pos_as_xyz
  1  'x, y, z'
loop_
 _atom_site_type_symbol
 _atom_site_label
 _atom_site_symmetry_multiplicity
 _atom_site_fract_x
 _atom_site_fract_y
 _atom_site_fract_z
 _atom_site_occupancy
  Na  Na0  1  0.22618570  0.41422126  0.61376668  1
  Na  Na1  1  0.22618868  0.08577799  0.61375838  1
  Na  Na2  1  0.27382646  0.58567137  0.11401112  1
  Na  Na3  1  0.27382949  0.91433225  0.11401138  1
  Na  Na4  1  0.72617342  0.08582723  0.88613299  1
  Na  Na5  1  0.72616989  0.41417321  0.88612756  1
  Na  Na6  1  0.77388151  0.58566817  0.38603503  1
  Na  Na7  1  0.77388267  0.91433396  0.38602832  1
  Fe  Fe8  1  0.22359842  0.74999523  0.66378445  1
  Fe  Fe9  1  0.27637195  0.24999777  0.16328285  1
  Fe  Fe10  1  0.72353170  0.75000520  0.83699323  1
  Fe  Fe11  1  0.77639593  0.24999432  0.33662877  1
  O  O12  1  0.01273217  0.11278116  0.21683596  1
  O  O13  1  0.01273080  0.38722015  0.21684156  1
  O  O14  1  0.13247792  0.74999848  0.37762977  1
  O  O15  1  0.36766328  0.25000168  0.87706460  1
  O  O16  1  0.48626227  0.88714608  0.71639851  1
  O  O17  1  0.48626540  0.61285767  0.71639771  1
  O  O18  1  0.51323913  0.11283026  0.28337548  1
  O  O19  1  0.51323424  0.38716619  0.28337178  1
  O  O20  1  0.63244200  0.75000093  0.12299881  1
  O  O21  1  0.86762235  0.24999976  0.62272972  1
  O  O22  1  0.98764656  0.61274659  0.78289937  1
  O  O23  1  0.98764807  0.88725308  0.78289598  1
