# generated using pymatgen
data_V4O9
_symmetry_space_group_name_H-M   'P 1'
_cell_length_a   5.02144500
_cell_length_b   8.49285435
_cell_length_c   8.49285435
_cell_angle_alpha   90.00000000
_cell_angle_beta   90.00000000
_cell_angle_gamma   90.00000000
_symmetry_Int_Tables_number   1
_chemical_formula_structural   V4O9
_chemical_formula_sum   'V8 O18'
_cell_volume   362.18967234
_cell_formula_units_Z   2
loop_
 _symmetry_equiv_pos_site_id
 _symmetry_equiv_pos_as_xyz
  1  'x, y, z'
loop_
 _atom_site_type_symbol
 _atom_site_label
 _atom_site_symmetry_multiplicity
 _atom_site_fract_x
 _atom_site_fract_y
 _atom_site_fract_z
 _atom_site_occupancy
  V  V0  1  0.61630284  0.53184740  0.34316846  1
  V  V1  1  0.38369816  0.84316746  0.46815360  1
  V  V2  1  0.61630284  0.34316746  0.96815360  1
  V  V3  1  0.38369816  0.03184640  0.84316746  1
  V  V4  1  0.61630284  0.96815360  0.15683154  1
  V  V5  1  0.61630284  0.15683254  0.53184740  1
  V  V6  1  0.38369816  0.46815360  0.65683154  1
  V  V7  1  0.38369816  0.65683154  0.03184640  1
  O  O8  1  0.49999900  0.75000000  0.25000000  1
  O  O9  1  0.49999900  0.25000100  0.75000000  1
  O  O10  1  0.06611021  0.66977635  0.01421623  1
  O  O11  1  0.06611021  0.48578477  0.66977535  1
  O  O12  1  0.06611021  0.01421623  0.83022465  1
  O  O13  1  0.06611021  0.83022465  0.48578377  1
  O  O14  1  0.93389079  0.33022465  0.98578377  1
  O  O15  1  0.93389079  0.51421523  0.33022465  1
  O  O16  1  0.93389079  0.98578377  0.16977535  1
  O  O17  1  0.93389079  0.16977535  0.51421523  1
  O  O18  1  0.48671746  0.03711214  0.35632935  1
  O  O19  1  0.48671746  0.14366965  0.03711314  1
  O  O20  1  0.48671746  0.35632935  0.46288786  1
  O  O21  1  0.48671746  0.46288786  0.14367065  1
  O  O22  1  0.51328154  0.53711214  0.85632935  1
  O  O23  1  0.51328154  0.85632935  0.96288786  1
  O  O24  1  0.51328154  0.64367065  0.53711214  1
  O  O25  1  0.51328154  0.96288686  0.64367065  1
