# generated using pymatgen
data_Mn6O11F
_symmetry_space_group_name_H-M   'P 1'
_cell_length_a   4.50718455
_cell_length_b   7.44730387
_cell_length_c   5.39903395
_cell_angle_alpha   93.84223494
_cell_angle_beta   90.87439848
_cell_angle_gamma   89.46281177
_symmetry_Int_Tables_number   1
_chemical_formula_structural   Mn6O11F
_chemical_formula_sum   'Mn6 O11 F1'
_cell_volume   180.79126014
_cell_formula_units_Z   1
loop_
 _symmetry_equiv_pos_site_id
 _symmetry_equiv_pos_as_xyz
  1  'x, y, z'
loop_
 _atom_site_type_symbol
 _atom_site_label
 _atom_site_symmetry_multiplicity
 _atom_site_fract_x
 _atom_site_fract_y
 _atom_site_fract_z
 _atom_site_occupancy
  Mn  Mn0  1  0.49638852  0.99873913  0.50270937  1
  Mn  Mn1  1  0.51699940  0.67276867  0.15558204  1
  Mn  Mn2  1  0.49912568  0.33370211  0.83440275  1
  Mn  Mn3  1  0.99248328  0.66780461  0.67536469  1
  Mn  Mn4  1  0.98734605  0.32265633  0.33614459  1
  Mn  Mn5  1  0.00642578  0.00419030  0.99717495  1
  O  O6  1  0.80417539  0.43408177  0.62932798  1
  O  O7  1  0.80823206  0.77220416  0.96441105  1
  O  O8  1  0.80316483  0.09883410  0.29553472  1
  O  O9  1  0.69320572  0.10201969  0.79725766  1
  O  O10  1  0.69513325  0.76756112  0.46283845  1
  O  O11  1  0.69625422  0.43602612  0.13009358  1
  O  O12  1  0.30627742  0.56656912  0.86990191  1
  O  O13  1  0.30658924  0.23228938  0.53415193  1
  O  O14  1  0.30205575  0.89619488  0.20600795  1
  O  O15  1  0.19345716  0.23230447  0.03833329  1
  O  O16  1  0.19457766  0.89831021  0.70531096  1
  F  F17  1  0.19810759  0.56374382  0.36545213  1
