# generated using pymatgen
data_Li3V3P8O29
_symmetry_space_group_name_H-M   'P 1'
_cell_length_a   9.75596442
_cell_length_b   9.79483467
_cell_length_c   14.22140801
_cell_angle_alpha   90.08993909
_cell_angle_beta   90.05065756
_cell_angle_gamma   59.94783177
_symmetry_Int_Tables_number   1
_chemical_formula_structural   Li3V3P8O29
_chemical_formula_sum   'Li6 V6 P16 O58'
_cell_volume   1176.28204236
_cell_formula_units_Z   2
loop_
 _symmetry_equiv_pos_site_id
 _symmetry_equiv_pos_as_xyz
  1  'x, y, z'
loop_
 _atom_site_type_symbol
 _atom_site_label
 _atom_site_symmetry_multiplicity
 _atom_site_fract_x
 _atom_site_fract_y
 _atom_site_fract_z
 _atom_site_occupancy
  Li  Li0  1  0.77337713  0.90765146  0.55897961  1
  Li  Li1  1  0.76948064  0.32317629  0.05156127  1
  Li  Li2  1  0.69631701  0.22151707  0.44345563  1
  Li  Li3  1  0.31269610  0.77445466  0.56225291  1
  Li  Li4  1  0.22329883  0.09140395  0.44472896  1
  Li  Li5  1  0.03954460  0.94680148  0.99333910  1
  V  V6  1  0.56114425  0.43954959  0.24849514  1
  V  V7  1  0.43224647  0.56339665  0.75431042  1
  V  V8  1  0.56342577  0.00192620  0.76053024  1
  V  V9  1  0.43609159  0.99863371  0.23868243  1
  V  V10  1  0.99860023  0.56595442  0.24998037  1
  V  V11  1  0.99970445  0.43677953  0.74899231  1
  P  P12  1  0.92084639  0.77398573  0.84379325  1
  P  P13  1  0.76780604  0.91253256  0.33944240  1
  P  P14  1  0.91377203  0.31513244  0.34327469  1
  P  P15  1  0.66996859  0.66186706  0.13042582  1
  P  P16  1  0.66175792  0.67277062  0.63308951  1
  P  P17  1  0.77616428  0.31341599  0.83858843  1
  P  P18  1  0.68038338  0.22709341  0.65952257  1
  P  P19  1  0.30321568  0.91539975  0.84207103  1
  P  P20  1  0.69488546  0.08661675  0.15739510  1
  P  P21  1  0.31797432  0.77502460  0.34209117  1
  P  P22  1  0.21890654  0.69441189  0.16124035  1
  P  P23  1  0.33521770  0.32852403  0.36544515  1
  P  P24  1  0.33003248  0.33533286  0.87035430  1
  P  P25  1  0.08528466  0.68725358  0.65841139  1
  P  P26  1  0.23096480  0.08936061  0.66061712  1
  P  P27  1  0.07886854  0.22811914  0.15827202  1
  O  O28  1  0.99337874  0.77293506  0.57396564  1
  O  O29  1  0.91199373  0.74447425  0.33297947  1
  O  O30  1  0.79036477  0.00624378  0.07386517  1
  O  O31  1  0.74363269  0.90839396  0.83151310  1
  O  O32  1  0.92418973  0.61504803  0.83101991  1
  O  O33  1  0.81211812  0.66711019  0.17722527  1
  O  O34  1  0.90783161  0.47420109  0.32460264  1
  O  O35  1  0.99379024  0.21681099  0.07492252  1
  O  O36  1  0.91464144  0.34622144  0.82898731  1
  O  O37  1  0.65891204  0.82208292  0.67645520  1
  O  O38  1  0.61580133  0.90594519  0.31713250  1
  O  O39  1  0.81329462  0.52914608  0.67965211  1
  O  O40  1  0.67216791  0.65273283  0.02649256  1
  O  O41  1  0.66578064  0.67437012  0.52853150  1
  O  O42  1  0.67384280  0.50931630  0.17297033  1
  O  O43  1  0.46144111  0.91913226  0.83292057  1
  O  O44  1  0.51675528  0.81132044  0.17179741  1
  O  O45  1  0.74228463  0.34139808  0.34018935  1
  O  O46  1  0.79270840  0.20639669  0.74872001  1
  O  O47  1  0.75238801  0.23398539  0.56905624  1
  O  O48  1  0.77873113  0.23572466  0.92852542  1
  O  O49  1  0.61788777  0.47303717  0.82378231  1
  O  O50  1  0.51302253  0.66761421  0.67153256  1
  O  O51  1  0.65621398  0.26211893  0.16388706  1
  O  O52  1  0.47882772  0.62186298  0.31856282  1
  O  O53  1  0.33907505  0.92133683  0.33348710  1
  O  O54  1  0.78805162  0.01082682  0.25520256  1
  O  O55  1  0.75475037  0.99645107  0.43014747  1
  O  O56  1  0.24279560  0.00395512  0.57051921  1
  O  O57  1  0.65843715  0.08086135  0.66564484  1
  O  O58  1  0.52149534  0.38049210  0.68038434  1
  O  O59  1  0.34607422  0.74014192  0.83020072  1
  O  O60  1  0.48460369  0.33326180  0.32323357  1
  O  O61  1  0.38049794  0.53544283  0.17463936  1
  O  O62  1  0.20865730  0.78620972  0.07705621  1
  O  O63  1  0.25572091  0.76272832  0.43469234  1
  O  O64  1  0.20246364  0.79170788  0.25697975  1
  O  O65  1  0.25702355  0.65932483  0.65988816  1
  O  O66  1  0.48316356  0.18688793  0.82714426  1
  O  O67  1  0.53475335  0.08507343  0.16919600  1
  O  O68  1  0.33089576  0.48387355  0.82520062  1
  O  O69  1  0.33573905  0.33530726  0.97412881  1
  O  O70  1  0.34103421  0.32493497  0.46976127  1
  O  O71  1  0.18606520  0.47357413  0.32103905  1
  O  O72  1  0.38344220  0.09445643  0.68162917  1
  O  O73  1  0.33837618  0.17914112  0.32255991  1
  O  O74  1  0.08533133  0.65359860  0.17003206  1
  O  O75  1  0.00633959  0.79192048  0.75147182  1
  O  O76  1  0.99294874  0.79741156  0.92877748  1
  O  O77  1  0.09195752  0.52731066  0.67552183  1
  O  O78  1  0.18661865  0.33297554  0.82375885  1
  O  O79  1  0.07885207  0.38546297  0.17088303  1
  O  O80  1  0.25453232  0.09108379  0.16513325  1
  O  O81  1  0.20414565  0.99114492  0.92553311  1
  O  O82  1  0.20776263  0.99482905  0.74561033  1
  O  O83  1  0.08777558  0.25841314  0.66577626  1
  O  O84  1  0.00403184  0.23071331  0.42837766  1
  O  O85  1  0.99771638  0.20725050  0.25165892  1
