# generated using pymatgen
data_Li4Fe3OF11
_symmetry_space_group_name_H-M   'P 1'
_cell_length_a   6.16867986
_cell_length_b   5.96300374
_cell_length_c   5.87147491
_cell_angle_alpha   98.26805097
_cell_angle_beta   100.01993328
_cell_angle_gamma   99.93134972
_symmetry_Int_Tables_number   1
_chemical_formula_structural   Li4Fe3OF11
_chemical_formula_sum   'Li4 Fe3 O1 F11'
_cell_volume   206.10354055
_cell_formula_units_Z   1
loop_
 _symmetry_equiv_pos_site_id
 _symmetry_equiv_pos_as_xyz
  1  'x, y, z'
loop_
 _atom_site_type_symbol
 _atom_site_label
 _atom_site_symmetry_multiplicity
 _atom_site_fract_x
 _atom_site_fract_y
 _atom_site_fract_z
 _atom_site_occupancy
  Li  Li0  1  0.41680753  0.66569690  0.87686975  1
  Li  Li1  1  0.69019778  0.86756078  0.39800454  1
  Li  Li2  1  0.59873309  0.33700363  0.14013958  1
  Li  Li3  1  0.85414457  0.39709008  0.67090923  1
  Fe  Fe4  1  0.13315458  0.62624512  0.31293470  1
  Fe  Fe5  1  0.99280883  0.99640098  0.00593237  1
  Fe  Fe6  1  0.34160883  0.14285378  0.59090540  1
  O  O7  1  0.12669017  0.95446651  0.32095520  1
  F  F8  1  0.04631965  0.67847313  0.92010040  1
  F  F9  1  0.40683588  0.82037216  0.60122091  1
  F  F10  1  0.18311021  0.40735864  0.56281705  1
  F  F11  1  0.69372051  0.88237655  0.05377032  1
  F  F12  1  0.39438433  0.56923108  0.19048579  1
  F  F13  1  0.57837825  0.39850978  0.80651739  1
  F  F14  1  0.29134063  0.10749490  0.91855125  1
  F  F15  1  0.84290162  0.60076248  0.41771664  1
  F  F16  1  0.57132874  0.17691015  0.39988630  1
  F  F17  1  0.95498687  0.31749873  0.11748717  1
  F  F18  1  0.88254791  0.05369460  0.69479502  1
