# generated using pymatgen
data_Mn6O11F
_symmetry_space_group_name_H-M   'P 1'
_cell_length_a   7.08658463
_cell_length_b   5.39327403
_cell_length_c   5.39327403
_cell_angle_alpha   71.67764794
_cell_angle_beta   71.96284684
_cell_angle_gamma   71.96284684
_symmetry_Int_Tables_number   1
_chemical_formula_structural   Mn6O11F
_chemical_formula_sum   'Mn6 O11 F1'
_cell_volume   180.84433475
_cell_formula_units_Z   1
loop_
 _symmetry_equiv_pos_site_id
 _symmetry_equiv_pos_as_xyz
  1  'x, y, z'
loop_
 _atom_site_type_symbol
 _atom_site_label
 _atom_site_symmetry_multiplicity
 _atom_site_fract_x
 _atom_site_fract_y
 _atom_site_fract_z
 _atom_site_occupancy
  Mn  Mn0  1  0.83436283  0.66778297  0.66778297  1
  Mn  Mn1  1  0.33236773  0.65554143  0.65554143  1
  Mn  Mn2  1  0.66899254  0.33774772  0.33774772  1
  Mn  Mn3  1  0.16178718  0.33110026  0.33110026  1
  Mn  Mn4  1  0.51141341  0.00620474  0.00620474  1
  Mn  Mn5  1  0.99019401  0.00069601  0.00069601  1
  O  O6  1  0.66415906  0.02831174  0.64040653  1
  O  O7  1  0.33451413  0.36056714  0.97057622  1
  O  O8  1  0.62860596  0.56530135  0.56530135  1
  O  O9  1  0.96105137  0.23162300  0.23162300  1
  O  O10  1  0.70226347  0.10586004  0.10586004  1
  O  O11  1  0.37086101  0.43230935  0.43230935  1
  O  O12  1  0.03834839  0.76724074  0.76724074  1
  O  O13  1  0.00103134  0.30568806  0.69571023  1
  O  O14  1  0.33451413  0.97057622  0.36056714  1
  O  O15  1  0.66415906  0.64040653  0.02831174  1
  O  O16  1  0.00103134  0.69571023  0.30568806  1
  F  F17  1  0.30034403  0.89733248  0.89733248  1
