# generated using pymatgen
data_LiMnP3H8O13
_symmetry_space_group_name_H-M   'P 1'
_cell_length_a   7.71211238
_cell_length_b   10.01930000
_cell_length_c   7.13654088
_cell_angle_alpha   105.62689375
_cell_angle_beta   101.83381328
_cell_angle_gamma   84.01389316
_symmetry_Int_Tables_number   1
_chemical_formula_structural   LiMnP3H8O13
_chemical_formula_sum   'Li2 Mn2 P6 H16 O26'
_cell_volume   519.06602805
_cell_formula_units_Z   2
loop_
 _symmetry_equiv_pos_site_id
 _symmetry_equiv_pos_as_xyz
  1  'x, y, z'
loop_
 _atom_site_type_symbol
 _atom_site_label
 _atom_site_symmetry_multiplicity
 _atom_site_fract_x
 _atom_site_fract_y
 _atom_site_fract_z
 _atom_site_occupancy
  Li  Li0  1  0.00000000  0.00000000  0.00000000  1
  Li  Li1  1  0.50000000  0.50000000  0.00000000  1
  Mn  Mn2  1  0.19098796  0.23803529  0.81864032  1
  Mn  Mn3  1  0.80901204  0.76196471  0.18135968  1
  P  P4  1  0.19450231  0.25719071  0.32687869  1
  P  P5  1  0.19536918  0.52250510  0.24065577  1
  P  P6  1  0.53899813  0.26909501  0.59412649  1
  P  P7  1  0.46100187  0.73090499  0.40587351  1
  P  P8  1  0.80463082  0.47749490  0.75934423  1
  P  P9  1  0.80549769  0.74280929  0.67312131  1
  H  H10  1  0.01895322  0.03403808  0.36082748  1
  H  H11  1  0.18136143  0.56965698  0.81845090  1
  H  H12  1  0.13621430  0.89820035  0.30986848  1
  H  H13  1  0.25907373  0.79548813  0.92099907  1
  H  H14  1  0.30537210  0.60176245  0.69038950  1
  H  H15  1  0.33807151  0.98853543  0.85640812  1
  H  H16  1  0.37513000  0.99468880  0.64946546  1
  H  H17  1  0.34185750  0.91506504  0.09924095  1
  H  H18  1  0.65814250  0.08493496  0.90075905  1
  H  H19  1  0.62487000  0.00531120  0.35053454  1
  H  H20  1  0.66192849  0.01146457  0.14359188  1
  H  H21  1  0.69462790  0.39823755  0.30961050  1
  H  H22  1  0.74092627  0.20451187  0.07900093  1
  H  H23  1  0.86378570  0.10179965  0.69013152  1
  H  H24  1  0.81863857  0.43034302  0.18154910  1
  H  H25  1  0.98104678  0.96596192  0.63917252  1
  O  O26  1  0.12196576  0.20869788  0.47613195  1
  O  O27  1  0.01556960  0.93987965  0.27069247  1
  O  O28  1  0.03997052  0.61757975  0.19282306  1
  O  O29  1  0.13960080  0.42324620  0.36248309  1
  O  O30  1  0.14539427  0.18726112  0.11109612  1
  O  O31  1  0.25324157  0.89822650  0.97629952  1
  O  O32  1  0.28543394  0.62011367  0.82653143  1
  O  O33  1  0.37693559  0.05218493  0.78675500  1
  O  O34  1  0.43754140  0.32585749  0.75990327  1
  O  O35  1  0.28913545  0.43658631  0.07989340  1
  O  O36  1  0.34300072  0.60836192  0.41933602  1
  O  O37  1  0.40998481  0.25328211  0.38078033  1
  O  O38  1  0.34801607  0.86302262  0.41414251  1
  O  O39  1  0.65198393  0.13697738  0.58585749  1
  O  O40  1  0.59001519  0.74671789  0.61921967  1
  O  O41  1  0.65699928  0.39163808  0.58066398  1
  O  O42  1  0.71086455  0.56341369  0.92010660  1
  O  O43  1  0.56245860  0.67414251  0.24009673  1
  O  O44  1  0.62306441  0.94781507  0.21324500  1
  O  O45  1  0.71456606  0.37988633  0.17346857  1
  O  O46  1  0.74675843  0.10177350  0.02370048  1
  O  O47  1  0.85460573  0.81273888  0.88890388  1
  O  O48  1  0.86039920  0.57675380  0.63751691  1
  O  O49  1  0.96002948  0.38242025  0.80717694  1
  O  O50  1  0.98443040  0.06012035  0.72930753  1
  O  O51  1  0.87803424  0.79130212  0.52386805  1
