# generated using pymatgen
data_NiH18(IN)6
_symmetry_space_group_name_H-M   'P 1'
_cell_length_a   11.03128497
_cell_length_b   11.03128497
_cell_length_c   8.95050095
_cell_angle_alpha   81.80919881
_cell_angle_beta   98.19080119
_cell_angle_gamma   90.78218238
_symmetry_Int_Tables_number   1
_chemical_formula_structural   NiH18(IN)6
_chemical_formula_sum   'Ni2 H36 I12 N12'
_cell_volume   1067.04732369
_cell_formula_units_Z   2
loop_
 _symmetry_equiv_pos_site_id
 _symmetry_equiv_pos_as_xyz
  1  'x, y, z'
loop_
 _atom_site_type_symbol
 _atom_site_label
 _atom_site_symmetry_multiplicity
 _atom_site_fract_x
 _atom_site_fract_y
 _atom_site_fract_z
 _atom_site_occupancy
  Ni  Ni0  1  0.00000000  0.50000000  0.00000000  1
  Ni  Ni1  1  0.50000000  0.00000000  0.50000000  1
  H  H2  1  0.10189798  0.72441679  0.96954631  1
  H  H3  1  0.38093948  0.94333113  0.74336575  1
  H  H4  1  0.27558321  0.89810202  0.46954631  1
  H  H5  1  0.12571704  0.65834623  0.82319537  1
  H  H6  1  0.05666887  0.61906052  0.24336575  1
  H  H7  1  0.34165377  0.87428296  0.32319537  1
  H  H8  1  0.05467252  0.47526363  0.72198356  1
  H  H9  1  0.52473637  0.94532748  0.22198356  1
  H  H10  1  0.08460461  0.34424288  0.83246376  1
  H  H11  1  0.72082193  0.99244814  0.67499110  1
  H  H12  1  0.54951977  0.80301987  0.71512482  1
  H  H13  1  0.48287103  0.75400452  0.55879685  1
  H  H14  1  0.65575712  0.91539539  0.33246376  1
  H  H15  1  0.00755186  0.27917807  0.17499110  1
  H  H16  1  0.19698013  0.45048023  0.21512482  1
  H  H17  1  0.62962980  0.78953695  0.57665642  1
  H  H18  1  0.24599548  0.51712897  0.05879685  1
  H  H19  1  0.21046305  0.37037020  0.07665642  1
  H  H20  1  0.78953695  0.62962980  0.92334358  1
  H  H21  1  0.75400452  0.48287103  0.94120315  1
  H  H22  1  0.37037020  0.21046305  0.42334358  1
  H  H23  1  0.80301987  0.54951977  0.78487518  1
  H  H24  1  0.99244814  0.72082193  0.82500890  1
  H  H25  1  0.34424288  0.08460461  0.66753624  1
  H  H26  1  0.51712897  0.24599548  0.44120315  1
  H  H27  1  0.45048023  0.19698013  0.28487518  1
  H  H28  1  0.27917807  0.00755186  0.32500890  1
  H  H29  1  0.91539539  0.65575712  0.16753624  1
  H  H30  1  0.47526363  0.05467252  0.77801644  1
  H  H31  1  0.94532748  0.52473637  0.27801644  1
  H  H32  1  0.65834623  0.12571704  0.67680463  1
  H  H33  1  0.94333113  0.38093948  0.75663425  1
  H  H34  1  0.87428296  0.34165377  0.17680463  1
  H  H35  1  0.72441679  0.10189798  0.53045369  1
  H  H36  1  0.61906052  0.05666887  0.25663425  1
  H  H37  1  0.89810202  0.27558321  0.03045369  1
  I  I38  1  0.25231370  0.60196508  0.54945707  1
  I  I39  1  0.39803492  0.74768630  0.04945707  1
  I  I40  1  0.76209765  0.87151024  0.99766593  1
  I  I41  1  0.12848976  0.23790235  0.49766593  1
  I  I42  1  0.43072723  0.43072723  0.75000000  1
  I  I43  1  0.00000000  0.00000000  0.50000000  1
  I  I44  1  0.56927277  0.56927277  0.25000000  1
  I  I45  1  0.87151024  0.76209765  0.50233407  1
  I  I46  1  0.00000000  0.00000000  0.00000000  1
  I  I47  1  0.23790235  0.12848976  0.00233407  1
  I  I48  1  0.60196508  0.25231370  0.95054293  1
  I  I49  1  0.74768630  0.39803492  0.45054293  1
  N  N50  1  0.06193292  0.67019193  0.89299490  1
  N  N51  1  0.32980807  0.93806708  0.39299490  1
  N  N52  1  0.02299546  0.41586111  0.80630826  1
  N  N53  1  0.58413889  0.97700454  0.30630826  1
  N  N54  1  0.54566294  0.81523970  0.59871558  1
  N  N55  1  0.18476030  0.45433706  0.09871558  1
  N  N56  1  0.81523970  0.54566294  0.90128442  1
  N  N57  1  0.45433706  0.18476030  0.40128442  1
  N  N58  1  0.41586111  0.02299546  0.69369174  1
  N  N59  1  0.97700454  0.58413889  0.19369174  1
  N  N60  1  0.67019193  0.06193292  0.60700510  1
  N  N61  1  0.93806708  0.32980807  0.10700510  1
