# generated using pymatgen
data_Li4CrSb(TeO6)2
_symmetry_space_group_name_H-M   'P 1'
_cell_length_a   5.41081387
_cell_length_b   10.81822332
_cell_length_c   9.50671384
_cell_angle_alpha   28.52097688
_cell_angle_beta   51.76120388
_cell_angle_gamma   57.07060324
_symmetry_Int_Tables_number   1
_chemical_formula_structural   Li4CrSb(TeO6)2
_chemical_formula_sum   'Li4 Cr1 Sb1 Te2 O12'
_cell_volume   208.69709195
_cell_formula_units_Z   1
loop_
 _symmetry_equiv_pos_site_id
 _symmetry_equiv_pos_as_xyz
  1  'x, y, z'
loop_
 _atom_site_type_symbol
 _atom_site_label
 _atom_site_symmetry_multiplicity
 _atom_site_fract_x
 _atom_site_fract_y
 _atom_site_fract_z
 _atom_site_occupancy
  Li  Li0  1  0.31174208  0.00217331  0.26341004  1
  Li  Li1  1  0.25682367  0.49670872  0.30700774  1
  Li  Li2  1  0.77974051  0.99633877  0.80904097  1
  Li  Li3  1  0.78008376  0.50430282  0.74708458  1
  Cr  Cr4  1  0.00763879  0.99953884  0.00135633  1
  Sb  Sb5  1  0.99747487  0.50081942  0.00267530  1
  Te  Te6  1  0.50232983  -0.00003480  0.50136352  1
  Te  Te7  1  0.50019623  0.50003814  0.50097885  1
  O  O8  1  0.38726415  0.30610828  0.11604196  1
  O  O9  1  0.24668575  0.12698836  0.61292305  1
  O  O10  1  0.13860319  0.32671310  0.72183966  1
  O  O11  1  0.88562840  0.18620487  0.23652753  1
  O  O12  1  0.38226588  0.79501770  0.13479957  1
  O  O13  1  0.73774148  0.36286574  0.38698825  1
  O  O14  1  0.23094617  0.63290065  0.61869600  1
  O  O15  1  0.62711843  0.18949626  0.86052094  1
  O  O16  1  0.11481600  0.82840419  0.73505732  1
  O  O17  1  0.86232845  0.69017475  0.24482445  1
  O  O18  1  0.71439808  0.87739063  0.38335862  1
  O  O19  1  0.60737428  0.67785225  0.88670431  1
