# generated using pymatgen
data_Fe6OF11
_symmetry_space_group_name_H-M   'P 1'
_cell_length_a   4.83752860
_cell_length_b   4.83752860
_cell_length_c   9.69334408
_cell_angle_alpha   90.00000000
_cell_angle_beta   90.00000000
_cell_angle_gamma   89.54044705
_symmetry_Int_Tables_number   1
_chemical_formula_structural   Fe6OF11
_chemical_formula_sum   'Fe6 O1 F11'
_cell_volume   226.83326853
_cell_formula_units_Z   1
loop_
 _symmetry_equiv_pos_site_id
 _symmetry_equiv_pos_as_xyz
  1  'x, y, z'
loop_
 _atom_site_type_symbol
 _atom_site_label
 _atom_site_symmetry_multiplicity
 _atom_site_fract_x
 _atom_site_fract_y
 _atom_site_fract_z
 _atom_site_occupancy
  Fe  Fe0  1  0.00941443  0.99058557  0.01526015  1
  Fe  Fe1  1  0.00941443  0.99058557  0.31807285  1
  Fe  Fe2  1  0.00014667  0.99985333  0.66666700  1
  Fe  Fe3  1  0.48062649  0.51937351  0.16666700  1
  Fe  Fe4  1  0.50360243  0.49639757  0.83482026  1
  Fe  Fe5  1  0.50360243  0.49639757  0.49851274  1
  O  O6  1  0.19421038  0.80578962  0.16666700  1
  F  F7  1  0.19908977  0.80091023  0.49450103  1
  F  F8  1  0.19908977  0.80091023  0.83883297  1
  F  F9  1  0.29293778  0.29372626  0.99682556  1
  F  F10  1  0.29293778  0.29372626  0.33650844  1
  F  F11  1  0.30004290  0.29646461  0.66666700  1
  F  F12  1  0.70627374  0.70706222  0.99682556  1
  F  F13  1  0.70627374  0.70706222  0.33650844  1
  F  F14  1  0.70353539  0.69995710  0.66666700  1
  F  F15  1  0.78578386  0.21421614  0.16666700  1
  F  F16  1  0.80651101  0.19348899  0.84105056  1
  F  F17  1  0.80651101  0.19348899  0.49228244  1
