# generated using pymatgen
data_Mn6O5F7
_symmetry_space_group_name_H-M   'P 1'
_cell_length_a   4.81155607
_cell_length_b   7.89571918
_cell_length_c   5.73791983
_cell_angle_alpha   94.23307903
_cell_angle_beta   94.79058587
_cell_angle_gamma   86.39437775
_symmetry_Int_Tables_number   1
_chemical_formula_structural   Mn6O5F7
_chemical_formula_sum   'Mn6 O5 F7'
_cell_volume   216.28028102
_cell_formula_units_Z   1
loop_
 _symmetry_equiv_pos_site_id
 _symmetry_equiv_pos_as_xyz
  1  'x, y, z'
loop_
 _atom_site_type_symbol
 _atom_site_label
 _atom_site_symmetry_multiplicity
 _atom_site_fract_x
 _atom_site_fract_y
 _atom_site_fract_z
 _atom_site_occupancy
  Mn  Mn0  1  0.49823279  0.00649681  0.51216958  1
  Mn  Mn1  1  0.56005564  0.66729855  0.16099269  1
  Mn  Mn2  1  0.50757309  0.32305278  0.83459290  1
  Mn  Mn3  1  0.97338634  0.67805751  0.66691293  1
  Mn  Mn4  1  0.00022871  0.32986131  0.33547200  1
  Mn  Mn5  1  0.97750131  0.99372435  0.99258409  1
  O  O6  1  0.82401999  0.77526908  0.94908358  1
  O  O7  1  0.69598566  0.10132755  0.79839440  1
  O  O8  1  0.69304014  0.78598966  0.46986271  1
  O  O9  1  0.70401600  0.42164985  0.12154272  1
  O  O10  1  0.30582766  0.23403084  0.53952221  1
  F  F11  1  0.80041789  0.43486758  0.62205471  1
  F  F12  1  0.80529945  0.10255343  0.30290775  1
  F  F13  1  0.29756095  0.55715023  0.86282173  1
  F  F14  1  0.29916321  0.90318545  0.20085554  1
  F  F15  1  0.16656519  0.57216104  0.38353540  1
  F  F16  1  0.18088498  0.21441650  0.04266923  1
  F  F17  1  0.21024201  0.89890950  0.70402583  1
