# generated using pymatgen
data_NaV4O10
_symmetry_space_group_name_H-M   'P 1'
_cell_length_a   3.67991694
_cell_length_b   6.15819067
_cell_length_c   18.76153773
_cell_angle_alpha   90.00000000
_cell_angle_beta   90.00000000
_cell_angle_gamma   107.38448089
_symmetry_Int_Tables_number   1
_chemical_formula_structural   NaV4O10
_chemical_formula_sum   'Na2 V8 O20'
_cell_volume   405.74594835
_cell_formula_units_Z   2
loop_
 _symmetry_equiv_pos_site_id
 _symmetry_equiv_pos_as_xyz
  1  'x, y, z'
loop_
 _atom_site_type_symbol
 _atom_site_label
 _atom_site_symmetry_multiplicity
 _atom_site_fract_x
 _atom_site_fract_y
 _atom_site_fract_z
 _atom_site_occupancy
  Na  Na0  1  0.07990717  0.15981534  0.25000000  1
  Na  Na1  1  0.92009283  0.84018466  0.75000000  1
  V  V2  1  0.43658381  0.87316862  0.08149918  1
  V  V3  1  0.27052174  0.54104347  0.58300441  1
  V  V4  1  0.27052174  0.54104347  0.91699559  1
  V  V5  1  0.43658381  0.87316862  0.41850082  1
  V  V6  1  0.72947826  0.45895653  0.41699559  1
  V  V7  1  0.72947826  0.45895653  0.08300441  1
  V  V8  1  0.56341619  0.12683138  0.58149918  1
  V  V9  1  0.56341619  0.12683138  0.91850082  1
  O  O10  1  0.26029442  0.52058883  0.06058197  1
  O  O11  1  0.10118554  0.20237208  0.56768796  1
  O  O12  1  0.45899562  0.91799124  0.16788543  1
  O  O13  1  0.26029442  0.52058883  0.43941803  1
  O  O14  1  0.29569036  0.59137971  0.83118774  1
  O  O15  1  0.29569036  0.59137971  0.66881226  1
  O  O16  1  0.42005761  0.84011521  0.54796471  1
  O  O17  1  0.10118554  0.20237208  0.93231204  1
  O  O18  1  0.45899562  0.91799124  0.33211457  1
  O  O19  1  0.42005761  0.84011521  0.95203529  1
  O  O20  1  0.70430964  0.40862029  0.16881226  1
  O  O21  1  0.57994239  0.15988479  0.45203529  1
  O  O22  1  0.70430964  0.40862029  0.33118774  1
  O  O23  1  0.89881446  0.79762792  0.43231204  1
  O  O24  1  0.54100438  0.08200876  0.83211457  1
  O  O25  1  0.57994239  0.15988479  0.04796471  1
  O  O26  1  0.54100438  0.08200876  0.66788543  1
  O  O27  1  0.89881446  0.79762792  0.06768796  1
  O  O28  1  0.73970558  0.47941117  0.56058197  1
  O  O29  1  0.73970558  0.47941117  0.93941803  1
