# generated using pymatgen
data_Mn7O12
_symmetry_space_group_name_H-M   'P 1'
_cell_length_a   6.38808314
_cell_length_b   6.38794896
_cell_length_c   6.38807178
_cell_angle_alpha   109.46807537
_cell_angle_beta   109.46940907
_cell_angle_gamma   109.47521128
_symmetry_Int_Tables_number   1
_chemical_formula_structural   Mn7O12
_chemical_formula_sum   'Mn7 O12'
_cell_volume   200.67121091
_cell_formula_units_Z   1
loop_
 _symmetry_equiv_pos_site_id
 _symmetry_equiv_pos_as_xyz
  1  'x, y, z'
loop_
 _atom_site_type_symbol
 _atom_site_label
 _atom_site_symmetry_multiplicity
 _atom_site_fract_x
 _atom_site_fract_y
 _atom_site_fract_z
 _atom_site_occupancy
  Mn  Mn0  1  0.00001204  0.50000535  0.50001166  1
  Mn  Mn1  1  0.99999196  0.50001933  0.00000293  1
  Mn  Mn2  1  -0.00000362  -0.00000912  0.49998030  1
  Mn  Mn3  1  0.49998759  0.49999890  0.50000352  1
  Mn  Mn4  1  0.50001353  0.00000446  0.50000574  1
  Mn  Mn5  1  0.49999353  0.49999789  0.00000077  1
  Mn  Mn6  1  0.49998381  -0.00001198  0.99999781  1
  O  O7  1  0.18979552  0.87235993  0.68256472  1
  O  O8  1  0.12764171  0.31743617  0.81020947  1
  O  O9  1  0.18980714  0.50722894  0.31742360  1
  O  O10  1  0.31741885  0.81017220  0.12762886  1
  O  O11  1  0.49276333  0.68256527  0.81020367  1
  O  O12  1  0.31743102  0.18977070  0.50719035  1
  O  O13  1  0.68257208  0.81022269  0.49280456  1
  O  O14  1  0.50723658  0.31743052  0.18979469  1
  O  O15  1  0.68258675  0.18983090  0.87237419  1
  O  O16  1  0.81019699  0.49277003  0.68257810  1
  O  O17  1  0.87235876  0.68256625  0.18978725  1
  O  O18  1  0.81021243  0.12764156  0.31743782  1
