# generated using pymatgen
data_Li9V6(P8O29)2
_symmetry_space_group_name_H-M   'P 1'
_cell_length_a   9.83127425
_cell_length_b   9.80012018
_cell_length_c   13.97076920
_cell_angle_alpha   89.88697353
_cell_angle_beta   90.00922748
_cell_angle_gamma   59.93336779
_symmetry_Int_Tables_number   1
_chemical_formula_structural   Li9V6(P8O29)2
_chemical_formula_sum   'Li9 V6 P16 O58'
_cell_volume   1164.92762554
_cell_formula_units_Z   1
loop_
 _symmetry_equiv_pos_site_id
 _symmetry_equiv_pos_as_xyz
  1  'x, y, z'
loop_
 _atom_site_type_symbol
 _atom_site_label
 _atom_site_symmetry_multiplicity
 _atom_site_fract_x
 _atom_site_fract_y
 _atom_site_fract_z
 _atom_site_occupancy
  Li  Li0  1  0.91202595  0.77594233  0.06040795  1
  Li  Li1  1  0.91179914  0.31408760  0.55674579  1
  Li  Li2  1  0.65966722  0.67052878  0.88505962  1
  Li  Li3  1  0.77467450  0.31083912  0.06258937  1
  Li  Li4  1  0.31812097  0.90733869  0.06215806  1
  Li  Li5  1  0.67798172  0.22749334  0.44001637  1
  Li  Li6  1  0.32086708  0.77318795  0.55765327  1
  Li  Li7  1  0.08925215  0.68530547  0.43845201  1
  Li  Li8  1  0.09397254  0.22539844  0.94324987  1
  V  V9  1  0.56697086  0.43240366  0.24621166  1
  V  V10  1  0.43002352  0.56960914  0.75398907  1
  V  V11  1  0.57044613  0.00261082  0.74682172  1
  V  V12  1  0.43190736  0.00413554  0.25528451  1
  V  V13  1  0.99975714  0.56851803  0.25131743  1
  V  V14  1  0.00367058  0.43211617  0.74753112  1
  P  P15  1  0.91012982  0.77138324  0.84121910  1
  P  P16  1  0.76898284  0.91648115  0.34364996  1
  P  P17  1  0.91133507  0.31934346  0.34150582  1
  P  P18  1  0.66595289  0.66938923  0.12653563  1
  P  P19  1  0.66510483  0.66699898  0.62781182  1
  P  P20  1  0.77177165  0.31986984  0.84351633  1
  P  P21  1  0.68093295  0.23438741  0.65988912  1
  P  P22  1  0.31996310  0.91245632  0.84355873  1
  P  P23  1  0.68303687  0.08352636  0.15632462  1
  P  P24  1  0.32138658  0.76627829  0.34124746  1
  P  P25  1  0.22967185  0.68373651  0.15808774  1
  P  P26  1  0.33482061  0.33547240  0.37337931  1
  P  P27  1  0.33381439  0.33147012  0.87165362  1
  P  P28  1  0.08711241  0.68580411  0.65723937  1
  P  P29  1  0.23154627  0.08338795  0.65783853  1
  P  P30  1  0.08955391  0.23131961  0.15987709  1
  O  O31  1  0.00347394  0.75169197  0.56565377  1
  O  O32  1  0.91433175  0.74888498  0.34188725  1
  O  O33  1  0.76370015  0.99297899  0.06930659  1
  O  O34  1  0.74068275  0.91515993  0.83339234  1
  O  O35  1  0.89330345  0.62133155  0.82225617  1
  O  O36  1  0.81275440  0.67464709  0.16410948  1
  O  O37  1  0.90170566  0.47997109  0.32095684  1
  O  O38  1  0.00229460  0.23876328  0.06949718  1
  O  O39  1  0.92284378  0.33649617  0.83774886  1
  O  O40  1  0.66464690  0.81433703  0.67419930  1
  O  O41  1  0.61744333  0.90507931  0.32413775  1
  O  O42  1  0.81844156  0.51332876  0.66990212  1
  O  O43  1  0.66240823  0.67060918  0.01819666  1
  O  O44  1  0.66985509  0.66267307  0.52156187  1
  O  O45  1  0.67329947  0.51345632  0.16342207  1
  O  O46  1  0.48464992  0.89394881  0.82605262  1
  O  O47  1  0.51289459  0.81701311  0.16659151  1
  O  O48  1  0.74423588  0.33941556  0.33656857  1
  O  O49  1  0.79103712  0.21217462  0.75131691  1
  O  O50  1  0.76000600  0.24043809  0.56961561  1
  O  O51  1  0.76554357  0.24513795  0.93429285  1
  O  O52  1  0.62882381  0.48692138  0.82522305  1
  O  O53  1  0.51558751  0.66869828  0.66862613  1
  O  O54  1  0.66149170  0.25135497  0.15794003  1
  O  O55  1  0.47988919  0.61867325  0.32339120  1
  O  O56  1  0.34230803  0.91315111  0.33379329  1
  O  O57  1  0.79022909  0.00029230  0.25002422  1
  O  O58  1  0.75599629  0.00841635  0.43073488  1
  O  O59  1  0.23719319  0.99260188  0.57236136  1
  O  O60  1  0.65974296  0.08738516  0.66478407  1
  O  O61  1  0.52262409  0.38471721  0.67667525  1
  O  O62  1  0.34110239  0.74583753  0.84001630  1
  O  O63  1  0.48653206  0.32772399  0.33279609  1
  O  O64  1  0.38061186  0.52207815  0.17526415  1
  O  O65  1  0.23646111  0.76944027  0.07216039  1
  O  O66  1  0.24432274  0.75950546  0.43257141  1
  O  O67  1  0.20579521  0.78681581  0.25403496  1
  O  O68  1  0.25265939  0.66550989  0.66123018  1
  O  O69  1  0.47732362  0.18138999  0.82407480  1
  O  O70  1  0.52268248  0.09312789  0.17721049  1
  O  O71  1  0.33465433  0.47709564  0.82947471  1
  O  O72  1  0.32840283  0.32239443  0.97743155  1
  O  O73  1  0.33556119  0.32826274  0.47998274  1
  O  O74  1  0.18564975  0.48770004  0.33428746  1
  O  O75  1  0.38307530  0.09129647  0.67640045  1
  O  O76  1  0.33338718  0.18578430  0.32594140  1
  O  O77  1  0.08393440  0.66143843  0.16061519  1
  O  O78  1  0.99858434  0.79195302  0.74976162  1
  O  O79  1  0.99128722  0.75941272  0.93225271  1
  O  O80  1  0.09600021  0.52397256  0.68117336  1
  O  O81  1  0.18007748  0.33265938  0.82830722  1
  O  O82  1  0.10221589  0.37796189  0.17699768  1
  O  O83  1  0.25546512  0.08102010  0.16169963  1
  O  O84  1  0.24501600  0.00188875  0.93356675  1
  O  O85  1  0.20714664  0.00635969  0.75464489  1
  O  O86  1  0.08518748  0.25433913  0.65939017  1
  O  O87  1  0.99294062  0.24676271  0.43300992  1
  O  O88  1  0.99976225  0.20907216  0.25028592  1
