# generated using pymatgen
data_Li5Mn4O8
_symmetry_space_group_name_H-M   'P 1'
_cell_length_a   6.32812726
_cell_length_b   6.32832699
_cell_length_c   10.08675298
_cell_angle_alpha   89.98845865
_cell_angle_beta   90.00030291
_cell_angle_gamma   54.65414358
_symmetry_Int_Tables_number   1
_chemical_formula_structural   Li5Mn4O8
_chemical_formula_sum   'Li10 Mn8 O16'
_cell_volume   329.48265401
_cell_formula_units_Z   2
loop_
 _symmetry_equiv_pos_site_id
 _symmetry_equiv_pos_as_xyz
  1  'x, y, z'
loop_
 _atom_site_type_symbol
 _atom_site_label
 _atom_site_symmetry_multiplicity
 _atom_site_fract_x
 _atom_site_fract_y
 _atom_site_fract_z
 _atom_site_occupancy
  Li  Li0  1  0.37514531  0.81332153  0.93902869  1
  Li  Li1  1  0.65891235  0.65819406  0.72649974  1
  Li  Li2  1  0.79387860  0.79198809  0.94080255  1
  Li  Li3  1  0.81098070  0.37530337  0.93916459  1
  Li  Li4  1  0.18622800  0.62594865  0.43881862  1
  Li  Li5  1  0.34088387  0.34158230  0.22649514  1
  Li  Li6  1  0.62441034  0.18959585  0.43888755  1
  Li  Li7  1  0.20778598  0.20763403  0.44151095  1
  Li  Li8  1  0.97345020  0.97237224  0.01852392  1
  Li  Li9  1  0.02744684  0.02682257  0.51838296  1
  Mn  Mn10  1  0.68036451  0.68083716  0.47294192  1
  Mn  Mn11  1  0.31948042  0.31909101  0.97291971  1
  Mn  Mn12  1  0.82211099  0.82324449  0.21297772  1
  Mn  Mn13  1  0.33128112  0.82947817  0.21540228  1
  Mn  Mn14  1  0.83034757  0.33100007  0.21546354  1
  Mn  Mn15  1  0.17050584  0.66872268  0.71524878  1
  Mn  Mn16  1  0.66901675  0.16980337  0.71528128  1
  Mn  Mn17  1  0.17734315  0.17724064  0.71293612  1
  O  O18  1  0.87098175  0.87016222  0.59262407  1
  O  O19  1  0.51971042  0.00011228  0.33350393  1
  O  O20  1  0.34973487  0.87667662  0.59478279  1
  O  O21  1  0.63681308  0.63697219  0.09642898  1
  O  O22  1  0.99882964  0.51953867  0.33313556  1
  O  O23  1  0.51432436  0.51431897  0.32811671  1
  O  O24  1  0.12228342  0.65004332  0.09459148  1
  O  O25  1  0.87659615  0.34933035  0.59463821  1
  O  O26  1  0.48580373  0.48558090  0.82792733  1
  O  O27  1  0.00056788  0.47954180  0.83335093  1
  O  O28  1  0.36306541  0.36310315  0.59620852  1
  O  O29  1  0.65060726  0.12424927  0.09486823  1
  O  O30  1  0.48098984  0.00050259  0.83297976  1
  O  O31  1  0.13009559  0.12881951  0.09268924  1
  O  O32  1  0.98255973  0.98189511  0.82890549  1
  O  O33  1  0.01778532  0.01694176  0.32885272  1
