# generated using pymatgen
data_Li2Mn3(BO3)3
_symmetry_space_group_name_H-M   'P 1'
_cell_length_a   11.78718456
_cell_length_b   5.29067278
_cell_length_c   6.19039916
_cell_angle_alpha   87.36212614
_cell_angle_beta   95.46909200
_cell_angle_gamma   101.06455964
_symmetry_Int_Tables_number   1
_chemical_formula_structural   Li2Mn3(BO3)3
_chemical_formula_sum   'Li4 Mn6 B6 O18'
_cell_volume   376.99382227
_cell_formula_units_Z   2
loop_
 _symmetry_equiv_pos_site_id
 _symmetry_equiv_pos_as_xyz
  1  'x, y, z'
loop_
 _atom_site_type_symbol
 _atom_site_label
 _atom_site_symmetry_multiplicity
 _atom_site_fract_x
 _atom_site_fract_y
 _atom_site_fract_z
 _atom_site_occupancy
  Li  Li0  1  0.45796638  0.16053283  0.85943969  1
  Li  Li1  1  0.80237830  0.81341488  0.54032279  1
  Li  Li2  1  0.54008327  0.84444550  0.14461454  1
  Li  Li3  1  0.13207358  0.47754687  0.21166867  1
  Mn  Mn4  1  0.78853972  0.97627071  0.97186664  1
  Mn  Mn5  1  0.87877083  0.35071371  0.37531551  1
  Mn  Mn6  1  0.55054131  0.69729569  0.69687003  1
  Mn  Mn7  1  0.44659560  0.30845740  0.31011304  1
  Mn  Mn8  1  0.12011475  0.65032331  0.63596739  1
  Mn  Mn9  1  0.21082004  0.01914495  0.03617234  1
  B  B10  1  0.66385367  0.25501900  0.59192309  1
  B  B11  1  0.99814740  0.92342400  0.25903240  1
  B  B12  1  0.32975453  0.59212154  0.92799294  1
  B  B13  1  0.66913251  0.41072038  0.09131428  1
  B  B14  1  0.00447054  0.07966124  0.73533516  1
  B  B15  1  0.33512359  0.74446148  0.38662866  1
  O  O16  1  0.99037120  0.31625503  0.63300638  1
  O  O17  1  0.91404394  0.89899907  0.79109360  1
  O  O18  1  0.68622957  0.00918691  0.64332173  1
  O  O19  1  0.74821218  0.44895494  0.51884526  1
  O  O20  1  0.55358598  0.30786674  0.61932501  1
  O  O21  1  0.89068572  0.98784056  0.29164059  1
  O  O22  1  0.34313117  0.33903387  0.97175549  1
  O  O23  1  0.78022455  0.34519132  0.09969892  1
  O  O24  1  0.42067736  0.78343010  0.87638427  1
  O  O25  1  0.57479781  0.21818340  0.12517631  1
  O  O26  1  0.22048570  0.65324920  0.95469655  1
  O  O27  1  0.65415756  0.65998997  0.03178043  1
  O  O28  1  0.11867059  0.02793560  0.75923670  1
  O  O29  1  0.44825307  0.69694679  0.38332098  1
  O  O30  1  0.24840922  0.56664889  0.46038464  1
  O  O31  1  0.31596698  0.98568503  0.29868395  1
  O  O32  1  0.08371613  0.11229270  0.18500008  1
  O  O33  1  0.01349525  0.67328640  0.31155992  1
