# generated using pymatgen
data_LiCuSbO4
_symmetry_space_group_name_H-M   'P 1'
_cell_length_a   6.10354464
_cell_length_b   6.23142542
_cell_length_c   6.23142500
_cell_angle_alpha   56.07934393
_cell_angle_beta   60.67656675
_cell_angle_gamma   60.67656894
_symmetry_Int_Tables_number   1
_chemical_formula_structural   LiCuSbO4
_chemical_formula_sum   'Li2 Cu2 Sb2 O8'
_cell_volume   163.61656371
_cell_formula_units_Z   2
loop_
 _symmetry_equiv_pos_site_id
 _symmetry_equiv_pos_as_xyz
  1  'x, y, z'
loop_
 _atom_site_type_symbol
 _atom_site_label
 _atom_site_symmetry_multiplicity
 _atom_site_fract_x
 _atom_site_fract_y
 _atom_site_fract_z
 _atom_site_occupancy
  Li  Li0  1  0.10016450  0.14983550  0.14983550  1
  Li  Li1  1  0.89983550  0.85016450  0.85016450  1
  Cu  Cu2  1  0.50000000  0.00000000  0.50000000  1
  Cu  Cu3  1  0.50000000  0.50000000  0.00000000  1
  Sb  Sb4  1  0.00000000  0.50000000  0.50000000  1
  Sb  Sb5  1  0.50000000  0.50000000  0.50000000  1
  O  O6  1  0.24794006  0.28159693  0.28159693  1
  O  O7  1  0.23584671  0.28465434  0.74365324  1
  O  O8  1  0.23584671  0.74365324  0.28465434  1
  O  O9  1  0.68886608  0.28159693  0.28159693  1
  O  O10  1  0.31113392  0.71840307  0.71840307  1
  O  O11  1  0.76415329  0.71534566  0.25634676  1
  O  O12  1  0.76415329  0.25634676  0.71534566  1
  O  O13  1  0.75205994  0.71840307  0.71840307  1
