# generated using pymatgen
data_Li3MnF5
_symmetry_space_group_name_H-M   'P 1'
_cell_length_a   9.22704340
_cell_length_b   9.26984383
_cell_length_c   10.34103311
_cell_angle_alpha   72.93574494
_cell_angle_beta   72.76617739
_cell_angle_gamma   68.27798762
_symmetry_Int_Tables_number   1
_chemical_formula_structural   Li3MnF5
_chemical_formula_sum   'Li24 Mn8 F40'
_cell_volume   767.78146399
_cell_formula_units_Z   8
loop_
 _symmetry_equiv_pos_site_id
 _symmetry_equiv_pos_as_xyz
  1  'x, y, z'
loop_
 _atom_site_type_symbol
 _atom_site_label
 _atom_site_symmetry_multiplicity
 _atom_site_fract_x
 _atom_site_fract_y
 _atom_site_fract_z
 _atom_site_occupancy
  Li  Li0  1  0.39854487  0.90028617  0.28546572  1
  Li  Li1  1  0.05651608  0.56407535  0.09327271  1
  Li  Li2  1  0.18875515  0.72290759  0.85263673  1
  Li  Li3  1  0.31182805  0.79405502  0.11130072  1
  Li  Li4  1  0.43129369  0.92497727  0.88081013  1
  Li  Li5  1  0.14482156  0.64254201  0.28758588  1
  Li  Li6  1  0.39292832  0.40650848  0.79141278  1
  Li  Li7  1  0.20000900  0.20789713  0.36930398  1
  Li  Li8  1  0.71220613  0.71621983  0.35668686  1
  Li  Li9  1  0.02832144  0.04357439  0.63380628  1
  Li  Li10  1  0.55252677  0.56719144  0.59808087  1
  Li  Li11  1  0.97279831  0.95111657  0.36730157  1
  Li  Li12  1  0.46246682  0.45538577  0.36021822  1
  Li  Li13  1  0.31512909  0.30278989  0.59725864  1
  Li  Li14  1  0.82143347  0.80767715  0.61518749  1
  Li  Li15  1  0.14700633  0.15066706  0.78809476  1
  Li  Li16  1  0.64967667  0.64261789  0.78746876  1
  Li  Li17  1  0.90221818  0.40890920  0.27797094  1
  Li  Li18  1  0.55449692  0.06430709  0.09845860  1
  Li  Li19  1  0.72975040  0.22627529  0.86616226  1
  Li  Li20  1  0.81577156  0.30322527  0.09809732  1
  Li  Li21  1  0.97143381  0.46952388  0.86532878  1
  Li  Li22  1  0.60242804  0.08515614  0.74464006  1
  Li  Li23  1  0.65001907  0.14399502  0.28573138  1
  Mn  Mn24  1  0.23792194  0.73566309  0.51626810  1
  Mn  Mn25  1  0.98609957  0.48645185  0.52260000  1
  Mn  Mn26  1  0.74533765  0.74860928  0.00362019  1
  Mn  Mn27  1  0.98412718  0.98106781  0.02160911  1
  Mn  Mn28  1  0.23736586  0.23073127  0.02117603  1
  Mn  Mn29  1  0.48566762  0.48391607  0.02152462  1
  Mn  Mn30  1  0.48543829  0.98217600  0.52098960  1
  Mn  Mn31  1  0.74394196  0.24928818  0.50154844  1
  F  F32  1  0.10207305  0.95171303  0.80794383  1
  F  F33  1  0.00562550  0.87208068  0.57742785  1
  F  F34  1  0.27926304  0.96742600  0.48492606  1
  F  F35  1  0.11065930  0.74730754  0.09927743  1
  F  F36  1  0.20149606  0.83830383  0.30209842  1
  F  F37  1  0.09096155  0.44548734  0.30750277  1
  F  F38  1  0.59358745  0.94483322  0.30779038  1
  F  F39  1  0.32013453  0.63046146  0.69923293  1
  F  F40  1  0.50062919  0.86009198  0.09394239  1
  F  F41  1  0.00157962  0.35913919  0.09571986  1
  F  F42  1  0.41315650  0.72368708  0.91614441  1
  F  F43  1  0.22327367  0.52138497  0.48869237  1
  F  F44  1  0.28012446  0.45826082  0.98838230  1
  F  F45  1  0.76979507  0.97373001  0.99663124  1
  F  F46  1  0.10985817  0.24872600  0.60044985  1
  F  F47  1  0.60878079  0.74895114  0.60123769  1
  F  F48  1  0.48432931  0.66979739  0.41306341  1
  F  F49  1  0.37914989  0.56769160  0.20277891  1
  F  F50  1  0.66723751  0.85522562  0.80559142  1
  F  F51  1  0.19559487  0.33707532  0.80801860  1
  F  F52  1  0.82272672  0.63647160  0.19250143  1
  F  F53  1  0.32478947  0.13188737  0.20077137  1
  F  F54  1  0.59342379  0.44642059  0.80703307  1
  F  F55  1  0.50622780  0.34812583  0.60697486  1
  F  F56  1  0.42651040  0.22917767  0.41600321  1
  F  F57  1  0.92696597  0.72986532  0.41301754  1
  F  F58  1  0.21918685  0.02108253  0.99138902  1
  F  F59  1  0.71827838  0.53262055  0.98306027  1
  F  F60  1  0.77562670  0.47691211  0.48262671  1
  F  F61  1  0.61449893  0.25042878  0.09658189  1
  F  F62  1  0.99199270  0.65554482  0.91378317  1
  F  F63  1  0.48588024  0.17216402  0.90604224  1
  F  F64  1  0.69306717  0.34564380  0.29936904  1
  F  F65  1  0.39810202  0.07055172  0.70683246  1
  F  F66  1  0.88431263  0.57666781  0.70279461  1
  F  F67  1  0.79426692  0.14633325  0.69937954  1
  F  F68  1  0.92060019  0.22953570  0.91385867  1
  F  F69  1  0.70958904  0.03008096  0.50561100  1
  F  F70  1  0.98337382  0.18171717  0.40280525  1
  F  F71  1  0.88320193  0.06737373  0.20546299  1
