# generated using pymatgen
data_InH10C3O11
_symmetry_space_group_name_H-M   'P 1'
_cell_length_a   8.76029887
_cell_length_b   11.38423127
_cell_length_c   20.51102231
_cell_angle_alpha   90.00000000
_cell_angle_beta   87.11146696
_cell_angle_gamma   90.00000000
_symmetry_Int_Tables_number   1
_chemical_formula_structural   InH10C3O11
_chemical_formula_sum   'In8 H80 C24 O88'
_cell_volume   2042.95030174
_cell_formula_units_Z   8
loop_
 _symmetry_equiv_pos_site_id
 _symmetry_equiv_pos_as_xyz
  1  'x, y, z'
loop_
 _atom_site_type_symbol
 _atom_site_label
 _atom_site_symmetry_multiplicity
 _atom_site_fract_x
 _atom_site_fract_y
 _atom_site_fract_z
 _atom_site_occupancy
  In  In0  1  0.06073265  0.76259311  0.69927213  1
  In  In1  1  0.11290958  0.75241233  0.99018143  1
  In  In2  1  0.38709042  0.25241233  0.50981857  1
  In  In3  1  0.43926735  0.26259311  0.80072787  1
  In  In4  1  0.56073265  0.73740689  0.19927213  1
  In  In5  1  0.61290958  0.74758767  0.49018143  1
  In  In6  1  0.88709042  0.24758767  0.00981857  1
  In  In7  1  0.93926735  0.23740689  0.30072787  1
  H  H8  1  0.00205336  0.89560391  0.15364825  1
  H  H9  1  0.03169119  0.56300773  0.42756766  1
  H  H10  1  0.04373988  0.14884175  0.60674018  1
  H  H11  1  0.03723424  0.64673001  0.24193139  1
  H  H12  1  0.03109555  0.99806948  0.67687310  1
  H  H13  1  0.02053729  0.98670152  0.75815077  1
  H  H14  1  0.07059339  0.52245333  0.72638901  1
  H  H15  1  0.08509401  0.54835314  0.18832850  1
  H  H16  1  0.07767613  0.53907210  0.64564001  1
  H  H17  1  0.11832137  0.73261947  0.39008178  1
  H  H18  1  0.12949325  0.49252992  0.55409736  1
  H  H19  1  0.13492213  0.04274439  0.58041859  1
  H  H20  1  0.17960448  0.67532464  0.31063808  1
  H  H21  1  0.17008825  0.41488124  0.11195981  1
  H  H22  1  0.16524168  0.06157391  0.82452905  1
  H  H23  1  0.13494344  0.34996861  0.82003114  1
  H  H24  1  0.18584873  0.79280103  0.27572464  1
  H  H25  1  0.18248943  0.98811733  0.37712037  1
  H  H26  1  0.18728314  0.32138148  0.89184272  1
  H  H27  1  0.23023100  0.70176105  0.44509860  1
  H  H28  1  0.26976900  0.20176105  0.05490140  1
  H  H29  1  0.31751057  0.48811733  0.12287963  1
  H  H30  1  0.31415127  0.29280103  0.22427536  1
  H  H31  1  0.31271686  0.82138148  0.60815728  1
  H  H32  1  0.32991175  0.91488124  0.38804019  1
  H  H33  1  0.32039552  0.17532464  0.18936192  1
  H  H34  1  0.36505656  0.84996861  0.67996886  1
  H  H35  1  0.33475832  0.56157391  0.67547095  1
  H  H36  1  0.38167863  0.23261947  0.10991822  1
  H  H37  1  0.36507787  0.54274439  0.91958141  1
  H  H38  1  0.41490599  0.04835314  0.31167150  1
  H  H39  1  0.37050675  0.99252992  0.94590264  1
  H  H40  1  0.42232387  0.03907210  0.85435999  1
  H  H41  1  0.46276576  0.14673001  0.25806861  1
  H  H42  1  0.42940661  0.02245333  0.77361099  1
  H  H43  1  0.46830881  0.06300773  0.07243234  1
  H  H44  1  0.47946271  0.48670152  0.74184923  1
  H  H45  1  0.46890445  0.49806948  0.82312690  1
  H  H46  1  0.49794664  0.39560391  0.34635175  1
  H  H47  1  0.54373988  0.35115825  0.10674018  1
  H  H48  1  0.45626012  0.64884175  0.89325982  1
  H  H49  1  0.50205336  0.60439609  0.65364825  1
  H  H50  1  0.53109555  0.50193052  0.17687310  1
  H  H51  1  0.52053729  0.51329848  0.25815077  1
  H  H52  1  0.53169119  0.93699227  0.92756766  1
  H  H53  1  0.57059339  0.97754667  0.22638901  1
  H  H54  1  0.53723424  0.85326999  0.74193139  1
  H  H55  1  0.57767613  0.96092790  0.14564001  1
  H  H56  1  0.62949325  0.00747008  0.05409736  1
  H  H57  1  0.58509401  0.95164686  0.68832850  1
  H  H58  1  0.63492213  0.45725561  0.08041859  1
  H  H59  1  0.61832137  0.76738053  0.89008178  1
  H  H60  1  0.66524168  0.43842609  0.32452905  1
  H  H61  1  0.63494344  0.15003139  0.32003114  1
  H  H62  1  0.67960448  0.82467536  0.81063808  1
  H  H63  1  0.67008825  0.08511876  0.61195981  1
  H  H64  1  0.68728314  0.17861852  0.39184272  1
  H  H65  1  0.68584873  0.70719897  0.77572464  1
  H  H66  1  0.68248943  0.51188267  0.87712037  1
  H  H67  1  0.73023100  0.79823895  0.94509860  1
  H  H68  1  0.76976900  0.29823895  0.55490140  1
  H  H69  1  0.81271686  0.67861852  0.10815728  1
  H  H70  1  0.81751057  0.01188267  0.62287963  1
  H  H71  1  0.81415127  0.20719897  0.72427536  1
  H  H72  1  0.86505656  0.65003139  0.17996886  1
  H  H73  1  0.83475832  0.93842609  0.17547095  1
  H  H74  1  0.82991175  0.58511876  0.88804019  1
  H  H75  1  0.82039552  0.32467536  0.68936192  1
  H  H76  1  0.86507787  0.95725561  0.41958141  1
  H  H77  1  0.87050675  0.50747008  0.44590264  1
  H  H78  1  0.88167863  0.26738053  0.60991822  1
  H  H79  1  0.92232387  0.46092790  0.35435999  1
  H  H80  1  0.91490599  0.45164686  0.81167150  1
  H  H81  1  0.92940661  0.47754667  0.27361099  1
  H  H82  1  0.97946271  0.01329848  0.24184923  1
  H  H83  1  0.96890445  0.00193052  0.32312690  1
  H  H84  1  0.96276576  0.35326999  0.75806861  1
  H  H85  1  0.95626012  0.85115825  0.39325982  1
  H  H86  1  0.96830881  0.43699227  0.57243234  1
  H  H87  1  0.99794664  0.10439609  0.84635175  1
  C  C88  1  0.00320717  0.74031559  0.84798459  1
  C  C89  1  0.06663020  0.47960446  0.97646504  1
  C  C90  1  0.10890358  0.22986157  0.42784022  1
  C  C91  1  0.08121130  0.02393962  0.99169330  1
  C  C92  1  0.17553584  0.76812884  0.83983180  1
  C  C93  1  0.23256072  0.27471725  0.37717289  1
  C  C94  1  0.26743928  0.77471725  0.12282711  1
  C  C95  1  0.32446416  0.26812884  0.66016820  1
  C  C96  1  0.39109642  0.72986157  0.07215978  1
  C  C97  1  0.41878870  0.52393962  0.50830670  1
  C  C98  1  0.43336980  0.97960446  0.52353496  1
  C  C99  1  0.49679283  0.24031559  0.65201541  1
  C  C100  1  0.50320717  0.75968441  0.34798459  1
  C  C101  1  0.56663020  0.02039554  0.47646504  1
  C  C102  1  0.58121130  0.47606038  0.49169330  1
  C  C103  1  0.60890358  0.27013843  0.92784022  1
  C  C104  1  0.67553584  0.73187116  0.33983180  1
  C  C105  1  0.73256072  0.22528275  0.87717289  1
  C  C106  1  0.76743928  0.72528275  0.62282711  1
  C  C107  1  0.82446416  0.23187116  0.16016820  1
  C  C108  1  0.91878870  0.97606038  0.00830670  1
  C  C109  1  0.89109642  0.77013843  0.57215978  1
  C  C110  1  0.93336980  0.52039554  0.02353496  1
  C  C111  1  0.99679283  0.25968441  0.15201541  1
  O  O112  1  0.00415155  0.05296630  0.28490241  1
  O  O113  1  0.99845619  0.57820774  0.21742756  1
  O  O114  1  0.05428504  0.27642545  0.09458699  1
  O  O115  1  0.02282123  0.79035608  0.59246984  1
  O  O116  1  0.03292423  0.50813692  0.57962145  1
  O  O117  1  0.04119130  0.06305897  0.60672499  1
  O  O118  1  0.07013889  0.26860671  0.20322274  1
  O  O119  1  0.05659532  0.03845404  0.82633488  1
  O  O120  1  0.11317624  0.74061656  0.29965384  1
  O  O121  1  0.07002795  0.37164533  0.96101340  1
  O  O122  1  0.13500333  0.79418305  0.10259198  1
  O  O123  1  0.11675223  0.57306985  0.69012669  1
  O  O124  1  0.09780817  0.13424976  0.98782164  1
  O  O125  1  0.12864947  0.68583921  0.42968143  1
  O  O126  1  0.14766936  0.21448772  0.48567540  1
  O  O127  1  0.19274330  0.28816995  0.31918161  1
  O  O128  1  0.16218802  0.55640290  0.95672716  1
  O  O129  1  0.20586040  0.49017972  0.12887849  1
  O  O130  1  0.18708291  0.94897587  0.98324768  1
  O  O131  1  0.20843214  0.30177084  0.84528156  1
  O  O132  1  0.22983970  0.77889358  0.78203449  1
  O  O133  1  0.25101070  0.27478404  0.60859948  1
  O  O134  1  0.24898930  0.77478404  0.89140052  1
  O  O135  1  0.29413960  0.99017972  0.37112151  1
  O  O136  1  0.27016030  0.27889358  0.71796551  1
  O  O137  1  0.29156786  0.80177084  0.65471844  1
  O  O138  1  0.30725670  0.78816995  0.18081839  1
  O  O139  1  0.31291709  0.44897587  0.51675232  1
  O  O140  1  0.35233064  0.71448772  0.01432460  1
  O  O141  1  0.33781198  0.05640290  0.54327284  1
  O  O142  1  0.37135053  0.18583921  0.07031857  1
  O  O143  1  0.36499667  0.29418305  0.39740802  1
  O  O144  1  0.38682376  0.24061656  0.20034616  1
  O  O145  1  0.40219183  0.63424976  0.51217836  1
  O  O146  1  0.38324777  0.07306985  0.80987331  1
  O  O147  1  0.42986111  0.76860671  0.29677726  1
  O  O148  1  0.42997205  0.87164533  0.53898660  1
  O  O149  1  0.44571496  0.77642545  0.40541301  1
  O  O150  1  0.44340468  0.53845404  0.67366512  1
  O  O151  1  0.45880870  0.56305897  0.89327501  1
  O  O152  1  0.50154381  0.07820774  0.28257244  1
  O  O153  1  0.49584845  0.55296630  0.21509759  1
  O  O154  1  0.46707577  0.00813692  0.92037855  1
  O  O155  1  0.47717877  0.29035608  0.90753016  1
  O  O156  1  0.52282123  0.70964392  0.09246984  1
  O  O157  1  0.53292423  0.99186308  0.07962145  1
  O  O158  1  0.50415155  0.44703370  0.78490241  1
  O  O159  1  0.49845619  0.92179226  0.71742756  1
  O  O160  1  0.54119130  0.43694103  0.10672499  1
  O  O161  1  0.55659532  0.46154596  0.32633488  1
  O  O162  1  0.55428504  0.22357455  0.59458699  1
  O  O163  1  0.57002795  0.12835467  0.46101340  1
  O  O164  1  0.57013889  0.23139329  0.70322274  1
  O  O165  1  0.61675223  0.92693015  0.19012669  1
  O  O166  1  0.59780817  0.36575024  0.48782164  1
  O  O167  1  0.61317624  0.75938344  0.79965384  1
  O  O168  1  0.63500333  0.70581695  0.60259198  1
  O  O169  1  0.62864947  0.81416079  0.92968143  1
  O  O170  1  0.66218802  0.94359710  0.45672716  1
  O  O171  1  0.64766936  0.28551228  0.98567540  1
  O  O172  1  0.68708291  0.55102413  0.48324768  1
  O  O173  1  0.69274330  0.21183005  0.81918161  1
  O  O174  1  0.70843214  0.19822916  0.34528156  1
  O  O175  1  0.72983970  0.72110642  0.28203449  1
  O  O176  1  0.70586040  0.00982028  0.62887849  1
  O  O177  1  0.75101070  0.22521596  0.10859948  1
  O  O178  1  0.74898930  0.72521596  0.39140052  1
  O  O179  1  0.77016030  0.22110642  0.21796551  1
  O  O180  1  0.79156786  0.69822916  0.15471844  1
  O  O181  1  0.81291709  0.05102413  0.01675232  1
  O  O182  1  0.79413960  0.50982028  0.87112151  1
  O  O183  1  0.83781198  0.44359710  0.04327284  1
  O  O184  1  0.80725670  0.71183005  0.68081839  1
  O  O185  1  0.85233064  0.78551228  0.51432460  1
  O  O186  1  0.87135053  0.31416079  0.57031857  1
  O  O187  1  0.90219183  0.86575024  0.01217836  1
  O  O188  1  0.88324777  0.42693015  0.30987331  1
  O  O189  1  0.86499667  0.20581695  0.89740802  1
  O  O190  1  0.92997205  0.62835467  0.03898660  1
  O  O191  1  0.88682376  0.25938344  0.70034616  1
  O  O192  1  0.94340468  0.96154596  0.17366512  1
  O  O193  1  0.92986111  0.73139329  0.79677726  1
  O  O194  1  0.95880870  0.93694103  0.39327501  1
  O  O195  1  0.96707577  0.49186308  0.42037855  1
  O  O196  1  0.97717877  0.20964392  0.40753016  1
  O  O197  1  0.94571496  0.72357455  0.90541301  1
  O  O198  1  0.00154381  0.42179226  0.78257244  1
  O  O199  1  0.99584845  0.94703370  0.71509759  1
