# generated using pymatgen
data_CaV2O6
_symmetry_space_group_name_H-M   'P 1'
_cell_length_a   5.48765662
_cell_length_b   5.44607308
_cell_length_c   7.31160638
_cell_angle_alpha   90.00001054
_cell_angle_beta   89.99937549
_cell_angle_gamma   89.99978431
_symmetry_Int_Tables_number   1
_chemical_formula_structural   CaV2O6
_chemical_formula_sum   'Ca2 V4 O12'
_cell_volume   218.51597697
_cell_formula_units_Z   2
loop_
 _symmetry_equiv_pos_site_id
 _symmetry_equiv_pos_as_xyz
  1  'x, y, z'
loop_
 _atom_site_type_symbol
 _atom_site_label
 _atom_site_symmetry_multiplicity
 _atom_site_fract_x
 _atom_site_fract_y
 _atom_site_fract_z
 _atom_site_occupancy
  Ca  Ca0  1  0.44832150  0.48041354  0.75000103  1
  Ca  Ca1  1  0.05166829  0.98041220  0.25000154  1
  V  V2  1  0.51766820  0.95971052  0.00650767  1
  V  V3  1  0.98232903  0.45971556  0.50651208  1
  V  V4  1  0.98233392  0.45970879  0.99349199  1
  V  V5  1  0.51767256  0.95970219  0.49348731  1
  O  O6  1  0.78435130  0.79338878  0.46677067  1
  O  O7  1  0.29362980  0.73737955  0.02775857  1
  O  O8  1  0.71565368  0.29338386  0.53322720  1
  O  O9  1  0.20636779  0.23737821  0.97224244  1
  O  O10  1  0.20636209  0.23736945  0.52775380  1
  O  O11  1  0.71565407  0.29337422  0.96677514  1
  O  O12  1  0.29363482  0.73736645  0.47224742  1
  O  O13  1  0.78435322  0.79337949  0.03322669  1
  O  O14  1  0.50995017  0.96065514  0.74999890  1
  O  O15  1  0.01116198  0.57129251  0.74999995  1
  O  O16  1  0.48883436  0.07129455  0.25000217  1
  O  O17  1  0.99005621  0.46064097  0.25000045  1
