# generated using pymatgen
data_Li5Co7O3F13
_symmetry_space_group_name_H-M   'P 1'
_cell_length_a   6.03837008
_cell_length_b   6.10889812
_cell_length_c   10.59243112
_cell_angle_alpha   106.80413048
_cell_angle_beta   90.04405855
_cell_angle_gamma   60.18734017
_symmetry_Int_Tables_number   1
_chemical_formula_structural   Li5Co7O3F13
_chemical_formula_sum   'Li5 Co7 O3 F13'
_cell_volume   319.70026299
_cell_formula_units_Z   1
loop_
 _symmetry_equiv_pos_site_id
 _symmetry_equiv_pos_as_xyz
  1  'x, y, z'
loop_
 _atom_site_type_symbol
 _atom_site_label
 _atom_site_symmetry_multiplicity
 _atom_site_fract_x
 _atom_site_fract_y
 _atom_site_fract_z
 _atom_site_occupancy
  Li  Li0  1  0.23885573  0.51464778  0.25009754  1
  Li  Li1  1  0.32778744  0.86756127  0.56515528  1
  Li  Li2  1  0.67424052  0.13035984  0.43589721  1
  Li  Li3  1  0.25820448  0.49688418  0.74726348  1
  Li  Li4  1  0.18492064  0.13097409  0.93547932  1
  Co  Co5  1  0.82803864  0.85226393  0.07392129  1
  Co  Co6  1  0.47926973  0.52384334  0.00814709  1
  Co  Co7  1  0.74463420  0.51388427  0.24773762  1
  Co  Co8  1  0.25603305  0.98236328  0.24021422  1
  Co  Co9  1  0.99033894  0.50993050  0.50478553  1
  Co  Co10  1  0.74320877  0.50980124  0.74170684  1
  Co  Co11  1  0.74408380  0.99156930  0.74187708  1
  O  O12  1  0.61855750  0.73083854  0.12977853  1
  O  O13  1  0.14955989  0.74178263  0.13179045  1
  O  O14  1  0.66172281  0.73573657  0.63062252  1
  F  F15  1  0.61707492  0.26075122  0.13115387  1
  F  F16  1  0.38314154  0.73406437  0.36811411  1
  F  F17  1  0.88519033  0.73460856  0.37463044  1
  F  F18  1  0.11826063  0.26141081  0.13610140  1
  F  F19  1  0.87597731  0.26210579  0.36789093  1
  F  F20  1  0.34215489  0.25538116  0.37361483  1
  F  F21  1  0.12368423  0.74146618  0.63215698  1
  F  F22  1  0.88741396  0.74102832  0.86772356  1
  F  F23  1  0.12196028  0.26813352  0.63030584  1
  F  F24  1  0.38431243  0.73440636  0.86821214  1
  F  F25  1  0.62716451  0.25293664  0.62985601  1
  F  F26  1  0.84697353  0.26009760  0.86475232  1
  F  F27  1  0.38723430  0.26116773  0.87101157  1
