# generated using pymatgen
data_V6O11
_symmetry_space_group_name_H-M   'P 1'
_cell_length_a   5.77163757
_cell_length_b   5.86665486
_cell_length_c   13.40120262
_cell_angle_alpha   90.00000000
_cell_angle_beta   90.00000000
_cell_angle_gamma   119.46566904
_symmetry_Int_Tables_number   1
_chemical_formula_structural   V6O11
_chemical_formula_sum   'V12 O22'
_cell_volume   395.07292238
_cell_formula_units_Z   2
loop_
 _symmetry_equiv_pos_site_id
 _symmetry_equiv_pos_as_xyz
  1  'x, y, z'
loop_
 _atom_site_type_symbol
 _atom_site_label
 _atom_site_symmetry_multiplicity
 _atom_site_fract_x
 _atom_site_fract_y
 _atom_site_fract_z
 _atom_site_occupancy
  V  V0  1  0.00009673  0.00019346  0.64882323  1
  V  V1  1  0.00119680  0.00239260  0.85124988  1
  V  V2  1  0.49894086  0.99788273  0.50008517  1
  V  V3  1  0.99946042  0.49854976  0.49979023  1
  V  V4  1  0.49908933  0.49854976  0.49979023  1
  V  V5  1  0.33018631  0.66037261  0.24895627  1
  V  V6  1  0.66981369  0.33962739  0.74895627  1
  V  V7  1  0.50091067  0.50145024  0.99979023  1
  V  V8  1  0.00053958  0.50145024  0.99979023  1
  V  V9  1  0.50105914  0.00211727  0.00008517  1
  V  V10  1  0.99880320  0.99760740  0.35124988  1
  V  V11  1  -0.00009673  -0.00019346  0.14882323  1
  O  O12  1  0.30040279  0.14408066  0.74974119  1
  O  O13  1  0.15929644  0.31859389  0.25015883  1
  O  O14  1  0.34135617  0.16951497  0.42621082  1
  O  O15  1  0.34321474  0.17303686  0.07397093  1
  O  O16  1  0.17479676  0.34959352  0.57449552  1
  O  O17  1  0.17612844  0.35225788  0.92535219  1
  O  O18  1  0.84367787  0.14408066  0.74974119  1
  O  O19  1  0.82815880  0.16951497  0.42621082  1
  O  O20  1  0.66600382  0.33200765  0.91373231  1
  O  O21  1  0.66479143  0.32958287  0.58618524  1
  O  O22  1  0.82982211  0.17303686  0.07397093  1
  O  O23  1  0.17017789  0.82696314  0.57397093  1
  O  O24  1  0.33520857  0.67041713  0.08618524  1
  O  O25  1  0.33399618  0.66799235  0.41373231  1
  O  O26  1  0.17184120  0.83048503  0.92621082  1
  O  O27  1  0.15632213  0.85591934  0.24974119  1
  O  O28  1  0.82387156  0.64774212  0.42535219  1
  O  O29  1  0.82520324  0.65040648  0.07449552  1
  O  O30  1  0.65678526  0.82696314  0.57397093  1
  O  O31  1  0.65864383  0.83048503  0.92621082  1
  O  O32  1  0.84070356  0.68140611  0.75015883  1
  O  O33  1  0.69959721  0.85591934  0.24974119  1
