# generated using pymatgen
data_Li2Mn3(BO3)3
_symmetry_space_group_name_H-M   'P 1'
_cell_length_a   7.82164638
_cell_length_b   9.19191660
_cell_length_c   6.20586423
_cell_angle_alpha   103.12434138
_cell_angle_beta   79.82661889
_cell_angle_gamma   66.07220053
_symmetry_Int_Tables_number   1
_chemical_formula_structural   Li2Mn3(BO3)3
_chemical_formula_sum   'Li4 Mn6 B6 O18'
_cell_volume   378.64894070
_cell_formula_units_Z   2
loop_
 _symmetry_equiv_pos_site_id
 _symmetry_equiv_pos_as_xyz
  1  'x, y, z'
loop_
 _atom_site_type_symbol
 _atom_site_label
 _atom_site_symmetry_multiplicity
 _atom_site_fract_x
 _atom_site_fract_y
 _atom_site_fract_z
 _atom_site_occupancy
  Li  Li0  1  0.95620158  0.71439659  0.73065619  1
  Li  Li1  1  0.39884855  0.60589436  0.94276610  1
  Li  Li2  1  0.71028670  0.94768800  0.60258683  1
  Li  Li3  1  0.05876737  0.28146839  0.28557602  1
  Mn  Mn4  1  0.98138766  0.38099065  0.77993596  1
  Mn  Mn5  1  0.67949678  0.27334422  0.57211560  1
  Mn  Mn6  1  0.63489721  0.07018007  0.11061958  1
  Mn  Mn7  1  0.34371927  0.94152551  0.90825819  1
  Mn  Mn8  1  0.32995753  0.72541156  0.43280684  1
  Mn  Mn9  1  0.02134913  0.61437914  0.22525172  1
  B  B10  1  0.97731737  0.04405379  0.75910934  1
  B  B11  1  0.34878674  0.28040980  0.89943707  1
  B  B12  1  0.69150525  0.61364592  0.57503608  1
  B  B13  1  0.31007611  0.39637077  0.45427912  1
  B  B14  1  0.64915021  0.71772778  0.07196177  1
  B  B15  1  0.02158984  0.95173266  0.23465537  1
  O  O16  1  0.87343318  0.20589835  0.74764579  1
  O  O17  1  0.85319775  0.64571417  0.97708273  1
  O  O18  1  0.88327851  0.95386060  0.81219045  1
  O  O19  1  0.81924127  0.02398352  0.35293084  1
  O  O20  1  0.46177496  0.10818197  0.85308216  1
  O  O21  1  0.79382440  0.44073623  0.53262261  1
  O  O22  1  0.43119416  0.37827092  0.83917184  1
  O  O23  1  0.78091627  0.70739901  0.51933816  1
  O  O24  1  0.48862249  0.69549404  0.69328451  1
  O  O25  1  0.51903066  0.31169491  0.36315592  1
  O  O26  1  0.21568204  0.30450897  0.49237794  1
  O  O27  1  0.56305339  0.62799311  0.14162507  1
  O  O28  1  0.20824790  0.56701633  0.48076955  1
  O  O29  1  0.53739904  0.88619818  0.08144512  1
  O  O30  1  0.18313088  0.97346120  0.69564854  1
  O  O31  1  0.09717531  0.05238837  0.17145331  1
  O  O32  1  0.14895727  0.35602623  0.02373831  1
  O  O33  1  0.13945920  0.78048370  0.18940038  1
