# generated using pymatgen
data_Na6Mn2B4PO16
_symmetry_space_group_name_H-M   'P 1'
_cell_length_a   9.86549511
_cell_length_b   9.86542256
_cell_length_c   9.86536897
_cell_angle_alpha   60.00065570
_cell_angle_beta   60.00089176
_cell_angle_gamma   60.00101606
_symmetry_Int_Tables_number   1
_chemical_formula_structural   Na6Mn2B4PO16
_chemical_formula_sum   'Na12 Mn4 B8 P2 O32'
_cell_volume   678.95552397
_cell_formula_units_Z   2
loop_
 _symmetry_equiv_pos_site_id
 _symmetry_equiv_pos_as_xyz
  1  'x, y, z'
loop_
 _atom_site_type_symbol
 _atom_site_label
 _atom_site_symmetry_multiplicity
 _atom_site_fract_x
 _atom_site_fract_y
 _atom_site_fract_z
 _atom_site_occupancy
  Na  Na0  1  0.16044739  0.08955505  0.08955514  1
  Na  Na1  1  0.16044222  0.08955689  0.66044159  1
  Na  Na2  1  0.16044480  0.66044147  0.08955606  1
  Na  Na3  1  0.41044601  0.33955337  0.33955562  1
  Na  Na4  1  0.58955403  0.08955383  0.66044780  1
  Na  Na5  1  0.58955495  0.66044651  0.08955378  1
  Na  Na6  1  0.41044626  0.33955033  0.91044824  1
  Na  Na7  1  0.41044838  0.91044833  0.33955129  1
  Na  Na8  1  0.58955535  0.66044372  0.66044373  1
  Na  Na9  1  0.83955250  0.91044689  0.33955762  1
  Na  Na10  1  0.83955622  0.33955767  0.91044432  1
  Na  Na11  1  0.83955113  0.91044681  0.91044479  1
  Mn  Mn12  1  -0.00000101  0.50000037  0.00000156  1
  Mn  Mn13  1  -0.00000107  0.99999922  0.50000037  1
  Mn  Mn14  1  -0.00000068  0.49999887  0.50000104  1
  Mn  Mn15  1  0.50000218  0.50000114  0.49999841  1
  B  B16  1  0.13109315  0.28963767  0.28963599  1
  B  B17  1  0.21036311  0.71036481  0.36890655  1
  B  B18  1  0.21036654  0.36890716  0.71036035  1
  B  B19  1  0.21036562  0.71036426  0.71036239  1
  B  B20  1  0.78963387  0.28963522  0.28963701  1
  B  B21  1  0.78963301  0.63109404  0.28964000  1
  B  B22  1  0.78963669  0.28963526  0.63109437  1
  B  B23  1  0.86890812  0.71036157  0.71036375  1
  P  P24  1  0.62498875  0.12499396  0.12500322  1
  P  P25  1  0.37500888  0.87500178  0.87500249  1
  O  O26  1  0.13794030  0.31837664  0.13429968  1
  O  O27  1  0.13794037  0.13429662  0.40938709  1
  O  O28  1  0.13794067  0.40938318  0.31837905  1
  O  O29  1  0.09061665  0.68162237  0.36206010  1
  O  O30  1  0.56078082  0.06078038  0.06077821  1
  O  O31  1  0.18162620  0.36206102  0.59061387  1
  O  O32  1  0.09061614  0.36206099  0.86569968  1
  O  O33  1  0.56077792  0.31767380  0.06077519  1
  O  O34  1  0.56077989  0.06077850  0.31766699  1
  O  O35  1  0.18162578  0.86569925  0.36206036  1
  O  O36  1  0.36570490  0.59061146  0.36205921  1
  O  O37  1  0.81767798  0.06077520  0.06077363  1
  O  O38  1  0.09061620  0.86570273  0.68162131  1
  O  O39  1  0.36570452  0.36205939  0.68162258  1
  O  O40  1  0.18162509  0.59061378  0.86569937  1
  O  O41  1  0.63429435  0.31837602  0.40938839  1
  O  O42  1  0.36570364  0.68162489  0.59061145  1
  O  O43  1  0.81837529  0.40938521  0.13430007  1
  O  O44  1  0.63429482  0.63794354  0.31837668  1
  O  O45  1  0.90938323  0.13429628  0.31837863  1
  O  O46  1  0.18231802  0.93922625  0.93922607  1
  O  O47  1  0.63429553  0.40938654  0.63794275  1
  O  O48  1  0.81837456  0.13429941  0.63794070  1
  O  O49  1  0.43922402  0.93922496  0.68232257  1
  O  O50  1  0.43922339  0.68232347  0.93922454  1
  O  O51  1  0.90938300  0.63794123  0.13429827  1
  O  O52  1  0.81837382  0.63794024  0.40938560  1
  O  O53  1  0.43922107  0.93922212  0.93922287  1
  O  O54  1  0.90938171  0.31837677  0.63794274  1
  O  O55  1  0.86206106  0.59061685  0.68162224  1
  O  O56  1  0.86206097  0.86570164  0.59061276  1
  O  O57  1  0.86206172  0.68162308  0.86569988  1
