# generated using pymatgen
data_Li4V3P8O29
_symmetry_space_group_name_H-M   'P 1'
_cell_length_a   9.75430113
_cell_length_b   9.75413227
_cell_length_c   14.16685640
_cell_angle_alpha   90.33109675
_cell_angle_beta   90.33069643
_cell_angle_gamma   60.06136524
_symmetry_Int_Tables_number   1
_chemical_formula_structural   Li4V3P8O29
_chemical_formula_sum   'Li8 V6 P16 O58'
_cell_volume   1168.01246266
_cell_formula_units_Z   2
loop_
 _symmetry_equiv_pos_site_id
 _symmetry_equiv_pos_as_xyz
  1  'x, y, z'
loop_
 _atom_site_type_symbol
 _atom_site_label
 _atom_site_symmetry_multiplicity
 _atom_site_fract_x
 _atom_site_fract_y
 _atom_site_fract_z
 _atom_site_occupancy
  Li  Li0  1  0.91032129  0.33040065  0.56114972  1
  Li  Li1  1  0.76560471  0.33202686  0.05826128  1
  Li  Li2  1  0.33040180  0.91032496  0.06112821  1
  Li  Li3  1  0.66850368  0.23099537  0.44286398  1
  Li  Li4  1  0.33202177  0.76566768  0.55815405  1
  Li  Li5  1  0.23093144  0.66856894  0.94287231  1
  Li  Li6  1  0.95191165  0.01030920  0.99573988  1
  Li  Li7  1  0.01035123  0.95195709  0.49579756  1
  V  V8  1  0.56590080  0.43372068  0.24913861  1
  V  V9  1  0.43371131  0.56586484  0.74924616  1
  V  V10  1  0.56671497  0.99616000  0.74954812  1
  V  V11  1  0.43853418  0.00418930  0.25127402  1
  V  V12  1  0.99625247  0.56663308  0.24970484  1
  V  V13  1  0.00421248  0.43864579  0.75132740  1
  P  P14  1  0.91649715  0.78164019  0.83896063  1
  P  P15  1  0.78158923  0.91652686  0.33898672  1
  P  P16  1  0.91464590  0.31252865  0.34667767  1
  P  P17  1  0.66525392  0.66665590  0.13130058  1
  P  P18  1  0.66666435  0.66523041  0.63127071  1
  P  P19  1  0.77694855  0.31547406  0.84088949  1
  P  P20  1  0.68734184  0.22261473  0.66137067  1
  P  P21  1  0.31257183  0.91479477  0.84667682  1
  P  P22  1  0.69518286  0.08340149  0.15361849  1
  P  P23  1  0.31535528  0.77712698  0.34093183  1
  P  P24  1  0.22278115  0.68719348  0.16135040  1
  P  P25  1  0.33205035  0.33589620  0.36791634  1
  P  P26  1  0.33591063  0.33208126  0.86785707  1
  P  P27  1  0.08358670  0.69507753  0.65367017  1
  P  P28  1  0.22051369  0.08299151  0.66283615  1
  P  P29  1  0.08297200  0.22055941  0.16286580  1
  O  O30  1  0.00599643  0.78862164  0.56794727  1
  O  O31  1  0.91451844  0.74202830  0.33430955  1
  O  O32  1  0.78856497  0.00607925  0.06804260  1
  O  O33  1  0.74200960  0.91455448  0.83431665  1
  O  O34  1  0.92314691  0.61898680  0.82849444  1
  O  O35  1  0.81104630  0.66845756  0.17936741  1
  O  O36  1  0.91281593  0.46977896  0.32790197  1
  O  O37  1  0.98990840  0.20602463  0.08307531  1
  O  O38  1  0.91540525  0.34993055  0.82789611  1
  O  O39  1  0.66846653  0.81108708  0.67929228  1
  O  O40  1  0.61894391  0.92313581  0.32847026  1
  O  O41  1  0.81453874  0.51364417  0.67224775  1
  O  O42  1  0.66567779  0.66605637  0.02621328  1
  O  O43  1  0.66606672  0.66572633  0.52612149  1
  O  O44  1  0.67305445  0.51210423  0.17010841  1
  O  O45  1  0.46981690  0.91281126  0.82787944  1
  O  O46  1  0.51361629  0.81458905  0.17231371  1
  O  O47  1  0.74334931  0.33967002  0.33702450  1
  O  O48  1  0.79684777  0.20131758  0.75195439  1
  O  O49  1  0.77334691  0.22043142  0.57253056  1
  O  O50  1  0.79507838  0.23021528  0.93137727  1
  O  O51  1  0.61965506  0.46796726  0.82813648  1
  O  O52  1  0.51211673  0.67300646  0.67011260  1
  O  O53  1  0.65640445  0.25834063  0.16080798  1
  O  O54  1  0.46828385  0.61951032  0.32820827  1
  O  O55  1  0.34986361  0.91551777  0.32785602  1
  O  O56  1  0.80142089  0.99860191  0.24631226  1
  O  O57  1  0.79410494  0.00376652  0.42298641  1
  O  O58  1  0.20606984  0.98990387  0.58306281  1
  O  O59  1  0.65676019  0.08242624  0.66625940  1
  O  O60  1  0.52985322  0.38046433  0.67373607  1
  O  O61  1  0.33954966  0.74336569  0.83708774  1
  O  O62  1  0.48684043  0.32789002  0.33211375  1
  O  O63  1  0.38025277  0.52994256  0.17377273  1
  O  O64  1  0.22064083  0.77307058  0.07259890  1
  O  O65  1  0.23010925  0.79525952  0.43132644  1
  O  O66  1  0.20139497  0.79684666  0.25200262  1
  O  O67  1  0.25821294  0.65641488  0.66085126  1
  O  O68  1  0.47935248  0.18613090  0.81964132  1
  O  O69  1  0.54087126  0.07610154  0.16885974  1
  O  O70  1  0.32784646  0.48677616  0.83208733  1
  O  O71  1  0.32867949  0.32730794  0.97222015  1
  O  O72  1  0.32711996  0.32878213  0.47223983  1
  O  O73  1  0.18612542  0.47927333  0.31962550  1
  O  O74  1  0.38273894  0.07524201  0.67166061  1
  O  O75  1  0.33466790  0.18701927  0.31762564  1
  O  O76  1  0.08239318  0.65666193  0.16629665  1
  O  O77  1  0.99854684  0.80146541  0.74628746  1
  O  O78  1  0.00378773  0.79417705  0.92298182  1
  O  O79  1  0.07610757  0.54084925  0.66884851  1
  O  O80  1  0.18702592  0.33453633  0.81760340  1
  O  O81  1  0.07522474  0.38272888  0.17169184  1
  O  O82  1  0.25837689  0.08473019  0.16084045  1
  O  O83  1  0.23673368  0.98518013  0.93900631  1
  O  O84  1  0.19609075  0.01381789  0.76147741  1
  O  O85  1  0.08472829  0.25834221  0.66081279  1
  O  O86  1  0.98516712  0.23668692  0.43899126  1
  O  O87  1  0.01387964  0.19606369  0.26148994  1
