# generated using pymatgen
data_Li4V3P8O29
_symmetry_space_group_name_H-M   'P 1'
_cell_length_a   9.78583203
_cell_length_b   9.74126245
_cell_length_c   14.16296867
_cell_angle_alpha   90.09264652
_cell_angle_beta   90.03020674
_cell_angle_gamma   60.38034034
_symmetry_Int_Tables_number   1
_chemical_formula_structural   Li4V3P8O29
_chemical_formula_sum   'Li8 V6 P16 O58'
_cell_volume   1173.67829376
_cell_formula_units_Z   2
loop_
 _symmetry_equiv_pos_site_id
 _symmetry_equiv_pos_as_xyz
  1  'x, y, z'
loop_
 _atom_site_type_symbol
 _atom_site_label
 _atom_site_symmetry_multiplicity
 _atom_site_fract_x
 _atom_site_fract_y
 _atom_site_fract_z
 _atom_site_occupancy
  Li  Li0  1  0.91639903  0.77634191  0.05892781  1
  Li  Li1  1  0.90475460  0.33016259  0.55524688  1
  Li  Li2  1  0.32159109  0.90948475  0.05935075  1
  Li  Li3  1  0.33417208  0.76509304  0.55625747  1
  Li  Li4  1  0.68158744  0.09054921  0.94458443  1
  Li  Li5  1  0.09125609  0.67255040  0.44040117  1
  Li  Li6  1  0.08268575  0.22133200  0.94279106  1
  Li  Li7  1  0.94596758  0.03715965  0.49186523  1
  V  V8  1  0.56738131  0.43028192  0.24724026  1
  V  V9  1  0.43477279  0.56548219  0.75487036  1
  V  V10  1  0.56855903  0.99598285  0.73906433  1
  V  V11  1  0.43404405  0.00395388  0.26085301  1
  V  V12  1  -0.00007865  0.56600864  0.24761425  1
  V  V13  1  0.00006873  0.43305051  0.75118566  1
  P  P14  1  0.90831719  0.77389877  0.83830862  1
  P  P15  1  0.78076567  0.91488688  0.34181401  1
  P  P16  1  0.91053974  0.31223046  0.34014716  1
  P  P17  1  0.66062464  0.67369002  0.13272507  1
  P  P18  1  0.66377609  0.66215396  0.62873030  1
  P  P19  1  0.76963352  0.31462724  0.84474822  1
  P  P20  1  0.69173522  0.22791029  0.65908923  1
  P  P21  1  0.32169088  0.91303923  0.84218624  1
  P  P22  1  0.68125157  0.08656922  0.15934798  1
  P  P23  1  0.31489028  0.76842091  0.34184456  1
  P  P24  1  0.23025412  0.68517942  0.15784865  1
  P  P25  1  0.33356996  0.34006210  0.37052147  1
  P  P26  1  0.33861546  0.32418881  0.86715254  1
  P  P27  1  0.09126854  0.68448792  0.65859785  1
  P  P28  1  0.22228754  0.08379830  0.65987970  1
  P  P29  1  0.09397527  0.22462335  0.16135884  1
  O  O30  1  0.02241239  0.76955661  0.56846283  1
  O  O31  1  0.91647910  0.74083489  0.33637679  1
  O  O32  1  0.75360096  -0.00013038  0.06917202  1
  O  O33  1  0.74071618  0.92057615  0.83162332  1
  O  O34  1  0.90044916  0.62012393  0.81788170  1
  O  O35  1  0.81449050  0.67132305  0.16802880  1
  O  O36  1  0.91365521  0.46709804  0.32994616  1
  O  O37  1  0.01743707  0.23028055  0.06979352  1
  O  O38  1  0.91577327  0.33718110  0.84295443  1
  O  O39  1  0.67040702  0.81063501  0.67316305  1
  O  O40  1  0.61935691  0.91960016  0.33312166  1
  O  O41  1  0.81091786  0.50990278  0.66449549  1
  O  O42  1  0.64649025  0.67998956  0.02807565  1
  O  O43  1  0.64687320  0.67541281  0.52423761  1
  O  O44  1  0.65827925  0.52698670  0.17815813  1
  O  O45  1  0.47899679  0.90587401  0.81927316  1
  O  O46  1  0.51691347  0.82178514  0.17993195  1
  O  O47  1  0.74006428  0.34218375  0.32689684  1
  O  O48  1  0.79349580  0.20649634  0.75262437  1
  O  O49  1  0.79258843  0.21251289  0.57614419  1
  O  O50  1  0.75559134  0.23497802  0.92971471  1
  O  O51  1  0.61947010  0.47696768  0.82390983  1
  O  O52  1  0.51095722  0.67336095  0.67404927  1
  O  O53  1  0.65803204  0.25496367  0.16278217  1
  O  O54  1  0.47031674  0.61362954  0.32856819  1
  O  O55  1  0.34434049  0.91145031  0.33631325  1
  O  O56  1  0.79828632  0.99199019  0.24455976  1
  O  O57  1  0.80006913  0.99704459  0.42432375  1
  O  O58  1  0.21493896  0.98970932  0.57934111  1
  O  O59  1  0.65505320  0.08928624  0.66340452  1
  O  O60  1  0.53768052  0.38606129  0.67001884  1
  O  O61  1  0.34381477  0.74456667  0.83527550  1
  O  O62  1  0.48145005  0.33260700  0.32102787  1
  O  O63  1  0.38082959  0.52484191  0.17528128  1
  O  O64  1  0.23876370  0.77412764  0.07569552  1
  O  O65  1  0.22940895  0.77404011  0.43147320  1
  O  O66  1  0.20338708  0.78831619  0.25435527  1
  O  O67  1  0.26265120  0.65747203  0.66795243  1
  O  O68  1  0.48457079  0.17808406  0.82185728  1
  O  O69  1  0.52321513  0.09388054  0.18140679  1
  O  O70  1  0.34181335  0.47209592  0.82039436  1
  O  O71  1  0.34855222  0.32403146  0.97181823  1
  O  O72  1  0.34299057  0.33319788  0.47493987  1
  O  O73  1  0.18633978  0.49155809  0.33324446  1
  O  O74  1  0.38152851  0.08375963  0.66909495  1
  O  O75  1  0.32950029  0.18965250  0.32678570  1
  O  O76  1  0.08381518  0.66261267  0.15713958  1
  O  O77  1  0.00117748  0.79333151  0.74982065  1
  O  O78  1  0.98348130  0.76740601  0.93047144  1
  O  O79  1  0.09113918  0.52843426  0.67189112  1
  O  O80  1  0.18570762  0.32694692  0.83051882  1
  O  O81  1  0.10049895  0.37862873  0.18103207  1
  O  O82  1  0.26238627  0.07934307  0.16738703  1
  O  O83  1  0.25019726  0.99638739  0.93325371  1
  O  O84  1  0.20179983  0.01224426  0.75875276  1
  O  O85  1  0.08340964  0.25595748  0.66081940  1
  O  O86  1  0.97699879  0.22409398  0.43018854  1
  O  O87  1  0.00367073  0.20285382  0.25012200  1
