# generated using pymatgen
data_Pr2CuRu
_symmetry_space_group_name_H-M   'P 1'
_cell_length_a   5.06700525
_cell_length_b   5.06699833
_cell_length_c   5.06701486
_cell_angle_alpha   59.99934425
_cell_angle_beta   59.99928207
_cell_angle_gamma   59.99948209
_symmetry_Int_Tables_number   1
_chemical_formula_structural   Pr2CuRu
_chemical_formula_sum   'Pr2 Cu1 Ru1'
_cell_volume   91.98840465
_cell_formula_units_Z   1
loop_
 _symmetry_equiv_pos_site_id
 _symmetry_equiv_pos_as_xyz
  1  'x, y, z'
loop_
 _atom_site_type_symbol
 _atom_site_label
 _atom_site_symmetry_multiplicity
 _atom_site_fract_x
 _atom_site_fract_y
 _atom_site_fract_z
 _atom_site_occupancy
  Pr  Pr0  1  0.99999993  0.00000171  0.99999823  1
  Pr  Pr1  1  0.49999938  0.49999827  0.49999868  1
  Cu  Cu2  1  0.24999897  0.24999991  0.25000009  1
  Ru  Ru3  1  0.75000071  0.74999911  0.75000200  1
