# generated using pymatgen
data_Zn3Bi2(PO6)2
_symmetry_space_group_name_H-M   'P 1'
_cell_length_a   5.25335435
_cell_length_b   7.93856081
_cell_length_c   12.04439104
_cell_angle_alpha   88.87129509
_cell_angle_beta   90.00000000
_cell_angle_gamma   90.00000000
_symmetry_Int_Tables_number   1
_chemical_formula_structural   Zn3Bi2(PO6)2
_chemical_formula_sum   'Zn6 Bi4 P4 O24'
_cell_volume   502.20270082
_cell_formula_units_Z   2
loop_
 _symmetry_equiv_pos_site_id
 _symmetry_equiv_pos_as_xyz
  1  'x, y, z'
loop_
 _atom_site_type_symbol
 _atom_site_label
 _atom_site_symmetry_multiplicity
 _atom_site_fract_x
 _atom_site_fract_y
 _atom_site_fract_z
 _atom_site_occupancy
  Zn  Zn0  1  0.25000000  0.69391839  0.91952628  1
  Zn  Zn1  1  0.75000000  0.81864806  0.59868282  1
  Zn  Zn2  1  0.75000000  0.31884139  0.08139369  1
  Zn  Zn3  1  0.25000000  0.79792839  0.41304460  1
  Zn  Zn4  1  0.25000000  0.18604693  0.40216702  1
  Zn  Zn5  1  0.25000000  0.30439498  0.89440047  1
  Bi  Bi6  1  0.75000000  0.98417592  0.89204911  1
  Bi  Bi7  1  0.75000000  0.53594532  0.38932750  1
  Bi  Bi8  1  0.25000000  0.45629351  0.60586929  1
  Bi  Bi9  1  0.25000000  0.00842803  0.10177801  1
  P  P10  1  0.75000000  0.96902091  0.30439464  1
  P  P11  1  0.25000000  0.01673423  0.69792820  1
  P  P12  1  0.75000000  0.53942365  0.80008409  1
  P  P13  1  0.25000000  0.46105739  0.20001919  1
  O  O14  1  0.01328886  0.33456521  0.48115000  1
  O  O15  1  0.99816470  0.99210267  0.37637923  1
  O  O16  1  0.49900083  0.18009853  0.99444763  1
  O  O17  1  0.25000000  0.59017192  0.29587495  1
  O  O18  1  0.01198322  0.99460304  0.62600665  1
  O  O19  1  0.99660688  0.50874120  0.87271522  1
  O  O20  1  0.00756858  0.48445392  0.12859577  1
  O  O21  1  0.25000000  0.27714068  0.24665766  1
  O  O22  1  0.75000000  0.42296666  0.70127252  1
  O  O23  1  0.48801678  0.99460304  0.62600665  1
  O  O24  1  0.00099917  0.18009853  0.99444763  1
  O  O25  1  0.00189716  0.83565732  0.00097149  1
  O  O26  1  0.49243142  0.48445392  0.12859577  1
  O  O27  1  0.50339312  0.50874120  0.87271522  1
  O  O28  1  0.25000000  0.20480525  0.74013027  1
  O  O29  1  0.48671114  0.33456521  0.48115000  1
  O  O30  1  0.49810284  0.83565732  0.00097149  1
  O  O31  1  0.50448003  0.67455243  0.50947382  1
  O  O32  1  0.99551997  0.67455243  0.50947382  1
  O  O33  1  0.75000000  0.09517207  0.20625776  1
  O  O34  1  0.75000000  0.78498851  0.26887033  1
  O  O35  1  0.50183530  0.99210267  0.37637923  1
  O  O36  1  0.25000000  0.90088372  0.80192819  1
  O  O37  1  0.75000000  0.72780444  0.76334181  1
