# generated using pymatgen
data_Li4V3P8O29
_symmetry_space_group_name_H-M   'P 1'
_cell_length_a   9.74983113
_cell_length_b   9.74752097
_cell_length_c   14.25744319
_cell_angle_alpha   90.28319246
_cell_angle_beta   90.71322043
_cell_angle_gamma   60.30078596
_symmetry_Int_Tables_number   1
_chemical_formula_structural   Li4V3P8O29
_chemical_formula_sum   'Li8 V6 P16 O58'
_cell_volume   1176.89528034
_cell_formula_units_Z   2
loop_
 _symmetry_equiv_pos_site_id
 _symmetry_equiv_pos_as_xyz
  1  'x, y, z'
loop_
 _atom_site_type_symbol
 _atom_site_label
 _atom_site_symmetry_multiplicity
 _atom_site_fract_x
 _atom_site_fract_y
 _atom_site_fract_z
 _atom_site_occupancy
  Li  Li0  1  0.76702371  0.33155240  0.04938520  1
  Li  Li1  1  0.32878174  0.90733714  0.06281947  1
  Li  Li2  1  0.66871578  0.23335315  0.44492822  1
  Li  Li3  1  0.32890013  0.76765136  0.56428442  1
  Li  Li4  1  0.67129770  0.09183396  0.93501664  1
  Li  Li5  1  0.09057801  0.67564844  0.44184021  1
  Li  Li6  1  0.03782198  0.95146416  0.99215583  1
  Li  Li7  1  0.98737670  0.05407125  0.51355364  1
  V  V8  1  0.56390306  0.43528886  0.24882465  1
  V  V9  1  0.43262827  0.56615548  0.75018494  1
  V  V10  1  0.56349596  0.99668266  0.74611252  1
  V  V11  1  0.43351292  0.00365967  0.25151237  1
  V  V12  1  0.99676998  0.56305837  0.24959276  1
  V  V13  1  0.00320376  0.43475141  0.75352944  1
  P  P14  1  0.91784560  0.78193375  0.83759199  1
  P  P15  1  0.78039285  0.91771685  0.33579711  1
  P  P16  1  0.91667235  0.30457555  0.34457322  1
  P  P17  1  0.66470518  0.66465701  0.13290082  1
  P  P18  1  0.66809129  0.66304565  0.63237292  1
  P  P19  1  0.77649449  0.31318533  0.83828387  1
  P  P20  1  0.68499246  0.22530927  0.65868723  1
  P  P21  1  0.31261244  0.91197882  0.84564935  1
  P  P22  1  0.68415656  0.08692791  0.15283876  1
  P  P23  1  0.31763921  0.77230412  0.34370304  1
  P  P24  1  0.21736439  0.69392272  0.16367800  1
  P  P25  1  0.33349352  0.33562677  0.36701193  1
  P  P26  1  0.33870403  0.33006698  0.86716715  1
  P  P27  1  0.08410306  0.68892676  0.65469291  1
  P  P28  1  0.21261474  0.08770731  0.66566626  1
  P  P29  1  0.08075600  0.22177733  0.16048004  1
  O  O30  1  0.01177710  0.76606279  0.56315641  1
  O  O31  1  0.92044003  0.74281985  0.33615357  1
  O  O32  1  0.75791364  0.02101669  0.06102490  1
  O  O33  1  0.74058818  0.91621374  0.83497035  1
  O  O34  1  0.92614156  0.61899204  0.82954275  1
  O  O35  1  0.81035275  0.66713113  0.18224473  1
  O  O36  1  0.92196379  0.46062429  0.32989282  1
  O  O37  1  0.98905170  0.21828641  0.07734896  1
  O  O38  1  0.91951066  0.34129160  0.83488447  1
  O  O39  1  0.66301333  0.81512219  0.68000981  1
  O  O40  1  0.62374419  0.91740445  0.32755106  1
  O  O41  1  0.81257962  0.52237308  0.68284013  1
  O  O42  1  0.67587494  0.64523580  0.02933172  1
  O  O43  1  0.67488260  0.66788324  0.52870317  1
  O  O44  1  0.67151276  0.51133461  0.17695114  1
  O  O45  1  0.46570465  0.91851820  0.82992835  1
  O  O46  1  0.51211868  0.81235098  0.16700865  1
  O  O47  1  0.74035972  0.34237385  0.33542997  1
  O  O48  1  0.79886938  0.20277113  0.74745461  1
  O  O49  1  0.76974231  0.21049345  0.56902161  1
  O  O50  1  0.78024639  0.22329983  0.92529267  1
  O  O51  1  0.62386749  0.46914011  0.82651956  1
  O  O52  1  0.51208243  0.67146196  0.66523673  1
  O  O53  1  0.65641780  0.25995040  0.16330143  1
  O  O54  1  0.47420269  0.61605279  0.32461297  1
  O  O55  1  0.34702556  0.91221150  0.33343878  1
  O  O56  1  0.80300169  0.98822762  0.23684616  1
  O  O57  1  0.79613599  0.01104391  0.41391544  1
  O  O58  1  0.19676719  0.99685094  0.58540331  1
  O  O59  1  0.65008445  0.08634044  0.66803304  1
  O  O60  1  0.53163178  0.38270826  0.67043112  1
  O  O61  1  0.34635181  0.74160757  0.82939328  1
  O  O62  1  0.48478768  0.33230012  0.32029043  1
  O  O63  1  0.37999793  0.53899961  0.17294036  1
  O  O64  1  0.20552316  0.79687276  0.08352057  1
  O  O65  1  0.24298195  0.76742240  0.43383869  1
  O  O66  1  0.19854527  0.78981364  0.25984208  1
  O  O67  1  0.25422977  0.66245200  0.66165853  1
  O  O68  1  0.48755212  0.17969411  0.82469985  1
  O  O69  1  0.52687703  0.08891107  0.17144652  1
  O  O70  1  0.33308752  0.47671659  0.82295706  1
  O  O71  1  0.34627266  0.31996996  0.97138583  1
  O  O72  1  0.35143093  0.34153797  0.47047873  1
  O  O73  1  0.18493406  0.49028668  0.32801078  1
  O  O74  1  0.37661528  0.07864720  0.67285902  1
  O  O75  1  0.32517200  0.19490003  0.32372534  1
  O  O76  1  0.08347447  0.65336792  0.16727018  1
  O  O77  1  0.98829954  0.80442693  0.74021458  1
  O  O78  1  0.99951346  0.80516252  0.91931417  1
  O  O79  1  0.08446224  0.53217094  0.67405785  1
  O  O80  1  0.18904993  0.32938203  0.82184233  1
  O  O81  1  0.08040341  0.38172995  0.17581496  1
  O  O82  1  0.25218724  0.08311875  0.16146791  1
  O  O83  1  0.23506976  0.97388363  0.93824538  1
  O  O84  1  0.19259936  0.01475066  0.76271912  1
  O  O85  1  0.08028275  0.26158277  0.66657102  1
  O  O86  1  0.99096360  0.21263376  0.43059692  1
  O  O87  1  0.00132911  0.19990571  0.25351924  1
