# generated using pymatgen
data_Mn7P12WO48
_symmetry_space_group_name_H-M   'P 1'
_cell_length_a   8.51644587
_cell_length_b   8.49952817
_cell_length_c   11.84655463
_cell_angle_alpha   90.07100719
_cell_angle_beta   89.95924495
_cell_angle_gamma   90.04746807
_symmetry_Int_Tables_number   1
_chemical_formula_structural   Mn7P12WO48
_chemical_formula_sum   'Mn7 P12 W1 O48'
_cell_volume   857.52082811
_cell_formula_units_Z   1
loop_
 _symmetry_equiv_pos_site_id
 _symmetry_equiv_pos_as_xyz
  1  'x, y, z'
loop_
 _atom_site_type_symbol
 _atom_site_label
 _atom_site_symmetry_multiplicity
 _atom_site_fract_x
 _atom_site_fract_y
 _atom_site_fract_z
 _atom_site_occupancy
  Mn  Mn0  1  0.24930721  0.96786984  0.61871329  1
  Mn  Mn1  1  0.25077985  0.53452744  0.38052483  1
  Mn  Mn2  1  0.24973935  0.03509492  0.11765254  1
  Mn  Mn3  1  0.25047357  0.46545848  0.88311974  1
  Mn  Mn4  1  0.75062402  0.53538708  0.11963124  1
  Mn  Mn5  1  0.74994580  0.96621364  0.88356992  1
  Mn  Mn6  1  0.74926210  0.03287533  0.38128897  1
  P  P7  1  0.04325596  0.24434993  0.49639353  1
  P  P8  1  0.10656191  0.39235250  0.14583657  1
  P  P9  1  0.10667643  0.10846971  0.85505312  1
  P  P10  1  0.38276286  0.60943548  0.64621365  1
  P  P11  1  0.39243502  0.89230511  0.35473307  1
  P  P12  1  0.46360379  0.75021652  0.00058382  1
  P  P13  1  0.53728019  0.25040996  0.00048199  1
  P  P14  1  0.60363808  0.39145464  0.34916319  1
  P  P15  1  0.60372003  0.09758322  0.64580304  1
  P  P16  1  0.89908557  0.61267113  0.86139669  1
  P  P17  1  0.89320179  0.89218108  0.14576883  1
  P  P18  1  0.96795586  0.75741039  0.49600430  1
  W  W19  1  0.75032211  0.46765265  0.62084222  1
  O  O20  1  0.06207223  0.64393104  0.42297480  1
  O  O21  1  0.05937424  0.86062462  0.57823704  1
  O  O22  1  0.07459310  0.90132431  0.15897664  1
  O  O23  1  0.07724594  0.60134344  0.84401705  1
  O  O24  1  0.14694519  0.15945191  0.58259011  1
  O  O25  1  0.14446718  0.34365772  0.41772527  1
  O  O26  1  0.15861232  0.43817079  0.02669396  1
  O  O27  1  0.15922007  0.06142845  0.97365949  1
  O  O28  1  0.15301699  0.22190047  0.17636458  1
  O  O29  1  0.15253388  0.27853983  0.82428068  1
  O  O30  1  0.18021470  0.51389590  0.22721603  1
  O  O31  1  0.17877176  0.98667442  0.77233874  1
  O  O32  1  0.32034697  0.01378528  0.27195571  1
  O  O33  1  0.31665129  0.48690015  0.72821604  1
  O  O34  1  0.34714848  0.78041598  0.67654236  1
  O  O35  1  0.34732241  0.72228029  0.32333507  1
  O  O36  1  0.34011677  0.56378907  0.52625917  1
  O  O37  1  0.33979073  0.93899437  0.47357824  1
  O  O38  1  0.35316608  0.84097563  0.08159620  1
  O  O39  1  0.35552829  0.65808173  0.91926875  1
  O  O40  1  0.42414293  0.09900699  0.65966972  1
  O  O41  1  0.42359468  0.39806024  0.34396941  1
  O  O42  1  0.44061620  0.14049431  0.07685328  1
  O  O43  1  0.44108965  0.35886649  0.92283678  1
  O  O44  1  0.55994737  0.64133802  0.07743464  1
  O  O45  1  0.55983197  0.85972150  0.92349591  1
  O  O46  1  0.56866326  0.59197819  0.65611031  1
  O  O47  1  0.57408504  0.90022274  0.34136797  1
  O  O48  1  0.64611971  0.34155568  0.08196828  1
  O  O49  1  0.64666078  0.15984848  0.91821845  1
  O  O50  1  0.65796047  0.06004169  0.52673633  1
  O  O51  1  0.66245081  0.43789631  0.47160788  1
  O  O52  1  0.65362478  0.22225234  0.32425248  1
  O  O53  1  0.65292667  0.27434923  0.67131658  1
  O  O54  1  0.67996455  0.51468833  0.27220256  1
  O  O55  1  0.68374282  0.98461757  0.72826525  1
  O  O56  1  0.81899042  0.01373212  0.22760257  1
  O  O57  1  0.82417164  0.49389650  0.77217254  1
  O  O58  1  0.84748463  0.72211425  0.17661636  1
  O  O59  1  0.84720713  0.77795430  0.82573412  1
  O  O60  1  0.84013798  0.56030192  0.97499994  1
  O  O61  1  0.84151241  0.93845466  0.02679999  1
  O  O62  1  0.85754460  0.65515061  0.57597969  1
  O  O63  1  0.85290099  0.84175896  0.41783605  1
  O  O64  1  0.92520054  0.10054926  0.84236680  1
  O  O65  1  0.92551988  0.40053203  0.15912736  1
  O  O66  1  0.94122174  0.13839551  0.42267371  1
  O  O67  1  0.93491324  0.35213431  0.57318654  1
