# generated using pymatgen
data_Mn12O7F17
_symmetry_space_group_name_H-M   'P 1'
_cell_length_a   4.84262452
_cell_length_b   5.82236721
_cell_length_c   15.82110398
_cell_angle_alpha   91.18039360
_cell_angle_beta   90.76568929
_cell_angle_gamma   84.79961561
_symmetry_Int_Tables_number   1
_chemical_formula_structural   Mn12O7F17
_chemical_formula_sum   'Mn12 O7 F17'
_cell_volume   444.12448416
_cell_formula_units_Z   1
loop_
 _symmetry_equiv_pos_site_id
 _symmetry_equiv_pos_as_xyz
  1  'x, y, z'
loop_
 _atom_site_type_symbol
 _atom_site_label
 _atom_site_symmetry_multiplicity
 _atom_site_fract_x
 _atom_site_fract_y
 _atom_site_fract_z
 _atom_site_occupancy
  Mn  Mn0  1  0.99698324  0.17688319  0.41681449  1
  Mn  Mn1  1  0.03209719  0.83354413  0.24517127  1
  Mn  Mn2  1  0.99584917  0.15361346  0.08429661  1
  Mn  Mn3  1  0.00508558  0.15112172  0.74669592  1
  Mn  Mn4  1  0.00818473  0.81700507  0.58320444  1
  Mn  Mn5  1  0.01001616  0.82926978  0.90471777  1
  Mn  Mn6  1  0.51019597  0.35122375  0.59546219  1
  Mn  Mn7  1  0.50851542  0.32729487  0.92689661  1
  Mn  Mn8  1  0.49467764  0.35210291  0.25702627  1
  Mn  Mn9  1  0.50715044  0.66345308  0.08424554  1
  Mn  Mn10  1  0.50889339  0.65070969  0.40696337  1
  Mn  Mn11  1  0.48676243  0.65148739  0.74695716  1
  O  O12  1  0.22230510  0.88707329  0.13377353  1
  O  O13  1  0.22384892  0.88873795  0.79590635  1
  O  O14  1  0.28231492  0.60706264  0.30890036  1
  O  O15  1  0.29268451  0.60471351  0.64266498  1
  O  O16  1  0.72504036  0.39087472  0.03661639  1
  O  O17  1  0.71348479  0.39050887  0.35733750  1
  O  O18  1  0.73363291  0.39038766  0.69657849  1
  F  F19  1  0.23666661  0.10969505  0.30723070  1
  F  F20  1  0.22311013  0.10979402  0.63781920  1
  F  F21  1  0.21336814  0.11335292  0.97437908  1
  F  F22  1  0.24304626  0.87841849  0.46842229  1
  F  F23  1  0.26499120  0.38161510  0.14999679  1
  F  F24  1  0.27678013  0.37963531  0.48798095  1
  F  F25  1  0.24957089  0.38157094  0.81585954  1
  F  F26  1  0.26859966  0.61803851  0.98047900  1
  F  F27  1  0.72689791  0.62797650  0.19054010  1
  F  F28  1  0.73301645  0.61629940  0.51438209  1
  F  F29  1  0.69922180  0.62080230  0.85657145  1
  F  F30  1  0.76503319  0.12507984  0.19624907  1
  F  F31  1  0.76207784  0.11895330  0.53169852  1
  F  F32  1  0.78634442  0.89042995  0.35618751  1
  F  F33  1  0.75904951  0.89550292  0.01868226  1
  F  F34  1  0.77188590  0.11871840  0.85287866  1
  F  F35  1  0.76261708  0.89704738  0.69041253  1
