# generated using pymatgen
data_NaHo4Ge2O11
_symmetry_space_group_name_H-M   'P 1'
_cell_length_a   6.78436884
_cell_length_b   21.84077939
_cell_length_c   6.90959624
_cell_angle_alpha   90.00000000
_cell_angle_beta   90.00000000
_cell_angle_gamma   90.00000000
_symmetry_Int_Tables_number   1
_chemical_formula_structural   NaHo4Ge2O11
_chemical_formula_sum   'Na4 Ho16 Ge8 O44'
_cell_volume   1023.83566316
_cell_formula_units_Z   4
loop_
 _symmetry_equiv_pos_site_id
 _symmetry_equiv_pos_as_xyz
  1  'x, y, z'
loop_
 _atom_site_type_symbol
 _atom_site_label
 _atom_site_symmetry_multiplicity
 _atom_site_fract_x
 _atom_site_fract_y
 _atom_site_fract_z
 _atom_site_occupancy
  Na  Na0  1  0.64188379  0.25000000  0.80497558  1
  Na  Na1  1  0.14188379  0.25000000  0.69502442  1
  Na  Na2  1  0.35811621  0.75000000  0.19502442  1
  Na  Na3  1  0.85811621  0.75000000  0.30497558  1
  Ho  Ho4  1  0.71790652  0.01323836  0.37496392  1
  Ho  Ho5  1  0.21790652  0.48676164  0.12503608  1
  Ho  Ho6  1  0.28209348  0.51323836  0.62503608  1
  Ho  Ho7  1  0.78209348  0.98676164  0.87496392  1
  Ho  Ho8  1  0.28209348  0.98676164  0.62503608  1
  Ho  Ho9  1  0.78209348  0.51323836  0.87496392  1
  Ho  Ho10  1  0.71790652  0.48676164  0.37496392  1
  Ho  Ho11  1  0.21790652  0.01323836  0.12503608  1
  Ho  Ho12  1  0.90747782  0.14952285  0.12988857  1
  Ho  Ho13  1  0.40747782  0.35047715  0.37011143  1
  Ho  Ho14  1  0.09252218  0.64952285  0.87011143  1
  Ho  Ho15  1  0.59252218  0.85047715  0.62988857  1
  Ho  Ho16  1  0.09252218  0.85047715  0.87011143  1
  Ho  Ho17  1  0.59252218  0.64952285  0.62988857  1
  Ho  Ho18  1  0.90747782  0.35047715  0.12988857  1
  Ho  Ho19  1  0.40747782  0.14952285  0.37011143  1
  Ge  Ge20  1  0.92111049  0.12637662  0.59538657  1
  Ge  Ge21  1  0.42111049  0.37362338  0.90461343  1
  Ge  Ge22  1  0.07888951  0.62637662  0.40461343  1
  Ge  Ge23  1  0.57888951  0.87362338  0.09538657  1
  Ge  Ge24  1  0.07888951  0.87362338  0.40461343  1
  Ge  Ge25  1  0.57888951  0.62637662  0.09538657  1
  Ge  Ge26  1  0.92111049  0.37362338  0.59538657  1
  Ge  Ge27  1  0.42111049  0.12637662  0.90461343  1
  O  O28  1  0.72113145  0.11804074  0.42609488  1
  O  O29  1  0.22113145  0.38195926  0.07390512  1
  O  O30  1  0.27886855  0.61804074  0.57390512  1
  O  O31  1  0.77886855  0.88195926  0.92609488  1
  O  O32  1  0.27886855  0.88195926  0.57390512  1
  O  O33  1  0.77886855  0.61804074  0.92609488  1
  O  O34  1  0.72113145  0.38195926  0.42609488  1
  O  O35  1  0.22113145  0.11804074  0.07390512  1
  O  O36  1  0.89177307  0.04444648  0.11560456  1
  O  O37  1  0.39177307  0.45555352  0.38439544  1
  O  O38  1  0.10822693  0.54444648  0.88439544  1
  O  O39  1  0.60822693  0.95555352  0.61560456  1
  O  O40  1  0.10822693  0.95555352  0.88439544  1
  O  O41  1  0.60822693  0.54444648  0.61560456  1
  O  O42  1  0.89177307  0.45555352  0.11560456  1
  O  O43  1  0.39177307  0.04444648  0.38439544  1
  O  O44  1  0.97765889  0.25000000  0.13836962  1
  O  O45  1  0.47765889  0.25000000  0.36163038  1
  O  O46  1  0.02234111  0.75000000  0.86163038  1
  O  O47  1  0.52234111  0.75000000  0.63836962  1
  O  O48  1  0.58332628  0.15979416  0.07593226  1
  O  O49  1  0.08332628  0.34020584  0.42406774  1
  O  O50  1  0.41667372  0.65979416  0.92406774  1
  O  O51  1  0.91667372  0.84020584  0.57593226  1
  O  O52  1  0.41667372  0.84020584  0.92406774  1
  O  O53  1  0.91667372  0.65979416  0.57593226  1
  O  O54  1  0.58332628  0.34020584  0.07593226  1
  O  O55  1  0.08332628  0.15979416  0.42406774  1
  O  O56  1  0.89599925  0.17139393  0.80095965  1
  O  O57  1  0.39599925  0.32860607  0.69904035  1
  O  O58  1  0.10400075  0.67139393  0.19904035  1
  O  O59  1  0.60400075  0.82860607  0.30095965  1
  O  O60  1  0.10400075  0.82860607  0.19904035  1
  O  O61  1  0.60400075  0.67139393  0.30095965  1
  O  O62  1  0.89599925  0.32860607  0.80095965  1
  O  O63  1  0.39599925  0.17139393  0.69904035  1
  O  O64  1  0.95444730  0.04602677  0.64099133  1
  O  O65  1  0.45444730  0.45397323  0.85900867  1
  O  O66  1  0.04555270  0.54602677  0.35900867  1
  O  O67  1  0.54555270  0.95397323  0.14099133  1
  O  O68  1  0.04555270  0.95397323  0.35900867  1
  O  O69  1  0.54555270  0.54602677  0.14099133  1
  O  O70  1  0.95444730  0.45397323  0.64099133  1
  O  O71  1  0.45444730  0.04602677  0.85900867  1
