# generated using pymatgen
data_TbAgH2C2SO9
_symmetry_space_group_name_H-M   'P 1'
_cell_length_a   7.73775735
_cell_length_b   7.73775735
_cell_length_c   9.08942112
_cell_angle_alpha   66.10216679
_cell_angle_beta   113.89783321
_cell_angle_gamma   126.59091438
_symmetry_Int_Tables_number   1
_chemical_formula_structural   TbAgH2C2SO9
_chemical_formula_sum   'Tb2 Ag2 H4 C4 S2 O18'
_cell_volume   389.44197069
_cell_formula_units_Z   2
loop_
 _symmetry_equiv_pos_site_id
 _symmetry_equiv_pos_as_xyz
  1  'x, y, z'
loop_
 _atom_site_type_symbol
 _atom_site_label
 _atom_site_symmetry_multiplicity
 _atom_site_fract_x
 _atom_site_fract_y
 _atom_site_fract_z
 _atom_site_occupancy
  Tb  Tb0  1  0.24275348  0.75724452  0.26828739  1
  Tb  Tb1  1  0.75724452  0.24275348  0.73171261  1
  Ag  Ag2  1  0.08635501  0.91364299  0.66848058  1
  Ag  Ag3  1  0.91364299  0.08635401  0.33151942  1
  H  H4  1  0.30104596  0.69895204  0.98828625  1
  H  H5  1  0.69895104  0.30104596  0.01171375  1
  H  H6  1  0.41519532  0.58480268  0.14704182  1
  H  H7  1  0.58480168  0.41519532  0.85295818  1
  C  C8  1  0.01723774  0.98275926  0.93013221  1
  C  C9  1  0.98275926  0.01723874  0.06986779  1
  C  C10  1  0.60976989  0.60976989  0.49999900  1
  C  C11  1  0.39023111  0.39023111  0.49999900  1
  S  S12  1  0.33366405  0.66633295  0.71641260  1
  S  S13  1  0.66633295  0.33366505  0.28358640  1
  O  O14  1  0.33564226  0.66435574  0.10883227  1
  O  O15  1  0.66435574  0.33564226  0.89116773  1
  O  O16  1  0.44842389  0.55157411  0.75283877  1
  O  O17  1  0.55157311  0.44842389  0.24716023  1
  O  O18  1  0.47979120  0.86542256  0.79080267  1
  O  O19  1  0.86542256  0.47979020  0.20919733  1
  O  O20  1  0.52020980  0.13457744  0.20919733  1
  O  O21  1  0.13457844  0.52020980  0.79080267  1
  O  O22  1  0.26123065  0.73876735  0.53454937  1
  O  O23  1  0.73876735  0.26122965  0.46545063  1
  O  O24  1  0.60167006  0.78289766  0.41798885  1
  O  O25  1  0.78289866  0.60167006  0.58201215  1
  O  O26  1  0.39832894  0.21710034  0.58201215  1
  O  O27  1  0.21710134  0.39832894  0.41798885  1
  O  O28  1  0.94367674  0.05632126  0.78225002  1
  O  O29  1  0.05632126  0.94367574  0.21774998  1
  O  O30  1  0.11827524  0.88172176  0.97237245  1
  O  O31  1  0.88172176  0.11827624  0.02762755  1
