# generated using pymatgen
data_Li3V3P8O29
_symmetry_space_group_name_H-M   'P 1'
_cell_length_a   9.75613670
_cell_length_b   9.77299310
_cell_length_c   14.40892697
_cell_angle_alpha   90.17057651
_cell_angle_beta   90.78228816
_cell_angle_gamma   59.94292493
_symmetry_Int_Tables_number   1
_chemical_formula_structural   Li3V3P8O29
_chemical_formula_sum   'Li6 V6 P16 O58'
_cell_volume   1188.97541798
_cell_formula_units_Z   2
loop_
 _symmetry_equiv_pos_site_id
 _symmetry_equiv_pos_as_xyz
  1  'x, y, z'
loop_
 _atom_site_type_symbol
 _atom_site_label
 _atom_site_symmetry_multiplicity
 _atom_site_fract_x
 _atom_site_fract_y
 _atom_site_fract_z
 _atom_site_occupancy
  Li  Li0  1  0.76984753  0.90926552  0.54818925  1
  Li  Li1  1  0.77060644  0.31893520  0.05695270  1
  Li  Li2  1  0.30360371  0.91513039  0.05979254  1
  Li  Li3  1  0.32132433  0.77225608  0.55718455  1
  Li  Li4  1  0.70921797  0.07265596  0.94484777  1
  Li  Li5  1  0.97474042  0.06411167  0.50070407  1
  V  V6  1  0.56310457  0.43384582  0.25614015  1
  V  V7  1  0.43411676  0.56315935  0.74699647  1
  V  V8  1  0.56699568  0.99435790  0.74868038  1
  V  V9  1  0.43155601  0.00443245  0.25164554  1
  V  V10  1  0.00220434  0.56328704  0.24821622  1
  V  V11  1  0.99569705  0.43848204  0.74837315  1
  P  P12  1  0.91848464  0.77062857  0.84546168  1
  P  P13  1  0.77839290  0.90983669  0.33704529  1
  P  P14  1  0.92166109  0.30509964  0.34032572  1
  P  P15  1  0.66174344  0.66573344  0.13376160  1
  P  P16  1  0.66452205  0.66911633  0.63123241  1
  P  P17  1  0.77284211  0.31722313  0.83886206  1
  P  P18  1  0.69373973  0.21913737  0.65939336  1
  P  P19  1  0.32129557  0.90662476  0.84262120  1
  P  P20  1  0.67956537  0.09295430  0.15961553  1
  P  P21  1  0.31180973  0.77600936  0.34321336  1
  P  P22  1  0.22369604  0.68653901  0.16445153  1
  P  P23  1  0.33359455  0.33291844  0.36694105  1
  P  P24  1  0.33724779  0.32923631  0.86363074  1
  P  P25  1  0.07916258  0.69580523  0.66206233  1
  P  P26  1  0.21766432  0.08764960  0.66574180  1
  P  P27  1  0.08384447  0.22655163  0.15868707  1
  O  O28  1  0.98749148  0.79725114  0.58196082  1
  O  O29  1  0.91700073  0.73847789  0.32841262  1
  O  O30  1  0.74953091  0.01607899  0.07016571  1
  O  O31  1  0.74551269  0.91734731  0.83445969  1
  O  O32  1  0.90880051  0.61866172  0.82185674  1
  O  O33  1  0.81390361  0.65490593  0.18124565  1
  O  O34  1  0.92866362  0.45869636  0.33018416  1
  O  O35  1  0.99061303  0.23094893  0.07550144  1
  O  O36  1  0.91657531  0.34131379  0.83149130  1
  O  O37  1  0.67453119  0.81394357  0.67606989  1
  O  O38  1  0.61827453  0.91156686  0.32345391  1
  O  O39  1  0.80842251  0.51916654  0.67638584  1
  O  O40  1  0.66411576  0.66161003  0.03071060  1
  O  O41  1  0.66511474  0.68471805  0.52866270  1
  O  O42  1  0.65575454  0.52021416  0.17494378  1
  O  O43  1  0.48196301  0.89711565  0.81892598  1
  O  O44  1  0.51664771  0.82079344  0.17268857  1
  O  O45  1  0.74472818  0.34740507  0.32791448  1
  O  O46  1  0.78902604  0.19939959  0.75652137  1
  O  O47  1  0.79615072  0.19509640  0.57928389  1
  O  O48  1  0.75977849  0.24784203  0.92852119  1
  O  O49  1  0.62021698  0.47867430  0.81699692  1
  O  O50  1  0.50987157  0.67534074  0.66685843  1
  O  O51  1  0.65906684  0.26130219  0.16480595  1
  O  O52  1  0.47034205  0.61756131  0.32959246  1
  O  O53  1  0.34294951  0.91533247  0.32635845  1
  O  O54  1  0.79318248  0.00107910  0.24804878  1
  O  O55  1  0.78714090  0.98307051  0.42614915  1
  O  O56  1  0.20375576  0.99641128  0.58682752  1
  O  O57  1  0.65318740  0.08319256  0.66415427  1
  O  O58  1  0.53941920  0.38237559  0.66798101  1
  O  O59  1  0.34258849  0.73986988  0.82460442  1
  O  O60  1  0.48578329  0.32755703  0.32395222  1
  O  O61  1  0.37824145  0.52623493  0.18229359  1
  O  O62  1  0.22919514  0.77528258  0.08321343  1
  O  O63  1  0.23719260  0.78973796  0.43455822  1
  O  O64  1  0.19736304  0.78861949  0.25930785  1
  O  O65  1  0.25524244  0.65769379  0.66040389  1
  O  O66  1  0.48468946  0.17762077  0.82181506  1
  O  O67  1  0.52032442  0.10008484  0.18024734  1
  O  O68  1  0.34552064  0.47191430  0.81515429  1
  O  O69  1  0.34861018  0.32887126  0.96599804  1
  O  O70  1  0.33903496  0.32791635  0.46955544  1
  O  O71  1  0.19023688  0.48043445  0.32100714  1
  O  O72  1  0.38049410  0.08134495  0.67424401  1
  O  O73  1  0.33107385  0.18509911  0.32203866  1
  O  O74  1  0.08285930  0.65524897  0.16621997  1
  O  O75  1  0.01003869  0.78996370  0.75754554  1
  O  O76  1  0.99392179  0.77099695  0.93408215  1
  O  O77  1  0.07743423  0.53811415  0.67234121  1
  O  O78  1  0.18604023  0.33900141  0.81939015  1
  O  O79  1  0.09234735  0.37906260  0.17580123  1
  O  O80  1  0.25621998  0.08277533  0.15948230  1
  O  O81  1  0.26288079  0.97298341  0.93519881  1
  O  O82  1  0.19904866  0.01576282  0.76302369  1
  O  O83  1  0.08287792  0.26179546  0.66753994  1
  O  O84  1  0.99423825  0.20841744  0.42455140  1
  O  O85  1  0.00673967  0.19972633  0.25021023  1
