# generated using pymatgen
data_Li3V3P8O29
_symmetry_space_group_name_H-M   'P 1'
_cell_length_a   9.76674037
_cell_length_b   9.71326881
_cell_length_c   14.30557872
_cell_angle_alpha   90.59480371
_cell_angle_beta   90.79667120
_cell_angle_gamma   60.37689023
_symmetry_Int_Tables_number   1
_chemical_formula_structural   Li3V3P8O29
_chemical_formula_sum   'Li6 V6 P16 O58'
_cell_volume   1179.62089846
_cell_formula_units_Z   2
loop_
 _symmetry_equiv_pos_site_id
 _symmetry_equiv_pos_as_xyz
  1  'x, y, z'
loop_
 _atom_site_type_symbol
 _atom_site_label
 _atom_site_symmetry_multiplicity
 _atom_site_fract_x
 _atom_site_fract_y
 _atom_site_fract_z
 _atom_site_occupancy
  Li  Li0  1  0.91735671  0.30113310  0.55464334  1
  Li  Li1  1  0.32935689  0.90506921  0.06111261  1
  Li  Li2  1  0.31555239  0.77258995  0.55753176  1
  Li  Li3  1  0.67249911  0.09373964  0.94379950  1
  Li  Li4  1  0.07995081  0.69464072  0.43817949  1
  Li  Li5  1  0.00193244  0.99791415  0.00833355  1
  V  V6  1  0.56986649  0.43416672  0.24763986  1
  V  V7  1  0.43436437  0.55958229  0.75578269  1
  V  V8  1  0.56802933  0.99800214  0.74258457  1
  V  V9  1  0.43423045  0.00232719  0.25680911  1
  V  V10  1  0.99391724  0.56643147  0.23914291  1
  V  V11  1  0.00303526  0.43573425  0.75862435  1
  P  P12  1  0.91615352  0.78580903  0.83815791  1
  P  P13  1  0.77767770  0.91247825  0.33948722  1
  P  P14  1  0.91303641  0.31821042  0.34037642  1
  P  P15  1  0.65764406  0.67172085  0.13108166  1
  P  P16  1  0.66756574  0.65828627  0.63358751  1
  P  P17  1  0.77878764  0.30401027  0.84050051  1
  P  P18  1  0.68424313  0.22998752  0.65649891  1
  P  P19  1  0.31882562  0.91318917  0.84344261  1
  P  P20  1  0.68520861  0.08566644  0.15856982  1
  P  P21  1  0.32050480  0.76831670  0.34319071  1
  P  P22  1  0.22218408  0.69459710  0.16129884  1
  P  P23  1  0.32877260  0.34444925  0.36542216  1
  P  P24  1  0.33938058  0.32701533  0.86870398  1
  P  P25  1  0.08963760  0.67970648  0.65740866  1
  P  P26  1  0.22291010  0.08851902  0.66420512  1
  P  P27  1  0.08588748  0.21353673  0.16045150  1
  O  O28  1  0.01746826  0.74171376  0.56470734  1
  O  O29  1  0.91958067  0.74011717  0.33291967  1
  O  O30  1  0.76318136  0.01903648  0.06742812  1
  O  O31  1  0.74039129  0.91981601  0.83234693  1
  O  O32  1  0.92084882  0.62103940  0.82995198  1
  O  O33  1  0.80828619  0.67517646  0.17254550  1
  O  O34  1  0.90463672  0.47772880  0.31511117  1
  O  O35  1  0.00768155  0.18578748  0.07888606  1
  O  O36  1  0.91310107  0.34563671  0.83474457  1
  O  O37  1  0.66081211  0.81419322  0.67709455  1
  O  O38  1  0.62133607  0.90504146  0.32155981  1
  O  O39  1  0.81941499  0.51718642  0.67771124  1
  O  O40  1  0.65198192  0.67366763  0.02741049  1
  O  O41  1  0.66408324  0.66135580  0.52999247  1
  O  O42  1  0.66758159  0.52016073  0.17623355  1
  O  O43  1  0.47357567  0.91446794  0.82484217  1
  O  O44  1  0.50785919  0.81746056  0.17338280  1
  O  O45  1  0.74402774  0.34234236  0.32893540  1
  O  O46  1  0.79680029  0.20607542  0.74599258  1
  O  O47  1  0.76355288  0.23797584  0.57150712  1
  O  O48  1  0.79296409  0.20298179  0.92144721  1
  O  O49  1  0.61823523  0.46146443  0.83076337  1
  O  O50  1  0.52106176  0.65748063  0.67577188  1
  O  O51  1  0.65217697  0.25895934  0.16995914  1
  O  O52  1  0.47987382  0.61958939  0.32357986  1
  O  O53  1  0.34256044  0.91553203  0.33555706  1
  O  O54  1  0.79875701  0.99130369  0.24454667  1
  O  O55  1  0.77498963  0.99814509  0.42534519  1
  O  O56  1  0.23015858  0.99057578  0.58239140  1
  O  O57  1  0.65514448  0.08643146  0.66445402  1
  O  O58  1  0.52412611  0.38030688  0.67832334  1
  O  O59  1  0.34913181  0.74109846  0.82756411  1
  O  O60  1  0.47015041  0.34976767  0.31807076  1
  O  O61  1  0.38325108  0.54206236  0.16707029  1
  O  O62  1  0.19931763  0.80669164  0.08431128  1
  O  O63  1  0.24704074  0.75989419  0.43267266  1
  O  O64  1  0.20081358  0.78692690  0.26015794  1
  O  O65  1  0.25819953  0.65877539  0.66603992  1
  O  O66  1  0.49028574  0.18283999  0.82739832  1
  O  O67  1  0.52947982  0.08422992  0.17455638  1
  O  O68  1  0.33063719  0.48011007  0.82317827  1
  O  O69  1  0.34267169  0.33021327  0.97220322  1
  O  O70  1  0.33051572  0.34728427  0.46888536  1
  O  O71  1  0.17658956  0.48563931  0.32189485  1
  O  O72  1  0.37794585  0.09733696  0.67793789  1
  O  O73  1  0.33852114  0.18725333  0.32288581  1
  O  O74  1  0.08736738  0.65277227  0.16376166  1
  O  O75  1  0.99029673  0.79983893  0.74040836  1
  O  O76  1  0.99593680  0.80908349  0.92031863  1
  O  O77  1  0.09641610  0.52105527  0.68348265  1
  O  O78  1  0.18945321  0.32519225  0.82582791  1
  O  O79  1  0.07772527  0.37920089  0.16717630  1
  O  O80  1  0.26232027  0.08133208  0.16634372  1
  O  O81  1  0.24502233  0.97523776  0.93564154  1
  O  O82  1  0.20044677  0.01439270  0.76013180  1
  O  O83  1  0.07942473  0.25845535  0.66356793  1
  O  O84  1  0.98710069  0.25556151  0.43243553  1
  O  O85  1  0.01276929  0.19751496  0.25796499  1
