# generated using pymatgen
data_NaZnAs(H2O3)2
_symmetry_space_group_name_H-M   'P 1'
_cell_length_a   5.75402096
_cell_length_b   6.21789689
_cell_length_c   7.95419943
_cell_angle_alpha   87.87353205
_cell_angle_beta   88.55688631
_cell_angle_gamma   91.38497475
_symmetry_Int_Tables_number   1
_chemical_formula_structural   NaZnAs(H2O3)2
_chemical_formula_sum   'Na2 Zn2 As2 H8 O12'
_cell_volume   284.20866314
_cell_formula_units_Z   2
loop_
 _symmetry_equiv_pos_site_id
 _symmetry_equiv_pos_as_xyz
  1  'x, y, z'
loop_
 _atom_site_type_symbol
 _atom_site_label
 _atom_site_symmetry_multiplicity
 _atom_site_fract_x
 _atom_site_fract_y
 _atom_site_fract_z
 _atom_site_occupancy
  Na  Na0  1  0.50000065  0.49999673  0.99999307  1
  Na  Na1  1  0.00000062  0.00000102  -0.00000015  1
  Zn  Zn2  1  0.68650691  0.74647560  0.38806208  1
  Zn  Zn3  1  0.31348569  0.25352070  0.61194088  1
  As  As4  1  0.81261988  0.25139128  0.38212452  1
  As  As5  1  0.18738225  0.74861298  0.61786967  1
  H  H6  1  0.86845507  0.38903189  0.02613936  1
  H  H7  1  0.45941544  0.09485361  0.14926307  1
  H  H8  1  0.06236595  0.60303466  0.16738363  1
  H  H9  1  0.24957860  0.20544678  0.23120708  1
  H  H10  1  0.75041865  0.79454934  0.76878951  1
  H  H11  1  0.93765603  0.39697681  0.83261971  1
  H  H12  1  0.54058942  0.90513940  0.85074925  1
  H  H13  1  0.13155304  0.61098629  0.97388790  1
  O  O14  1  0.16699893  0.67547776  0.08146432  1
  O  O15  1  0.32408742  0.18057090  0.11842824  1
  O  O16  1  0.77467490  0.48488999  0.25438614  1
  O  O17  1  0.74165783  0.03231639  0.26155647  1
  O  O18  1  0.10601609  0.24253216  0.41747440  1
  O  O19  1  0.35171499  0.73625931  0.43849201  1
  O  O20  1  0.64826664  0.26374902  0.56152040  1
  O  O21  1  0.89397338  0.75745868  0.58253830  1
  O  O22  1  0.25833504  0.96768540  0.73845281  1
  O  O23  1  0.22533161  0.51510772  0.74562020  1
  O  O24  1  0.67589427  0.81943943  0.88158541  1
  O  O25  1  0.83301370  0.32450517  0.91844769  1
