# generated using pymatgen
data_Ti4ZnO8
_symmetry_space_group_name_H-M   'P 1'
_cell_length_a   2.95570873
_cell_length_b   7.39019657
_cell_length_c   7.55191558
_cell_angle_alpha   84.05689098
_cell_angle_beta   78.71432245
_cell_angle_gamma   78.42671053
_symmetry_Int_Tables_number   1
_chemical_formula_structural   Ti4ZnO8
_chemical_formula_sum   'Ti4 Zn1 O8'
_cell_volume   158.12475916
_cell_formula_units_Z   1
loop_
 _symmetry_equiv_pos_site_id
 _symmetry_equiv_pos_as_xyz
  1  'x, y, z'
loop_
 _atom_site_type_symbol
 _atom_site_label
 _atom_site_symmetry_multiplicity
 _atom_site_fract_x
 _atom_site_fract_y
 _atom_site_fract_z
 _atom_site_occupancy
  Ti  Ti0  1  0.63148758  0.17627416  0.56078133  1
  Ti  Ti1  1  0.14761059  0.49112534  0.21383081  1
  Ti  Ti2  1  0.82439189  0.50256682  0.84950394  1
  Ti  Ti3  1  0.34217994  0.81269721  0.50354402  1
  Zn  Zn4  1  0.44755851  0.03643450  0.06879951  1
  O  O5  1  0.84148993  0.68054306  0.63678672  1
  O  O6  1  0.44917780  0.34839561  0.75314493  1
  O  O7  1  0.52540371  0.64249593  0.30649257  1
  O  O8  1  0.13600985  0.30710716  0.42057377  1
  O  O9  1  0.15163287  0.03055935  0.66633854  1
  O  O10  1  0.77152918  0.36145569  0.09650252  1
  O  O11  1  0.82325488  0.95996823  0.39324348  1
  O  O12  1  0.20575227  0.62648494  0.96110388  1
