# generated using pymatgen
data_TmMg5
_symmetry_space_group_name_H-M   'P 1'
_cell_length_a   3.39304154
_cell_length_b   6.33126263
_cell_length_c   7.39528827
_cell_angle_alpha   74.30346210
_cell_angle_beta   90.00000000
_cell_angle_gamma   105.54287466
_symmetry_Int_Tables_number   1
_chemical_formula_structural   TmMg5
_chemical_formula_sum   'Tm1 Mg5'
_cell_volume   146.89900354
_cell_formula_units_Z   1
loop_
 _symmetry_equiv_pos_site_id
 _symmetry_equiv_pos_as_xyz
  1  'x, y, z'
loop_
 _atom_site_type_symbol
 _atom_site_label
 _atom_site_symmetry_multiplicity
 _atom_site_fract_x
 _atom_site_fract_y
 _atom_site_fract_z
 _atom_site_occupancy
  Tm  Tm0  1  0.37897809  0.75795618  0.74233404  1
  Mg  Mg1  1  0.01390273  0.02780646  0.99027309  1
  Mg  Mg2  1  0.71134502  0.42268704  0.07555739  1
  Mg  Mg3  1  0.34194439  0.68388879  0.31423012  1
  Mg  Mg4  1  0.05272247  0.10544494  0.39543372  1
  Mg  Mg5  1  0.66777629  0.33555058  0.64883863  1
