# generated using pymatgen
data_Y4(Mo2O7)3
_symmetry_space_group_name_H-M   'P 1'
_cell_length_a   7.38043187
_cell_length_b   22.20147293
_cell_length_c   7.37747503
_cell_angle_alpha   60.17336363
_cell_angle_beta   59.98674271
_cell_angle_gamma   60.08962307
_symmetry_Int_Tables_number   1
_chemical_formula_structural   Y4(Mo2O7)3
_chemical_formula_sum   'Y8 Mo12 O42'
_cell_volume   856.39172595
_cell_formula_units_Z   2
loop_
 _symmetry_equiv_pos_site_id
 _symmetry_equiv_pos_as_xyz
  1  'x, y, z'
loop_
 _atom_site_type_symbol
 _atom_site_label
 _atom_site_symmetry_multiplicity
 _atom_site_fract_x
 _atom_site_fract_y
 _atom_site_fract_z
 _atom_site_occupancy
  Y  Y0  1  0.50000000  0.16666700  0.50000000  1
  Y  Y1  1  0.51450868  0.49039189  0.50516071  1
  Y  Y2  1  0.48549132  0.84294111  0.49483929  1
  Y  Y3  1  0.50000000  0.16666700  0.00000000  1
  Y  Y4  1  0.00000000  0.16666700  0.50000000  1
  Y  Y5  1  0.00915493  0.49039189  0.50516071  1
  Y  Y6  1  0.99084507  0.84294111  0.49483929  1
  Y  Y7  1  0.49999900  0.66666700  0.50000000  1
  Mo  Mo8  1  0.99984983  0.00016110  0.99731847  1
  Mo  Mo9  1  0.00015017  0.33317190  0.00268153  1
  Mo  Mo10  1  0.00000000  0.66666700  0.00000000  1
  Mo  Mo11  1  0.99752059  0.00168973  0.49988964  1
  Mo  Mo12  1  0.00247941  0.33164327  0.50011036  1
  Mo  Mo13  1  0.00000000  0.66666700  0.50000000  1
  Mo  Mo14  1  0.50234741  0.00016110  0.99731847  1
  Mo  Mo15  1  0.49765059  0.33317190  0.00268153  1
  Mo  Mo16  1  0.49999900  0.66666700  0.00000000  1
  Mo  Mo17  1  0.00000000  0.16666700  0.00000000  1
  Mo  Mo18  1  0.99801198  0.50121413  0.00033365  1
  Mo  Mo19  1  0.00198802  0.83211887  0.99966635  1
  O  O20  1  0.63928505  0.19395395  0.63956706  1
  O  O21  1  0.64316944  0.54754430  0.57102921  1
  O  O22  1  0.65759556  0.85896352  0.60791833  1
  O  O23  1  0.36071395  0.13937905  0.36043294  1
  O  O24  1  0.34240344  0.47436948  0.39208167  1
  O  O25  1  0.35682956  0.78578970  0.42897079  1
  O  O26  1  0.32024885  0.30302449  0.95042882  1
  O  O27  1  0.31981830  0.64612169  0.92200035  1
  O  O28  1  0.29703439  0.98892212  0.93916587  1
  O  O29  1  0.07895375  0.22232032  0.67513352  1
  O  O30  1  0.06596831  0.56350411  0.67755205  1
  O  O31  1  0.07135536  0.89404603  0.67515419  1
  O  O32  1  0.91775513  0.11232768  0.91962109  1
  O  O33  1  0.95497273  0.43772232  0.91491750  1
  O  O34  1  0.94478313  0.77294153  0.92226528  1
  O  O35  1  0.94187315  0.30256300  0.32806539  1
  O  O36  1  0.91845737  0.64288183  0.32530604  1
  O  O37  1  0.94066144  0.97331369  0.32160860  1
  O  O38  1  0.32564076  0.11232768  0.91962009  1
  O  O39  1  0.31694480  0.43772232  0.91491650  1
  O  O40  1  0.31412802  0.77294153  0.92226428  1
  O  O41  1  0.32237146  0.30256300  0.32806539  1
  O  O42  1  0.32759211  0.64288183  0.32530604  1
  O  O43  1  0.31778888  0.97331369  0.32160860  1
  O  O44  1  0.92104725  0.11101268  0.32486748  1
  O  O45  1  0.92864564  0.43928797  0.32484681  1
  O  O46  1  0.93403269  0.76982889  0.32244895  1
  O  O47  1  0.67435824  0.22100532  0.08037991  1
  O  O48  1  0.68587098  0.56039147  0.07773572  1
  O  O49  1  0.68305420  0.89561168  0.08508350  1
  O  O50  1  0.05812785  0.03077000  0.67193361  1
  O  O51  1  0.05933956  0.36001931  0.67839040  1
  O  O52  1  0.08154363  0.69045217  0.67469296  1
  O  O53  1  0.08224587  0.22100532  0.08037991  1
  O  O54  1  0.05521787  0.56039147  0.07773572  1
  O  O55  1  0.04502827  0.89561168  0.08508350  1
  O  O56  1  0.67762954  0.03077000  0.67193461  1
  O  O57  1  0.68221212  0.36001931  0.67839140  1
  O  O58  1  0.67240889  0.69045217  0.67469396  1
  O  O59  1  0.67975215  0.03030851  0.04957118  1
  O  O60  1  0.70296661  0.34441088  0.06083413  1
  O  O61  1  0.68018270  0.68721231  0.07799965  1
