# generated using pymatgen
data_Th(Mg4Al3)4
_symmetry_space_group_name_H-M   'P 1'
_cell_length_a   8.96091633
_cell_length_b   9.26526514
_cell_length_c   9.26526598
_cell_angle_alpha   110.12703978
_cell_angle_beta   108.80715428
_cell_angle_gamma   108.80714937
_symmetry_Int_Tables_number   1
_chemical_formula_structural   Th(Mg4Al3)4
_chemical_formula_sum   'Th1 Mg16 Al12'
_cell_volume   596.95297567
_cell_formula_units_Z   1
loop_
 _symmetry_equiv_pos_site_id
 _symmetry_equiv_pos_as_xyz
  1  'x, y, z'
loop_
 _atom_site_type_symbol
 _atom_site_label
 _atom_site_symmetry_multiplicity
 _atom_site_fract_x
 _atom_site_fract_y
 _atom_site_fract_z
 _atom_site_occupancy
  Th  Th0  1  0.37264296  0.00000000  0.00000100  1
  Mg  Mg1  1  0.99591993  0.34259261  0.00000000  1
  Mg  Mg2  1  0.31634497  0.59787207  0.00000000  1
  Mg  Mg3  1  0.61402636  0.33540610  0.00000000  1
  Mg  Mg4  1  0.99458367  0.00000100  0.00000100  1
  Mg  Mg5  1  0.68911014  0.68748841  0.29599677  1
  Mg  Mg6  1  0.00162174  0.60850736  0.31251059  1
  Mg  Mg7  1  0.61402636  0.00000100  0.33540510  1
  Mg  Mg8  1  0.99592093  1.00000000  0.34259161  1
  Mg  Mg9  1  0.39311537  0.70400423  0.39149364  1
  Mg  Mg10  1  0.71847391  0.40212893  0.40212893  1
  Mg  Mg11  1  0.31634597  0.00000000  0.59787207  1
  Mg  Mg12  1  0.00162074  0.31251159  0.60850736  1
  Mg  Mg13  1  0.65332732  0.65740739  0.65740639  1
  Mg  Mg14  1  0.27862126  0.66459490  0.66459490  1
  Mg  Mg15  1  0.68911014  0.29599577  0.68748941  1
  Mg  Mg16  1  0.39311537  0.39149364  0.70400523  1
  Al  Al17  1  0.81069619  0.63841141  1.00000000  1
  Al  Al18  1  0.62822629  0.81694030  0.00000100  1
  Al  Al19  1  0.36477747  0.36493744  0.17906292  1
  Al  Al20  1  0.81128599  0.18305970  0.18305970  1
  Al  Al21  1  0.18571256  0.82093608  0.18587353  1
  Al  Al22  1  0.17228479  0.36158959  0.36158959  1
  Al  Al23  1  0.36477747  0.17906392  0.36493744  1
  Al  Al24  1  0.99984003  0.81412647  0.63506456  1
  Al  Al25  1  0.81069619  1.00000000  0.63841041  1
  Al  Al26  1  0.99984003  0.63506456  0.81412747  1
  Al  Al27  1  0.62822729  0.00000000  0.81694030  1
  Al  Al28  1  0.18571356  0.18587353  0.82093608  1
