# generated using pymatgen
data_Al14(CuS8)3
_symmetry_space_group_name_H-M   'P 1'
_cell_length_a   7.02787447
_cell_length_b   7.02787485
_cell_length_c   21.17453481
_cell_angle_alpha   60.30399054
_cell_angle_beta   60.30399112
_cell_angle_gamma   60.25846573
_symmetry_Int_Tables_number   1
_chemical_formula_structural   Al14(CuS8)3
_chemical_formula_sum   'Al14 Cu3 S24'
_cell_volume   744.34810972
_cell_formula_units_Z   1
loop_
 _symmetry_equiv_pos_site_id
 _symmetry_equiv_pos_as_xyz
  1  'x, y, z'
loop_
 _atom_site_type_symbol
 _atom_site_label
 _atom_site_symmetry_multiplicity
 _atom_site_fract_x
 _atom_site_fract_y
 _atom_site_fract_z
 _atom_site_occupancy
  Al  Al0  1  0.01600427  0.49438368  0.16503075  1
  Al  Al1  1  0.01160947  0.49509182  0.49919155  1
  Al  Al2  1  0.01729680  0.49515750  0.83088136  1
  Al  Al3  1  0.49385847  0.49385847  0.00613853  1
  Al  Al4  1  0.49529338  0.49529338  0.34033106  1
  Al  Al5  1  0.49606684  0.49606684  0.66785940  1
  Al  Al6  1  0.49438368  0.01600427  0.16503075  1
  Al  Al7  1  0.49509182  0.01160947  0.49919155  1
  Al  Al8  1  0.49515750  0.01729680  0.83088136  1
  Al  Al9  1  0.49454915  0.49454915  0.16497664  1
  Al  Al10  1  0.49501332  0.49501332  0.83079726  1
  Al  Al11  1  0.87414445  0.87414445  0.29454110  1
  Al  Al12  1  0.88226305  0.88226305  0.62369862  1
  Al  Al13  1  0.87495017  0.87495017  0.95862489  1
  Cu  Cu14  1  0.12509639  0.12509639  0.04140976  1
  Cu  Cu15  1  0.12016370  0.12016370  0.37691063  1
  Cu  Cu16  1  0.12776736  0.12776736  0.70573390  1
  S  S17  1  0.25682846  0.25682846  0.08575295  1
  S  S18  1  0.25799591  0.25799591  0.41807185  1
  S  S19  1  0.25519298  0.25519298  0.75330498  1
  S  S20  1  0.25704825  0.72918065  0.08560617  1
  S  S21  1  0.25474059  0.72986557  0.41877198  1
  S  S22  1  0.25829111  0.72843541  0.75240000  1
  S  S23  1  0.25740238  0.25740238  0.24299449  1
  S  S24  1  0.25299845  0.25299845  0.57760465  1
  S  S25  1  0.25684834  0.25684834  0.90981184  1
  S  S26  1  0.72918065  0.25704825  0.08560617  1
  S  S27  1  0.72986557  0.25474059  0.41877198  1
  S  S28  1  0.72843541  0.25829111  0.75240000  1
  S  S29  1  0.27744227  0.74150737  0.24605954  1
  S  S30  1  0.27234854  0.74346957  0.58159854  1
  S  S31  1  0.27450829  0.74127510  0.91435045  1
  S  S32  1  0.74237216  0.74237216  0.09106305  1
  S  S33  1  0.74472932  0.74472932  0.42337099  1
  S  S34  1  0.73973633  0.73973633  0.75978586  1
  S  S35  1  0.74150737  0.27744227  0.24605954  1
  S  S36  1  0.74346957  0.27234854  0.58159854  1
  S  S37  1  0.74127510  0.27450829  0.91435045  1
  S  S38  1  0.74263608  0.74263608  0.24652721  1
  S  S39  1  0.74191144  0.74191144  0.58099603  1
  S  S40  1  0.74133958  0.74133958  0.91418464  1
