# generated using pymatgen
data_MgCr2O4
_symmetry_space_group_name_H-M   'P 1'
_cell_length_a   5.09958491
_cell_length_b   5.87273779
_cell_length_c   10.24361398
_cell_angle_alpha   90.00000000
_cell_angle_beta   90.00000000
_cell_angle_gamma   90.00000000
_symmetry_Int_Tables_number   1
_chemical_formula_structural   MgCr2O4
_chemical_formula_sum   'Mg4 Cr8 O16'
_cell_volume   306.78112952
_cell_formula_units_Z   4
loop_
 _symmetry_equiv_pos_site_id
 _symmetry_equiv_pos_as_xyz
  1  'x, y, z'
loop_
 _atom_site_type_symbol
 _atom_site_label
 _atom_site_symmetry_multiplicity
 _atom_site_fract_x
 _atom_site_fract_y
 _atom_site_fract_z
 _atom_site_occupancy
  Mg  Mg0  1  0.85551409  0.25000000  0.75000000  1
  Mg  Mg1  1  0.14448591  0.75000000  0.25000000  1
  Mg  Mg2  1  0.53169433  0.25000000  0.25000000  1
  Mg  Mg3  1  0.46830567  0.75000000  0.75000000  1
  Cr  Cr4  1  0.51103466  0.75000000  0.48573348  1
  Cr  Cr5  1  0.51103466  0.75000000  0.01426652  1
  Cr  Cr6  1  0.48896534  0.25000000  0.51426652  1
  Cr  Cr7  1  0.48896534  0.25000000  0.98573348  1
  Cr  Cr8  1  0.00000000  0.50000000  0.50000000  1
  Cr  Cr9  1  0.00000000  0.00000000  0.00000000  1
  Cr  Cr10  1  0.00000000  0.00000000  0.50000000  1
  Cr  Cr11  1  0.00000000  0.50000000  0.00000000  1
  O  O12  1  0.85526973  0.75000000  0.39167548  1
  O  O13  1  0.85526973  0.75000000  0.10832452  1
  O  O14  1  0.14473027  0.25000000  0.60832452  1
  O  O15  1  0.14473027  0.25000000  0.89167548  1
  O  O16  1  0.19247538  0.75000000  0.59768613  1
  O  O17  1  0.19247538  0.75000000  0.90231387  1
  O  O18  1  0.80752462  0.25000000  0.40231387  1
  O  O19  1  0.80752462  0.25000000  0.09768613  1
  O  O20  1  0.66572410  0.50331303  0.61192004  1
  O  O21  1  0.66572410  0.99668697  0.88807996  1
  O  O22  1  0.33427590  0.00331303  0.38807996  1
  O  O23  1  0.33427590  0.49668697  0.11192004  1
  O  O24  1  0.33427590  0.49668697  0.38807996  1
  O  O25  1  0.33427590  0.00331303  0.11192004  1
  O  O26  1  0.66572410  0.99668697  0.61192004  1
  O  O27  1  0.66572410  0.50331303  0.88807996  1
