# generated using pymatgen
data_RbCaI3
_symmetry_space_group_name_H-M   'P 1'
_cell_length_a   6.20769319
_cell_length_b   6.20903342
_cell_length_c   6.21124124
_cell_angle_alpha   89.94564180
_cell_angle_beta   89.90323593
_cell_angle_gamma   90.01477523
_symmetry_Int_Tables_number   1
_chemical_formula_structural   RbCaI3
_chemical_formula_sum   'Rb1 Ca1 I3'
_cell_volume   239.40422418
_cell_formula_units_Z   1
loop_
 _symmetry_equiv_pos_site_id
 _symmetry_equiv_pos_as_xyz
  1  'x, y, z'
loop_
 _atom_site_type_symbol
 _atom_site_label
 _atom_site_symmetry_multiplicity
 _atom_site_fract_x
 _atom_site_fract_y
 _atom_site_fract_z
 _atom_site_occupancy
  Rb  Rb0  1  0.00000147  0.99897692  0.99968857  1
  Ca  Ca1  1  0.48193015  0.49702965  0.49072839  1
  I  I2  1  0.48645517  0.99833972  0.49641602  1
  I  I3  1  0.98303180  0.50765310  0.50970121  1
  I  I4  1  0.48858040  0.49799961  0.99346381  1
