# generated using pymatgen
data_Li4Ni7O12
_symmetry_space_group_name_H-M   'P 1'
_cell_length_a   4.98630378
_cell_length_b   13.29732240
_cell_length_c   9.68066251
_cell_angle_alpha   99.38997838
_cell_angle_beta   94.63821360
_cell_angle_gamma   79.20411355
_symmetry_Int_Tables_number   1
_chemical_formula_structural   Li4Ni7O12
_chemical_formula_sum   'Li12 Ni21 O36'
_cell_volume   621.22378402
_cell_formula_units_Z   3
loop_
 _symmetry_equiv_pos_site_id
 _symmetry_equiv_pos_as_xyz
  1  'x, y, z'
loop_
 _atom_site_type_symbol
 _atom_site_label
 _atom_site_symmetry_multiplicity
 _atom_site_fract_x
 _atom_site_fract_y
 _atom_site_fract_z
 _atom_site_occupancy
  Li  Li0  1  0.78243741  0.93756686  0.00247742  1
  Li  Li1  1  0.80687192  0.64170200  0.24520429  1
  Li  Li2  1  0.72565839  0.55456711  0.49397880  1
  Li  Li3  1  0.60454595  0.78001675  0.49587872  1
  Li  Li4  1  0.44783915  0.61304902  0.00531480  1
  Li  Li5  1  0.47616350  0.30850696  0.24237875  1
  Li  Li6  1  0.14150407  0.97275510  0.25559582  1
  Li  Li7  1  0.40344983  0.21555791  0.49561492  1
  Li  Li8  1  0.05264454  0.89269177  0.49399371  1
  Li  Li9  1  0.27514704  0.44397292  0.49463917  1
  Li  Li10  1  0.23403824  0.05143558  0.00586702  1
  Li  Li11  1  0.11052840  0.28613635  0.00343236  1
  Ni  Ni12  1  0.99589686  0.50379650  0.00529379  1
  Ni  Ni13  1  0.97229087  0.80565138  0.75141366  1
  Ni  Ni14  1  0.90629459  0.41887112  0.25116719  1
  Ni  Ni15  1  0.69154736  0.86048748  0.24803346  1
  Ni  Ni16  1  0.83025144  0.32984186  0.49595591  1
  Ni  Ni17  1  0.85650109  0.02846514  0.74992976  1
  Ni  Ni18  1  0.75015513  0.25004988  0.75076842  1
  Ni  Ni19  1  0.66670070  0.16974174  0.00389009  1
  Ni  Ni20  1  0.64076643  0.47050014  0.75045548  1
  Ni  Ni21  1  0.52730874  0.69551599  0.74950962  1
  Ni  Ni22  1  0.41393828  0.91652062  0.75118816  1
  Ni  Ni23  1  0.32836114  0.83234346  0.00277022  1
  Ni  Ni24  1  0.58645309  0.08347242  0.24876978  1
  Ni  Ni25  1  0.36216210  0.52650011  0.25154309  1
  Ni  Ni26  1  0.23957111  0.75096141  0.24985166  1
  Ni  Ni27  1  0.48969804  0.00136021  0.49641696  1
  Ni  Ni28  1  0.15681296  0.66810144  0.49679966  1
  Ni  Ni29  1  0.30322865  0.13721797  0.75114678  1
  Ni  Ni30  1  0.19437779  0.36307566  0.75064207  1
  Ni  Ni31  1  0.07830562  0.58402657  0.74997276  1
  Ni  Ni32  1  0.03185377  0.19405580  0.24932629  1
  O  O33  1  0.93132122  0.76998668  0.36252909  1
  O  O34  1  0.78807230  0.98069266  0.35711449  1
  O  O35  1  0.84594580  0.67566124  0.63747944  1
  O  O36  1  0.95043521  0.45131283  0.61751593  1
  O  O37  1  0.71443337  0.90752799  0.63577158  1
  O  O38  1  0.77786068  0.58879025  0.86160032  1
  O  O39  1  0.82226542  0.27887346  0.13224051  1
  O  O40  1  0.48262433  0.94961437  0.13295561  1
  O  O41  1  0.67758799  0.51156528  0.14338003  1
  O  O42  1  0.90197632  0.37768593  0.86891619  1
  O  O43  1  0.98220285  0.15735142  0.85847210  1
  O  O44  1  0.62715032  0.82022994  0.85719212  1
  O  O45  1  0.89330850  0.08240143  0.13772688  1
  O  O46  1  0.54290100  0.74692220  0.14304314  1
  O  O47  1  0.60132008  0.43503719  0.36409311  1
  O  O48  1  0.73333211  0.21124596  0.36590524  1
  O  O49  1  0.39802439  0.87369717  0.36772628  1
  O  O50  1  0.45582726  0.64985901  0.35984331  1
  O  O51  1  0.52411119  0.34275030  0.63749927  1
  O  O52  1  0.59331322  0.12356561  0.63336020  1
  O  O53  1  0.28405336  0.79034880  0.62278539  1
  O  O54  1  0.38617841  0.57787718  0.63846512  1
  O  O55  1  0.44589455  0.25196206  0.86132310  1
  O  O56  1  0.11573006  0.92862262  0.86963018  1
  O  O57  1  0.15398967  0.61458801  0.13573349  1
  O  O58  1  0.34884729  0.17392924  0.13996038  1
  O  O59  1  0.55130909  0.04623027  0.88263025  1
  O  O60  1  0.01048807  0.84473102  0.14247365  1
  O  O61  1  0.23867367  0.70751458  0.86560069  1
  O  O62  1  0.29274618  0.48734158  0.85543253  1
  O  O63  1  0.21111250  0.41539663  0.14366079  1
  O  O64  1  0.28301444  0.10247676  0.35908233  1
  O  O65  1  0.06931699  0.54038200  0.36944172  1
  O  O66  1  0.12108387  0.31677592  0.36224608  1
  O  O67  1  0.20167776  0.01234957  0.64204321  1
  O  O68  1  0.05728036  0.24909461  0.64274662  1
