# generated using pymatgen
data_Ca(VS2)4
_symmetry_space_group_name_H-M   'P 1'
_cell_length_a   7.90477683
_cell_length_b   7.90477651
_cell_length_c   7.90477781
_cell_angle_alpha   49.02977436
_cell_angle_beta   49.02976983
_cell_angle_gamma   49.02977526
_symmetry_Int_Tables_number   1
_chemical_formula_structural   Ca(VS2)4
_chemical_formula_sum   'Ca1 V4 S8'
_cell_volume   258.57059226
_cell_formula_units_Z   1
loop_
 _symmetry_equiv_pos_site_id
 _symmetry_equiv_pos_as_xyz
  1  'x, y, z'
loop_
 _atom_site_type_symbol
 _atom_site_label
 _atom_site_symmetry_multiplicity
 _atom_site_fract_x
 _atom_site_fract_y
 _atom_site_fract_z
 _atom_site_occupancy
  Ca  Ca0  1  0.50000000  0.50000100  0.49999900  1
  V  V1  1  0.50000100  0.99999900  0.50000100  1
  V  V2  1  0.99999900  0.50000000  0.50000100  1
  V  V3  1  0.50000000  0.50000000  0.00000000  1
  V  V4  1  0.00000000  0.00000000  0.00000000  1
  S  S5  1  0.76571373  0.26024747  0.76571373  1
  S  S6  1  0.23428527  0.23428627  0.73975254  1
  S  S7  1  0.23428527  0.73975353  0.23428527  1
  S  S8  1  0.73975153  0.23428627  0.23428627  1
  S  S9  1  0.26485498  0.26485599  0.26485498  1
  S  S10  1  0.73514502  0.73514501  0.73514502  1
  S  S11  1  0.26024847  0.76571473  0.76571373  1
  S  S12  1  0.76571473  0.76571473  0.26024746  1
