# generated using pymatgen
data_CaCoF4
_symmetry_space_group_name_H-M   'P 1'
_cell_length_a   5.44391124
_cell_length_b   5.44627169
_cell_length_c   6.58722619
_cell_angle_alpha   115.23545448
_cell_angle_beta   114.31700238
_cell_angle_gamma   89.99011233
_symmetry_Int_Tables_number   1
_chemical_formula_structural   CaCoF4
_chemical_formula_sum   'Ca2 Co2 F8'
_cell_volume   157.30571642
_cell_formula_units_Z   2
loop_
 _symmetry_equiv_pos_site_id
 _symmetry_equiv_pos_as_xyz
  1  'x, y, z'
loop_
 _atom_site_type_symbol
 _atom_site_label
 _atom_site_symmetry_multiplicity
 _atom_site_fract_x
 _atom_site_fract_y
 _atom_site_fract_z
 _atom_site_occupancy
  Ca  Ca0  1  0.24722563  0.25251496  0.50209720  1
  Ca  Ca1  1  0.74999124  0.75275913  0.50195725  1
  Co  Co2  1  0.99856487  0.50253992  0.00190745  1
  Co  Co3  1  0.49831619  0.00239509  0.00216290  1
  F  F4  1  0.92961876  0.42811686  0.24942616  1
  F  F5  1  0.67965490  0.18926755  0.74388100  1
  F  F6  1  0.06800642  0.57737224  0.75468346  1
  F  F7  1  0.18117954  0.07890922  0.75645673  1
  F  F8  1  0.31739491  0.81584585  0.25996462  1
  F  F9  1  0.44006129  0.31608306  0.26161220  1
  F  F10  1  0.81604879  0.92679083  0.24810275  1
  F  F11  1  0.55773845  0.68913830  0.74294327  1
