# generated using pymatgen
data_MgFeF5
_symmetry_space_group_name_H-M   'P 1'
_cell_length_a   5.19165111
_cell_length_b   7.46250710
_cell_length_c   9.73625874
_cell_angle_alpha   90.00000000
_cell_angle_beta   90.00000000
_cell_angle_gamma   109.79704543
_symmetry_Int_Tables_number   1
_chemical_formula_structural   MgFeF5
_chemical_formula_sum   'Mg4 Fe4 F20'
_cell_volume   354.91554146
_cell_formula_units_Z   4
loop_
 _symmetry_equiv_pos_site_id
 _symmetry_equiv_pos_as_xyz
  1  'x, y, z'
loop_
 _atom_site_type_symbol
 _atom_site_label
 _atom_site_symmetry_multiplicity
 _atom_site_fract_x
 _atom_site_fract_y
 _atom_site_fract_z
 _atom_site_occupancy
  Mg  Mg0  1  0.47870203  0.75521183  0.01130211  1
  Mg  Mg1  1  0.52129797  0.74478817  0.51130211  1
  Mg  Mg2  1  0.52129797  0.24478817  0.98869789  1
  Mg  Mg3  1  0.47870203  0.25521183  0.48869789  1
  Fe  Fe4  1  0.89826749  0.60365064  0.75494725  1
  Fe  Fe5  1  0.10173251  0.89634936  0.25494725  1
  Fe  Fe6  1  0.10173251  0.39634936  0.24505275  1
  Fe  Fe7  1  0.89826749  0.10365064  0.74505275  1
  F  F8  1  0.60874981  0.58385304  0.88935889  1
  F  F9  1  0.39125019  0.91614696  0.38935889  1
  F  F10  1  0.39125019  0.41614696  0.11064111  1
  F  F11  1  0.60874981  0.08385304  0.61064111  1
  F  F12  1  0.64494427  0.49173418  0.60499397  1
  F  F13  1  0.35505573  0.00826582  0.10499397  1
  F  F14  1  0.35505573  0.50826582  0.39500603  1
  F  F15  1  0.64494427  0.99173418  0.89500603  1
  F  F16  1  0.85383431  0.80315879  0.40285549  1
  F  F17  1  0.14616569  0.69684121  0.90285549  1
  F  F18  1  0.14616569  0.19684121  0.59714451  1
  F  F19  1  0.85383431  0.30315879  0.09714451  1
  F  F20  1  0.79165897  0.84362087  0.13520068  1
  F  F21  1  0.20834103  0.65637913  0.63520068  1
  F  F22  1  0.20834103  0.15637913  0.86479932  1
  F  F23  1  0.79165897  0.34362087  0.36479932  1
  F  F24  1  0.82493770  0.83486925  0.68296300  1
  F  F25  1  0.17506230  0.66513075  0.18296300  1
  F  F26  1  0.17506230  0.16513075  0.31703700  1
  F  F27  1  0.82493770  0.33486925  0.81703700  1
