# generated using pymatgen
data_MgCoP2O7
_symmetry_space_group_name_H-M   'P 1'
_cell_length_a   6.43986011
_cell_length_b   6.35863789
_cell_length_c   6.72345914
_cell_angle_alpha   66.43639833
_cell_angle_beta   81.59239431
_cell_angle_gamma   80.71297264
_symmetry_Int_Tables_number   1
_chemical_formula_structural   MgCoP2O7
_chemical_formula_sum   'Mg2 Co2 P4 O14'
_cell_volume   248.03466269
_cell_formula_units_Z   2
loop_
 _symmetry_equiv_pos_site_id
 _symmetry_equiv_pos_as_xyz
  1  'x, y, z'
loop_
 _atom_site_type_symbol
 _atom_site_label
 _atom_site_symmetry_multiplicity
 _atom_site_fract_x
 _atom_site_fract_y
 _atom_site_fract_z
 _atom_site_occupancy
  Mg  Mg0  1  0.86667300  0.29011099  0.15391709  1
  Mg  Mg1  1  0.13332700  0.70988901  0.84608291  1
  Co  Co2  1  0.66461417  0.10076168  0.78045951  1
  Co  Co3  1  0.33538583  0.89923832  0.21954049  1
  P  P4  1  0.15778388  0.22510512  0.75599624  1
  P  P5  1  0.84221612  0.77489488  0.24400376  1
  P  P6  1  0.61674397  0.64029427  0.68874532  1
  P  P7  1  0.38325603  0.35970573  0.31125468  1
  O  O8  1  0.76143964  0.60682960  0.48032070  1
  O  O9  1  0.23856036  0.39317040  0.51967930  1
  O  O10  1  0.00124795  0.07056392  0.74433734  1
  O  O11  1  0.99875205  0.92943608  0.25566266  1
  O  O12  1  0.60860657  0.26565321  0.38094791  1
  O  O13  1  0.39139343  0.73434679  0.61905209  1
  O  O14  1  0.36484165  0.60946361  0.14179831  1
  O  O15  1  0.63515835  0.39053639  0.85820069  1
  O  O16  1  0.93873513  0.60780311  0.13442184  1
  O  O17  1  0.06126487  0.39219689  0.86557816  1
  O  O18  1  0.65227729  0.93683149  0.13535398  1
  O  O19  1  0.34772271  0.06316851  0.86464602  1
  O  O20  1  0.26997184  0.20156614  0.25460829  1
  O  O21  1  0.73002816  0.79843386  0.74539171  1
