# generated using pymatgen
data_CrF5
_symmetry_space_group_name_H-M   'P 1'
_cell_length_a   5.34848438
_cell_length_b   7.39271615
_cell_length_c   9.77039310
_cell_angle_alpha   90.00000000
_cell_angle_beta   90.00000000
_cell_angle_gamma   110.11811033
_symmetry_Int_Tables_number   1
_chemical_formula_structural   CrF5
_chemical_formula_sum   'Cr4 F20'
_cell_volume   362.74858213
_cell_formula_units_Z   4
loop_
 _symmetry_equiv_pos_site_id
 _symmetry_equiv_pos_as_xyz
  1  'x, y, z'
loop_
 _atom_site_type_symbol
 _atom_site_label
 _atom_site_symmetry_multiplicity
 _atom_site_fract_x
 _atom_site_fract_y
 _atom_site_fract_z
 _atom_site_occupancy
  Cr  Cr0  1  0.88160573  0.59660458  0.75167240  1
  Cr  Cr1  1  0.11839427  0.90339542  0.25167240  1
  Cr  Cr2  1  0.11839427  0.40339542  0.24832760  1
  Cr  Cr3  1  0.88160573  0.09660458  0.74832760  1
  F  F4  1  0.61379907  0.56959062  0.86396836  1
  F  F5  1  0.38620093  0.93040938  0.36396836  1
  F  F6  1  0.38620093  0.43040938  0.13603164  1
  F  F7  1  0.61379907  0.06959062  0.63603164  1
  F  F8  1  0.65202802  0.49253228  0.62156591  1
  F  F9  1  0.34797198  0.00746772  0.12156591  1
  F  F10  1  0.34797198  0.50746772  0.37843409  1
  F  F11  1  0.65202802  0.99253228  0.87843409  1
  F  F12  1  0.89090013  0.80164982  0.38413043  1
  F  F13  1  0.10909987  0.69835018  0.88413043  1
  F  F14  1  0.10909987  0.19835018  0.61586957  1
  F  F15  1  0.89090013  0.30164982  0.11586957  1
  F  F16  1  0.84812217  0.87409591  0.14062078  1
  F  F17  1  0.15187783  0.62590409  0.64062078  1
  F  F18  1  0.15187783  0.12590409  0.85937922  1
  F  F19  1  0.84812217  0.37409591  0.35937922  1
  F  F20  1  0.88288773  0.84638748  0.69524164  1
  F  F21  1  0.11711227  0.65361252  0.19524164  1
  F  F22  1  0.11711227  0.15361252  0.30475836  1
  F  F23  1  0.88288773  0.34638748  0.80475836  1
