# generated using pymatgen
data_Zn(NiO2)2
_symmetry_space_group_name_H-M   'P 1'
_cell_length_a   4.99807938
_cell_length_b   5.71705866
_cell_length_c   10.06749669
_cell_angle_alpha   89.92789499
_cell_angle_beta   89.90851178
_cell_angle_gamma   89.99166038
_symmetry_Int_Tables_number   1
_chemical_formula_structural   Zn(NiO2)2
_chemical_formula_sum   'Zn4 Ni8 O16'
_cell_volume   287.67120389
_cell_formula_units_Z   4
loop_
 _symmetry_equiv_pos_site_id
 _symmetry_equiv_pos_as_xyz
  1  'x, y, z'
loop_
 _atom_site_type_symbol
 _atom_site_label
 _atom_site_symmetry_multiplicity
 _atom_site_fract_x
 _atom_site_fract_y
 _atom_site_fract_z
 _atom_site_occupancy
  Zn  Zn0  1  0.84029125  0.24996765  0.75020134  1
  Zn  Zn1  1  0.16057811  0.75003128  0.24990604  1
  Zn  Zn2  1  0.51795678  0.24996831  0.24999341  1
  Zn  Zn3  1  0.48323775  0.75002570  0.74920693  1
  Ni  Ni4  1  0.51128033  0.75006719  0.48580590  1
  Ni  Ni5  1  0.51128760  0.74994149  0.01302788  1
  Ni  Ni6  1  0.48897313  0.24994367  0.51377334  1
  Ni  Ni7  1  0.48819536  0.25004003  0.98636412  1
  Ni  Ni8  1  0.00027723  0.49997235  0.50005438  1
  Ni  Ni9  1  0.99921098  0.00002650  0.00023749  1
  Ni  Ni10  1  0.00028402  0.00006362  0.50002285  1
  Ni  Ni11  1  0.99921929  0.49996540  0.00025266  1
  O  O12  1  0.86528867  0.75030658  0.39818671  1
  O  O13  1  0.86275603  0.74978764  0.10154000  1
  O  O14  1  0.13638706  0.24969096  0.60157735  1
  O  O15  1  0.13430806  0.25018377  0.89822481  1
  O  O16  1  0.19351804  0.74999847  0.59747143  1
  O  O17  1  0.19466684  0.75011429  0.90277227  1
  O  O18  1  0.80567438  0.25002809  0.40281866  1
  O  O19  1  0.80642080  0.24985233  0.09793430  1
  O  O20  1  0.67016898  0.50097757  0.61554679  1
  O  O21  1  0.66882475  0.99768532  0.88473097  1
  O  O22  1  0.33029487  0.00264047  0.38441913  1
  O  O23  1  0.33113767  0.49940550  0.11560906  1
  O  O24  1  0.33021129  0.49762326  0.38460351  1
  O  O25  1  0.33097851  0.00033789  0.11543830  1
  O  O26  1  0.66999147  0.99879945  0.61563238  1
  O  O27  1  0.66858078  0.50255523  0.88464797  1
