# generated using pymatgen
data_Mg2MnWO6
_symmetry_space_group_name_H-M   'P 1'
_cell_length_a   5.23889314
_cell_length_b   5.40861017
_cell_length_c   7.85644600
_cell_angle_alpha   90.00000000
_cell_angle_beta   89.80577389
_cell_angle_gamma   90.00000000
_symmetry_Int_Tables_number   1
_chemical_formula_structural   Mg2MnWO6
_chemical_formula_sum   'Mg4 Mn2 W2 O12'
_cell_volume   222.61214537
_cell_formula_units_Z   2
loop_
 _symmetry_equiv_pos_site_id
 _symmetry_equiv_pos_as_xyz
  1  'x, y, z'
loop_
 _atom_site_type_symbol
 _atom_site_label
 _atom_site_symmetry_multiplicity
 _atom_site_fract_x
 _atom_site_fract_y
 _atom_site_fract_z
 _atom_site_occupancy
  Mg  Mg0  1  0.99589533  0.04701232  0.26195065  1
  Mg  Mg1  1  0.50410467  0.54701332  0.23804935  1
  Mg  Mg2  1  0.00410567  0.95298868  0.73804935  1
  Mg  Mg3  1  0.49589433  0.45298768  0.76195065  1
  Mn  Mn4  1  0.50000000  0.00000000  0.00000000  1
  Mn  Mn5  1  0.00000100  0.49999900  0.50000000  1
  W  W6  1  0.50000000  0.00000000  0.49999900  1
  W  W7  1  0.00000000  0.49999900  0.00000000  1
  O  O8  1  0.65589234  0.30220075  0.41087878  1
  O  O9  1  0.84410766  0.80220175  0.08912122  1
  O  O10  1  0.34410666  0.69779925  0.58912122  1
  O  O11  1  0.15589334  0.19779825  0.91087878  1
  O  O12  1  0.18628787  0.16987238  0.55782053  1
  O  O13  1  0.31371213  0.66987138  0.94217947  1
  O  O14  1  0.81371313  0.83012762  0.44217947  1
  O  O15  1  0.68628687  0.33012862  0.05782053  1
  O  O16  1  0.13487914  0.41139255  0.22807667  1
  O  O17  1  0.36512186  0.91139355  0.27192233  1
  O  O18  1  0.63487914  0.08860645  0.72807767  1
  O  O19  1  0.86512186  0.58860745  0.77192333  1
