# generated using pymatgen
data_MgVP2O7
_symmetry_space_group_name_H-M   'P 1'
_cell_length_a   6.53280100
_cell_length_b   6.48887519
_cell_length_c   6.66674010
_cell_angle_alpha   65.08806413
_cell_angle_beta   82.56862439
_cell_angle_gamma   80.86084623
_symmetry_Int_Tables_number   1
_chemical_formula_structural   MgVP2O7
_chemical_formula_sum   'Mg2 V2 P4 O14'
_cell_volume   252.44225235
_cell_formula_units_Z   2
loop_
 _symmetry_equiv_pos_site_id
 _symmetry_equiv_pos_as_xyz
  1  'x, y, z'
loop_
 _atom_site_type_symbol
 _atom_site_label
 _atom_site_symmetry_multiplicity
 _atom_site_fract_x
 _atom_site_fract_y
 _atom_site_fract_z
 _atom_site_occupancy
  Mg  Mg0  1  0.85989000  0.29366119  0.14768790  1
  Mg  Mg1  1  0.14011000  0.70633881  0.85231210  1
  V  V2  1  0.66624158  0.11074162  0.76832900  1
  V  V3  1  0.33375842  0.88925838  0.23167100  1
  P  P4  1  0.15969712  0.22765043  0.75633455  1
  P  P5  1  0.84030288  0.77234957  0.24366545  1
  P  P6  1  0.61844378  0.64055462  0.69198197  1
  P  P7  1  0.38155622  0.35944538  0.30801803  1
  O  O8  1  0.75385216  0.60403889  0.48221242  1
  O  O9  1  0.24614784  0.39596111  0.51778758  1
  O  O10  1  0.00897811  0.07459875  0.74045038  1
  O  O11  1  0.99102189  0.92540125  0.25954962  1
  O  O12  1  0.60629895  0.26793098  0.38064425  1
  O  O13  1  0.39370105  0.73206902  0.61935575  1
  O  O14  1  0.36134018  0.60523068  0.12809742  1
  O  O15  1  0.63865982  0.39476932  0.87190158  1
  O  O16  1  0.93698329  0.60818478  0.13690943  1
  O  O17  1  0.06301671  0.39181522  0.86309057  1
  O  O18  1  0.65363741  0.93354240  0.12735940  1
  O  O19  1  0.34636259  0.06645760  0.87264060  1
  O  O20  1  0.26833820  0.20014068  0.26196261  1
  O  O21  1  0.73166180  0.79985932  0.73803739  1
