# generated using pymatgen
data_Ba2MgCuBi2F14
_symmetry_space_group_name_H-M   'P 1'
_cell_length_a   5.35738646
_cell_length_b   7.77274927
_cell_length_c   16.14578054
_cell_angle_alpha   89.96999506
_cell_angle_beta   90.02063497
_cell_angle_gamma   110.11485714
_symmetry_Int_Tables_number   1
_chemical_formula_structural   Ba2MgCuBi2F14
_chemical_formula_sum   'Ba4 Mg2 Cu2 Bi4 F28'
_cell_volume   631.32729551
_cell_formula_units_Z   2
loop_
 _symmetry_equiv_pos_site_id
 _symmetry_equiv_pos_as_xyz
  1  'x, y, z'
loop_
 _atom_site_type_symbol
 _atom_site_label
 _atom_site_symmetry_multiplicity
 _atom_site_fract_x
 _atom_site_fract_y
 _atom_site_fract_z
 _atom_site_occupancy
  Ba  Ba0  1  0.07886375  0.36208981  0.62743694  1
  Ba  Ba1  1  0.28133557  0.36225687  0.12682860  1
  Ba  Ba2  1  0.92131173  0.64025618  0.37237197  1
  Ba  Ba3  1  0.71615387  0.63842830  0.87220465  1
  Mg  Mg4  1  0.43753466  0.00052072  0.74988758  1
  Mg  Mg5  1  0.56039909  0.00044482  0.25043157  1
  Cu  Cu6  1  0.49737986  0.99821915  0.99997300  1
  Cu  Cu7  1  0.50152918  0.00231531  0.49920433  1
  Bi  Bi8  1  0.05468154  0.21688586  0.87751448  1
  Bi  Bi9  1  0.94252677  0.78377901  0.12263929  1
  Bi  Bi10  1  0.16247901  0.21962116  0.37656765  1
  Bi  Bi11  1  0.83894547  0.78331532  0.62205520  1
  F  F12  1  0.81947436  0.96607304  0.32830177  1
  F  F13  1  0.86852559  0.29707093  0.45520647  1
  F  F14  1  0.13108151  0.70461636  0.54333802  1
  F  F15  1  0.59690042  0.49124428  0.60194491  1
  F  F16  1  0.65259046  0.04857800  0.60868910  1
  F  F17  1  0.60292361  0.95251675  0.89025944  1
  F  F18  1  0.42596049  0.29618878  0.95606135  1
  F  F19  1  0.85294739  0.03664921  0.17191387  1
  F  F20  1  0.35244469  0.35686388  0.78047845  1
  F  F21  1  0.40433453  0.51113814  0.39886900  1
  F  F22  1  0.76988794  0.20636445  0.76253205  1
  F  F23  1  0.10419311  0.50871815  0.89865026  1
  F  F24  1  0.43638939  0.20785116  0.26216034  1
  F  F25  1  0.22908132  0.79435121  0.23677470  1
  F  F26  1  0.39351415  0.04725129  0.10935386  1
  F  F27  1  0.64665471  0.64374596  0.21966881  1
  F  F28  1  0.12674196  0.85044256  0.98505534  1
  F  F29  1  0.18257008  0.03623023  0.67107548  1
  F  F30  1  0.86875650  0.14712835  0.01468399  1
  F  F31  1  0.72170990  0.85181622  0.48505608  1
  F  F32  1  0.56973931  0.70439231  0.04417619  1
  F  F33  1  0.56560166  0.79525562  0.73678529  1
  F  F34  1  0.00603749  0.36028069  0.27986134  1
  F  F35  1  0.27942550  0.15059078  0.51376360  1
  F  F36  1  0.35017283  0.95461111  0.38920020  1
  F  F37  1  0.14502219  0.96505269  0.82780145  1
  F  F38  1  0.99869745  0.64495139  0.71935885  1
  F  F39  1  0.89378997  0.49241094  0.10067654  1
