# generated using pymatgen
data_Cs
_symmetry_space_group_name_H-M   'P 1'
_cell_length_a   5.35440488
_cell_length_b   10.02203742
_cell_length_c   8.73184912
_cell_angle_alpha   90.00000000
_cell_angle_beta   90.00000000
_cell_angle_gamma   90.00000000
_symmetry_Int_Tables_number   1
_chemical_formula_structural   Cs
_chemical_formula_sum   Cs4
_cell_volume   468.56888975
_cell_formula_units_Z   4
loop_
 _symmetry_equiv_pos_site_id
 _symmetry_equiv_pos_as_xyz
  1  'x, y, z'
loop_
 _atom_site_type_symbol
 _atom_site_label
 _atom_site_symmetry_multiplicity
 _atom_site_fract_x
 _atom_site_fract_y
 _atom_site_fract_z
 _atom_site_occupancy
  Cs  Cs0  1  0.73208906  0.39122396  0.75000000  1
  Cs  Cs1  1  0.26791094  0.60877604  0.25000000  1
  Cs  Cs2  1  0.73208906  0.10877604  0.25000000  1
  Cs  Cs3  1  0.26791094  0.89122396  0.75000000  1
