# generated using pymatgen
data_ZrN
_symmetry_space_group_name_H-M   'P 1'
_cell_length_a   3.20931768
_cell_length_b   3.20872515
_cell_length_c   5.51691858
_cell_angle_alpha   89.92017151
_cell_angle_beta   90.00000000
_cell_angle_gamma   120.00610876
_symmetry_Int_Tables_number   1
_chemical_formula_structural   ZrN
_chemical_formula_sum   'Zr2 N2'
_cell_volume   49.19773790
_cell_formula_units_Z   2
loop_
 _symmetry_equiv_pos_site_id
 _symmetry_equiv_pos_as_xyz
  1  'x, y, z'
loop_
 _atom_site_type_symbol
 _atom_site_label
 _atom_site_symmetry_multiplicity
 _atom_site_fract_x
 _atom_site_fract_y
 _atom_site_fract_z
 _atom_site_occupancy
  Zr  Zr0  1  0.02192151  0.04384301  0.00066396  1
  Zr  Zr1  1  0.68751686  0.37503373  0.51012488  1
  N  N2  1  0.35467949  0.70935899  0.25538312  1
  N  N3  1  0.35468114  0.70936227  0.75541804  1
