# generated using pymatgen
data_ZrRh
_symmetry_space_group_name_H-M   'P 1'
_cell_length_a   4.78156222
_cell_length_b   4.77060256
_cell_length_c   3.16139289
_cell_angle_alpha   90.00000000
_cell_angle_beta   90.07006962
_cell_angle_gamma   90.00000000
_symmetry_Int_Tables_number   1
_chemical_formula_structural   ZrRh
_chemical_formula_sum   'Zr2 Rh2'
_cell_volume   72.11426743
_cell_formula_units_Z   2
loop_
 _symmetry_equiv_pos_site_id
 _symmetry_equiv_pos_as_xyz
  1  'x, y, z'
loop_
 _atom_site_type_symbol
 _atom_site_label
 _atom_site_symmetry_multiplicity
 _atom_site_fract_x
 _atom_site_fract_y
 _atom_site_fract_z
 _atom_site_occupancy
  Zr  Zr0  1  0.24588883  0.25000000  0.49928295  1
  Zr  Zr1  1  0.75411117  0.75000000  0.50071705  1
  Rh  Rh2  1  0.26046838  0.75000000  0.99618475  1
  Rh  Rh3  1  0.73953162  0.25000000  0.00381525  1
