# generated using pymatgen
data_Sn4SF6
_symmetry_space_group_name_H-M   'P 1'
_cell_length_a   8.68171741
_cell_length_b   7.65698305
_cell_length_c   8.89549948
_cell_angle_alpha   90.00000343
_cell_angle_beta   90.00000852
_cell_angle_gamma   124.83776250
_symmetry_Int_Tables_number   1
_chemical_formula_structural   Sn4SF6
_chemical_formula_sum   'Sn8 S2 F12'
_cell_volume   485.35182878
_cell_formula_units_Z   2
loop_
 _symmetry_equiv_pos_site_id
 _symmetry_equiv_pos_as_xyz
  1  'x, y, z'
loop_
 _atom_site_type_symbol
 _atom_site_label
 _atom_site_symmetry_multiplicity
 _atom_site_fract_x
 _atom_site_fract_y
 _atom_site_fract_z
 _atom_site_occupancy
  Sn  Sn0  1  0.31886318  0.64064722  0.85295966  1
  Sn  Sn1  1  0.68113727  0.35935321  0.35295926  1
  Sn  Sn2  1  0.64294141  0.83032634  0.33208973  1
  Sn  Sn3  1  0.19267484  0.83103353  0.32971776  1
  Sn  Sn4  1  0.14995634  0.30164435  0.44099941  1
  Sn  Sn5  1  0.35705848  0.16967358  0.83208949  1
  Sn  Sn6  1  0.80732472  0.16896630  0.82971727  1
  Sn  Sn7  1  0.85004381  0.69835514  0.94099924  1
  S  S8  1  0.33722299  0.67382308  0.56200852  1
  S  S9  1  0.66277736  0.32617673  0.06200823  1
  F  F10  1  0.73322741  0.81489961  0.10321005  1
  F  F11  1  0.08827618  0.81227105  0.09961993  1
  F  F12  1  0.14566411  0.29855948  0.88743362  1
  F  F13  1  0.26677252  0.18509971  0.60320958  1
  F  F14  1  0.91172415  0.18772962  0.59961902  1
  F  F15  1  0.85433620  0.70143978  0.38743574  1
  F  F16  1  0.49228888  0.48626974  0.32530447  1
  F  F17  1  0.38732319  0.76819764  0.21612778  1
  F  F18  1  0.99810307  0.48691870  0.32142853  1
  F  F19  1  0.50771136  0.51373022  0.82530497  1
  F  F20  1  0.61267689  0.23180254  0.71612709  1
  F  F21  1  0.00189764  0.51308145  0.82142863  1
