# generated using pymatgen
data_CaCoAsO5
_symmetry_space_group_name_H-M   'P 1'
_cell_length_a   7.62987379
_cell_length_b   5.82317859
_cell_length_c   8.95542166
_cell_angle_alpha   90.00255307
_cell_angle_beta   90.02800052
_cell_angle_gamma   89.95517202
_symmetry_Int_Tables_number   1
_chemical_formula_structural   CaCoAsO5
_chemical_formula_sum   'Ca4 Co4 As4 O20'
_cell_volume   397.89026827
_cell_formula_units_Z   4
loop_
 _symmetry_equiv_pos_site_id
 _symmetry_equiv_pos_as_xyz
  1  'x, y, z'
loop_
 _atom_site_type_symbol
 _atom_site_label
 _atom_site_symmetry_multiplicity
 _atom_site_fract_x
 _atom_site_fract_y
 _atom_site_fract_z
 _atom_site_occupancy
  Ca  Ca0  1  0.89507467  0.77495230  0.08198473  1
  Ca  Ca1  1  0.60481547  0.22518239  0.58206590  1
  Ca  Ca2  1  0.39459031  0.72489790  0.91761522  1
  Ca  Ca3  1  0.10545877  0.27526891  0.41769884  1
  Co  Co4  1  0.99678783  0.49637713  0.75129037  1
  Co  Co5  1  0.50315506  0.50356256  0.25134249  1
  Co  Co6  1  0.49427455  0.00301050  0.24822492  1
  Co  Co7  1  0.00572370  0.99688073  0.74820965  1
  As  As8  1  0.63923640  0.26639733  0.93731464  1
  As  As9  1  0.86074100  0.73364252  0.43735752  1
  As  As10  1  0.13983814  0.23336454  0.06325918  1
  As  As11  1  0.36022433  0.76672525  0.56331092  1
  O  O12  1  0.81950441  0.24119521  0.81728078  1
  O  O13  1  0.68022339  0.75866719  0.31743529  1
  O  O14  1  0.32104771  0.25902231  0.18232803  1
  O  O15  1  0.17913109  0.74096971  0.68235589  1
  O  O16  1  0.47171208  0.33404345  0.81949190  1
  O  O17  1  0.02815720  0.66608085  0.31942003  1
  O  O18  1  0.97330036  0.16552184  0.18175065  1
  O  O19  1  0.52688558  0.83450859  0.68171427  1
  O  O20  1  0.61475603  0.00758941  0.02957313  1
  O  O21  1  0.88533532  0.99244409  0.52957472  1
  O  O22  1  0.11400917  0.49111828  0.97049865  1
  O  O23  1  0.38596652  0.50886971  0.47055475  1
  O  O24  1  0.65325192  0.50278326  0.05376161  1
  O  O25  1  0.84698540  0.49714189  0.55369573  1
  O  O26  1  0.15397666  0.99815312  0.94636305  1
  O  O27  1  0.34588036  0.00178927  0.44630090  1
  O  O28  1  0.88573289  0.75263912  0.81966182  1
  O  O29  1  0.61425815  0.24726564  0.31976870  1
  O  O30  1  0.38281810  0.74807263  0.17933326  1
  O  O31  1  0.11714543  0.25186439  0.67946246  1
