# generated using pymatgen
data_CaV2(BiO5)2
_symmetry_space_group_name_H-M   'P 1'
_cell_length_a   5.76042873
_cell_length_b   11.36988019
_cell_length_c   16.10461184
_cell_angle_alpha   90.00000000
_cell_angle_beta   90.00000000
_cell_angle_gamma   90.00000000
_symmetry_Int_Tables_number   1
_chemical_formula_structural   CaV2(BiO5)2
_chemical_formula_sum   'Ca4 V8 Bi8 O40'
_cell_volume   1054.77774473
_cell_formula_units_Z   4
loop_
 _symmetry_equiv_pos_site_id
 _symmetry_equiv_pos_as_xyz
  1  'x, y, z'
loop_
 _atom_site_type_symbol
 _atom_site_label
 _atom_site_symmetry_multiplicity
 _atom_site_fract_x
 _atom_site_fract_y
 _atom_site_fract_z
 _atom_site_occupancy
  Ca  Ca0  1  0.50188043  0.36409945  0.45652309  1
  Ca  Ca1  1  0.99811957  0.36409945  0.95652309  1
  Ca  Ca2  1  0.99811957  0.86409945  0.54347691  1
  Ca  Ca3  1  0.50188043  0.86409945  0.04347691  1
  V  V4  1  0.98744748  0.39657438  0.60691645  1
  V  V5  1  0.51255252  0.89657438  0.39308355  1
  V  V6  1  0.02558005  0.59400051  0.39382043  1
  V  V7  1  0.47441995  0.09400051  0.60617957  1
  V  V8  1  0.02558005  0.09400051  0.10617957  1
  V  V9  1  0.98744748  0.89657438  0.89308355  1
  V  V10  1  0.51255252  0.39657438  0.10691645  1
  V  V11  1  0.47441995  0.59400051  0.89382043  1
  Bi  Bi12  1  0.93141193  0.84854654  0.22715556  1
  Bi  Bi13  1  0.07794180  0.17526499  0.77921996  1
  Bi  Bi14  1  0.56858807  0.34854654  0.77284444  1
  Bi  Bi15  1  0.07794180  0.67526499  0.72078004  1
  Bi  Bi16  1  0.42205820  0.17526499  0.27921996  1
  Bi  Bi17  1  0.42205820  0.67526499  0.22078004  1
  Bi  Bi18  1  0.56858807  0.84854654  0.72715556  1
  Bi  Bi19  1  0.93141193  0.34854654  0.27284444  1
  O  O20  1  0.90864551  0.28878225  0.68790620  1
  O  O21  1  0.27165450  0.02805355  0.07759611  1
  O  O22  1  0.22834550  0.52805355  0.92240389  1
  O  O23  1  0.24266927  0.80046397  0.15541364  1
  O  O24  1  0.25733073  0.30046397  0.84458636  1
  O  O25  1  0.90864551  0.78878225  0.81209380  1
  O  O26  1  0.25733073  0.80046397  0.65541364  1
  O  O27  1  0.59135449  0.78878225  0.31209380  1
  O  O28  1  0.27165450  0.52805355  0.42240389  1
  O  O29  1  0.10876278  0.67645681  0.29679456  1
  O  O30  1  0.59135449  0.28878225  0.18790620  1
  O  O31  1  0.57176277  0.18586966  0.53280254  1
  O  O32  1  0.76720196  0.93772968  0.43380638  1
  O  O33  1  0.77509677  0.72667549  0.65546023  1
  O  O34  1  0.15130829  0.01417402  0.84029481  1
  O  O35  1  0.76720196  0.43772968  0.06619362  1
  O  O36  1  0.10876278  0.17645681  0.20320544  1
  O  O37  1  0.72490323  0.22667549  0.34453977  1
  O  O38  1  0.16043236  0.83804659  0.96413447  1
  O  O39  1  0.22834550  0.02805355  0.57759611  1
  O  O40  1  0.33956764  0.83804659  0.46413447  1
  O  O41  1  0.81022206  0.98423012  0.13571760  1
  O  O42  1  0.77509677  0.22667549  0.84453977  1
  O  O43  1  0.68977794  0.98423012  0.63571760  1
  O  O44  1  0.33956764  0.33804659  0.03586553  1
  O  O45  1  0.16043236  0.33804659  0.53586553  1
  O  O46  1  0.73279804  0.43772968  0.56619362  1
  O  O47  1  0.73279804  0.93772968  0.93380638  1
  O  O48  1  0.68977794  0.48423012  0.86428240  1
  O  O49  1  0.92823723  0.68586966  0.46719746  1
  O  O50  1  0.92823723  0.18586966  0.03280254  1
  O  O51  1  0.57176277  0.68586966  0.96719746  1
  O  O52  1  0.81022206  0.48423012  0.36428240  1
  O  O53  1  0.72490323  0.72667549  0.15546023  1
  O  O54  1  0.24266927  0.30046397  0.34458636  1
  O  O55  1  0.15130829  0.51417402  0.65970519  1
  O  O56  1  0.34869171  0.51417402  0.15970519  1
  O  O57  1  0.39123722  0.17645681  0.70320544  1
  O  O58  1  0.34869171  0.01417402  0.34029481  1
  O  O59  1  0.39123722  0.67645681  0.79679456  1
