# generated using pymatgen
data_ReN2
_symmetry_space_group_name_H-M   'P 1'
_cell_length_a   4.23709367
_cell_length_b   2.89292848
_cell_length_c   5.20426533
_cell_angle_alpha   90.00000000
_cell_angle_beta   64.56483546
_cell_angle_gamma   90.00000000
_symmetry_Int_Tables_number   1
_chemical_formula_structural   ReN2
_chemical_formula_sum   'Re2 N4'
_cell_volume   57.60862461
_cell_formula_units_Z   2
loop_
 _symmetry_equiv_pos_site_id
 _symmetry_equiv_pos_as_xyz
  1  'x, y, z'
loop_
 _atom_site_type_symbol
 _atom_site_label
 _atom_site_symmetry_multiplicity
 _atom_site_fract_x
 _atom_site_fract_y
 _atom_site_fract_z
 _atom_site_occupancy
  Re  Re0  1  0.01032328  0.75000000  0.28371567  1
  Re  Re1  1  0.98967672  0.25000000  0.71628433  1
  N  N2  1  0.35907115  0.25000000  0.29549487  1
  N  N3  1  0.64092885  0.75000000  0.70450513  1
  N  N4  1  0.71887474  0.25000000  0.17065549  1
  N  N5  1  0.28112526  0.75000000  0.82934451  1
