# generated using pymatgen
data_CoHCO4
_symmetry_space_group_name_H-M   'P 1'
_cell_length_a   10.22236054
_cell_length_b   10.22235964
_cell_length_c   6.19829570
_cell_angle_alpha   90.00000000
_cell_angle_beta   90.00000000
_cell_angle_gamma   120.00000088
_symmetry_Int_Tables_number   1
_chemical_formula_structural   CoHCO4
_chemical_formula_sum   'Co6 H6 C6 O24'
_cell_volume   560.92561059
_cell_formula_units_Z   6
loop_
 _symmetry_equiv_pos_site_id
 _symmetry_equiv_pos_as_xyz
  1  'x, y, z'
loop_
 _atom_site_type_symbol
 _atom_site_label
 _atom_site_symmetry_multiplicity
 _atom_site_fract_x
 _atom_site_fract_y
 _atom_site_fract_z
 _atom_site_occupancy
  Co  Co0  1  0.00000000  0.50000000  0.50000000  1
  Co  Co1  1  0.00000000  0.50000000  0.00000000  1
  Co  Co2  1  0.50000000  0.50000000  0.50000000  1
  Co  Co3  1  0.50000000  0.50000000  0.00000000  1
  Co  Co4  1  0.50000000  0.00000000  0.50000000  1
  Co  Co5  1  0.50000000  0.00000000  0.00000000  1
  H  H6  1  0.19010763  0.63971029  0.75000000  1
  H  H7  1  0.44960366  0.80989237  0.75000000  1
  H  H8  1  0.36028971  0.55039634  0.75000000  1
  H  H9  1  0.63971029  0.44960366  0.25000000  1
  H  H10  1  0.55039634  0.19010763  0.25000000  1
  H  H11  1  0.80989237  0.36028971  0.25000000  1
  C  C12  1  0.20181238  0.76373953  0.25000000  1
  C  C13  1  0.23626047  0.43807285  0.25000000  1
  C  C14  1  0.56192715  0.79818762  0.25000000  1
  C  C15  1  0.43807285  0.20181238  0.75000000  1
  C  C16  1  0.76373953  0.56192715  0.75000000  1
  C  C17  1  0.79818762  0.23626047  0.75000000  1
  O  O18  1  0.14496764  0.70328635  0.43505131  1
  O  O19  1  0.14496764  0.70328635  0.06494869  1
  O  O20  1  0.32309844  0.89411458  0.25000000  1
  O  O21  1  0.12175581  0.52898012  0.75000000  1
  O  O22  1  0.10588542  0.42898287  0.25000000  1
  O  O23  1  0.40722331  0.87824419  0.75000000  1
  O  O24  1  0.29671365  0.44168029  0.43505131  1
  O  O25  1  0.29671365  0.44168029  0.06494869  1
  O  O26  1  0.55831971  0.85503236  0.06494869  1
  O  O27  1  0.55831971  0.85503236  0.43505131  1
  O  O28  1  0.47101988  0.59277669  0.75000000  1
  O  O29  1  0.57101713  0.67690156  0.25000000  1
  O  O30  1  0.42898287  0.32309844  0.75000000  1
  O  O31  1  0.52898012  0.40722331  0.25000000  1
  O  O32  1  0.44168029  0.14496764  0.56494869  1
  O  O33  1  0.44168029  0.14496764  0.93505131  1
  O  O34  1  0.70328635  0.55831971  0.93505131  1
  O  O35  1  0.70328635  0.55831971  0.56494869  1
  O  O36  1  0.59277669  0.12175581  0.25000000  1
  O  O37  1  0.89411458  0.57101713  0.75000000  1
  O  O38  1  0.87824419  0.47101988  0.25000000  1
  O  O39  1  0.67690156  0.10588542  0.75000000  1
  O  O40  1  0.85503236  0.29671365  0.93505131  1
  O  O41  1  0.85503236  0.29671365  0.56494869  1
