# generated using pymatgen
data_Sn4SF6
_symmetry_space_group_name_H-M   'P 1'
_cell_length_a   6.08330788
_cell_length_b   6.08330787
_cell_length_c   6.08330796
_cell_angle_alpha   93.40881183
_cell_angle_beta   93.40881181
_cell_angle_gamma   93.40881035
_symmetry_Int_Tables_number   1
_chemical_formula_structural   Sn4SF6
_chemical_formula_sum   'Sn4 S1 F6'
_cell_volume   223.87811461
_cell_formula_units_Z   1
loop_
 _symmetry_equiv_pos_site_id
 _symmetry_equiv_pos_as_xyz
  1  'x, y, z'
loop_
 _atom_site_type_symbol
 _atom_site_label
 _atom_site_symmetry_multiplicity
 _atom_site_fract_x
 _atom_site_fract_y
 _atom_site_fract_z
 _atom_site_occupancy
  Sn  Sn0  1  0.50088614  0.99236594  0.99524686  1
  Sn  Sn1  1  0.99524686  0.50088614  0.99236594  1
  Sn  Sn2  1  0.99236594  0.99524686  0.50088614  1
  Sn  Sn3  1  0.49057935  0.49057935  0.49057935  1
  S  S4  1  0.92023775  0.92023775  0.92023775  1
  F  F5  1  0.38947937  0.13289961  0.69757851  1
  F  F6  1  0.69757851  0.38947937  0.13289961  1
  F  F7  1  0.13289961  0.69757851  0.38947937  1
  F  F8  1  0.67092054  0.80169652  0.41649940  1
  F  F9  1  0.41649940  0.67092054  0.80169652  1
  F  F10  1  0.80169652  0.41649940  0.67092054  1
