# generated using pymatgen
data_Mg15Bi
_symmetry_space_group_name_H-M   'P 1'
_cell_length_a   6.41273817
_cell_length_b   6.41273765
_cell_length_c   10.52782972
_cell_angle_alpha   90.00000000
_cell_angle_beta   90.00000000
_cell_angle_gamma   120.00000273
_symmetry_Int_Tables_number   1
_chemical_formula_structural   Mg15Bi
_chemical_formula_sum   'Mg15 Bi1'
_cell_volume   374.93540518
_cell_formula_units_Z   1
loop_
 _symmetry_equiv_pos_site_id
 _symmetry_equiv_pos_as_xyz
  1  'x, y, z'
loop_
 _atom_site_type_symbol
 _atom_site_label
 _atom_site_symmetry_multiplicity
 _atom_site_fract_x
 _atom_site_fract_y
 _atom_site_fract_z
 _atom_site_occupancy
  Mg  Mg0  1  0.16666700  0.33333300  0.62500000  1
  Mg  Mg1  1  0.16491374  0.83245637  0.12500000  1
  Mg  Mg2  1  0.16682143  0.83341022  0.62500000  1
  Mg  Mg3  1  0.66754363  0.33508626  0.12500000  1
  Mg  Mg4  1  0.66658978  0.33317857  0.62500000  1
  Mg  Mg5  1  0.66754363  0.83245637  0.12500000  1
  Mg  Mg6  1  0.66658978  0.83341022  0.62500000  1
  Mg  Mg7  1  0.33518346  0.16481654  0.37770322  1
  Mg  Mg8  1  0.33518346  0.16481654  0.87229678  1
  Mg  Mg9  1  0.33518346  0.67036792  0.37770322  1
  Mg  Mg10  1  0.33518346  0.67036792  0.87229678  1
  Mg  Mg11  1  0.82963208  0.16481654  0.37770322  1
  Mg  Mg12  1  0.82963208  0.16481654  0.87229678  1
  Mg  Mg13  1  0.83333300  0.66666700  0.37522955  1
  Mg  Mg14  1  0.83333300  0.66666700  0.87477045  1
  Bi  Bi15  1  0.16666700  0.33333300  0.12500000  1
