# generated using pymatgen
data_CeZr3O8
_symmetry_space_group_name_H-M   'P 1'
_cell_length_a   7.42354805
_cell_length_b   7.42352305
_cell_length_c   5.31916718
_cell_angle_alpha   89.35911220
_cell_angle_beta   90.64083353
_cell_angle_gamma   89.63599945
_symmetry_Int_Tables_number   1
_chemical_formula_structural   CeZr3O8
_chemical_formula_sum   'Ce2 Zr6 O16'
_cell_volume   293.09052306
_cell_formula_units_Z   2
loop_
 _symmetry_equiv_pos_site_id
 _symmetry_equiv_pos_as_xyz
  1  'x, y, z'
loop_
 _atom_site_type_symbol
 _atom_site_label
 _atom_site_symmetry_multiplicity
 _atom_site_fract_x
 _atom_site_fract_y
 _atom_site_fract_z
 _atom_site_occupancy
  Ce  Ce0  1  0.99467290  0.99467619  0.99999568  1
  Ce  Ce1  1  0.25532847  0.25533208  0.50000376  1
  Zr  Zr2  1  0.00308231  0.50065471  0.99814229  1
  Zr  Zr3  1  0.24687951  0.74935032  0.50187030  1
  Zr  Zr4  1  0.50065437  0.00308320  0.00186304  1
  Zr  Zr5  1  0.74934960  0.24687879  0.49812383  1
  Zr  Zr6  1  0.50648700  0.50648700  0.99999873  1
  Zr  Zr7  1  0.74348497  0.74348452  0.50000133  1
  O  O8  1  0.24710157  0.98164812  0.27538032  1
  O  O9  1  0.00291855  0.26833702  0.22461720  1
  O  O10  1  0.98164577  0.24710193  0.72462045  1
  O  O11  1  0.26833865  0.00291888  0.77538174  1
  O  O12  1  0.26998628  0.52020217  0.28106061  1
  O  O13  1  0.98006059  0.72979646  0.21897433  1
  O  O14  1  0.00740778  0.75656386  0.70205262  1
  O  O15  1  0.24257318  0.49343843  0.79797828  1
  O  O16  1  0.75656339  0.00740650  0.29794729  1
  O  O17  1  0.49344135  0.24257401  0.20202677  1
  O  O18  1  0.52020496  0.26998757  0.71894385  1
  O  O19  1  0.72979410  0.98005748  0.78102415  1
  O  O20  1  0.72340991  0.49060887  0.31015824  1
  O  O21  1  0.52663849  0.75936808  0.18982747  1
  O  O22  1  0.49060800  0.72340434  0.68983891  1
  O  O23  1  0.75936928  0.52664147  0.81017179  1
