# generated using pymatgen
data_Mg15Cu
_symmetry_space_group_name_H-M   'P 1'
_cell_length_a   6.30585955
_cell_length_b   6.30585906
_cell_length_c   10.15714494
_cell_angle_alpha   90.00000000
_cell_angle_beta   90.00000000
_cell_angle_gamma   120.00000264
_symmetry_Int_Tables_number   1
_chemical_formula_structural   Mg15Cu
_chemical_formula_sum   'Mg15 Cu1'
_cell_volume   349.77665721
_cell_formula_units_Z   1
loop_
 _symmetry_equiv_pos_site_id
 _symmetry_equiv_pos_as_xyz
  1  'x, y, z'
loop_
 _atom_site_type_symbol
 _atom_site_label
 _atom_site_symmetry_multiplicity
 _atom_site_fract_x
 _atom_site_fract_y
 _atom_site_fract_z
 _atom_site_occupancy
  Mg  Mg0  1  0.16666700  0.33333300  0.62500000  1
  Mg  Mg1  1  0.16359667  0.83179783  0.12500000  1
  Mg  Mg2  1  0.16835625  0.83417762  0.62500000  1
  Mg  Mg3  1  0.66820217  0.33640333  0.12500000  1
  Mg  Mg4  1  0.66582238  0.33164375  0.62500000  1
  Mg  Mg5  1  0.66820217  0.83179783  0.12500000  1
  Mg  Mg6  1  0.66582238  0.83417762  0.62500000  1
  Mg  Mg7  1  0.33013515  0.16986485  0.36811283  1
  Mg  Mg8  1  0.33013515  0.16986485  0.88188717  1
  Mg  Mg9  1  0.33013515  0.66027129  0.36811283  1
  Mg  Mg10  1  0.33013515  0.66027129  0.88188717  1
  Mg  Mg11  1  0.83972871  0.16986485  0.36811283  1
  Mg  Mg12  1  0.83972871  0.16986485  0.88188717  1
  Mg  Mg13  1  0.83333300  0.66666700  0.37707997  1
  Mg  Mg14  1  0.83333300  0.66666700  0.87292003  1
  Cu  Cu15  1  0.16666700  0.33333300  0.12500000  1
