# generated using pymatgen
data_TeWSe
_symmetry_space_group_name_H-M   'P 1'
_cell_length_a   3.43778988
_cell_length_b   3.43778638
_cell_length_c   39.18689827
_cell_angle_alpha   90.00036555
_cell_angle_beta   90.00000000
_cell_angle_gamma   120.00003366
_symmetry_Int_Tables_number   1
_chemical_formula_structural   TeWSe
_chemical_formula_sum   'Te4 W4 Se4'
_cell_volume   401.07869165
_cell_formula_units_Z   4
loop_
 _symmetry_equiv_pos_site_id
 _symmetry_equiv_pos_as_xyz
  1  'x, y, z'
loop_
 _atom_site_type_symbol
 _atom_site_label
 _atom_site_symmetry_multiplicity
 _atom_site_fract_x
 _atom_site_fract_y
 _atom_site_fract_z
 _atom_site_occupancy
  Te  Te0  1  0.33335421  0.66670943  0.70517679  1
  Te  Te1  1  0.66664579  0.33329057  0.04628121  1
  Te  Te2  1  0.66664635  0.33329170  0.14157719  1
  Te  Te3  1  0.33335365  0.66670830  0.60988081  1
  W  W4  1  0.33330908  0.66661817  0.09392142  1
  W  W5  1  0.33331327  0.66662654  0.46964610  1
  W  W6  1  0.66668673  0.33337346  0.28181190  1
  W  W7  1  0.66669092  0.33338183  0.65753658  1
  Se  Se8  1  0.33335812  0.66671724  0.32374368  1
  Se  Se9  1  0.66664188  0.33328276  0.42771432  1
  Se  Se10  1  0.66664657  0.33329214  0.51160149  1
  Se  Se11  1  0.33335343  0.66670786  0.23985651  1
