# generated using pymatgen
data_Te3W2Se
_symmetry_space_group_name_H-M   'P 1'
_cell_length_a   3.49735719
_cell_length_b   3.49733751
_cell_length_c   39.67434130
_cell_angle_alpha   90.00019929
_cell_angle_beta   90.00000000
_cell_angle_gamma   120.00018628
_symmetry_Int_Tables_number   1
_chemical_formula_structural   Te3W2Se
_chemical_formula_sum   'Te6 W4 Se2'
_cell_volume   420.25905196
_cell_formula_units_Z   2
loop_
 _symmetry_equiv_pos_site_id
 _symmetry_equiv_pos_as_xyz
  1  'x, y, z'
loop_
 _atom_site_type_symbol
 _atom_site_label
 _atom_site_symmetry_multiplicity
 _atom_site_fract_x
 _atom_site_fract_y
 _atom_site_fract_z
 _atom_site_occupancy
  Te  Te0  1  0.33335499  0.66671097  0.70395979  1
  Te  Te1  1  0.66663097  0.33326094  0.04750381  1
  Te  Te2  1  0.66665233  0.33330366  0.42323713  1
  Te  Te3  1  0.66664870  0.33329640  0.14035114  1
  Te  Te4  1  0.66664916  0.33329733  0.51608009  1
  Te  Te5  1  0.33335586  0.66671271  0.61110656  1
  W  W6  1  0.33330786  0.66661571  0.09391824  1
  W  W7  1  0.33331346  0.66662692  0.46964253  1
  W  W8  1  0.66668747  0.33337494  0.28179900  1
  W  W9  1  0.66669270  0.33338540  0.65755148  1
  Se  Se10  1  0.33335527  0.66671154  0.32271264  1
  Se  Se11  1  0.33335124  0.66670347  0.24088558  1
