# generated using pymatgen
data_TeWSe
_symmetry_space_group_name_H-M   'P 1'
_cell_length_a   3.43787492
_cell_length_b   3.43785863
_cell_length_c   39.19287489
_cell_angle_alpha   89.99987028
_cell_angle_beta   90.00000000
_cell_angle_gamma   120.00015679
_symmetry_Int_Tables_number   1
_chemical_formula_structural   TeWSe
_chemical_formula_sum   'Te4 W4 Se4'
_cell_volume   401.15771757
_cell_formula_units_Z   4
loop_
 _symmetry_equiv_pos_site_id
 _symmetry_equiv_pos_as_xyz
  1  'x, y, z'
loop_
 _atom_site_type_symbol
 _atom_site_label
 _atom_site_symmetry_multiplicity
 _atom_site_fract_x
 _atom_site_fract_y
 _atom_site_fract_z
 _atom_site_occupancy
  Te  Te0  1  0.33336055  0.66672210  0.32944611  1
  Te  Te1  1  0.33335134  0.66670369  0.70517298  1
  Te  Te2  1  0.33335876  0.66671851  0.23414997  1
  Te  Te3  1  0.33335195  0.66670491  0.60987742  1
  W  W4  1  0.33330781  0.66661561  0.09391479  1
  W  W5  1  0.33331138  0.66662275  0.46966354  1
  W  W6  1  0.66669117  0.33338235  0.28179942  1
  W  W7  1  0.66668897  0.33337793  0.65753533  1
  Se  Se8  1  0.66664279  0.33328458  0.05198637  1
  Se  Se9  1  0.66664626  0.33329152  0.42771949  1
  Se  Se10  1  0.66664333  0.33328565  0.13587221  1
  Se  Se11  1  0.66664570  0.33329041  0.51161037  1
