# generated using pymatgen
data_Te3W2Se
_symmetry_space_group_name_H-M   'P 1'
_cell_length_a   3.49747861
_cell_length_b   3.49749985
_cell_length_c   39.69917027
_cell_angle_alpha   90.00005255
_cell_angle_beta   90.00000000
_cell_angle_gamma   119.99979905
_symmetry_Int_Tables_number   1
_chemical_formula_structural   Te3W2Se
_chemical_formula_sum   'Te6 W4 Se2'
_cell_volume   420.55781941
_cell_formula_units_Z   2
loop_
 _symmetry_equiv_pos_site_id
 _symmetry_equiv_pos_as_xyz
  1  'x, y, z'
loop_
 _atom_site_type_symbol
 _atom_site_label
 _atom_site_symmetry_multiplicity
 _atom_site_fract_x
 _atom_site_fract_y
 _atom_site_fract_z
 _atom_site_occupancy
  Te  Te0  1  0.33335487  0.66671074  0.32819803  1
  Te  Te1  1  0.33335341  0.66670782  0.70395255  1
  Te  Te2  1  0.66664703  0.33329307  0.42325876  1
  Te  Te3  1  0.66664759  0.33329417  0.51607622  1
  Te  Te4  1  0.33335830  0.66671761  0.23537740  1
  Te  Te5  1  0.33335305  0.66670709  0.61111455  1
  W  W6  1  0.33331011  0.66662023  0.09391281  1
  W  W7  1  0.33331060  0.66662121  0.46966145  1
  W  W8  1  0.66669255  0.33338510  0.28177611  1
  W  W9  1  0.66669013  0.33338026  0.65754977  1
  Se  Se10  1  0.66664133  0.33328165  0.05304773  1
  Se  Se11  1  0.66664103  0.33328107  0.13482264  1
