# generated using pymatgen
data_Zn2Cr3O8
_symmetry_space_group_name_H-M   'P 1'
_cell_length_a   4.97315526
_cell_length_b   5.87133096
_cell_length_c   5.95074446
_cell_angle_alpha   119.55952102
_cell_angle_beta   108.76055448
_cell_angle_gamma   89.99999699
_symmetry_Int_Tables_number   1
_chemical_formula_structural   Zn2Cr3O8
_chemical_formula_sum   'Zn2 Cr3 O8'
_cell_volume   140.43019192
_cell_formula_units_Z   1
loop_
 _symmetry_equiv_pos_site_id
 _symmetry_equiv_pos_as_xyz
  1  'x, y, z'
loop_
 _atom_site_type_symbol
 _atom_site_label
 _atom_site_symmetry_multiplicity
 _atom_site_fract_x
 _atom_site_fract_y
 _atom_site_fract_z
 _atom_site_occupancy
  Zn  Zn0  1  0.65812622  0.71689359  0.43378618  1
  Zn  Zn1  1  0.34187278  0.28310741  0.56621382  1
  Cr  Cr2  1  0.50000000  0.99999900  0.00000000  1
  Cr  Cr3  1  0.99999900  0.74024665  0.00000000  1
  Cr  Cr4  1  0.99999900  0.25975335  1.00000000  1
  O  O5  1  0.07501990  0.39590753  0.79181607  1
  O  O6  1  0.92498010  0.60409147  0.20818393  1
  O  O7  1  0.07505458  0.89171046  0.78342092  1
  O  O8  1  0.92494542  0.10828854  0.21657808  1
  O  O9  1  0.41011236  0.33928788  0.22566723  1
  O  O10  1  0.41011236  0.88637934  0.22566723  1
  O  O11  1  0.58988864  0.11361966  0.77433277  1
  O  O12  1  0.58988864  0.66071212  0.77433277  1
