# generated using pymatgen
data_CaMg30TiO32
_symmetry_space_group_name_H-M   'P 1'
_cell_length_a   8.58318277
_cell_length_b   8.58318277
_cell_length_c   8.57804863
_cell_angle_alpha   90.00000000
_cell_angle_beta   90.00000000
_cell_angle_gamma   90.00000000
_symmetry_Int_Tables_number   1
_chemical_formula_structural   CaMg30TiO32
_chemical_formula_sum   'Ca1 Mg30 Ti1 O32'
_cell_volume   631.95364762
_cell_formula_units_Z   1
loop_
 _symmetry_equiv_pos_site_id
 _symmetry_equiv_pos_as_xyz
  1  'x, y, z'
loop_
 _atom_site_type_symbol
 _atom_site_label
 _atom_site_symmetry_multiplicity
 _atom_site_fract_x
 _atom_site_fract_y
 _atom_site_fract_z
 _atom_site_occupancy
  Ca  Ca0  1  -0.00000000  -0.00000000  0.00000000  1
  Mg  Mg1  1  -0.00000000  0.50000000  0.00000000  1
  Mg  Mg2  1  -0.00000000  0.50000000  0.50000000  1
  Mg  Mg3  1  0.50000000  -0.00000000  0.00000000  1
  Mg  Mg4  1  0.50000000  -0.00000000  0.50000000  1
  Mg  Mg5  1  0.50000000  0.50000000  0.00000000  1
  Mg  Mg6  1  0.50000000  0.50000000  0.50000000  1
  Mg  Mg7  1  -0.00000000  0.25452185  0.25179437  1
  Mg  Mg8  1  -0.00000000  0.25452185  0.74820563  1
  Mg  Mg9  1  -0.00000000  0.74547815  0.25179437  1
  Mg  Mg10  1  -0.00000000  0.74547815  0.74820563  1
  Mg  Mg11  1  0.50000000  0.25020102  0.25007005  1
  Mg  Mg12  1  0.50000000  0.25020102  0.74992995  1
  Mg  Mg13  1  0.50000000  0.74979898  0.25007005  1
  Mg  Mg14  1  0.50000000  0.74979898  0.74992995  1
  Mg  Mg15  1  0.25452185  -0.00000000  0.25179437  1
  Mg  Mg16  1  0.25452185  -0.00000000  0.74820563  1
  Mg  Mg17  1  0.25020102  0.50000000  0.25007005  1
  Mg  Mg18  1  0.25020102  0.50000000  0.74992995  1
  Mg  Mg19  1  0.74547815  -0.00000000  0.25179437  1
  Mg  Mg20  1  0.74547815  -0.00000000  0.74820563  1
  Mg  Mg21  1  0.74979898  0.50000000  0.25007005  1
  Mg  Mg22  1  0.74979898  0.50000000  0.74992995  1
  Mg  Mg23  1  0.25293451  0.25293451  0.00000000  1
  Mg  Mg24  1  0.25074490  0.25074490  0.50000000  1
  Mg  Mg25  1  0.25293451  0.74706549  0.00000000  1
  Mg  Mg26  1  0.25074490  0.74925510  0.50000000  1
  Mg  Mg27  1  0.74706549  0.25293451  0.00000000  1
  Mg  Mg28  1  0.74925510  0.25074490  0.50000000  1
  Mg  Mg29  1  0.74706549  0.74706549  0.00000000  1
  Mg  Mg30  1  0.74925510  0.74925510  0.50000000  1
  Ti  Ti31  1  -0.00000000  -0.00000000  0.50000000  1
  O  O32  1  0.26259791  -0.00000000  0.00000000  1
  O  O33  1  0.25655879  -0.00000000  0.50000000  1
  O  O34  1  0.25195017  0.50000000  0.00000000  1
  O  O35  1  0.25078195  0.50000000  0.50000000  1
  O  O36  1  0.73740209  -0.00000000  0.00000000  1
  O  O37  1  0.74344121  -0.00000000  0.50000000  1
  O  O38  1  0.74804983  0.50000000  0.00000000  1
  O  O39  1  0.74921805  0.50000000  0.50000000  1
  O  O40  1  0.24931900  0.24931900  0.24979518  1
  O  O41  1  0.24931900  0.24931900  0.75020482  1
  O  O42  1  0.24931900  0.75068100  0.24979518  1
  O  O43  1  0.24931900  0.75068100  0.75020482  1
  O  O44  1  0.75068100  0.24931900  0.24979518  1
  O  O45  1  0.75068100  0.24931900  0.75020482  1
  O  O46  1  0.75068100  0.75068100  0.24979518  1
  O  O47  1  0.75068100  0.75068100  0.75020482  1
  O  O48  1  -0.00000000  -0.00000000  0.25936135  1
  O  O49  1  -0.00000000  -0.00000000  0.74063865  1
  O  O50  1  -0.00000000  0.50000000  0.25159558  1
  O  O51  1  -0.00000000  0.50000000  0.74840442  1
  O  O52  1  0.50000000  -0.00000000  0.25159558  1
  O  O53  1  0.50000000  -0.00000000  0.74840442  1
  O  O54  1  0.50000000  0.50000000  0.25025447  1
  O  O55  1  0.50000000  0.50000000  0.74974553  1
  O  O56  1  -0.00000000  0.26259791  0.00000000  1
  O  O57  1  -0.00000000  0.25655879  0.50000000  1
  O  O58  1  -0.00000000  0.73740209  0.00000000  1
  O  O59  1  -0.00000000  0.74344121  0.50000000  1
  O  O60  1  0.50000000  0.25195017  0.00000000  1
  O  O61  1  0.50000000  0.25078195  0.50000000  1
  O  O62  1  0.50000000  0.74804983  0.00000000  1
  O  O63  1  0.50000000  0.74921805  0.50000000  1
