# generated using pymatgen
data_CaVBiO6
_symmetry_space_group_name_H-M   'P 1'
_cell_length_a   5.38215122
_cell_length_b   7.58352667
_cell_length_c   7.11331156
_cell_angle_alpha   101.83347508
_cell_angle_beta   90.00000000
_cell_angle_gamma   90.00000000
_symmetry_Int_Tables_number   1
_chemical_formula_structural   CaVBiO6
_chemical_formula_sum   'Ca2 V2 Bi2 O12'
_cell_volume   284.16443333
_cell_formula_units_Z   2
loop_
 _symmetry_equiv_pos_site_id
 _symmetry_equiv_pos_as_xyz
  1  'x, y, z'
loop_
 _atom_site_type_symbol
 _atom_site_label
 _atom_site_symmetry_multiplicity
 _atom_site_fract_x
 _atom_site_fract_y
 _atom_site_fract_z
 _atom_site_occupancy
  Ca  Ca0  1  0.25980203  0.93418545  0.73098093  1
  Ca  Ca1  1  0.75980203  0.06581455  0.26901907  1
  V  V2  1  0.29113422  0.78857575  0.22025850  1
  V  V3  1  0.79113422  0.21142425  0.77974150  1
  Bi  Bi4  1  0.76701080  0.56938285  0.40003728  1
  Bi  Bi5  1  0.26701080  0.43061715  0.59996272  1
  O  O6  1  0.02863035  0.34871126  0.35130275  1
  O  O7  1  0.95592847  0.75961564  0.24258702  1
  O  O8  1  0.48250240  0.59326537  0.18861809  1
  O  O9  1  0.98250240  0.40673463  0.81138191  1
  O  O10  1  0.54785464  0.32656192  0.39635887  1
  O  O11  1  0.34442726  0.89618340  0.03827838  1
  O  O12  1  0.04785464  0.67343808  0.60364113  1
  O  O13  1  0.52863035  0.65128874  0.64869725  1
  O  O14  1  0.84442726  0.10381660  0.96172162  1
  O  O15  1  0.45592847  0.24038436  0.75741298  1
  O  O16  1  0.91624485  0.07067328  0.58456847  1
  O  O17  1  0.41624485  0.92932672  0.41543153  1
