# generated using pymatgen
data_MgCd
_symmetry_space_group_name_H-M   'P 1'
_cell_length_a   11.75916673
_cell_length_b   3.20721380
_cell_length_c   7.32743509
_cell_angle_alpha   90.00000000
_cell_angle_beta   105.70174868
_cell_angle_gamma   90.00000000
_symmetry_Int_Tables_number   1
_chemical_formula_structural   MgCd
_chemical_formula_sum   'Mg6 Cd6'
_cell_volume   266.03572626
_cell_formula_units_Z   6
loop_
 _symmetry_equiv_pos_site_id
 _symmetry_equiv_pos_as_xyz
  1  'x, y, z'
loop_
 _atom_site_type_symbol
 _atom_site_label
 _atom_site_symmetry_multiplicity
 _atom_site_fract_x
 _atom_site_fract_y
 _atom_site_fract_z
 _atom_site_occupancy
  Mg  Mg0  1  0.38922178  -0.00000000  0.27320097  1
  Mg  Mg1  1  0.16655317  0.50000000  0.33487701  1
  Mg  Mg2  1  0.05564728  0.00000000  0.61564439  1
  Mg  Mg3  1  0.88922178  0.50000000  0.27320097  1
  Mg  Mg4  1  0.66655317  0.00000000  0.33487701  1
  Mg  Mg5  1  0.55564728  0.50000000  0.61564439  1
  Cd  Cd6  1  0.00001364  -0.00000000  0.00301125  1
  Cd  Cd7  1  0.33153492  -0.00000000  0.65683604  1
  Cd  Cd8  1  0.22369622  0.50000000  0.94976333  1
  Cd  Cd9  1  0.50001364  0.50000000  0.00301125  1
  Cd  Cd10  1  0.83153492  0.50000000  0.65683604  1
  Cd  Cd11  1  0.72369622  0.00000000  0.94976333  1
