# generated using pymatgen
data_Mg2Ti3O8
_symmetry_space_group_name_H-M   'P 1'
_cell_length_a   5.95508548
_cell_length_b   5.95508527
_cell_length_c   9.50825495
_cell_angle_alpha   90.00000000
_cell_angle_beta   90.00000000
_cell_angle_gamma   120.00000114
_symmetry_Int_Tables_number   1
_chemical_formula_structural   Mg2Ti3O8
_chemical_formula_sum   'Mg4 Ti6 O16'
_cell_volume   292.01652560
_cell_formula_units_Z   2
loop_
 _symmetry_equiv_pos_site_id
 _symmetry_equiv_pos_as_xyz
  1  'x, y, z'
loop_
 _atom_site_type_symbol
 _atom_site_label
 _atom_site_symmetry_multiplicity
 _atom_site_fract_x
 _atom_site_fract_y
 _atom_site_fract_z
 _atom_site_occupancy
  Mg  Mg0  1  0.66666700  0.33333400  0.02284126  1
  Mg  Mg1  1  0.33333300  0.66666600  0.52284226  1
  Mg  Mg2  1  0.66666700  0.33333400  0.41802500  1
  Mg  Mg3  1  0.33333300  0.66666600  0.91802600  1
  Ti  Ti4  1  0.67388207  0.83694154  0.24418083  1
  Ti  Ti5  1  0.83694254  0.16305946  0.74418083  1
  Ti  Ti6  1  0.16305946  0.32611893  0.24418083  1
  Ti  Ti7  1  0.83694054  0.67388207  0.74418083  1
  Ti  Ti8  1  0.32611893  0.16305946  0.74418083  1
  Ti  Ti9  1  0.16305946  0.83694154  0.24418083  1
  O  O10  1  0.83618378  0.16381722  0.14637636  1
  O  O11  1  0.67236555  0.83618378  0.64637536  1
  O  O12  1  0.16381722  0.32763545  0.64637536  1
  O  O13  1  0.83618278  0.67236555  0.14637636  1
  O  O14  1  0.32763445  0.16381722  0.14637636  1
  O  O15  1  0.16381722  0.83618378  0.64637536  1
  O  O16  1  0.51887153  0.48112747  0.86621175  1
  O  O17  1  0.03774306  0.51887153  0.36621075  1
  O  O18  1  0.48112847  0.96225794  0.36621075  1
  O  O19  1  0.51887153  0.03774306  0.86621175  1
  O  O20  1  -0.00000000  0.00000000  0.35097955  1
  O  O21  1  -0.00000000  -0.00000000  0.85097955  1
  O  O22  1  0.33333300  0.66666600  0.13134939  1
  O  O23  1  0.96225594  0.48112747  0.86621175  1
  O  O24  1  0.48112747  0.51887153  0.36621075  1
  O  O25  1  0.66666700  0.33333400  0.63134939  1
