# generated using pymatgen
data_NaLiMg30O31
_symmetry_space_group_name_H-M   'P 1'
_cell_length_a   8.52690158
_cell_length_b   8.57883716
_cell_length_c   8.53457075
_cell_angle_alpha   90.00000000
_cell_angle_beta   90.00000000
_cell_angle_gamma   90.00000000
_symmetry_Int_Tables_number   1
_chemical_formula_structural   NaLiMg30O31
_chemical_formula_sum   'Na1 Li1 Mg30 O31'
_cell_volume   624.31153262
_cell_formula_units_Z   1
loop_
 _symmetry_equiv_pos_site_id
 _symmetry_equiv_pos_as_xyz
  1  'x, y, z'
loop_
 _atom_site_type_symbol
 _atom_site_label
 _atom_site_symmetry_multiplicity
 _atom_site_fract_x
 _atom_site_fract_y
 _atom_site_fract_z
 _atom_site_occupancy
  Na  Na0  1  0.99728765  0.00000000  0.50000000  1
  Li  Li1  1  0.97741510  0.00000000  -0.00000000  1
  Mg  Mg2  1  0.99623153  0.50000000  -0.00000000  1
  Mg  Mg3  1  0.99859542  0.50000000  0.50000000  1
  Mg  Mg4  1  0.52037334  0.00000000  -0.00000000  1
  Mg  Mg5  1  0.50160702  0.00000000  0.50000000  1
  Mg  Mg6  1  0.50279347  0.50000000  -0.00000000  1
  Mg  Mg7  1  0.50136430  0.50000000  0.50000000  1
  Mg  Mg8  1  0.00061468  0.24538812  0.24760788  1
  Mg  Mg9  1  0.00061468  0.24538812  0.75239212  1
  Mg  Mg10  1  0.00061468  0.75461188  0.24760788  1
  Mg  Mg11  1  0.00061468  0.75461188  0.75239212  1
  Mg  Mg12  1  0.49977498  0.24865772  0.24969120  1
  Mg  Mg13  1  0.49977498  0.24865772  0.75030880  1
  Mg  Mg14  1  0.49977498  0.75134228  0.24969120  1
  Mg  Mg15  1  0.49977498  0.75134228  0.75030880  1
  Mg  Mg16  1  0.24423963  0.00000000  0.27064664  1
  Mg  Mg17  1  0.24423963  0.00000000  0.72935336  1
  Mg  Mg18  1  0.24851664  0.50000000  0.25294040  1
  Mg  Mg19  1  0.24851664  0.50000000  0.74705960  1
  Mg  Mg20  1  0.75840941  0.00000000  0.24931473  1
  Mg  Mg21  1  0.75840941  0.00000000  0.75068527  1
  Mg  Mg22  1  0.75157572  0.50000000  0.25084257  1
  Mg  Mg23  1  0.75157572  0.50000000  0.74915743  1
  Mg  Mg24  1  0.24527719  0.26964928  -0.00000000  1
  Mg  Mg25  1  0.24771027  0.25143416  0.50000000  1
  Mg  Mg26  1  0.24527719  0.73035072  -0.00000000  1
  Mg  Mg27  1  0.24771027  0.74856584  0.50000000  1
  Mg  Mg28  1  0.75711345  0.24750312  -0.00000000  1
  Mg  Mg29  1  0.75267074  0.24850657  0.50000000  1
  Mg  Mg30  1  0.75711345  0.75249688  -0.00000000  1
  Mg  Mg31  1  0.75267074  0.75149343  0.50000000  1
  O  O32  1  0.26405545  0.00000000  0.50000000  1
  O  O33  1  0.25335616  0.50000000  -0.00000000  1
  O  O34  1  0.25343581  0.50000000  0.50000000  1
  O  O35  1  0.74910355  0.00000000  -0.00000000  1
  O  O36  1  0.73614061  0.00000000  0.50000000  1
  O  O37  1  0.74694397  0.50000000  -0.00000000  1
  O  O38  1  0.74698986  0.50000000  0.50000000  1
  O  O39  1  0.25048061  0.24553582  0.24500251  1
  O  O40  1  0.25048061  0.24553582  0.75499749  1
  O  O41  1  0.25048061  0.75446418  0.24500251  1
  O  O42  1  0.25048061  0.75446418  0.75499749  1
  O  O43  1  0.74947453  0.24833131  0.24868873  1
  O  O44  1  0.74947453  0.24833131  0.75131127  1
  O  O45  1  0.74947453  0.75166869  0.24868873  1
  O  O46  1  0.74947453  0.75166869  0.75131127  1
  O  O47  1  0.00826368  0.00000000  0.23366209  1
  O  O48  1  0.00826368  0.00000000  0.76633791  1
  O  O49  1  0.00136393  0.50000000  0.24792137  1
  O  O50  1  0.00136393  0.50000000  0.75207863  1
  O  O51  1  0.49108695  0.00000000  0.24062491  1
  O  O52  1  0.49108695  0.00000000  0.75937509  1
  O  O53  1  0.49865960  0.50000000  0.24802936  1
  O  O54  1  0.49865960  0.50000000  0.75197064  1
  O  O55  1  0.00398734  0.25777905  -0.00000000  1
  O  O56  1  0.00174896  0.26257148  0.50000000  1
  O  O57  1  0.00398734  0.74222095  -0.00000000  1
  O  O58  1  0.00174896  0.73742852  0.50000000  1
  O  O59  1  0.49248854  0.24440910  -0.00000000  1
  O  O60  1  0.49835173  0.25128644  0.50000000  1
  O  O61  1  0.49248854  0.75559090  -0.00000000  1
  O  O62  1  0.49835173  0.74871356  0.50000000  1
