# generated using pymatgen
data_MgNi3(P2O7)2
_symmetry_space_group_name_H-M   'P 1'
_cell_length_a   7.26529638
_cell_length_b   7.49761614
_cell_length_c   9.48614775
_cell_angle_alpha   90.00000000
_cell_angle_beta   112.36024771
_cell_angle_gamma   90.00000000
_symmetry_Int_Tables_number   1
_chemical_formula_structural   MgNi3(P2O7)2
_chemical_formula_sum   'Mg2 Ni6 P8 O28'
_cell_volume   477.88019671
_cell_formula_units_Z   2
loop_
 _symmetry_equiv_pos_site_id
 _symmetry_equiv_pos_as_xyz
  1  'x, y, z'
loop_
 _atom_site_type_symbol
 _atom_site_label
 _atom_site_symmetry_multiplicity
 _atom_site_fract_x
 _atom_site_fract_y
 _atom_site_fract_z
 _atom_site_occupancy
  Mg  Mg0  1  0.50000000  0.00000000  -0.00000000  1
  Mg  Mg1  1  0.50000000  0.50000000  0.50000000  1
  Ni  Ni2  1  0.18552915  0.87160425  0.52296399  1
  Ni  Ni3  1  0.81447085  0.37160425  0.97703601  1
  Ni  Ni4  1  0.81447085  0.12839575  0.47703601  1
  Ni  Ni5  1  0.18552915  0.62839575  0.02296399  1
  Ni  Ni6  1  0.00000000  0.00000000  -0.00000000  1
  Ni  Ni7  1  0.00000000  0.50000000  0.50000000  1
  P  P8  1  0.58856285  0.07703136  0.70420117  1
  P  P9  1  0.41143715  0.57703136  0.79579883  1
  P  P10  1  0.41143715  0.92296864  0.29579883  1
  P  P11  1  0.58856285  0.42296864  0.20420117  1
  P  P12  1  0.86904486  0.79332388  0.68715940  1
  P  P13  1  0.13095514  0.29332388  0.81284060  1
  P  P14  1  0.13095514  0.20667612  0.31284060  1
  P  P15  1  0.86904486  0.70667612  0.18715940  1
  O  O16  1  0.80637427  0.61725142  0.59942779  1
  O  O17  1  0.19362573  0.11725142  0.90057221  1
  O  O18  1  0.19362573  0.38274858  0.40057221  1
  O  O19  1  0.80637427  0.88274858  0.09942779  1
  O  O20  1  0.28006056  0.62131321  0.62586682  1
  O  O21  1  0.71993944  0.12131321  0.87413318  1
  O  O22  1  0.71993944  0.37868679  0.37413318  1
  O  O23  1  0.28006056  0.87868679  0.12586682  1
  O  O24  1  0.61460276  0.21297322  0.59322325  1
  O  O25  1  0.38539724  0.71297322  0.90677675  1
  O  O26  1  0.38539724  0.78702678  0.40677675  1
  O  O27  1  0.61460276  0.28702678  0.09322325  1
  O  O28  1  0.66496314  0.88703986  0.67048146  1
  O  O29  1  0.33503686  0.38703986  0.82951854  1
  O  O30  1  0.33503686  0.11296014  0.32951854  1
  O  O31  1  0.66496314  0.61296014  0.17048146  1
  O  O32  1  0.38032284  0.46929311  0.19322596  1
  O  O33  1  0.61967716  0.96929311  0.30677404  1
  O  O34  1  0.61967716  0.53070689  0.80677404  1
  O  O35  1  0.38032284  0.03070689  0.69322596  1
  O  O36  1  0.01616660  0.21516717  0.14001051  1
  O  O37  1  0.98383340  0.71516717  0.35998949  1
  O  O38  1  0.98383340  0.78483283  0.85998949  1
  O  O39  1  0.01616660  0.28483283  0.64001051  1
  O  O40  1  0.96823522  0.58237502  0.10911816  1
  O  O41  1  0.03176478  0.08237502  0.39088184  1
  O  O42  1  0.03176478  0.41762498  0.89088184  1
  O  O43  1  0.96823522  0.91762498  0.60911816  1
