# generated using pymatgen
data_CaCr2(Si2O5)4
_symmetry_space_group_name_H-M   'P 1'
_cell_length_a   7.40597324
_cell_length_b   7.40597324
_cell_length_c   15.46169628
_cell_angle_alpha   90.00000000
_cell_angle_beta   90.00000000
_cell_angle_gamma   90.00000000
_symmetry_Int_Tables_number   1
_chemical_formula_structural   CaCr2(Si2O5)4
_chemical_formula_sum   'Ca2 Cr4 Si16 O40'
_cell_volume   848.04991502
_cell_formula_units_Z   2
loop_
 _symmetry_equiv_pos_site_id
 _symmetry_equiv_pos_as_xyz
  1  'x, y, z'
loop_
 _atom_site_type_symbol
 _atom_site_label
 _atom_site_symmetry_multiplicity
 _atom_site_fract_x
 _atom_site_fract_y
 _atom_site_fract_z
 _atom_site_occupancy
  Ca  Ca0  1  0.75000000  0.25000000  0.00000000  1
  Ca  Ca1  1  0.25000000  0.75000000  0.50000000  1
  Cr  Cr2  1  0.25000000  0.25000000  0.08258035  1
  Cr  Cr3  1  0.75000000  0.75000000  0.41741965  1
  Cr  Cr4  1  0.75000000  0.75000000  0.91741965  1
  Cr  Cr5  1  0.25000000  0.25000000  0.58258035  1
  Si  Si6  1  0.92317081  0.50186034  0.64947937  1
  Si  Si7  1  0.57682919  0.99813966  0.64947937  1
  Si  Si8  1  0.00491003  0.42305104  0.85242311  1
  Si  Si9  1  0.50491003  0.57694896  0.64757689  1
  Si  Si10  1  0.99508997  0.92305104  0.64757689  1
  Si  Si11  1  0.07682919  0.00186034  0.85052063  1
  Si  Si12  1  0.42317081  0.49813966  0.85052063  1
  Si  Si13  1  0.49508997  0.07694896  0.85242311  1
  Si  Si14  1  0.07694896  0.49508997  0.35242311  1
  Si  Si15  1  0.42305104  0.00491003  0.35242311  1
  Si  Si16  1  0.99813966  0.57682919  0.14947937  1
  Si  Si17  1  0.49813966  0.42317081  0.35052063  1
  Si  Si18  1  0.00186034  0.07682919  0.35052063  1
  Si  Si19  1  0.92305104  0.99508997  0.14757689  1
  Si  Si20  1  0.57694896  0.50491003  0.14757689  1
  Si  Si21  1  0.50186034  0.92317081  0.14947937  1
  O  O22  1  0.02160251  0.35525913  0.58899160  1
  O  O23  1  0.47839749  0.14474087  0.58899160  1
  O  O24  1  0.85721513  0.50643587  0.91922218  1
  O  O25  1  0.35721513  0.49356413  0.58077782  1
  O  O26  1  0.14278487  0.00643587  0.58077782  1
  O  O27  1  0.97839749  0.85525913  0.91100840  1
  O  O28  1  0.52160251  0.64474087  0.91100840  1
  O  O29  1  0.64278487  0.99356413  0.91922218  1
  O  O30  1  0.99356413  0.64278487  0.41922218  1
  O  O31  1  0.50643587  0.85721513  0.41922218  1
  O  O32  1  0.14474087  0.47839749  0.08899160  1
  O  O33  1  0.64474087  0.52160251  0.41100840  1
  O  O34  1  0.85525913  0.97839749  0.41100840  1
  O  O35  1  0.00643587  0.14278487  0.08077782  1
  O  O36  1  0.49356413  0.35721513  0.08077782  1
  O  O37  1  0.00603334  0.29187393  0.37073030  1
  O  O38  1  0.35525913  0.02160251  0.08899160  1
  O  O39  1  0.49354615  0.79582193  0.62606722  1
  O  O40  1  0.20812607  0.49396666  0.87073030  1
  O  O41  1  0.70812607  0.50603334  0.62926970  1
  O  O42  1  0.79187393  0.99396666  0.62926970  1
  O  O43  1  0.99354615  0.20417807  0.87393278  1
  O  O44  1  0.50645385  0.29582193  0.87393278  1
  O  O45  1  0.29187393  0.00603334  0.87073030  1
  O  O46  1  0.46093141  0.95283370  0.25210002  1
  O  O47  1  0.53906859  0.45283370  0.24789998  1
  O  O48  1  0.96093141  0.04716630  0.24789998  1
  O  O49  1  0.03906859  0.54716630  0.25210002  1
  O  O50  1  0.54716630  0.03906859  0.75210002  1
  O  O51  1  0.45283370  0.53906859  0.74789998  1
  O  O52  1  0.04716630  0.96093141  0.74789998  1
  O  O53  1  0.95283370  0.46093141  0.75210002  1
  O  O54  1  0.70417807  0.00645385  0.12606722  1
  O  O55  1  0.50603334  0.70812607  0.12926970  1
  O  O56  1  0.99396666  0.79187393  0.12926970  1
  O  O57  1  0.20417807  0.99354615  0.37393278  1
  O  O58  1  0.29582193  0.50645385  0.37393278  1
  O  O59  1  0.79582193  0.49354615  0.12606722  1
  O  O60  1  0.49396666  0.20812607  0.37073030  1
  O  O61  1  0.00645385  0.70417807  0.62606722  1
