# generated using pymatgen
data_CaLaFeBiO6
_symmetry_space_group_name_H-M   'P 1'
_cell_length_a   5.90037158
_cell_length_b   5.69498694
_cell_length_c   8.21908614
_cell_angle_alpha   89.15473734
_cell_angle_beta   90.00000000
_cell_angle_gamma   90.00000000
_symmetry_Int_Tables_number   1
_chemical_formula_structural   CaLaFeBiO6
_chemical_formula_sum   'Ca2 La2 Fe2 Bi2 O12'
_cell_volume   276.15210974
_cell_formula_units_Z   2
loop_
 _symmetry_equiv_pos_site_id
 _symmetry_equiv_pos_as_xyz
  1  'x, y, z'
loop_
 _atom_site_type_symbol
 _atom_site_label
 _atom_site_symmetry_multiplicity
 _atom_site_fract_x
 _atom_site_fract_y
 _atom_site_fract_z
 _atom_site_occupancy
  Ca  Ca0  1  0.55565047  0.52075510  0.25164731  1
  Ca  Ca1  1  0.94434953  0.02075510  0.75164731  1
  La  La2  1  0.05419893  0.98234941  0.24858928  1
  La  La3  1  0.44580107  0.48234941  0.74858928  1
  Fe  Fe4  1  0.50181209  0.99857931  0.00049907  1
  Fe  Fe5  1  0.99818791  0.49857931  0.50049907  1
  Bi  Bi6  1  0.50340342  0.00004982  0.49875513  1
  Bi  Bi7  1  0.99659658  0.50004982  0.99875513  1
  O  O8  1  0.04330328  0.61719855  0.73596922  1
  O  O9  1  0.21460433  0.18558259  0.93809919  1
  O  O10  1  0.19163000  0.21448109  0.55989146  1
  O  O11  1  0.30837000  0.71448109  0.05989146  1
  O  O12  1  0.28539567  0.68558259  0.43809919  1
  O  O13  1  0.45669672  0.11719855  0.23596822  1
  O  O14  1  0.54819719  0.88716535  0.76378080  1
  O  O15  1  0.71717285  0.31171892  0.56371990  1
  O  O16  1  0.69309271  0.28211786  0.93904965  1
  O  O17  1  0.80690729  0.78211786  0.43904965  1
  O  O18  1  0.78282715  0.81171892  0.06371990  1
  O  O19  1  0.95180281  0.38716535  0.26378080  1
