# generated using pymatgen
data_Ti3Zn2O8
_symmetry_space_group_name_H-M   'P 1'
_cell_length_a   5.96688013
_cell_length_b   5.96688012
_cell_length_c   9.55316483
_cell_angle_alpha   90.00000000
_cell_angle_beta   90.00000000
_cell_angle_gamma   119.99999998
_symmetry_Int_Tables_number   1
_chemical_formula_structural   Ti3Zn2O8
_chemical_formula_sum   'Ti6 Zn4 O16'
_cell_volume   294.55915755
_cell_formula_units_Z   2
loop_
 _symmetry_equiv_pos_site_id
 _symmetry_equiv_pos_as_xyz
  1  'x, y, z'
loop_
 _atom_site_type_symbol
 _atom_site_label
 _atom_site_symmetry_multiplicity
 _atom_site_fract_x
 _atom_site_fract_y
 _atom_site_fract_z
 _atom_site_occupancy
  Ti  Ti0  1  0.67462122  0.83731161  0.24345519  1
  Ti  Ti1  1  0.83731261  0.16268939  0.74345519  1
  Ti  Ti2  1  0.16268939  0.32537978  0.24345519  1
  Ti  Ti3  1  0.83731061  0.67462122  0.74345519  1
  Ti  Ti4  1  0.32537978  0.16268939  0.74345519  1
  Ti  Ti5  1  0.16268939  0.83731161  0.24345519  1
  Zn  Zn6  1  0.66666700  0.33333400  0.02875350  1
  Zn  Zn7  1  0.33333300  0.66666600  0.52875450  1
  Zn  Zn8  1  0.66666700  0.33333400  0.41770892  1
  Zn  Zn9  1  0.33333300  0.66666600  0.91770992  1
  O  O10  1  0.83705060  0.16295040  0.14572990  1
  O  O11  1  0.67410120  0.83705060  0.64572890  1
  O  O12  1  0.16295040  0.32589980  0.64572890  1
  O  O13  1  0.83704960  0.67410120  0.14572990  1
  O  O14  1  0.32589880  0.16295040  0.14572990  1
  O  O15  1  0.16295040  0.83705060  0.64572890  1
  O  O16  1  0.51806839  0.48193061  0.86559136  1
  O  O17  1  0.03613778  0.51806839  0.36559036  1
  O  O18  1  0.48193161  0.96386322  0.36559036  1
  O  O19  1  0.51806839  0.03613778  0.86559136  1
  O  O20  1  0.00000000  0.00000000  0.34984480  1
  O  O21  1  0.00000000  -0.00000000  0.84984480  1
  O  O22  1  0.33333300  0.66666600  0.13286244  1
  O  O23  1  0.96386122  0.48193061  0.86559136  1
  O  O24  1  0.48193061  0.51806839  0.36559036  1
  O  O25  1  0.66666700  0.33333400  0.63286244  1
