# generated using pymatgen
data_P2W2O9
_symmetry_space_group_name_H-M   'P 1'
_cell_length_a   6.58940308
_cell_length_b   7.93062045
_cell_length_c   14.62967008
_cell_angle_alpha   90.00797167
_cell_angle_beta   89.99978312
_cell_angle_gamma   90.00011439
_symmetry_Int_Tables_number   1
_chemical_formula_structural   P2W2O9
_chemical_formula_sum   'P8 W8 O36'
_cell_volume   764.51809385
_cell_formula_units_Z   4
loop_
 _symmetry_equiv_pos_site_id
 _symmetry_equiv_pos_as_xyz
  1  'x, y, z'
loop_
 _atom_site_type_symbol
 _atom_site_label
 _atom_site_symmetry_multiplicity
 _atom_site_fract_x
 _atom_site_fract_y
 _atom_site_fract_z
 _atom_site_occupancy
  P  P0  1  0.25000093  0.35758271  0.93768933  1
  P  P1  1  0.75000019  0.64242842  0.06233242  1
  P  P2  1  0.74999797  0.85760519  0.56230850  1
  P  P3  1  0.25000136  0.14238586  0.43767438  1
  P  P4  1  0.75000098  0.40087444  0.68885145  1
  P  P5  1  0.75000231  0.09918885  0.18884919  1
  P  P6  1  0.24999687  0.90080516  0.81116133  1
  P  P7  1  0.25000216  0.59913384  0.31113476  1
  W  W8  1  0.75000401  0.35838747  0.87201322  1
  W  W9  1  0.24999817  0.64162733  0.12799009  1
  W  W10  1  0.24999603  0.85843086  0.62798429  1
  W  W11  1  0.75000207  0.14155830  0.37201123  1
  W  W12  1  0.50000000  0.00000378  0.00000326  1
  W  W13  1  0.49999929  0.49999581  0.49999267  1
  W  W14  1  0.00000073  0.49999669  0.49999248  1
  W  W15  1  -0.00000067  0.00000258  0.00000361  1
  O  O16  1  0.05901892  0.59655284  0.37360768  1
  O  O17  1  0.55902399  0.40345413  0.62638608  1
  O  O18  1  0.94098081  0.09665007  0.12638310  1
  O  O19  1  0.44097093  0.90334858  0.87362155  1
  O  O20  1  0.94097619  0.40344869  0.62638360  1
  O  O21  1  0.44098535  0.59654750  0.37360752  1
  O  O22  1  0.05902362  0.90334837  0.87362195  1
  O  O23  1  0.55902104  0.09664998  0.12638332  1
  O  O24  1  0.24999875  0.32655719  0.48302814  1
  O  O25  1  0.75000142  0.67343398  0.51696130  1
  O  O26  1  0.74999915  0.82656314  0.01696384  1
  O  O27  1  0.25000109  0.17344317  0.98304689  1
  O  O28  1  0.75000020  0.13151017  0.95291507  1
  O  O29  1  0.25000003  0.86850373  0.04708957  1
  O  O30  1  0.24999925  0.63154107  0.54706512  1
  O  O31  1  0.75000034  0.36845683  0.45292586  1
  O  O32  1  0.74999917  0.23605971  0.74962682  1
  O  O33  1  0.25000520  0.76395506  0.25037390  1
  O  O34  1  0.24999421  0.73603319  0.75032792  1
  O  O35  1  0.75000412  0.26396069  0.24967498  1
  O  O36  1  0.44054493  0.13248677  0.37884640  1
  O  O37  1  0.94054484  0.86750419  0.62115095  1
  O  O38  1  0.55945774  0.63257991  0.12116205  1
  O  O39  1  0.05945291  0.36743084  0.87885028  1
  O  O40  1  0.55944744  0.86750026  0.62114606  1
  O  O41  1  0.05946003  0.13248548  0.37884293  1
  O  O42  1  0.44055233  0.36742895  0.87885124  1
  O  O43  1  0.94054112  0.63258181  0.12116201  1
  O  O44  1  0.75000167  0.50946709  0.98761008  1
  O  O45  1  0.24999793  0.03960787  0.73691908  1
  O  O46  1  0.24999946  0.46039318  0.23686002  1
  O  O47  1  0.75000502  0.53962023  0.76313295  1
  O  O48  1  0.75000116  0.99047203  0.48758549  1
  O  O49  1  0.24999807  0.00950362  0.51241086  1
  O  O50  1  0.25000170  0.49052171  0.01239946  1
  O  O51  1  0.75000146  0.96038465  0.26308074  1
