# generated using pymatgen
data_NaLiMg30O31
_symmetry_space_group_name_H-M   'P 1'
_cell_length_a   8.52506860
_cell_length_b   8.55543858
_cell_length_c   8.55543858
_cell_angle_alpha   90.00000000
_cell_angle_beta   90.00000000
_cell_angle_gamma   90.00000000
_symmetry_Int_Tables_number   1
_chemical_formula_structural   NaLiMg30O31
_chemical_formula_sum   'Na1 Li1 Mg30 O31'
_cell_volume   623.99690846
_cell_formula_units_Z   1
loop_
 _symmetry_equiv_pos_site_id
 _symmetry_equiv_pos_as_xyz
  1  'x, y, z'
loop_
 _atom_site_type_symbol
 _atom_site_label
 _atom_site_symmetry_multiplicity
 _atom_site_fract_x
 _atom_site_fract_y
 _atom_site_fract_z
 _atom_site_occupancy
  Na  Na0  1  0.99890945  0.50000000  0.50000000  1
  Li  Li1  1  0.97732655  0.00000000  -0.00000000  1
  Mg  Mg2  1  0.99640476  0.00000000  0.50000000  1
  Mg  Mg3  1  0.99640476  0.50000000  -0.00000000  1
  Mg  Mg4  1  0.52084849  0.00000000  -0.00000000  1
  Mg  Mg5  1  0.50278061  0.00000000  0.50000000  1
  Mg  Mg6  1  0.50278061  0.50000000  -0.00000000  1
  Mg  Mg7  1  0.50078039  0.50000000  0.50000000  1
  Mg  Mg8  1  0.00030216  0.24816052  0.24816052  1
  Mg  Mg9  1  0.00030216  0.24816052  0.75183948  1
  Mg  Mg10  1  0.00030216  0.75183948  0.24816052  1
  Mg  Mg11  1  0.00030216  0.75183948  0.75183948  1
  Mg  Mg12  1  0.49998705  0.24976844  0.24976844  1
  Mg  Mg13  1  0.49998705  0.24976844  0.75023156  1
  Mg  Mg14  1  0.49998705  0.75023156  0.24976844  1
  Mg  Mg15  1  0.49998705  0.75023156  0.75023156  1
  Mg  Mg16  1  0.24583217  0.00000000  0.27034189  1
  Mg  Mg17  1  0.24583217  0.00000000  0.72965811  1
  Mg  Mg18  1  0.24734281  0.50000000  0.25379560  1
  Mg  Mg19  1  0.24734281  0.50000000  0.74620440  1
  Mg  Mg20  1  0.75693761  0.00000000  0.24859904  1
  Mg  Mg21  1  0.75693761  0.00000000  0.75140096  1
  Mg  Mg22  1  0.75263600  0.50000000  0.25218172  1
  Mg  Mg23  1  0.75263600  0.50000000  0.74781828  1
  Mg  Mg24  1  0.24583217  0.27034189  -0.00000000  1
  Mg  Mg25  1  0.24734281  0.25379560  0.50000000  1
  Mg  Mg26  1  0.24583217  0.72965811  -0.00000000  1
  Mg  Mg27  1  0.24734281  0.74620440  0.50000000  1
  Mg  Mg28  1  0.75693761  0.24859904  -0.00000000  1
  Mg  Mg29  1  0.75263600  0.25218172  0.50000000  1
  Mg  Mg30  1  0.75693761  0.75140096  -0.00000000  1
  Mg  Mg31  1  0.75263600  0.74781828  0.50000000  1
  O  O32  1  0.25475563  0.00000000  0.50000000  1
  O  O33  1  0.25475563  0.50000000  -0.00000000  1
  O  O34  1  0.26303255  0.50000000  0.50000000  1
  O  O35  1  0.74994132  0.00000000  -0.00000000  1
  O  O36  1  0.74622948  0.00000000  0.50000000  1
  O  O37  1  0.74622948  0.50000000  -0.00000000  1
  O  O38  1  0.73647258  0.50000000  0.50000000  1
  O  O39  1  0.25050470  0.24454368  0.24454368  1
  O  O40  1  0.25050470  0.24454368  0.75545632  1
  O  O41  1  0.25050470  0.75545632  0.24454368  1
  O  O42  1  0.25050470  0.75545632  0.75545632  1
  O  O43  1  0.74929519  0.24847075  0.24847075  1
  O  O44  1  0.74929519  0.24847075  0.75152925  1
  O  O45  1  0.74929519  0.75152925  0.24847075  1
  O  O46  1  0.74929519  0.75152925  0.75152925  1
  O  O47  1  0.00539130  0.00000000  0.24968318  1
  O  O48  1  0.00539130  0.00000000  0.75031682  1
  O  O49  1  0.00166051  0.50000000  0.23673928  1
  O  O50  1  0.00166051  0.50000000  0.76326072  1
  O  O51  1  0.49240650  0.00000000  0.24270998  1
  O  O52  1  0.49240650  0.00000000  0.75729002  1
  O  O53  1  0.49829092  0.50000000  0.24643152  1
  O  O54  1  0.49829092  0.50000000  0.75356848  1
  O  O55  1  0.00539130  0.24968318  -0.00000000  1
  O  O56  1  0.00166051  0.23673928  0.50000000  1
  O  O57  1  0.00539130  0.75031682  -0.00000000  1
  O  O58  1  0.00166051  0.76326072  0.50000000  1
  O  O59  1  0.49240650  0.24270998  -0.00000000  1
  O  O60  1  0.49829092  0.24643152  0.50000000  1
  O  O61  1  0.49240650  0.75729002  -0.00000000  1
  O  O62  1  0.49829092  0.75356848  0.50000000  1
