# generated using pymatgen
data_Ti(SiO3)2
_symmetry_space_group_name_H-M   'P 1'
_cell_length_a   5.09226134
_cell_length_b   10.89166324
_cell_length_c   18.67681007
_cell_angle_alpha   90.00033936
_cell_angle_beta   90.00310604
_cell_angle_gamma   90.01137951
_symmetry_Int_Tables_number   1
_chemical_formula_structural   Ti(SiO3)2
_chemical_formula_sum   'Ti8 Si16 O48'
_cell_volume   1035.87554978
_cell_formula_units_Z   8
loop_
 _symmetry_equiv_pos_site_id
 _symmetry_equiv_pos_as_xyz
  1  'x, y, z'
loop_
 _atom_site_type_symbol
 _atom_site_label
 _atom_site_symmetry_multiplicity
 _atom_site_fract_x
 _atom_site_fract_y
 _atom_site_fract_z
 _atom_site_occupancy
  Ti  Ti0  1  0.44057694  0.04311015  0.12638325  1
  Ti  Ti1  1  0.55945332  0.95689413  0.87364789  1
  Ti  Ti2  1  0.94039438  0.95688332  0.37359463  1
  Ti  Ti3  1  0.05957493  0.04311656  0.62638336  1
  Ti  Ti4  1  0.44056459  0.54312138  0.37359534  1
  Ti  Ti5  1  0.55942204  0.45686037  0.62637018  1
  Ti  Ti6  1  0.94046267  0.45690601  0.12638736  1
  Ti  Ti7  1  0.05958125  0.54310580  0.87364140  1
  Si  Si8  1  0.62454316  0.66993248  0.22344719  1
  Si  Si9  1  0.76387929  0.82806574  0.52623454  1
  Si  Si10  1  0.73643639  0.82818194  0.02631291  1
  Si  Si11  1  0.87537374  0.16997164  0.77652027  1
  Si  Si12  1  0.12456801  0.33004403  0.27651540  1
  Si  Si13  1  0.37542915  0.83005664  0.72350050  1
  Si  Si14  1  0.26381344  0.67183959  0.52624075  1
  Si  Si15  1  0.76373584  0.32808138  0.97375210  1
  Si  Si16  1  0.73618698  0.32814267  0.47371274  1
  Si  Si17  1  0.87538538  0.66996063  0.72349688  1
  Si  Si18  1  0.37541650  0.33005742  0.77652452  1
  Si  Si19  1  0.62451577  0.16994576  0.27651795  1
  Si  Si20  1  0.23612748  0.17191693  0.47372288  1
  Si  Si21  1  0.12457901  0.83004876  0.22345111  1
  Si  Si22  1  0.23636326  0.67191880  0.02630728  1
  Si  Si23  1  0.26367708  0.17183207  0.97374408  1
  O  O24  1  0.79739593  0.54895910  0.67610645  1
  O  O25  1  0.33686776  0.05234905  0.92491428  1
  O  O26  1  0.20244783  0.45105808  0.32390555  1
  O  O27  1  0.77964305  0.36137783  0.05912575  1
  O  O28  1  0.27962289  0.13856160  0.05911806  1
  O  O29  1  0.96581986  0.21580166  0.95502800  1
  O  O30  1  0.87293012  0.63431548  0.80883628  1
  O  O31  1  0.12705660  0.86570736  0.30878632  1
  O  O32  1  0.77968139  0.86129447  0.44084956  1
  O  O33  1  0.87291507  0.13432352  0.69118191  1
  O  O34  1  0.29761753  0.45109522  0.82390653  1
  O  O35  1  0.72026434  0.36137415  0.55910076  1
  O  O36  1  0.66323748  0.94765847  0.07514603  1
  O  O37  1  0.37287145  0.86561434  0.80884610  1
  O  O38  1  0.70223494  0.04890156  0.32389846  1
  O  O39  1  0.33700773  0.55233669  0.57505782  1
  O  O40  1  0.29760591  0.95108581  0.67612433  1
  O  O41  1  0.17040054  0.71892981  0.70465997  1
  O  O42  1  0.32958545  0.71896166  0.20464185  1
  O  O43  1  0.53420978  0.71591040  0.04503752  1
  O  O44  1  0.72047030  0.86148602  0.94093329  1
  O  O45  1  0.62716884  0.63434168  0.30878711  1
  O  O46  1  0.83713567  0.44756746  0.92491475  1
  O  O47  1  0.17039145  0.21894943  0.79537039  1
  O  O48  1  0.22030196  0.13868277  0.55911058  1
  O  O49  1  0.62716768  0.13436436  0.19118081  1
  O  O50  1  0.66302964  0.44764386  0.42489045  1
  O  O51  1  0.27972405  0.63862072  0.44085659  1
  O  O52  1  0.16301637  0.55243746  0.07513679  1
  O  O53  1  0.67045899  0.78109257  0.70469374  1
  O  O54  1  0.20241545  0.95107259  0.17607639  1
  O  O55  1  0.82963406  0.78101730  0.20460337  1
  O  O56  1  0.82956635  0.28104894  0.29534980  1
  O  O57  1  0.83727840  0.94755590  0.57505469  1
  O  O58  1  0.22041508  0.63861399  0.94092050  1
  O  O59  1  0.16275638  0.05241679  0.42490515  1
  O  O60  1  0.32953446  0.21891978  0.29531895  1
  O  O61  1  0.03425730  0.78418526  0.04503054  1
  O  O62  1  0.46600941  0.78410338  0.54499514  1
  O  O63  1  0.67042799  0.28110733  0.79532506  1
  O  O64  1  0.46587401  0.28411349  0.95501176  1
  O  O65  1  0.53397741  0.21588769  0.45495885  1
  O  O66  1  0.03402408  0.28417524  0.45498311  1
  O  O67  1  0.37278812  0.36562942  0.69117534  1
  O  O68  1  0.70224167  0.54888791  0.17607477  1
  O  O69  1  0.96596625  0.71579198  0.54496875  1
  O  O70  1  0.12710520  0.36570050  0.19118564  1
  O  O71  1  0.79738818  0.04897371  0.82390867  1
