# generated using pymatgen
data_TiCr(PO4)3
_symmetry_space_group_name_H-M   'P 1'
_cell_length_a   8.77392949
_cell_length_b   8.77392903
_cell_length_c   8.77392932
_cell_angle_alpha   58.84073501
_cell_angle_beta   58.84073853
_cell_angle_gamma   58.84074137
_symmetry_Int_Tables_number   1
_chemical_formula_structural   TiCr(PO4)3
_chemical_formula_sum   'Ti2 Cr2 P6 O24'
_cell_volume   464.96229256
_cell_formula_units_Z   2
loop_
 _symmetry_equiv_pos_site_id
 _symmetry_equiv_pos_as_xyz
  1  'x, y, z'
loop_
 _atom_site_type_symbol
 _atom_site_label
 _atom_site_symmetry_multiplicity
 _atom_site_fract_x
 _atom_site_fract_y
 _atom_site_fract_z
 _atom_site_occupancy
  Ti  Ti0  1  0.13936295  0.13936295  0.13936295  1
  Ti  Ti1  1  0.63936295  0.63936295  0.63936295  1
  Cr  Cr2  1  0.35763019  0.35763019  0.35763019  1
  Cr  Cr3  1  0.85763019  0.85763019  0.85763019  1
  P  P4  1  0.03567096  0.47105386  0.74258672  1
  P  P5  1  0.47105386  0.74258672  0.03567096  1
  P  P6  1  0.74258672  0.03567096  0.47105386  1
  P  P7  1  0.24258672  0.97105386  0.53567096  1
  P  P8  1  0.53567096  0.24258672  0.97105386  1
  P  P9  1  0.97105386  0.53567096  0.24258672  1
  O  O10  1  0.14049240  0.50795398  0.27690059  1
  O  O11  1  0.27690059  0.14049240  0.50795398  1
  O  O12  1  0.06484420  0.28902700  0.91499118  1
  O  O13  1  0.50795398  0.27690059  0.14049240  1
  O  O14  1  0.00795398  0.64049240  0.77690059  1
  O  O15  1  0.21923145  0.44483392  0.57124193  1
  O  O16  1  0.28902700  0.91499118  0.06484420  1
  O  O17  1  0.44483392  0.57124193  0.21923145  1
  O  O18  1  0.20756188  0.00229468  0.36606412  1
  O  O19  1  0.57124193  0.21923145  0.44483392  1
  O  O20  1  0.07124193  0.94483392  0.71923145  1
  O  O21  1  0.36606412  0.20756188  0.00229468  1
  O  O22  1  0.64049240  0.77690059  0.00795398  1
  O  O23  1  0.91499118  0.06484420  0.28902700  1
  O  O24  1  0.41499118  0.78902700  0.56484420  1
  O  O25  1  0.77690059  0.00795398  0.64049240  1
  O  O26  1  0.56484420  0.41499118  0.78902700  1
  O  O27  1  0.71923145  0.07124193  0.94483392  1
  O  O28  1  0.78902700  0.56484420  0.41499118  1
  O  O29  1  0.00229468  0.36606412  0.20756188  1
  O  O30  1  0.50229468  0.70756188  0.86606412  1
  O  O31  1  0.94483392  0.71923145  0.07124193  1
  O  O32  1  0.70756188  0.86606412  0.50229468  1
  O  O33  1  0.86606412  0.50229468  0.70756188  1
