# generated using pymatgen
data_Ca(NiO2)2
_symmetry_space_group_name_H-M   'P 1'
_cell_length_a   3.07008626
_cell_length_b   5.13541144
_cell_length_c   9.61980003
_cell_angle_alpha   90.00000000
_cell_angle_beta   90.00000000
_cell_angle_gamma   107.39234441
_symmetry_Int_Tables_number   1
_chemical_formula_structural   Ca(NiO2)2
_chemical_formula_sum   'Ca2 Ni4 O8'
_cell_volume   144.73308337
_cell_formula_units_Z   2
loop_
 _symmetry_equiv_pos_site_id
 _symmetry_equiv_pos_as_xyz
  1  'x, y, z'
loop_
 _atom_site_type_symbol
 _atom_site_label
 _atom_site_symmetry_multiplicity
 _atom_site_fract_x
 _atom_site_fract_y
 _atom_site_fract_z
 _atom_site_occupancy
  Ca  Ca0  1  0.39391126  0.78782253  0.75000000  1
  Ca  Ca1  1  0.60608874  0.21217747  0.25000000  1
  Ni  Ni2  1  0.86174541  0.72349182  0.06817174  1
  Ni  Ni3  1  0.13825459  0.27650818  0.93182826  1
  Ni  Ni4  1  0.86174541  0.72349182  0.43182826  1
  Ni  Ni5  1  0.13825459  0.27650818  0.56817174  1
  O  O6  1  0.23114133  0.46228466  0.39380456  1
  O  O7  1  0.76885867  0.53771534  0.60619544  1
  O  O8  1  0.76885867  0.53771534  0.89380456  1
  O  O9  1  0.23114133  0.46228466  0.10619544  1
  O  O10  1  0.93794407  0.87588915  0.25000000  1
  O  O11  1  0.06205593  0.12411085  0.75000000  1
  O  O12  1  0.50000000  0.00000000  -0.00000000  1
  O  O13  1  0.50000000  -0.00000000  0.50000000  1
