# generated using pymatgen
data_CaSnF4
_symmetry_space_group_name_H-M   'P 1'
_cell_length_a   4.00259797
_cell_length_b   5.66369884
_cell_length_c   7.03371194
_cell_angle_alpha   113.78758236
_cell_angle_beta   124.73232319
_cell_angle_gamma   45.02371706
_symmetry_Int_Tables_number   1
_chemical_formula_structural   CaSnF4
_chemical_formula_sum   'Ca1 Sn1 F4'
_cell_volume   92.69777196
_cell_formula_units_Z   1
loop_
 _symmetry_equiv_pos_site_id
 _symmetry_equiv_pos_as_xyz
  1  'x, y, z'
loop_
 _atom_site_type_symbol
 _atom_site_label
 _atom_site_symmetry_multiplicity
 _atom_site_fract_x
 _atom_site_fract_y
 _atom_site_fract_z
 _atom_site_occupancy
  Ca  Ca0  1  0.50846516  0.99357980  0.49984603  1
  Sn  Sn1  1  0.00876935  0.49288004  0.99979180  1
  F  F2  1  0.77682031  0.49403513  0.26573772  1
  F  F3  1  0.24284813  0.49292915  0.73294075  1
  F  F4  1  0.24384331  0.99142441  0.73349796  1
  F  F5  1  0.77518675  0.99380747  0.26579274  1
