# generated using pymatgen
data_Mg2Mo3O8
_symmetry_space_group_name_H-M   'P 1'
_cell_length_a   5.25953209
_cell_length_b   6.08183094
_cell_length_c   6.17370692
_cell_angle_alpha   119.50892382
_cell_angle_beta   107.84152812
_cell_angle_gamma   89.99999688
_symmetry_Int_Tables_number   1
_chemical_formula_structural   Mg2Mo3O8
_chemical_formula_sum   'Mg2 Mo3 O8'
_cell_volume   160.86159309
_cell_formula_units_Z   1
loop_
 _symmetry_equiv_pos_site_id
 _symmetry_equiv_pos_as_xyz
  1  'x, y, z'
loop_
 _atom_site_type_symbol
 _atom_site_label
 _atom_site_symmetry_multiplicity
 _atom_site_fract_x
 _atom_site_fract_y
 _atom_site_fract_z
 _atom_site_occupancy
  Mg  Mg0  1  0.64935161  0.72068403  0.44136706  1
  Mg  Mg1  1  0.35064739  0.27931697  0.55863294  1
  Mo  Mo2  1  0.50000000  0.99999900  0.00000000  1
  Mo  Mo3  1  0.99999900  0.73308777  0.00000000  1
  Mo  Mo4  1  0.99999900  0.26691223  1.00000000  1
  O  O5  1  0.07402966  0.38277727  0.76555554  1
  O  O6  1  0.92597034  0.61722173  0.23444446  1
  O  O7  1  0.07085844  0.89063747  0.78127494  1
  O  O8  1  0.92914156  0.10936153  0.21872406  1
  O  O9  1  0.41250161  0.35053298  0.23671111  1
  O  O10  1  0.41250161  0.88617813  0.23671111  1
  O  O11  1  0.58749939  0.11382087  0.76328889  1
  O  O12  1  0.58749939  0.64946702  0.76328889  1
