# generated using pymatgen
data_CaMn5O7
_symmetry_space_group_name_H-M   'P 1'
_cell_length_a   3.16126955
_cell_length_b   5.44574831
_cell_length_c   18.34429314
_cell_angle_alpha   90.00000000
_cell_angle_beta   90.00000000
_cell_angle_gamma   106.87299327
_symmetry_Int_Tables_number   1
_chemical_formula_structural   CaMn5O7
_chemical_formula_sum   'Ca2 Mn10 O14'
_cell_volume   302.21050039
_cell_formula_units_Z   2
loop_
 _symmetry_equiv_pos_site_id
 _symmetry_equiv_pos_as_xyz
  1  'x, y, z'
loop_
 _atom_site_type_symbol
 _atom_site_label
 _atom_site_symmetry_multiplicity
 _atom_site_fract_x
 _atom_site_fract_y
 _atom_site_fract_z
 _atom_site_occupancy
  Ca  Ca0  1  0.79812024  0.59623848  0.75000000  1
  Ca  Ca1  1  0.20188076  0.40376052  0.25000000  1
  Mn  Mn2  1  0.27609676  0.55219152  0.57414247  1
  Mn  Mn3  1  0.45845154  0.91690307  0.15340488  1
  Mn  Mn4  1  -0.00000000  -0.00000000  0.50000000  1
  Mn  Mn5  1  -0.00000000  -0.00000000  0.00000000  1
  Mn  Mn6  1  0.54154846  0.08309593  0.84659612  1
  Mn  Mn7  1  0.72390324  0.44780748  0.42585753  1
  Mn  Mn8  1  0.72390324  0.44780748  0.07414247  1
  Mn  Mn9  1  0.27609676  0.55219152  0.92585753  1
  Mn  Mn10  1  0.54154846  0.08309593  0.65340388  1
  Mn  Mn11  1  0.45845154  0.91690307  0.34659612  1
  O  O12  1  0.64479492  0.28958985  0.97096856  1
  O  O13  1  0.35520608  0.71041115  0.02903144  1
  O  O14  1  0.35520608  0.71041115  0.47096856  1
  O  O15  1  0.64479492  0.28958985  0.52903144  1
  O  O16  1  0.18180710  0.36361620  0.83441477  1
  O  O17  1  0.81819290  0.63638380  0.16558523  1
  O  O18  1  0.81819290  0.63638380  0.33441577  1
  O  O19  1  0.18180710  0.36361620  0.66558523  1
  O  O20  1  0.91024265  0.82048429  0.89593639  1
  O  O21  1  0.08975735  0.17951571  0.10406361  1
  O  O22  1  0.08975735  0.17951571  0.39593639  1
  O  O23  1  0.91024265  0.82048429  0.60406361  1
  O  O24  1  0.45244775  0.90489551  0.75000000  1
  O  O25  1  0.54755325  0.09510649  0.25000000  1
