# generated using pymatgen
data_Ba2MgCuAg2F14
_symmetry_space_group_name_H-M   'P 1'
_cell_length_a   5.37239056
_cell_length_b   7.66384406
_cell_length_c   15.28227479
_cell_angle_alpha   91.25819456
_cell_angle_beta   90.37791949
_cell_angle_gamma   110.59373456
_symmetry_Int_Tables_number   1
_chemical_formula_structural   Ba2MgCuAg2F14
_chemical_formula_sum   'Ba4 Mg2 Cu2 Ag4 F28'
_cell_volume   588.80026485
_cell_formula_units_Z   2
loop_
 _symmetry_equiv_pos_site_id
 _symmetry_equiv_pos_as_xyz
  1  'x, y, z'
loop_
 _atom_site_type_symbol
 _atom_site_label
 _atom_site_symmetry_multiplicity
 _atom_site_fract_x
 _atom_site_fract_y
 _atom_site_fract_z
 _atom_site_occupancy
  Ba  Ba0  1  0.09551962  0.36986278  0.62570704  1
  Ba  Ba1  1  0.27272703  0.37037636  0.12536737  1
  Ba  Ba2  1  0.90060954  0.63023794  0.37494495  1
  Ba  Ba3  1  0.72816234  0.63121665  0.87526593  1
  Mg  Mg4  1  0.42691651  0.99784681  0.75180999  1
  Mg  Mg5  1  0.57479044  0.00802300  0.24784515  1
  Cu  Cu6  1  0.50196725  0.00179995  0.00056433  1
  Cu  Cu7  1  0.49731483  0.00126589  0.50102361  1
  Ag  Ag8  1  0.08897943  0.23426544  0.87224545  1
  Ag  Ag9  1  0.91320012  0.76680444  0.12847958  1
  Ag  Ag10  1  0.14074856  0.23313522  0.37223468  1
  Ag  Ag11  1  0.85400511  0.76632218  0.62866061  1
  F  F12  1  0.85048144  0.97199414  0.33341191  1
  F  F13  1  0.86288126  0.28330935  0.45881908  1
  F  F14  1  0.12992156  0.71484757  0.54168779  1
  F  F15  1  0.62323786  0.48929567  0.59712160  1
  F  F16  1  0.61815717  0.08560100  0.61427636  1
  F  F17  1  0.53266545  0.91605118  0.88643565  1
  F  F18  1  0.41875124  0.28371467  0.95923510  1
  F  F19  1  0.88880181  0.02825774  0.16615167  1
  F  F20  1  0.37221409  0.34553873  0.77156646  1
  F  F21  1  0.37047415  0.51083393  0.40334524  1
  F  F22  1  0.77563825  0.20828295  0.77699288  1
  F  F23  1  0.13824347  0.51151077  0.90383357  1
  F  F24  1  0.42841939  0.21072715  0.27730858  1
  F  F25  1  0.22745272  0.79462296  0.22397632  1
  F  F26  1  0.47138610  0.08763999  0.11501152  1
  F  F27  1  0.62912227  0.65133726  0.22845458  1
  F  F28  1  0.14306324  0.84986595  0.00962895  1
  F  F29  1  0.14361615  0.02726119  0.66713223  1
  F  F30  1  0.86060982  0.15376601  0.99157687  1
  F  F31  1  0.70189772  0.84872539  0.50933487  1
  F  F32  1  0.58353624  0.71749284  0.04143931  1
  F  F33  1  0.56943325  0.79198074  0.72419177  1
  F  F34  1  0.96473103  0.34186912  0.26999169  1
  F  F35  1  0.29154389  0.15321731  0.49253893  1
  F  F36  1  0.37611710  0.91690751  0.38804224  1
  F  F37  1  0.11306243  0.97238315  0.83439595  1
  F  F38  1  0.02925394  0.65516620  0.73010727  1
  F  F39  1  0.86612517  0.49070487  0.09570391  1
