# generated using pymatgen
data_Sr2YAlCo2O7
_symmetry_space_group_name_H-M   'P 1'
_cell_length_a   11.76011424
_cell_length_b   11.76011424
_cell_length_c   11.76011424
_cell_angle_alpha   39.61418124
_cell_angle_beta   151.81808987
_cell_angle_gamma   152.73570107
_symmetry_Int_Tables_number   1
_chemical_formula_structural   Sr2YAlCo2O7
_chemical_formula_sum   'Sr4 Y2 Al2 Co4 O14'
_cell_volume   351.21845749
_cell_formula_units_Z   2
loop_
 _symmetry_equiv_pos_site_id
 _symmetry_equiv_pos_as_xyz
  1  'x, y, z'
loop_
 _atom_site_type_symbol
 _atom_site_label
 _atom_site_symmetry_multiplicity
 _atom_site_fract_x
 _atom_site_fract_y
 _atom_site_fract_z
 _atom_site_occupancy
  Sr  Sr0  1  0.03582942  0.85573572  0.87333922  1
  Sr  Sr1  1  0.98239750  0.16249120  0.12666078  1
  Sr  Sr2  1  0.03582942  0.66249120  0.68009370  1
  Sr  Sr3  1  0.98239750  0.35573572  0.31990630  1
  Y  Y4  1  0.01747526  0.51747526  0.50000000  1
  Y  Y5  1  0.01747526  0.01747526  0.00000000  1
  Al  Al6  1  0.56588170  0.73812849  0.32775322  1
  Al  Al7  1  0.41037527  0.23812849  0.67224678  1
  Co  Co8  1  0.51409693  0.43673763  0.91344983  1
  Co  Co9  1  0.52328780  0.60064710  0.08655017  1
  Co  Co10  1  0.51409693  0.10064710  0.57736030  1
  Co  Co11  1  0.52328780  0.93673763  0.42263970  1
  O  O12  1  0.01109339  0.92171163  0.58938177  1
  O  O13  1  0.33233086  0.42171163  0.41061823  1
  O  O14  1  0.46875736  0.18240763  0.15705064  1
  O  O15  1  0.02535799  0.31170772  0.84294936  1
  O  O16  1  0.46875736  0.81170772  0.78634973  1
  O  O17  1  0.02535799  0.68240763  0.21365027  1
  O  O18  1  0.58339516  0.73348589  0.71216009  1
  O  O19  1  0.02132680  0.87123507  0.28783991  1
  O  O20  1  0.58339516  0.37123507  0.34990927  1
  O  O21  1  0.02132680  0.23348589  0.65009073  1
  O  O22  1  0.48605471  0.86403976  0.26185981  1
  O  O23  1  0.60218095  0.22419390  0.73814019  1
  O  O24  1  0.48605471  0.72419390  0.12201495  1
  O  O25  1  0.60218095  0.36403976  0.87798505  1
