# generated using pymatgen
data_Ba2AlSn2F11
_symmetry_space_group_name_H-M   'P 1'
_cell_length_a   7.82754989
_cell_length_b   7.82754958
_cell_length_c   15.50017729
_cell_angle_alpha   90.00000000
_cell_angle_beta   90.00000000
_cell_angle_gamma   120.00000000
_symmetry_Int_Tables_number   1
_chemical_formula_structural   Ba2AlSn2F11
_chemical_formula_sum   'Ba6 Al3 Sn6 F33'
_cell_volume   822.46792240
_cell_formula_units_Z   3
loop_
 _symmetry_equiv_pos_site_id
 _symmetry_equiv_pos_as_xyz
  1  'x, y, z'
loop_
 _atom_site_type_symbol
 _atom_site_label
 _atom_site_symmetry_multiplicity
 _atom_site_fract_x
 _atom_site_fract_y
 _atom_site_fract_z
 _atom_site_occupancy
  Ba  Ba0  1  0.47838605  0.18548585  0.65409879  1
  Ba  Ba1  1  0.14788737  0.45554801  0.79196428  1
  Ba  Ba2  1  0.70709980  0.52161395  0.98743179  1
  Ba  Ba3  1  0.54445199  0.69233836  0.45863028  1
  Ba  Ba4  1  0.30766164  0.85211263  0.12529728  1
  Ba  Ba5  1  0.81451415  0.29290020  0.32076479  1
  Al  Al6  1  0.18770999  0.02308431  0.87153954  1
  Al  Al7  1  0.83537532  0.81229001  0.20487254  1
  Al  Al8  1  0.97691569  0.16462468  0.53820554  1
  Sn  Sn9  1  0.58537694  0.00225785  0.89365972  1
  Sn  Sn10  1  0.73891730  0.74217574  0.73294082  1
  Sn  Sn11  1  0.25782426  0.99674056  0.39960682  1
  Sn  Sn12  1  0.41688191  0.41462306  0.22699272  1
  Sn  Sn13  1  0.00325944  0.26108270  0.06627382  1
  Sn  Sn14  1  0.99774215  0.58311809  0.56032572  1
  F  F15  1  0.67737664  0.18644795  0.05569394  1
  F  F16  1  0.53618119  0.62254719  0.85133942  1
  F  F17  1  0.50907031  0.32262336  0.38902694  1
  F  F18  1  0.16531367  0.40692567  0.48945510  1
  F  F19  1  0.47245020  0.17130826  0.22095226  1
  F  F20  1  0.73670686  0.53696536  0.18789074  1
  F  F21  1  0.59307433  0.75838799  0.15612210  1
  F  F22  1  0.46303464  0.19974250  0.85455774  1
  F  F23  1  0.69885705  0.52754980  0.55428526  1
  F  F24  1  0.37637964  0.37692819  0.08856064  1
  F  F25  1  0.24161201  0.83468633  0.82278910  1
  F  F26  1  0.81355205  0.49092969  0.72236094  1
  F  F27  1  0.26880248  0.97834041  0.97448930  1
  F  F28  1  0.07700124  0.54929579  0.01442076  1
  F  F29  1  0.70953893  0.73119752  0.30782230  1
  F  F30  1  0.37745281  0.91363300  0.51800542  1
  F  F31  1  0.15531122  0.22032750  0.91481542  1
  F  F32  1  0.00054855  0.62362036  0.42189364  1
  F  F33  1  0.90600095  0.06215583  0.42979542  1
  F  F34  1  0.02165959  0.29046107  0.64115530  1
  F  F35  1  0.15615488  0.09399905  0.76312942  1
  F  F36  1  0.45070421  0.52770545  0.68108776  1
  F  F37  1  0.47229455  0.92299876  0.34775376  1
  F  F38  1  0.06501828  0.84468878  0.24814842  1
  F  F39  1  0.62307181  0.99945145  0.75522764  1
  F  F40  1  0.82869174  0.30114295  0.88761926  1
  F  F41  1  0.08636700  0.46381881  0.18467242  1
  F  F42  1  0.93319687  0.83785031  0.88635685  1
  F  F43  1  0.90465344  0.06680313  0.21968985  1
  F  F44  1  0.93784417  0.84384512  0.09646242  1
  F  F45  1  0.80025750  0.26329314  0.52122374  1
  F  F46  1  0.77967250  0.93498172  0.58148142  1
  F  F47  1  0.16214969  0.09534656  0.55302285  1
