# generated using pymatgen
data_Th2Tl
_symmetry_space_group_name_H-M   'P 1'
_cell_length_a   6.06737605
_cell_length_b   6.36770565
_cell_length_c   6.36770565
_cell_angle_alpha   76.88102366
_cell_angle_beta   61.54830001
_cell_angle_gamma   61.54830001
_symmetry_Int_Tables_number   1
_chemical_formula_structural   Th2Tl
_chemical_formula_sum   'Th4 Tl2'
_cell_volume   190.17833648
_cell_formula_units_Z   2
loop_
 _symmetry_equiv_pos_site_id
 _symmetry_equiv_pos_as_xyz
  1  'x, y, z'
loop_
 _atom_site_type_symbol
 _atom_site_label
 _atom_site_symmetry_multiplicity
 _atom_site_fract_x
 _atom_site_fract_y
 _atom_site_fract_z
 _atom_site_occupancy
  Th  Th0  1  0.34694151  0.50000000  0.80611698  1
  Th  Th1  1  0.65305849  0.50000000  0.19388302  1
  Th  Th2  1  0.84694151  0.80611698  0.50000000  1
  Th  Th3  1  0.15305849  0.19388302  0.50000000  1
  Tl  Tl4  1  0.75000000  -0.00000000  -0.00000000  1
  Tl  Tl5  1  0.25000000  -0.00000000  -0.00000000  1
