# generated using pymatgen
data_NdSiGe
_symmetry_space_group_name_H-M   'P 1'
_cell_length_a   4.13381651
_cell_length_b   4.15088690
_cell_length_c   8.21926199
_cell_angle_alpha   104.62606951
_cell_angle_beta   104.56459152
_cell_angle_gamma   90.00000000
_symmetry_Int_Tables_number   1
_chemical_formula_structural   NdSiGe
_chemical_formula_sum   'Nd2 Si2 Ge2'
_cell_volume   131.77478322
_cell_formula_units_Z   2
loop_
 _symmetry_equiv_pos_site_id
 _symmetry_equiv_pos_as_xyz
  1  'x, y, z'
loop_
 _atom_site_type_symbol
 _atom_site_label
 _atom_site_symmetry_multiplicity
 _atom_site_fract_x
 _atom_site_fract_y
 _atom_site_fract_z
 _atom_site_occupancy
  Nd  Nd0  1  0.62051632  0.37051632  0.74103265  1
  Nd  Nd1  1  0.37948368  0.62948368  0.25896735  1
  Si  Si2  1  0.03646941  0.78646941  0.57293882  1
  Si  Si3  1  0.96353059  0.21353059  0.42706118  1
  Ge  Ge4  1  0.20045091  0.95045091  0.90090182  1
  Ge  Ge5  1  0.79954909  0.04954909  0.09909818  1
