# generated using pymatgen
data_TiZn(BiO3)2
_symmetry_space_group_name_H-M   'P 1'
_cell_length_a   3.82987944
_cell_length_b   3.82987944
_cell_length_c   9.96227528
_cell_angle_alpha   88.58629063
_cell_angle_beta   88.58629063
_cell_angle_gamma   89.37260978
_symmetry_Int_Tables_number   1
_chemical_formula_structural   TiZn(BiO3)2
_chemical_formula_sum   'Ti1 Zn1 Bi2 O6'
_cell_volume   146.02965757
_cell_formula_units_Z   1
loop_
 _symmetry_equiv_pos_site_id
 _symmetry_equiv_pos_as_xyz
  1  'x, y, z'
loop_
 _atom_site_type_symbol
 _atom_site_label
 _atom_site_symmetry_multiplicity
 _atom_site_fract_x
 _atom_site_fract_y
 _atom_site_fract_z
 _atom_site_occupancy
  Ti  Ti0  1  0.51157254  0.51157254  0.23504812  1
  Zn  Zn1  1  0.52065174  0.52065174  0.72033910  1
  Bi  Bi2  1  0.94043467  0.94043467  0.45129887  1
  Bi  Bi3  1  0.00923622  0.00923622  0.92004774  1
  O  O4  1  0.01829736  0.51876646  0.80078585  1
  O  O5  1  0.51876646  0.01829736  0.80078585  1
  O  O6  1  0.01927312  0.53549554  0.29391318  1
  O  O7  1  0.53549554  0.01927312  0.29391318  1
  O  O8  1  0.55586857  0.55586857  0.52138599  1
  O  O9  1  0.51340379  0.51340379  0.06348213  1
