# generated using pymatgen
data_Sr7CaTi3Mn5O20
_symmetry_space_group_name_H-M   'P 1'
_cell_length_a   11.18942928
_cell_length_b   11.34140351
_cell_length_c   17.84619983
_cell_angle_alpha   108.43728618
_cell_angle_beta   108.42607424
_cell_angle_gamma   90.07836869
_symmetry_Int_Tables_number   1
_chemical_formula_structural   Sr7CaTi3Mn5O20
_chemical_formula_sum   'Sr28 Ca4 Ti12 Mn20 O80'
_cell_volume   2025.39305615
_cell_formula_units_Z   4
loop_
 _symmetry_equiv_pos_site_id
 _symmetry_equiv_pos_as_xyz
  1  'x, y, z'
loop_
 _atom_site_type_symbol
 _atom_site_label
 _atom_site_symmetry_multiplicity
 _atom_site_fract_x
 _atom_site_fract_y
 _atom_site_fract_z
 _atom_site_occupancy
  Sr  Sr0  1  0.30521085  0.06500422  0.61190103  1
  Sr  Sr1  1  0.30224208  0.55809981  0.61206663  1
  Sr  Sr2  1  0.81020373  0.06211986  0.60965350  1
  Sr  Sr3  1  0.80913368  0.56499137  0.11310579  1
  Sr  Sr4  1  0.81286957  0.56103002  0.61025290  1
  Sr  Sr5  1  0.19402135  0.43571940  0.38909140  1
  Sr  Sr6  1  0.19560524  0.43817246  0.89015181  1
  Sr  Sr7  1  0.19355165  0.93964125  0.38669451  1
  Sr  Sr8  1  0.19805878  0.93964839  0.89056648  1
  Sr  Sr9  1  0.69897764  0.43875296  0.38893010  1
  Sr  Sr10  1  0.69689904  0.44086799  0.88919852  1
  Sr  Sr11  1  0.69781001  0.93667106  0.38846828  1
  Sr  Sr12  1  0.69351636  0.93939199  0.88807589  1
  Sr  Sr13  1  0.05969071  0.29661890  0.11291678  1
  Sr  Sr14  1  0.06280019  0.30012101  0.61069939  1
  Sr  Sr15  1  0.05871745  0.79996644  0.61119731  1
  Sr  Sr16  1  0.55382638  0.29686291  0.11159862  1
  Sr  Sr17  1  0.55422193  0.29852687  0.61084624  1
  Sr  Sr18  1  0.56042764  0.79920490  0.11181173  1
  Sr  Sr19  1  0.55929057  0.80234346  0.61087804  1
  Sr  Sr20  1  0.44560199  0.19989115  0.38510069  1
  Sr  Sr21  1  0.43850171  0.19964692  0.88765446  1
  Sr  Sr22  1  0.44747281  0.69733434  0.38604586  1
  Sr  Sr23  1  0.44229892  0.69942364  0.88842236  1
  Sr  Sr24  1  0.94802502  0.19946863  0.38694776  1
  Sr  Sr25  1  0.95181689  0.20358446  0.89140628  1
  Sr  Sr26  1  0.94575805  0.69735957  0.38657605  1
  Sr  Sr27  1  0.94892907  0.69904468  0.89084518  1
  Ca  Ca28  1  0.29901830  0.06973623  0.11127578  1
  Ca  Ca29  1  0.30174121  0.56111882  0.11055345  1
  Ca  Ca30  1  0.80275035  0.06417263  0.10696019  1
  Ca  Ca31  1  0.04972694  0.79589144  0.10986095  1
  Ti  Ti32  1  0.00142595  0.99982313  0.99930312  1
  Ti  Ti33  1  0.00614230  0.49995655  0.00390554  1
  Ti  Ti34  1  0.50227204  0.99976690  0.00286013  1
  Ti  Ti35  1  0.50138105  0.00077768  0.49883140  1
  Ti  Ti36  1  0.50037478  0.50228882  0.00244998  1
  Ti  Ti37  1  0.50496997  0.50275067  0.50447124  1
  Ti  Ti38  1  0.25421864  0.75275974  0.00924194  1
  Ti  Ti39  1  0.25312421  0.74989008  0.49991280  1
  Ti  Ti40  1  0.74797317  0.25001121  0.99778970  1
  Ti  Ti41  1  0.75557734  0.24877024  0.49898031  1
  Ti  Ti42  1  0.75258293  0.75082999  0.99751276  1
  Ti  Ti43  1  0.75547044  0.75013968  0.49990992  1
  Mn  Mn44  1  0.00339750  0.99925234  0.49864486  1
  Mn  Mn45  1  0.00276023  0.49934597  0.49853915  1
  Mn  Mn46  1  0.25516962  0.25152498  0.00362727  1
  Mn  Mn47  1  0.25186977  0.24828398  0.49927866  1
  Mn  Mn48  1  0.10500772  0.08886916  0.24376677  1
  Mn  Mn49  1  0.10852073  0.09536390  0.75070848  1
  Mn  Mn50  1  0.11835067  0.59574046  0.24997784  1
  Mn  Mn51  1  0.11244435  0.59934846  0.75495119  1
  Mn  Mn52  1  0.60895103  0.09601469  0.24788031  1
  Mn  Mn53  1  0.61253405  0.09708010  0.74932542  1
  Mn  Mn54  1  0.61061276  0.59287076  0.24793475  1
  Mn  Mn55  1  0.61192595  0.59635908  0.75002343  1
  Mn  Mn56  1  0.36102977  0.40260113  0.25096004  1
  Mn  Mn57  1  0.36656328  0.40549479  0.75267762  1
  Mn  Mn58  1  0.35656874  0.90401244  0.24731436  1
  Mn  Mn59  1  0.36538001  0.90412327  0.75011612  1
  Mn  Mn60  1  0.85752018  0.39828183  0.24556143  1
  Mn  Mn61  1  0.86191153  0.40540060  0.74987111  1
  Mn  Mn62  1  0.85872654  0.90695491  0.24507733  1
  Mn  Mn63  1  0.86238098  0.90525840  0.75030853  1
  O  O64  1  0.12058741  0.11745833  0.49319399  1
  O  O65  1  0.12224733  0.11368639  0.99647875  1
  O  O66  1  0.12662710  0.62274558  0.49226941  1
  O  O67  1  0.12841310  0.62520973  0.99348393  1
  O  O68  1  0.62499331  0.12276157  0.49052821  1
  O  O69  1  0.62842474  0.12345120  0.99170654  1
  O  O70  1  0.62700371  0.62376553  0.49181993  1
  O  O71  1  0.62969900  0.62730713  0.99341389  1
  O  O72  1  0.13322693  0.39215145  0.01547753  1
  O  O73  1  0.12491394  0.37996458  0.50379843  1
  O  O74  1  0.13919603  0.87696695  0.01589389  1
  O  O75  1  0.13469314  0.87303555  0.50509735  1
  O  O76  1  0.63726937  0.37648225  0.00975352  1
  O  O77  1  0.63022447  0.37829423  0.50472823  1
  O  O78  1  0.64134235  0.87987161  0.01137578  1
  O  O79  1  0.63532141  0.87517010  0.50602311  1
  O  O80  1  0.37887835  0.11207205  0.48883544  1
  O  O81  1  0.38272967  0.11345815  0.99566457  1
  O  O82  1  0.37737803  0.61989860  0.49075484  1
  O  O83  1  0.37753101  0.62067924  0.99243283  1
  O  O84  1  0.87068328  0.12210264  0.49041196  1
  O  O85  1  0.87622574  0.11789473  0.99607892  1
  O  O86  1  0.87590444  0.62132307  0.49233103  1
  O  O87  1  0.87908991  0.62620811  0.99729570  1
  O  O88  1  0.38914304  0.39210364  0.01334785  1
  O  O89  1  0.38429217  0.38344786  0.50280438  1
  O  O90  1  0.38534231  0.88119552  0.01207584  1
  O  O91  1  0.38576309  0.87867897  0.50712350  1
  O  O92  1  0.88686230  0.38462985  0.01285272  1
  O  O93  1  0.88000348  0.37922631  0.50596187  1
  O  O94  1  0.88890059  0.88235711  0.01501480  1
  O  O95  1  0.88143029  0.87676421  0.50471812  1
  O  O96  1  0.07854447  0.08182399  0.13026763  1
  O  O97  1  0.07387281  0.08487662  0.63803700  1
  O  O98  1  0.07979498  0.59683820  0.12876465  1
  O  O99  1  0.07989748  0.59056413  0.64271832  1
  O  O100  1  0.58723543  0.08052734  0.12514772  1
  O  O101  1  0.57622952  0.07988654  0.62375027  1
  O  O102  1  0.58180150  0.58544070  0.12596524  1
  O  O103  1  0.57444018  0.58223635  0.62426399  1
  O  O104  1  0.44520424  0.42260506  0.36724334  1
  O  O105  1  0.45207144  0.42002239  0.87829259  1
  O  O106  1  0.44777603  0.91529541  0.37087594  1
  O  O107  1  0.45081383  0.91617306  0.87712380  1
  O  O108  1  0.93499958  0.41199338  0.35790019  1
  O  O109  1  0.94820467  0.42285234  0.87786708  1
  O  O110  1  0.93882442  0.91275139  0.35635491  1
  O  O111  1  0.94880830  0.91598136  0.87778445  1
  O  O112  1  0.32722242  0.29025420  0.14080231  1
  O  O113  1  0.32846795  0.29515561  0.63306718  1
  O  O114  1  0.32770937  0.77906477  0.12636934  1
  O  O115  1  0.32489722  0.79200530  0.62476702  1
  O  O116  1  0.82292172  0.29048308  0.12877951  1
  O  O117  1  0.82152147  0.29614266  0.62456730  1
  O  O118  1  0.82922226  0.79778175  0.13214205  1
  O  O119  1  0.82491230  0.79507623  0.62581166  1
  O  O120  1  0.18269180  0.18768177  0.35815560  1
  O  O121  1  0.18802041  0.20036818  0.86462446  1
  O  O122  1  0.19962442  0.70571563  0.37347893  1
  O  O123  1  0.19288999  0.70442597  0.87292541  1
  O  O124  1  0.69140748  0.20528562  0.37183437  1
  O  O125  1  0.70502604  0.20926625  0.87785890  1
  O  O126  1  0.69482464  0.70233868  0.37136160  1
  O  O127  1  0.70338015  0.71000349  0.87740441  1
  O  O128  1  0.42085675  0.06838157  0.23925420  1
  O  O129  1  0.43248037  0.07389709  0.75188449  1
  O  O130  1  0.42416109  0.55976423  0.23996139  1
  O  O131  1  0.43234395  0.57554909  0.75184432  1
  O  O132  1  0.92475201  0.07068562  0.23964839  1
  O  O133  1  0.93287440  0.07679276  0.75196404  1
  O  O134  1  0.93760529  0.55429776  0.24775060  1
  O  O135  1  0.93377233  0.57651924  0.75198880  1
  O  O136  1  0.18676026  0.42564602  0.25028285  1
  O  O137  1  0.18440342  0.44171310  0.75312688  1
  O  O138  1  0.16941487  0.92477612  0.24084945  1
  O  O139  1  0.18394725  0.93830433  0.75201336  1
  O  O140  1  0.68345350  0.42403031  0.24765540  1
  O  O141  1  0.68071125  0.42919130  0.75064706  1
  O  O142  1  0.68893781  0.92923740  0.24927051  1
  O  O143  1  0.68207160  0.92956070  0.75133677  1
