# generated using pymatgen
data_Sr6Ca2Fe5(CoO8)3
_symmetry_space_group_name_H-M   'P 1'
_cell_length_a   7.72996731
_cell_length_b   7.74909280
_cell_length_c   7.77664005
_cell_angle_alpha   90.00000000
_cell_angle_beta   90.05684630
_cell_angle_gamma   90.00000000
_symmetry_Int_Tables_number   1
_chemical_formula_structural   Sr6Ca2Fe5(CoO8)3
_chemical_formula_sum   'Sr6 Ca2 Fe5 Co3 O24'
_cell_volume   465.82233014
_cell_formula_units_Z   1
loop_
 _symmetry_equiv_pos_site_id
 _symmetry_equiv_pos_as_xyz
  1  'x, y, z'
loop_
 _atom_site_type_symbol
 _atom_site_label
 _atom_site_symmetry_multiplicity
 _atom_site_fract_x
 _atom_site_fract_y
 _atom_site_fract_z
 _atom_site_occupancy
  Sr  Sr0  1  0.25362570  0.25146382  0.25227609  1
  Sr  Sr1  1  0.25391779  0.25149308  0.74742751  1
  Sr  Sr2  1  0.25362044  0.74870026  0.74757404  1
  Sr  Sr3  1  0.74608221  0.25149308  0.25257249  1
  Sr  Sr4  1  0.74637430  0.25146382  0.74772391  1
  Sr  Sr5  1  0.74637956  0.74870026  0.25242596  1
  Ca  Ca6  1  0.25634973  0.74811561  0.25290261  1
  Ca  Ca7  1  0.74365027  0.74811561  0.74709739  1
  Fe  Fe8  1  -0.00000000  0.99858456  0.00000000  1
  Fe  Fe9  1  -0.00000000  0.99748848  0.50000000  1
  Fe  Fe10  1  -0.00000000  0.50131790  0.00000000  1
  Fe  Fe11  1  0.50000000  0.99910413  0.00000000  1
  Fe  Fe12  1  0.50000000  0.50110212  0.00000000  1
  Co  Co13  1  -0.00000000  0.50168543  0.50000000  1
  Co  Co14  1  0.50000000  0.99862249  0.50000000  1
  Co  Co15  1  0.50000000  0.50168279  0.50000000  1
  O  O16  1  0.24982939  0.99645844  0.00180228  1
  O  O17  1  0.25344012  0.99577142  0.49829299  1
  O  O18  1  0.25201240  0.50365387  0.00176745  1
  O  O19  1  0.26299319  0.50379927  0.49808077  1
  O  O20  1  0.75017061  0.99645844  0.99819772  1
  O  O21  1  0.74655988  0.99577142  0.50170701  1
  O  O22  1  0.74798760  0.50365387  0.99823255  1
  O  O23  1  0.73700681  0.50379927  0.50191923  1
  O  O24  1  -0.00000000  0.24966256  0.00000000  1
  O  O25  1  -0.00000000  0.26467147  0.50000000  1
  O  O26  1  -0.00000000  0.75035692  0.00000000  1
  O  O27  1  -0.00000000  0.73545947  0.50000000  1
  O  O28  1  0.50000000  0.25038312  0.00000000  1
  O  O29  1  0.50000000  0.24967887  0.50000000  1
  O  O30  1  0.50000000  0.74994051  0.00000000  1
  O  O31  1  0.50000000  0.75060332  0.50000000  1
  O  O32  1  0.00173869  0.99636417  0.25232281  1
  O  O33  1  0.99826131  0.99636417  0.74767719  1
  O  O34  1  0.00308406  0.50393876  0.25237553  1
  O  O35  1  0.99691594  0.50393876  0.74762447  1
  O  O36  1  0.49778502  0.99536322  0.25676838  1
  O  O37  1  0.50221498  0.99536322  0.74323162  1
  O  O38  1  0.49814314  0.50470601  0.25039067  1
  O  O39  1  0.50185686  0.50470601  0.74960933  1
