# generated using pymatgen
data_Sr6Ca2Mn5Fe3O20
_symmetry_space_group_name_H-M   'P 1'
_cell_length_a   11.09546754
_cell_length_b   11.17911980
_cell_length_c   17.80387131
_cell_angle_alpha   108.24251717
_cell_angle_beta   108.29710142
_cell_angle_gamma   89.99436715
_symmetry_Int_Tables_number   1
_chemical_formula_structural   Sr6Ca2Mn5Fe3O20
_chemical_formula_sum   'Sr24 Ca8 Mn20 Fe12 O80'
_cell_volume   1979.47927904
_cell_formula_units_Z   4
loop_
 _symmetry_equiv_pos_site_id
 _symmetry_equiv_pos_as_xyz
  1  'x, y, z'
loop_
 _atom_site_type_symbol
 _atom_site_label
 _atom_site_symmetry_multiplicity
 _atom_site_fract_x
 _atom_site_fract_y
 _atom_site_fract_z
 _atom_site_occupancy
  Sr  Sr0  1  0.30797506  0.05930931  0.60970934  1
  Sr  Sr1  1  0.30791043  0.55808486  0.60975753  1
  Sr  Sr2  1  0.80843215  0.05881709  0.60992995  1
  Sr  Sr3  1  0.81048947  0.55833317  0.61051711  1
  Sr  Sr4  1  0.19630643  0.43989294  0.38846955  1
  Sr  Sr5  1  0.19951434  0.44232687  0.89372082  1
  Sr  Sr6  1  0.19653571  0.94147528  0.38844493  1
  Sr  Sr7  1  0.69835811  0.44118813  0.38870600  1
  Sr  Sr8  1  0.70105677  0.44284317  0.89318836  1
  Sr  Sr9  1  0.69898896  0.94085246  0.38968902  1
  Sr  Sr10  1  0.70013923  0.94115358  0.89249289  1
  Sr  Sr11  1  0.05832502  0.29935456  0.11019499  1
  Sr  Sr12  1  0.06085739  0.30192279  0.61047570  1
  Sr  Sr13  1  0.05889522  0.80065369  0.61093182  1
  Sr  Sr14  1  0.55731766  0.30087542  0.60866492  1
  Sr  Sr15  1  0.55652945  0.79927449  0.10961664  1
  Sr  Sr16  1  0.55786983  0.80069482  0.60867048  1
  Sr  Sr17  1  0.44774028  0.19753222  0.38771977  1
  Sr  Sr18  1  0.45098188  0.20050795  0.89295960  1
  Sr  Sr19  1  0.44707212  0.69786158  0.38828962  1
  Sr  Sr20  1  0.45052268  0.70168174  0.89389845  1
  Sr  Sr21  1  0.94830919  0.19691354  0.38652997  1
  Sr  Sr22  1  0.94846776  0.20033712  0.89260640  1
  Sr  Sr23  1  0.94712356  0.69645358  0.38688531  1
  Ca  Ca24  1  0.30424788  0.06134770  0.10407533  1
  Ca  Ca25  1  0.30472207  0.56300069  0.10558283  1
  Ca  Ca26  1  0.80383076  0.06131622  0.10317245  1
  Ca  Ca27  1  0.80460401  0.56218760  0.10448711  1
  Ca  Ca28  1  0.20280217  0.93837946  0.89784417  1
  Ca  Ca29  1  0.05694840  0.79139001  0.10331917  1
  Ca  Ca30  1  0.55647260  0.29233330  0.10497781  1
  Ca  Ca31  1  0.95334171  0.70840258  0.89780817  1
  Mn  Mn32  1  0.00347922  0.00001393  0.49968624  1
  Mn  Mn33  1  0.00298012  0.49973291  0.49893557  1
  Mn  Mn34  1  0.25698024  0.25056094  0.00318000  1
  Mn  Mn35  1  0.25216911  0.24919574  0.49887209  1
  Mn  Mn36  1  0.10485718  0.08869617  0.24204572  1
  Mn  Mn37  1  0.11404042  0.09407961  0.75587366  1
  Mn  Mn38  1  0.10906153  0.59829877  0.24616764  1
  Mn  Mn39  1  0.11091899  0.60453428  0.75644062  1
  Mn  Mn40  1  0.60764326  0.09771959  0.24648450  1
  Mn  Mn41  1  0.61372849  0.09676890  0.75167434  1
  Mn  Mn42  1  0.60694389  0.59103582  0.24549510  1
  Mn  Mn43  1  0.61520381  0.59845140  0.75169429  1
  Mn  Mn44  1  0.36300462  0.40271061  0.24637409  1
  Mn  Mn45  1  0.36294927  0.40662909  0.75472916  1
  Mn  Mn46  1  0.35373217  0.90104683  0.24469137  1
  Mn  Mn47  1  0.35966371  0.90366554  0.75294233  1
  Mn  Mn48  1  0.85390665  0.40082541  0.24259082  1
  Mn  Mn49  1  0.86388102  0.40767329  0.75320841  1
  Mn  Mn50  1  0.86012176  0.90130228  0.24468969  1
  Mn  Mn51  1  0.86693519  0.89867990  0.75222360  1
  Fe  Fe52  1  0.00698362  0.00047820  0.00245705  1
  Fe  Fe53  1  0.00632543  0.50230448  0.00308415  1
  Fe  Fe54  1  0.50523587  0.00217284  0.00283011  1
  Fe  Fe55  1  0.50254814  0.00040218  0.49941576  1
  Fe  Fe56  1  0.50655585  0.50082429  0.00492352  1
  Fe  Fe57  1  0.50266835  0.49886911  0.49808048  1
  Fe  Fe58  1  0.25462773  0.75158254  0.00205629  1
  Fe  Fe59  1  0.25107563  0.74957616  0.49922989  1
  Fe  Fe60  1  0.75616301  0.25220189  0.00419648  1
  Fe  Fe61  1  0.75395957  0.25005142  0.49929325  1
  Fe  Fe62  1  0.75810366  0.75199006  0.00389664  1
  Fe  Fe63  1  0.75386331  0.74929031  0.49974402  1
  O  O64  1  0.12504581  0.12336739  0.49493526  1
  O  O65  1  0.13019834  0.11996249  0.99192792  1
  O  O66  1  0.12324490  0.62176217  0.49554023  1
  O  O67  1  0.12261854  0.62475283  0.99259552  1
  O  O68  1  0.62599162  0.12394623  0.49550080  1
  O  O69  1  0.62518302  0.12494923  0.99719411  1
  O  O70  1  0.62603280  0.62380097  0.49558315  1
  O  O71  1  0.62827923  0.62280759  0.99623307  1
  O  O72  1  0.13736280  0.37936070  0.01023945  1
  O  O73  1  0.12968755  0.37621231  0.50366169  1
  O  O74  1  0.13390813  0.87859789  0.00984734  1
  O  O75  1  0.12758633  0.87768326  0.50384775  1
  O  O76  1  0.63417111  0.37956495  0.01340363  1
  O  O77  1  0.63091413  0.37627503  0.50460456  1
  O  O78  1  0.63587713  0.88096887  0.01023756  1
  O  O79  1  0.62934473  0.87586147  0.50245663  1
  O  O80  1  0.37386501  0.12405614  0.49509588  1
  O  O81  1  0.37354791  0.12193852  0.99513921  1
  O  O82  1  0.37379797  0.62132538  0.49499196  1
  O  O83  1  0.37501547  0.62017451  0.99717298  1
  O  O84  1  0.87743804  0.12154244  0.49599072  1
  O  O85  1  0.87643354  0.11955029  0.99449478  1
  O  O86  1  0.87656194  0.62115025  0.49528207  1
  O  O87  1  0.87948949  0.62427741  0.99405437  1
  O  O88  1  0.38456642  0.37969080  0.01429716  1
  O  O89  1  0.37756094  0.37495492  0.50243654  1
  O  O90  1  0.38046490  0.88599409  0.01030143  1
  O  O91  1  0.37810705  0.87782135  0.50295115  1
  O  O92  1  0.88226100  0.38528377  0.01094901  1
  O  O93  1  0.88083051  0.37724303  0.50216475  1
  O  O94  1  0.88679745  0.88082086  0.01186756  1
  O  O95  1  0.88028797  0.87845867  0.50304412  1
  O  O96  1  0.08543689  0.08635704  0.13275795  1
  O  O97  1  0.08110809  0.08278365  0.64346132  1
  O  O98  1  0.08356557  0.59177591  0.13422230  1
  O  O99  1  0.07251495  0.58404296  0.64206916  1
  O  O100  1  0.58017971  0.09157181  0.13556020  1
  O  O101  1  0.57449638  0.08082250  0.63539976  1
  O  O102  1  0.58092131  0.58763155  0.13541310  1
  O  O103  1  0.57422668  0.58066588  0.63628717  1
  O  O104  1  0.44191425  0.41960040  0.36435880  1
  O  O105  1  0.44103539  0.41766937  0.86873936  1
  O  O106  1  0.43394844  0.92325637  0.36140928  1
  O  O107  1  0.44208011  0.91799697  0.86740201  1
  O  O108  1  0.93266233  0.41886832  0.35683940  1
  O  O109  1  0.94028923  0.41306600  0.86540942  1
  O  O110  1  0.93775329  0.91944639  0.35794529  1
  O  O111  1  0.94601363  0.90898136  0.86665684  1
  O  O112  1  0.32597742  0.28781367  0.13251989  1
  O  O113  1  0.32620975  0.30747916  0.64185983  1
  O  O114  1  0.32498984  0.79128820  0.13487810  1
  O  O115  1  0.31951141  0.80565034  0.63671252  1
  O  O116  1  0.82739913  0.28775920  0.13336518  1
  O  O117  1  0.83022814  0.31011160  0.63756413  1
  O  O118  1  0.83028254  0.78942496  0.13426898  1
  O  O119  1  0.82590356  0.80405360  0.63510245  1
  O  O120  1  0.18088992  0.18653422  0.35593643  1
  O  O121  1  0.19355407  0.20355616  0.86909561  1
  O  O122  1  0.18154361  0.69459311  0.36361061  1
  O  O123  1  0.19487533  0.70868190  0.86926835  1
  O  O124  1  0.68459734  0.19312642  0.36295422  1
  O  O125  1  0.68924060  0.19849005  0.86611589  1
  O  O126  1  0.68654019  0.68973085  0.36184172  1
  O  O127  1  0.69571215  0.69850280  0.86547761  1
  O  O128  1  0.43137629  0.06152904  0.23931862  1
  O  O129  1  0.43940256  0.06257330  0.75151731  1
  O  O130  1  0.43032583  0.56898501  0.24032875  1
  O  O131  1  0.44457402  0.56701929  0.75320385  1
  O  O132  1  0.92981497  0.06502190  0.23788104  1
  O  O133  1  0.93963460  0.06508848  0.75227893  1
  O  O134  1  0.92779885  0.56178231  0.23819494  1
  O  O135  1  0.93989792  0.57846170  0.76070896  1
  O  O136  1  0.18844316  0.44069695  0.24846947  1
  O  O137  1  0.19165166  0.44245012  0.75376635  1
  O  O138  1  0.17836761  0.92181825  0.23997653  1
  O  O139  1  0.18792107  0.93082755  0.76033816  1
  O  O140  1  0.67679195  0.42248455  0.24046215  1
  O  O141  1  0.69117249  0.43416989  0.75092829  1
  O  O142  1  0.69045228  0.93782512  0.24790652  1
  O  O143  1  0.69330262  0.93571556  0.75163179  1
