# generated using pymatgen
data_MgGa3
_symmetry_space_group_name_H-M   'P 1'
_cell_length_a   3.21172153
_cell_length_b   9.03801051
_cell_length_c   5.35645861
_cell_angle_alpha   90.00000000
_cell_angle_beta   90.00000000
_cell_angle_gamma   90.00000000
_symmetry_Int_Tables_number   1
_chemical_formula_structural   MgGa3
_chemical_formula_sum   'Mg2 Ga6'
_cell_volume   155.48499302
_cell_formula_units_Z   2
loop_
 _symmetry_equiv_pos_site_id
 _symmetry_equiv_pos_as_xyz
  1  'x, y, z'
loop_
 _atom_site_type_symbol
 _atom_site_label
 _atom_site_symmetry_multiplicity
 _atom_site_fract_x
 _atom_site_fract_y
 _atom_site_fract_z
 _atom_site_occupancy
  Mg  Mg0  1  0.50000000  -0.00000000  0.16439239  1
  Mg  Mg1  1  0.00000000  0.50000000  0.66439239  1
  Ga  Ga2  1  -0.00000000  -0.00000000  0.66168690  1
  Ga  Ga3  1  -0.00000000  0.74767932  0.00362736  1
  Ga  Ga4  1  0.50000000  0.75232068  0.50362736  1
  Ga  Ga5  1  0.50000000  0.50000000  0.16168690  1
  Ga  Ga6  1  0.50000000  0.24767932  0.50362736  1
  Ga  Ga7  1  -0.00000000  0.25232068  0.00362736  1
