# generated using pymatgen
data_MgGa
_symmetry_space_group_name_H-M   'P 1'
_cell_length_a   11.17338908
_cell_length_b   2.96489733
_cell_length_c   5.07878602
_cell_angle_alpha   90.00000000
_cell_angle_beta   112.20524044
_cell_angle_gamma   90.00000000
_symmetry_Int_Tables_number   1
_chemical_formula_structural   MgGa
_chemical_formula_sum   'Mg4 Ga4'
_cell_volume   155.77170403
_cell_formula_units_Z   4
loop_
 _symmetry_equiv_pos_site_id
 _symmetry_equiv_pos_as_xyz
  1  'x, y, z'
loop_
 _atom_site_type_symbol
 _atom_site_label
 _atom_site_symmetry_multiplicity
 _atom_site_fract_x
 _atom_site_fract_y
 _atom_site_fract_z
 _atom_site_occupancy
  Mg  Mg0  1  0.87769570  0.50000000  0.71049335  1
  Mg  Mg1  1  0.62230430  0.00000000  0.28950665  1
  Mg  Mg2  1  0.37769570  0.00000000  0.71049335  1
  Mg  Mg3  1  0.12230430  0.50000000  0.28950665  1
  Ga  Ga4  1  0.62557813  0.50000000  0.78922099  1
  Ga  Ga5  1  0.87442187  0.00000000  0.21077901  1
  Ga  Ga6  1  0.12557813  -0.00000000  0.78922099  1
  Ga  Ga7  1  0.37442187  0.50000000  0.21077901  1
