# generated using pymatgen
data_V2(PO4)3
_symmetry_space_group_name_H-M   'P 1'
_cell_length_a   6.23494466
_cell_length_b   8.14981238
_cell_length_c   9.42828804
_cell_angle_alpha   109.42059222
_cell_angle_beta   104.65105699
_cell_angle_gamma   102.58463424
_symmetry_Int_Tables_number   1
_chemical_formula_structural   V2(PO4)3
_chemical_formula_sum   'V4 P6 O24'
_cell_volume   412.50053345
_cell_formula_units_Z   2
loop_
 _symmetry_equiv_pos_site_id
 _symmetry_equiv_pos_as_xyz
  1  'x, y, z'
loop_
 _atom_site_type_symbol
 _atom_site_label
 _atom_site_symmetry_multiplicity
 _atom_site_fract_x
 _atom_site_fract_y
 _atom_site_fract_z
 _atom_site_occupancy
  V  V0  1  0.36148721  0.45597833  0.11508413  1
  V  V1  1  0.94440542  0.28596444  0.48058778  1
  V  V2  1  0.63849165  0.54401503  0.88492285  1
  V  V3  1  0.05563598  0.71408149  0.51942486  1
  P  P4  1  0.78022103  0.83220797  0.24627033  1
  P  P5  1  0.21974839  0.16780727  0.75373467  1
  P  P6  1  0.61502029  0.77707755  0.64838292  1
  P  P7  1  0.38498050  0.22286612  0.35163370  1
  P  P8  1  0.86702941  0.37151540  0.15529688  1
  P  P9  1  0.13292127  0.62843563  0.84466669  1
  O  O10  1  0.71002912  0.97508888  0.75326616  1
  O  O11  1  0.29000657  0.02490619  0.24687597  1
  O  O12  1  0.17512314  0.82769732  0.91456787  1
  O  O13  1  0.82477991  0.17228058  0.08539211  1
  O  O14  1  0.19841724  0.96699076  0.68560043  1
  O  O15  1  0.80163054  0.03304642  0.31438036  1
  O  O16  1  0.35608106  0.70984905  0.52694468  1
  O  O17  1  0.64397597  0.29020749  0.47306374  1
  O  O18  1  0.08202580  0.54902422  0.65615054  1
  O  O19  1  0.91800452  0.45098095  0.34382280  1
  O  O20  1  0.76126896  0.69995645  0.54689770  1
  O  O21  1  0.23883849  0.30013761  0.45317315  1
  O  O22  1  0.98028834  0.79454341  0.35031596  1
  O  O23  1  0.67236351  0.44429607  0.07667601  1
  O  O24  1  0.32765004  0.55571024  0.92329501  1
  O  O25  1  0.54010980  0.70735847  0.23837152  1
  O  O26  1  0.45985221  0.29263124  0.76162168  1
  O  O27  1  0.09665179  0.48978601  0.13966157  1
  O  O28  1  0.01967581  0.20544114  0.64966314  1
  O  O29  1  0.41324340  0.35479510  0.25434704  1
  O  O30  1  0.58674313  0.64515185  0.74561451  1
  O  O31  1  0.22165728  0.23294234  0.93115132  1
  O  O32  1  0.77831566  0.76706170  0.06885826  1
  O  O33  1  0.90333058  0.51016626  0.86028666  1
