# generated using pymatgen
data_Mg2Cd
_symmetry_space_group_name_H-M   'P 1'
_cell_length_a   5.41227277
_cell_length_b   5.41227340
_cell_length_c   15.67682123
_cell_angle_alpha   90.00000000
_cell_angle_beta   90.00000000
_cell_angle_gamma   119.99999624
_symmetry_Int_Tables_number   1
_chemical_formula_structural   Mg2Cd
_chemical_formula_sum   'Mg12 Cd6'
_cell_volume   397.69310062
_cell_formula_units_Z   6
loop_
 _symmetry_equiv_pos_site_id
 _symmetry_equiv_pos_as_xyz
  1  'x, y, z'
loop_
 _atom_site_type_symbol
 _atom_site_label
 _atom_site_symmetry_multiplicity
 _atom_site_fract_x
 _atom_site_fract_y
 _atom_site_fract_z
 _atom_site_occupancy
  Mg  Mg0  1  0.66781313  0.66781313  -0.00000000  1
  Mg  Mg1  1  0.33218687  -0.00000000  -0.00000000  1
  Mg  Mg2  1  0.33333300  0.66666700  0.16666700  1
  Mg  Mg3  1  0.00000000  0.33218687  -0.00000000  1
  Mg  Mg4  1  0.33447913  0.00114613  0.33333300  1
  Mg  Mg5  1  0.99885387  0.33333300  0.33333300  1
  Mg  Mg6  1  -0.00000000  -0.00000000  0.50000000  1
  Mg  Mg7  1  0.66666700  0.66552087  0.33333300  1
  Mg  Mg8  1  0.00114613  0.33447913  0.66666700  1
  Mg  Mg9  1  0.66552087  0.66666700  0.66666700  1
  Mg  Mg10  1  0.66666700  0.33333300  0.83333300  1
  Mg  Mg11  1  0.33333300  0.99885387  0.66666700  1
  Cd  Cd12  1  0.66666700  0.33333300  0.16750593  1
  Cd  Cd13  1  -0.00000000  -0.00000000  0.16582807  1
  Cd  Cd14  1  0.33333300  0.66666700  0.50083893  1
  Cd  Cd15  1  0.66666700  0.33333300  0.49916107  1
  Cd  Cd16  1  -0.00000000  -0.00000000  0.83417193  1
  Cd  Cd17  1  0.33333300  0.66666700  0.83249407  1
