# generated using pymatgen
data_NaNi3O5
_symmetry_space_group_name_H-M   'P 1'
_cell_length_a   8.45991905
_cell_length_b   2.91105842
_cell_length_c   15.24468218
_cell_angle_alpha   90.00000000
_cell_angle_beta   90.00000000
_cell_angle_gamma   90.00000000
_symmetry_Int_Tables_number   1
_chemical_formula_structural   NaNi3O5
_chemical_formula_sum   'Na4 Ni12 O20'
_cell_volume   375.43564474
_cell_formula_units_Z   4
loop_
 _symmetry_equiv_pos_site_id
 _symmetry_equiv_pos_as_xyz
  1  'x, y, z'
loop_
 _atom_site_type_symbol
 _atom_site_label
 _atom_site_symmetry_multiplicity
 _atom_site_fract_x
 _atom_site_fract_y
 _atom_site_fract_z
 _atom_site_occupancy
  Na  Na0  1  0.04502411  0.75000000  0.63595938  1
  Na  Na1  1  0.45497589  0.25000000  0.13595938  1
  Na  Na2  1  0.54502411  0.75000000  0.86404062  1
  Na  Na3  1  0.95497589  0.25000000  0.36404062  1
  Ni  Ni4  1  0.09911497  0.75000000  0.14783347  1
  Ni  Ni5  1  0.16412121  0.25000000  0.98630831  1
  Ni  Ni6  1  0.19364250  0.75000000  0.81804816  1
  Ni  Ni7  1  0.30635750  0.25000000  0.31804816  1
  Ni  Ni8  1  0.33587879  0.75000000  0.48630831  1
  Ni  Ni9  1  0.40088503  0.25000000  0.64783347  1
  Ni  Ni10  1  0.59911497  0.75000000  0.35216653  1
  Ni  Ni11  1  0.66412121  0.25000000  0.51369169  1
  Ni  Ni12  1  0.69364250  0.75000000  0.68195184  1
  Ni  Ni13  1  0.80635750  0.25000000  0.18195184  1
  Ni  Ni14  1  0.83587879  0.75000000  0.01369169  1
  Ni  Ni15  1  0.90088503  0.25000000  0.85216653  1
  O  O16  1  0.02172374  0.75000000  0.91891540  1
  O  O17  1  0.07057078  0.25000000  0.77088978  1
  O  O18  1  0.19405879  0.25000000  0.20716960  1
  O  O19  1  0.25663868  0.75000000  0.05782491  1
  O  O20  1  0.19957819  0.75000000  0.37738806  1
  O  O21  1  0.30042181  0.25000000  0.87738806  1
  O  O22  1  0.24336132  0.25000000  0.55782491  1
  O  O23  1  0.30594121  0.75000000  0.70716960  1
  O  O24  1  0.42942922  0.75000000  0.27088978  1
  O  O25  1  0.47827626  0.25000000  0.41891540  1
  O  O26  1  0.52172374  0.75000000  0.58108460  1
  O  O27  1  0.57057078  0.25000000  0.72911022  1
  O  O28  1  0.69405879  0.25000000  0.29283040  1
  O  O29  1  0.75663868  0.75000000  0.44217509  1
  O  O30  1  0.69957819  0.75000000  0.12261194  1
  O  O31  1  0.80042181  0.25000000  0.62261194  1
  O  O32  1  0.74336132  0.25000000  0.94217509  1
  O  O33  1  0.80594121  0.75000000  0.79283040  1
  O  O34  1  0.92942922  0.75000000  0.22911022  1
  O  O35  1  0.97827626  0.25000000  0.08108460  1
