# generated using pymatgen
data_Cs
_symmetry_space_group_name_H-M   'P 1'
_cell_length_a   6.03802300
_cell_length_b   6.20475527
_cell_length_c   6.20475527
_cell_angle_alpha   88.71968657
_cell_angle_beta   85.89582218
_cell_angle_gamma   85.89582218
_symmetry_Int_Tables_number   1
_chemical_formula_structural   Cs
_chemical_formula_sum   Cs2
_cell_volume   231.23240710
_cell_formula_units_Z   2
loop_
 _symmetry_equiv_pos_site_id
 _symmetry_equiv_pos_as_xyz
  1  'x, y, z'
loop_
 _atom_site_type_symbol
 _atom_site_label
 _atom_site_symmetry_multiplicity
 _atom_site_fract_x
 _atom_site_fract_y
 _atom_site_fract_z
 _atom_site_occupancy
  Cs  Cs0  1  0.24703926  0.74988198  0.74988198  1
  Cs  Cs1  1  0.75296074  0.25011802  0.25011802  1
