# generated using pymatgen
data_AgClO4
_symmetry_space_group_name_H-M   'P 1'
_cell_length_a   4.96620744
_cell_length_b   5.53302161
_cell_length_c   6.73200013
_cell_angle_alpha   90.00000000
_cell_angle_beta   112.69109116
_cell_angle_gamma   90.00000000
_symmetry_Int_Tables_number   1
_chemical_formula_structural   AgClO4
_chemical_formula_sum   'Ag2 Cl2 O8'
_cell_volume   170.66477241
_cell_formula_units_Z   2
loop_
 _symmetry_equiv_pos_site_id
 _symmetry_equiv_pos_as_xyz
  1  'x, y, z'
loop_
 _atom_site_type_symbol
 _atom_site_label
 _atom_site_symmetry_multiplicity
 _atom_site_fract_x
 _atom_site_fract_y
 _atom_site_fract_z
 _atom_site_occupancy
  Ag  Ag0  1  0.03672404  0.75000000  0.74893900  1
  Ag  Ag1  1  0.96327596  0.25000000  0.25106100  1
  Cl  Cl2  1  0.55889943  0.25000000  0.73138679  1
  Cl  Cl3  1  0.44110057  0.75000000  0.26861321  1
  O  O4  1  0.62698489  0.25000000  0.54107685  1
  O  O5  1  0.37301511  0.75000000  0.45892315  1
  O  O6  1  0.23701190  0.25000000  0.66595984  1
  O  O7  1  0.76298810  0.75000000  0.33404016  1
  O  O8  1  0.68267290  0.03436086  0.86383016  1
  O  O9  1  0.31732710  0.53436086  0.13616984  1
  O  O10  1  0.31732710  0.96563914  0.13616984  1
  O  O11  1  0.68267290  0.46563914  0.86383016  1
