# generated using pymatgen
data_H6PbCBr3N
_symmetry_space_group_name_H-M   'P 1'
_cell_length_a   8.02081271
_cell_length_b   12.38753912
_cell_length_c   8.81753309
_cell_angle_alpha   90.00000000
_cell_angle_beta   90.00000000
_cell_angle_gamma   90.00000000
_symmetry_Int_Tables_number   1
_chemical_formula_structural   H6PbCBr3N
_chemical_formula_sum   'H24 Pb4 C4 Br12 N4'
_cell_volume   876.09360979
_cell_formula_units_Z   4
loop_
 _symmetry_equiv_pos_site_id
 _symmetry_equiv_pos_as_xyz
  1  'x, y, z'
loop_
 _atom_site_type_symbol
 _atom_site_label
 _atom_site_symmetry_multiplicity
 _atom_site_fract_x
 _atom_site_fract_y
 _atom_site_fract_z
 _atom_site_occupancy
  H  H0  1  0.49562402  0.31760533  0.14893973  1
  H  H1  1  0.50437598  0.68239467  0.85106027  1
  H  H2  1  0.00437598  0.68239467  0.64893973  1
  H  H3  1  0.99562402  0.31760533  0.35106027  1
  H  H4  1  0.50437598  0.81760533  0.85106027  1
  H  H5  1  0.49562402  0.18239467  0.14893973  1
  H  H6  1  0.99562402  0.18239467  0.35106027  1
  H  H7  1  0.00437598  0.81760533  0.64893973  1
  H  H8  1  0.32814785  0.25000000  0.08113840  1
  H  H9  1  0.67185215  0.75000000  0.91886160  1
  H  H10  1  0.17185215  0.75000000  0.58113840  1
  H  H11  1  0.82814785  0.25000000  0.41886160  1
  H  H12  1  0.49315585  0.32245712  0.87409533  1
  H  H13  1  0.50684415  0.67754288  0.12590467  1
  H  H14  1  0.00684415  0.67754288  0.37409533  1
  H  H15  1  0.99315585  0.32245712  0.62590567  1
  H  H16  1  0.50684415  0.82245712  0.12590467  1
  H  H17  1  0.49315585  0.17754288  0.87409533  1
  H  H18  1  0.99315585  0.17754288  0.62590567  1
  H  H19  1  0.00684415  0.82245712  0.37409533  1
  H  H20  1  0.66973204  0.25000000  0.94688115  1
  H  H21  1  0.33026796  0.75000000  0.05311885  1
  H  H22  1  0.83026796  0.75000000  0.44688115  1
  H  H23  1  0.16973204  0.25000000  0.55311885  1
  Pb  Pb24  1  0.50000000  -0.00000000  0.50000000  1
  Pb  Pb25  1  -0.00000000  -0.00000000  0.00000000  1
  Pb  Pb26  1  0.50000000  0.50000000  0.50000000  1
  Pb  Pb27  1  0.00000000  0.50000000  0.00000000  1
  C  C28  1  0.53409500  0.25000000  0.93457648  1
  C  C29  1  0.46590500  0.75000000  0.06542352  1
  C  C30  1  0.96590500  0.75000000  0.43457648  1
  C  C31  1  0.03409500  0.25000000  0.56542352  1
  Br  Br32  1  0.54409380  0.25000000  0.50771218  1
  Br  Br33  1  0.45590620  0.75000000  0.49228782  1
  Br  Br34  1  0.95590620  0.75000000  0.00771218  1
  Br  Br35  1  0.04409380  0.25000000  0.99228782  1
  Br  Br36  1  0.81306579  0.97637077  0.69687876  1
  Br  Br37  1  0.18693421  0.02362923  0.30312124  1
  Br  Br38  1  0.68693421  0.02362923  0.19687876  1
  Br  Br39  1  0.31306579  0.97637077  0.80312124  1
  Br  Br40  1  0.18693421  0.47637077  0.30312124  1
  Br  Br41  1  0.81306579  0.52362923  0.69687876  1
  Br  Br42  1  0.31306579  0.52362923  0.80312124  1
  Br  Br43  1  0.68693421  0.47637077  0.19687876  1
  N  N44  1  0.45809164  0.25000000  0.08851612  1
  N  N45  1  0.54190836  0.75000000  0.91148388  1
  N  N46  1  0.04190836  0.75000000  0.58851612  1
  N  N47  1  0.95809164  0.25000000  0.41148388  1
