# generated using pymatgen
data_Sr7CaMn4(FeO5)4
_symmetry_space_group_name_H-M   'P 1'
_cell_length_a   11.19553393
_cell_length_b   11.26287008
_cell_length_c   17.84361920
_cell_angle_alpha   108.34322840
_cell_angle_beta   108.41965633
_cell_angle_gamma   89.98441742
_symmetry_Int_Tables_number   1
_chemical_formula_structural   Sr7CaMn4(FeO5)4
_chemical_formula_sum   'Sr28 Ca4 Mn16 Fe16 O80'
_cell_volume   2013.90907823
_cell_formula_units_Z   4
loop_
 _symmetry_equiv_pos_site_id
 _symmetry_equiv_pos_as_xyz
  1  'x, y, z'
loop_
 _atom_site_type_symbol
 _atom_site_label
 _atom_site_symmetry_multiplicity
 _atom_site_fract_x
 _atom_site_fract_y
 _atom_site_fract_z
 _atom_site_occupancy
  Sr  Sr0  1  0.30761297  0.05836404  0.60811521  1
  Sr  Sr1  1  0.30789435  0.55827442  0.60821815  1
  Sr  Sr2  1  0.80754874  0.05836968  0.60833172  1
  Sr  Sr3  1  0.80754245  0.56027286  0.10947481  1
  Sr  Sr4  1  0.80748108  0.55853496  0.60834281  1
  Sr  Sr5  1  0.19776608  0.44063407  0.39060337  1
  Sr  Sr6  1  0.19933195  0.44209142  0.89301541  1
  Sr  Sr7  1  0.19841782  0.94133689  0.38961478  1
  Sr  Sr8  1  0.19968867  0.94173146  0.89316400  1
  Sr  Sr9  1  0.69847612  0.44114935  0.39125464  1
  Sr  Sr10  1  0.70062525  0.44253684  0.89316986  1
  Sr  Sr11  1  0.69788767  0.94121769  0.39097964  1
  Sr  Sr12  1  0.70071980  0.94108757  0.89294345  1
  Sr  Sr13  1  0.05785496  0.29883007  0.11006931  1
  Sr  Sr14  1  0.05744472  0.29962161  0.60801609  1
  Sr  Sr15  1  0.05752750  0.79983688  0.60817210  1
  Sr  Sr16  1  0.55830053  0.29862495  0.10939105  1
  Sr  Sr17  1  0.55716488  0.29975979  0.60793466  1
  Sr  Sr18  1  0.55735856  0.79942670  0.10946198  1
  Sr  Sr19  1  0.55726489  0.79961892  0.60789276  1
  Sr  Sr20  1  0.44818398  0.19798478  0.38850595  1
  Sr  Sr21  1  0.44908163  0.20061994  0.89291425  1
  Sr  Sr22  1  0.44769594  0.69892011  0.38887348  1
  Sr  Sr23  1  0.44984730  0.70146044  0.89308496  1
  Sr  Sr24  1  0.94804040  0.19840372  0.38929271  1
  Sr  Sr25  1  0.95059974  0.20066121  0.89344863  1
  Sr  Sr26  1  0.94852608  0.69963078  0.39033584  1
  Sr  Sr27  1  0.95039920  0.70150413  0.89317459  1
  Ca  Ca28  1  0.30363114  0.06181174  0.10396818  1
  Ca  Ca29  1  0.30574994  0.56217125  0.10391587  1
  Ca  Ca30  1  0.80416112  0.06092528  0.10372663  1
  Ca  Ca31  1  0.05699295  0.79172453  0.10402692  1
  Mn  Mn32  1  0.10647078  0.09017217  0.24569813  1
  Mn  Mn33  1  0.11171351  0.09664146  0.75105931  1
  Mn  Mn34  1  0.11309357  0.59893050  0.24917594  1
  Mn  Mn35  1  0.11167623  0.59682356  0.75101358  1
  Mn  Mn36  1  0.60713636  0.09361349  0.24737065  1
  Mn  Mn37  1  0.61186728  0.09602933  0.75074676  1
  Mn  Mn38  1  0.60623672  0.59453450  0.24772214  1
  Mn  Mn39  1  0.61223583  0.59665063  0.75100427  1
  Mn  Mn40  1  0.35983640  0.40285783  0.24762988  1
  Mn  Mn41  1  0.36159016  0.40438703  0.75084590  1
  Mn  Mn42  1  0.35405976  0.90246238  0.24548768  1
  Mn  Mn43  1  0.36175573  0.90415921  0.75093838  1
  Mn  Mn44  1  0.86121190  0.40107066  0.24944747  1
  Mn  Mn45  1  0.86203348  0.40424037  0.75095014  1
  Mn  Mn46  1  0.86094406  0.90721495  0.24770635  1
  Mn  Mn47  1  0.86208469  0.90390188  0.75110922  1
  Fe  Fe48  1  0.00691095  0.00163862  0.00539214  1
  Fe  Fe49  1  0.00328171  0.00002742  0.49927439  1
  Fe  Fe50  1  0.00628162  0.50203440  0.00359708  1
  Fe  Fe51  1  0.00313268  0.49957253  0.49951504  1
  Fe  Fe52  1  0.50579997  0.00152919  0.00340244  1
  Fe  Fe53  1  0.50262439  0.00006919  0.49930436  1
  Fe  Fe54  1  0.50455476  0.50101323  0.00206322  1
  Fe  Fe55  1  0.50294731  0.49969910  0.49910665  1
  Fe  Fe56  1  0.25569341  0.25202666  0.00389141  1
  Fe  Fe57  1  0.25292822  0.24908267  0.49904093  1
  Fe  Fe58  1  0.25578801  0.75232903  0.00436973  1
  Fe  Fe59  1  0.25318641  0.74980660  0.49918975  1
  Fe  Fe60  1  0.75459596  0.25007607  0.00161340  1
  Fe  Fe61  1  0.75265454  0.24960169  0.49944084  1
  Fe  Fe62  1  0.75684658  0.75281138  0.00427315  1
  Fe  Fe63  1  0.75253491  0.74972370  0.49927963  1
  O  O64  1  0.12520495  0.12367333  0.49547299  1
  O  O65  1  0.12718449  0.12256278  0.99628870  1
  O  O66  1  0.12485090  0.62328656  0.49483148  1
  O  O67  1  0.12694449  0.62510422  0.99798220  1
  O  O68  1  0.62471809  0.12329781  0.49502016  1
  O  O69  1  0.62722531  0.12269332  0.99637474  1
  O  O70  1  0.62504623  0.62376716  0.49549235  1
  O  O71  1  0.62569858  0.62427115  0.99549563  1
  O  O72  1  0.13514460  0.38117376  0.01045052  1
  O  O73  1  0.12954788  0.37570503  0.50354806  1
  O  O74  1  0.13424183  0.87913509  0.01241542  1
  O  O75  1  0.12927432  0.87622025  0.50367367  1
  O  O76  1  0.63046448  0.37615771  0.00570491  1
  O  O77  1  0.62932864  0.37631320  0.50403516  1
  O  O78  1  0.63438851  0.87994610  0.00813995  1
  O  O79  1  0.62870387  0.87630692  0.50330203  1
  O  O80  1  0.37501536  0.12205802  0.49499808  1
  O  O81  1  0.37618106  0.12215336  0.99746845  1
  O  O82  1  0.37481835  0.62152118  0.49468443  1
  O  O83  1  0.37517119  0.62170327  0.99666498  1
  O  O84  1  0.87455884  0.12164182  0.49443210  1
  O  O85  1  0.87557067  0.12063855  0.99777531  1
  O  O86  1  0.87477620  0.62188622  0.49463002  1
  O  O87  1  0.87871744  0.62464261  0.99745827  1
  O  O88  1  0.38060695  0.38274116  0.00990374  1
  O  O89  1  0.37858508  0.37659935  0.50211166  1
  O  O90  1  0.38075484  0.88301512  0.01000470  1
  O  O91  1  0.37958857  0.87763989  0.50345468  1
  O  O92  1  0.88200078  0.37926919  0.00729107  1
  O  O93  1  0.87910193  0.37712432  0.50347940  1
  O  O94  1  0.88529832  0.88185571  0.01252301  1
  O  O95  1  0.87893630  0.87727731  0.50277117  1
  O  O96  1  0.08292859  0.08755039  0.13601292  1
  O  O97  1  0.07506401  0.08163252  0.63631037  1
  O  O98  1  0.07873236  0.59082633  0.13638304  1
  O  O99  1  0.07529749  0.58165911  0.63621297  1
  O  O100  1  0.58278572  0.08345468  0.13581106  1
  O  O101  1  0.57520007  0.08168856  0.63620599  1
  O  O102  1  0.57883334  0.58377738  0.13556439  1
  O  O103  1  0.57479090  0.58135141  0.63620399  1
  O  O104  1  0.44069201  0.42079987  0.36260290  1
  O  O105  1  0.43878643  0.41733574  0.86504697  1
  O  O106  1  0.43444603  0.92222213  0.36134115  1
  O  O107  1  0.43947817  0.91722457  0.86515687  1
  O  O108  1  0.93886872  0.41749402  0.36402610  1
  O  O109  1  0.94093926  0.41787183  0.86526784  1
  O  O110  1  0.94090293  0.92167888  0.36229024  1
  O  O111  1  0.94006744  0.91645408  0.86536161  1
  O  O112  1  0.32606810  0.29137904  0.13668468  1
  O  O113  1  0.32592159  0.30479160  0.63627084  1
  O  O114  1  0.32728844  0.79060864  0.13599632  1
  O  O115  1  0.32559803  0.80447017  0.63630039  1
  O  O116  1  0.82511443  0.29603806  0.13634160  1
  O  O117  1  0.82560355  0.30422079  0.63635450  1
  O  O118  1  0.82740954  0.79962356  0.13647923  1
  O  O119  1  0.82569488  0.80478876  0.63628462  1
  O  O120  1  0.18538541  0.18893573  0.36120250  1
  O  O121  1  0.18986653  0.19769943  0.86533967  1
  O  O122  1  0.18916274  0.69668698  0.36392301  1
  O  O123  1  0.18921637  0.69792137  0.86537193  1
  O  O124  1  0.68219480  0.19403473  0.36232964  1
  O  O125  1  0.69111332  0.19634474  0.86490838  1
  O  O126  1  0.68279504  0.69470718  0.36254643  1
  O  O127  1  0.69181987  0.69792810  0.86496216  1
  O  O128  1  0.43051485  0.06138521  0.23943520  1
  O  O129  1  0.44186362  0.06482714  0.75101790  1
  O  O130  1  0.43144823  0.56409502  0.24031402  1
  O  O131  1  0.44223615  0.56503877  0.75131253  1
  O  O132  1  0.93127604  0.06845264  0.24063253  1
  O  O133  1  0.94181626  0.06470649  0.75116011  1
  O  O134  1  0.94407877  0.55966620  0.24891252  1
  O  O135  1  0.94169871  0.56487281  0.75093104  1
  O  O136  1  0.19206494  0.43752280  0.24959080  1
  O  O137  1  0.19168283  0.43636759  0.75070710  1
  O  O138  1  0.17885023  0.92374724  0.24082852  1
  O  O139  1  0.19183342  0.93621156  0.75096982  1
  O  O140  1  0.69167150  0.43823894  0.24984799  1
  O  O141  1  0.69197702  0.43596899  0.75077804  1
  O  O142  1  0.69086283  0.93664814  0.24989560  1
  O  O143  1  0.69188315  0.93579914  0.75059919  1
