# generated using pymatgen
data_VF4
_symmetry_space_group_name_H-M   'P 1'
_cell_length_a   4.93471260
_cell_length_b   6.17608471
_cell_length_c   9.50878938
_cell_angle_alpha   90.00000000
_cell_angle_beta   85.86247832
_cell_angle_gamma   90.00000000
_symmetry_Int_Tables_number   1
_chemical_formula_structural   VF4
_chemical_formula_sum   'V4 F16'
_cell_volume   289.04600893
_cell_formula_units_Z   4
loop_
 _symmetry_equiv_pos_site_id
 _symmetry_equiv_pos_as_xyz
  1  'x, y, z'
loop_
 _atom_site_type_symbol
 _atom_site_label
 _atom_site_symmetry_multiplicity
 _atom_site_fract_x
 _atom_site_fract_y
 _atom_site_fract_z
 _atom_site_occupancy
  V  V0  1  0.24822128  0.17275631  0.74942421  1
  V  V1  1  0.25177872  0.67275631  0.75057579  1
  V  V2  1  0.74822128  0.32724369  0.24942421  1
  V  V3  1  0.75177872  0.82724369  0.25057579  1
  F  F4  1  0.04011776  0.33329837  0.12978866  1
  F  F5  1  0.11389592  0.91386954  0.64509518  1
  F  F6  1  0.12244843  0.43030370  0.64229696  1
  F  F7  1  0.07129990  0.82477333  0.15251975  1
  F  F8  1  0.42870010  0.32477333  0.34748025  1
  F  F9  1  0.37755157  0.93030370  0.85770304  1
  F  F10  1  0.38610408  0.41386954  0.85490482  1
  F  F11  1  0.45988224  0.83329837  0.37021134  1
  F  F12  1  0.54011776  0.16670163  0.62978866  1
  F  F13  1  0.61389592  0.58613046  0.14509518  1
  F  F14  1  0.62244843  0.06969630  0.14229696  1
  F  F15  1  0.57129990  0.67522667  0.65251975  1
  F  F16  1  0.92870010  0.17522667  0.84748025  1
  F  F17  1  0.87755157  0.56969630  0.35770304  1
  F  F18  1  0.88610408  0.08613046  0.35490482  1
  F  F19  1  0.95988224  0.66670163  0.87021134  1
