# generated using pymatgen
data_TbTa3O9
_symmetry_space_group_name_H-M   'P 1'
_cell_length_a   8.80366669
_cell_length_b   5.57202648
_cell_length_c   8.84376397
_cell_angle_alpha   71.63763263
_cell_angle_beta   66.50226499
_cell_angle_gamma   71.55099130
_symmetry_Int_Tables_number   1
_chemical_formula_structural   TbTa3O9
_chemical_formula_sum   'Tb2 Ta6 O18'
_cell_volume   368.40282648
_cell_formula_units_Z   2
loop_
 _symmetry_equiv_pos_site_id
 _symmetry_equiv_pos_as_xyz
  1  'x, y, z'
loop_
 _atom_site_type_symbol
 _atom_site_label
 _atom_site_symmetry_multiplicity
 _atom_site_fract_x
 _atom_site_fract_y
 _atom_site_fract_z
 _atom_site_occupancy
  Tb  Tb0  1  0.34578641  0.32641015  0.00139329  1
  Tb  Tb1  1  0.65421359  0.67358985  0.99860671  1
  Ta  Ta2  1  0.58945095  0.07695753  0.25663300  1
  Ta  Ta3  1  0.08255226  0.58310510  0.75123654  1
  Ta  Ta4  1  0.23907584  0.74956493  0.26179431  1
  Ta  Ta5  1  0.76092416  0.25043507  0.73820569  1
  Ta  Ta6  1  0.41054905  0.92304247  0.74336700  1
  Ta  Ta7  1  0.91744774  0.41689490  0.24876346  1
  O  O8  1  -0.00000000  0.50000000  0.00000000  1
  O  O9  1  0.10107000  0.09816393  0.22736059  1
  O  O10  1  0.10107000  0.57340547  0.22736059  1
  O  O11  1  0.42712687  0.42756554  0.21785124  1
  O  O12  1  0.64857435  0.17587629  0.99967307  1
  O  O13  1  0.35142565  0.82412371  0.00032693  1
  O  O14  1  0.50000000  -0.00000000  0.50000000  1
  O  O15  1  0.16738145  0.66491494  0.50278867  1
  O  O16  1  0.25175711  0.24993939  0.77330179  1
  O  O17  1  0.57287313  0.07254465  0.78214876  1
  O  O18  1  0.42712687  0.92745535  0.21785124  1
  O  O19  1  0.25175711  0.72500272  0.77330179  1
  O  O20  1  0.74824289  0.27499728  0.22669821  1
  O  O21  1  0.74824289  0.75006061  0.22669821  1
  O  O22  1  0.83261855  0.33508506  0.49721133  1
  O  O23  1  0.57287313  0.57243446  0.78214876  1
  O  O24  1  0.89893000  0.42659453  0.77263941  1
  O  O25  1  0.89893000  0.90183607  0.77263941  1
