# generated using pymatgen
data_GdFe4B
_symmetry_space_group_name_H-M   'P 1'
_cell_length_a   5.19436581
_cell_length_b   5.18395632
_cell_length_c   6.97212866
_cell_angle_alpha   90.00000000
_cell_angle_beta   90.00000000
_cell_angle_gamma   120.06645093
_symmetry_Int_Tables_number   1
_chemical_formula_structural   GdFe4B
_chemical_formula_sum   'Gd2 Fe8 B2'
_cell_volume   162.47954518
_cell_formula_units_Z   2
loop_
 _symmetry_equiv_pos_site_id
 _symmetry_equiv_pos_as_xyz
  1  'x, y, z'
loop_
 _atom_site_type_symbol
 _atom_site_label
 _atom_site_symmetry_multiplicity
 _atom_site_fract_x
 _atom_site_fract_y
 _atom_site_fract_z
 _atom_site_occupancy
  Gd  Gd0  1  0.99999439  1.00000000  0.00000000  1
  Gd  Gd1  1  0.00000141  0.00000000  0.50000000  1
  Fe  Fe2  1  0.33327147  0.66663281  0.00000000  1
  Fe  Fe3  1  0.66663866  0.33336719  0.00000000  1
  Fe  Fe4  1  0.49999785  1.00000000  0.28775640  1
  Fe  Fe5  1  0.49999716  0.50000084  0.28771280  1
  Fe  Fe6  1  0.99999632  0.49999916  0.28771280  1
  Fe  Fe7  1  0.49999785  1.00000000  0.71224360  1
  Fe  Fe8  1  0.49999716  0.50000084  0.71228720  1
  Fe  Fe9  1  0.99999632  0.49999916  0.71228720  1
  B  B10  1  0.33318197  0.66645254  0.50000000  1
  B  B11  1  0.66672943  0.33354746  0.50000000  1
