# generated using pymatgen
data_Mg2Cr2(SiO4)3
_symmetry_space_group_name_H-M   'P 1'
_cell_length_a   10.12495910
_cell_length_b   10.12495924
_cell_length_c   10.12495935
_cell_angle_alpha   109.49628285
_cell_angle_beta   109.49628308
_cell_angle_gamma   109.42110759
_symmetry_Int_Tables_number   1
_chemical_formula_structural   Mg2Cr2(SiO4)3
_chemical_formula_sum   'Mg8 Cr8 Si12 O48'
_cell_volume   799.02010874
_cell_formula_units_Z   4
loop_
 _symmetry_equiv_pos_site_id
 _symmetry_equiv_pos_as_xyz
  1  'x, y, z'
loop_
 _atom_site_type_symbol
 _atom_site_label
 _atom_site_symmetry_multiplicity
 _atom_site_fract_x
 _atom_site_fract_y
 _atom_site_fract_z
 _atom_site_occupancy
  Mg  Mg0  1  0.25000000  0.37181358  0.12181358  1
  Mg  Mg1  1  0.37181358  0.75000000  0.12181358  1
  Mg  Mg2  1  0.12818642  0.25000000  0.37818642  1
  Mg  Mg3  1  0.75000000  0.12818642  0.37818642  1
  Mg  Mg4  1  0.75000000  0.62818642  0.87818642  1
  Mg  Mg5  1  0.62818642  0.25000000  0.87818642  1
  Mg  Mg6  1  0.87181358  0.75000000  0.62181358  1
  Mg  Mg7  1  0.25000000  0.87181358  0.62181358  1
  Cr  Cr8  1  0.50000000  0.50000000  0.50000000  1
  Cr  Cr9  1  0.50000000  0.50000000  0.00000000  1
  Cr  Cr10  1  0.50000000  0.00000000  0.50000000  1
  Cr  Cr11  1  0.50000000  0.00000000  0.00000000  1
  Cr  Cr12  1  0.00000000  0.00000000  0.50000000  1
  Cr  Cr13  1  0.00000000  0.50000000  0.00000000  1
  Cr  Cr14  1  0.00000000  0.00000000  0.00000000  1
  Cr  Cr15  1  0.00000000  0.50000000  0.50000000  1
  Si  Si16  1  0.75000000  0.87508135  0.12508135  1
  Si  Si17  1  0.37508135  0.25000000  0.62508135  1
  Si  Si18  1  0.62500000  0.37500000  0.25000000  1
  Si  Si19  1  0.12491865  0.75000000  0.87491865  1
  Si  Si20  1  0.12500000  0.87500000  0.25000000  1
  Si  Si21  1  0.87500000  0.12500000  0.75000000  1
  Si  Si22  1  0.75000000  0.37508135  0.62508135  1
  Si  Si23  1  0.37500000  0.62500000  0.75000000  1
  Si  Si24  1  0.25000000  0.62491865  0.37491865  1
  Si  Si25  1  0.62491865  0.75000000  0.37491865  1
  Si  Si26  1  0.87508135  0.25000000  0.12508135  1
  Si  Si27  1  0.25000000  0.12491865  0.87491865  1
  O  O28  1  0.69962056  0.68691674  0.07795229  1
  O  O29  1  0.68691674  0.10896445  0.98729618  1
  O  O30  1  0.62166927  0.69962056  0.51270382  1
  O  O31  1  0.51295321  0.60832878  0.70343518  1
  O  O32  1  0.09510740  0.89167122  0.40462543  1
  O  O33  1  0.39518994  0.08390086  0.87574513  1
  O  O34  1  0.10481006  0.98055620  0.68871093  1
  O  O35  1  0.60832878  0.40489260  0.09537457  1
  O  O36  1  0.51944380  0.39518994  0.81128907  1
  O  O37  1  0.89167122  0.98704679  0.79656482  1
  O  O38  1  0.41609914  0.10481006  0.62425487  1
  O  O39  1  0.80951803  0.51295321  0.40462543  1
  O  O40  1  0.98055620  0.79184527  0.87574513  1
  O  O41  1  0.08390086  0.70815473  0.68871093  1
  O  O42  1  0.69048197  0.09510740  0.70343518  1
  O  O43  1  0.10896445  0.62166927  0.42204771  1
  O  O44  1  0.81308326  0.80037944  0.42204771  1
  O  O45  1  0.39103555  0.81308326  0.51270382  1
  O  O46  1  0.40489260  0.80951803  0.79656482  1
  O  O47  1  0.80037944  0.87833073  0.98729618  1
  O  O48  1  0.79184527  0.41609914  0.81128907  1
  O  O49  1  0.87833073  0.39103555  0.07795229  1
  O  O50  1  0.98704679  0.69048197  0.09537457  1
  O  O51  1  0.70815473  0.51944380  0.62425487  1
  O  O52  1  0.30037944  0.31308326  0.92204771  1
  O  O53  1  0.31308326  0.89103555  0.01270382  1
  O  O54  1  0.37833073  0.30037944  0.48729618  1
  O  O55  1  0.48704679  0.39167122  0.29656482  1
  O  O56  1  0.90489260  0.10832878  0.59537457  1
  O  O57  1  0.60481006  0.91609914  0.12425487  1
  O  O58  1  0.89518994  0.01944380  0.31128907  1
  O  O59  1  0.39167122  0.59510740  0.90462543  1
  O  O60  1  0.48055620  0.60481006  0.18871093  1
  O  O61  1  0.10832878  0.01295321  0.20343518  1
  O  O62  1  0.58390086  0.89518994  0.37574513  1
  O  O63  1  0.19048197  0.48704679  0.59537457  1
  O  O64  1  0.01944380  0.20815473  0.12425487  1
  O  O65  1  0.91609914  0.29184527  0.31128907  1
  O  O66  1  0.30951803  0.90489260  0.29656482  1
  O  O67  1  0.89103555  0.37833073  0.57795229  1
  O  O68  1  0.18691674  0.19962056  0.57795229  1
  O  O69  1  0.60896445  0.18691674  0.48729618  1
  O  O70  1  0.59510740  0.19048197  0.20343518  1
  O  O71  1  0.19962056  0.12166927  0.01270382  1
  O  O72  1  0.20815473  0.58390086  0.18871093  1
  O  O73  1  0.12166927  0.60896445  0.92204771  1
  O  O74  1  0.01295321  0.30951803  0.90462543  1
  O  O75  1  0.29184527  0.48055620  0.37574513  1
