# generated using pymatgen
data_Ta2O5
_symmetry_space_group_name_H-M   'P 1'
_cell_length_a   3.87538332
_cell_length_b   6.22736416
_cell_length_c   7.42487403
_cell_angle_alpha   89.99897852
_cell_angle_beta   90.00000000
_cell_angle_gamma   90.00000000
_symmetry_Int_Tables_number   1
_chemical_formula_structural   Ta2O5
_chemical_formula_sum   'Ta4 O10'
_cell_volume   179.18762711
_cell_formula_units_Z   2
loop_
 _symmetry_equiv_pos_site_id
 _symmetry_equiv_pos_as_xyz
  1  'x, y, z'
loop_
 _atom_site_type_symbol
 _atom_site_label
 _atom_site_symmetry_multiplicity
 _atom_site_fract_x
 _atom_site_fract_y
 _atom_site_fract_z
 _atom_site_occupancy
  Ta  Ta0  1  -0.00000000  0.00223227  0.99971687  1
  Ta  Ta1  1  -0.00000000  0.00275862  0.49931975  1
  Ta  Ta2  1  0.00000000  0.53418861  0.74967230  1
  Ta  Ta3  1  -0.00000000  0.47080185  0.24968690  1
  O  O4  1  0.50000000  0.00857415  0.99884522  1
  O  O5  1  0.50000000  0.00888299  0.50091100  1
  O  O6  1  0.50000000  0.56988977  0.74951211  1
  O  O7  1  0.50000000  0.44135186  0.24948523  1
  O  O8  1  0.00000000  0.31876494  0.93650633  1
  O  O9  1  -0.00000000  0.88046101  0.74956312  1
  O  O10  1  -0.00000000  0.69515540  0.43170363  1
  O  O11  1  -0.00000000  0.32025267  0.56131138  1
  O  O12  1  0.00000000  0.12795705  0.24955898  1
  O  O13  1  0.00000000  0.69372881  0.06620717  1
