# generated using pymatgen
data_Ca2Ni10H
_symmetry_space_group_name_H-M   'P 1'
_cell_length_a   4.92988588
_cell_length_b   4.94867837
_cell_length_c   7.87086831
_cell_angle_alpha   90.00318098
_cell_angle_beta   89.98768522
_cell_angle_gamma   120.06248279
_symmetry_Int_Tables_number   1
_chemical_formula_structural   Ca2Ni10H
_chemical_formula_sum   'Ca2 Ni10 H1'
_cell_volume   166.19026384
_cell_formula_units_Z   1
loop_
 _symmetry_equiv_pos_site_id
 _symmetry_equiv_pos_as_xyz
  1  'x, y, z'
loop_
 _atom_site_type_symbol
 _atom_site_label
 _atom_site_symmetry_multiplicity
 _atom_site_fract_x
 _atom_site_fract_y
 _atom_site_fract_z
 _atom_site_occupancy
  Ca  Ca0  1  0.00154494  0.00079285  0.00858987  1
  Ca  Ca1  1  0.00144392  0.00075797  0.49087171  1
  Ni  Ni2  1  0.32897579  0.66442162  0.00072015  1
  Ni  Ni3  1  0.66903832  0.33463534  0.00089320  1
  Ni  Ni4  1  0.00410528  0.50216334  0.74949589  1
  Ni  Ni5  1  0.50050202  0.00470860  0.74949406  1
  Ni  Ni6  1  0.50017787  0.49544925  0.74950625  1
  Ni  Ni7  1  0.32886903  0.66438225  0.49817891  1
  Ni  Ni8  1  0.66901362  0.33458907  0.49801032  1
  Ni  Ni9  1  0.00079293  0.50042104  0.24941950  1
  Ni  Ni10  1  0.50105129  0.00023796  0.24942029  1
  Ni  Ni11  1  0.50105540  0.50084583  0.24943022  1
  H  H12  1  0.72142958  0.86049488  0.74996964  1
