# generated using pymatgen
data_Li2UN2
_symmetry_space_group_name_H-M   'P 1'
_cell_length_a   5.53854318
_cell_length_b   6.04266564
_cell_length_c   6.04278348
_cell_angle_alpha   120.00019731
_cell_angle_beta   89.99917720
_cell_angle_gamma   90.00038777
_symmetry_Int_Tables_number   1
_chemical_formula_structural   Li2UN2
_chemical_formula_sum   'Li6 U3 N6'
_cell_volume   175.14224472
_cell_formula_units_Z   3
loop_
 _symmetry_equiv_pos_site_id
 _symmetry_equiv_pos_as_xyz
  1  'x, y, z'
loop_
 _atom_site_type_symbol
 _atom_site_label
 _atom_site_symmetry_multiplicity
 _atom_site_fract_x
 _atom_site_fract_y
 _atom_site_fract_z
 _atom_site_occupancy
  Li  Li0  1  0.60600560  0.67393746  0.01570396  1
  Li  Li1  1  0.60599390  0.98428011  0.65824270  1
  Li  Li2  1  0.60600373  0.34178395  0.32605881  1
  Li  Li3  1  0.39399440  0.32606254  0.98429604  1
  Li  Li4  1  0.39400610  0.01571989  0.34175730  1
  Li  Li5  1  0.39399627  0.65821605  0.67394119  1
  U  U6  1  -0.00000000  0.00000000  -0.00000000  1
  U  U7  1  0.99295063  0.33334110  0.66665992  1
  U  U8  1  0.00704937  0.66665890  0.33334008  1
  N  N9  1  0.22513756  0.66631106  -0.00013885  1
  N  N10  1  0.22514815  0.00011896  0.66641981  1
  N  N11  1  0.22514380  0.33357831  0.33364904  1
  N  N12  1  0.77486244  0.33368894  0.00013885  1
  N  N13  1  0.77485185  -0.00011896  0.33358019  1
  N  N14  1  0.77485620  0.66642169  0.66635096  1
