# generated using pymatgen
data_PrAl4
_symmetry_space_group_name_H-M   'P 1'
_cell_length_a   4.31693188
_cell_length_b   8.82187424
_cell_length_c   8.82187424
_cell_angle_alpha   80.15120663
_cell_angle_beta   75.83754995
_cell_angle_gamma   75.83754995
_symmetry_Int_Tables_number   1
_chemical_formula_structural   PrAl4
_chemical_formula_sum   'Pr3 Al12'
_cell_volume   313.63815033
_cell_formula_units_Z   3
loop_
 _symmetry_equiv_pos_site_id
 _symmetry_equiv_pos_as_xyz
  1  'x, y, z'
loop_
 _atom_site_type_symbol
 _atom_site_label
 _atom_site_symmetry_multiplicity
 _atom_site_fract_x
 _atom_site_fract_y
 _atom_site_fract_z
 _atom_site_occupancy
  Pr  Pr0  1  0.00000000  0.99603722  0.00396278  1
  Pr  Pr1  1  0.33344301  0.66755528  0.66555870  1
  Pr  Pr2  1  0.66655699  0.33444130  0.33244472  1
  Al  Al3  1  0.00000000  0.39001247  0.60998753  1
  Al  Al4  1  0.00000000  0.61405768  0.38594232  1
  Al  Al5  1  0.50000000  0.74999344  0.25000656  1
  Al  Al6  1  0.50000000  0.25234251  0.74765749  1
  Al  Al7  1  0.83630666  0.41096274  0.91642395  1
  Al  Al8  1  0.16369334  0.08357605  0.58903726  1
  Al  Al9  1  0.66878991  0.71712719  0.94529299  1
  Al  Al10  1  0.33121009  0.05470701  0.28287281  1
  Al  Al11  1  0.66448307  0.94554652  0.72548733  1
  Al  Al12  1  0.33551693  0.27451267  0.05445348  1
  Al  Al13  1  0.83038856  0.91917540  0.42004748  1
  Al  Al14  1  0.16961144  0.57995252  0.08082460  1
