# generated using pymatgen
data_Ca2TiN2
_symmetry_space_group_name_H-M   'P 1'
_cell_length_a   5.09471397
_cell_length_b   6.00565299
_cell_length_c   7.13413521
_cell_angle_alpha   61.34753500
_cell_angle_beta   69.07988656
_cell_angle_gamma   64.90250627
_symmetry_Int_Tables_number   1
_chemical_formula_structural   Ca2TiN2
_chemical_formula_sum   'Ca4 Ti2 N4'
_cell_volume   170.19391928
_cell_formula_units_Z   2
loop_
 _symmetry_equiv_pos_site_id
 _symmetry_equiv_pos_as_xyz
  1  'x, y, z'
loop_
 _atom_site_type_symbol
 _atom_site_label
 _atom_site_symmetry_multiplicity
 _atom_site_fract_x
 _atom_site_fract_y
 _atom_site_fract_z
 _atom_site_occupancy
  Ca  Ca0  1  0.67483798  0.25010595  0.40021909  1
  Ca  Ca1  1  0.32516202  0.74989405  0.59978091  1
  Ca  Ca2  1  0.01841552  0.71497389  0.24819407  1
  Ca  Ca3  1  0.98158448  0.28502611  0.75180593  1
  Ti  Ti4  1  0.35755656  0.16746012  0.11742777  1
  Ti  Ti5  1  0.64244344  0.83253988  0.88257223  1
  N  N6  1  0.19019887  0.24432334  0.37527992  1
  N  N7  1  0.80980113  0.75567666  0.62472008  1
  N  N8  1  0.49834457  0.21472980  0.78858107  1
  N  N9  1  0.50165543  0.78527020  0.21141893  1
