# generated using pymatgen
data_CoBi3
_symmetry_space_group_name_H-M   'P 1'
_cell_length_a   4.14651927
_cell_length_b   9.18090859
_cell_length_c   11.28897777
_cell_angle_alpha   90.00000000
_cell_angle_beta   90.00000000
_cell_angle_gamma   90.00000000
_symmetry_Int_Tables_number   1
_chemical_formula_structural   CoBi3
_chemical_formula_sum   'Co4 Bi12'
_cell_volume   429.75799932
_cell_formula_units_Z   4
loop_
 _symmetry_equiv_pos_site_id
 _symmetry_equiv_pos_as_xyz
  1  'x, y, z'
loop_
 _atom_site_type_symbol
 _atom_site_label
 _atom_site_symmetry_multiplicity
 _atom_site_fract_x
 _atom_site_fract_y
 _atom_site_fract_z
 _atom_site_occupancy
  Co  Co0  1  0.75000000  0.41207666  0.02167189  1
  Co  Co1  1  0.75000000  0.91207666  0.47832811  1
  Co  Co2  1  0.25000000  0.58792334  0.97832811  1
  Co  Co3  1  0.25000000  0.08792334  0.52167189  1
  Bi  Bi4  1  0.75000000  0.08996781  0.67695931  1
  Bi  Bi5  1  0.75000000  0.58996781  0.82304069  1
  Bi  Bi6  1  0.25000000  0.91003219  0.32304069  1
  Bi  Bi7  1  0.25000000  0.41003219  0.17695931  1
  Bi  Bi8  1  0.75000000  0.19573255  0.39482318  1
  Bi  Bi9  1  0.75000000  0.69573255  0.10517682  1
  Bi  Bi10  1  0.25000000  0.80426745  0.60517682  1
  Bi  Bi11  1  0.25000000  0.30426745  0.89482318  1
  Bi  Bi12  1  0.75000000  0.12183417  0.08777312  1
  Bi  Bi13  1  0.75000000  0.62183417  0.41222688  1
  Bi  Bi14  1  0.25000000  0.87816583  0.91222688  1
  Bi  Bi15  1  0.25000000  0.37816583  0.58777312  1
