# generated using pymatgen
data_RbAuBr3
_symmetry_space_group_name_H-M   'P 1'
_cell_length_a   7.68906502
_cell_length_b   7.68906536
_cell_length_c   7.68906534
_cell_angle_alpha   59.99999892
_cell_angle_beta   59.99999838
_cell_angle_gamma   59.99999847
_symmetry_Int_Tables_number   1
_chemical_formula_structural   RbAuBr3
_chemical_formula_sum   'Rb2 Au2 Br6'
_cell_volume   321.44422366
_cell_formula_units_Z   2
loop_
 _symmetry_equiv_pos_site_id
 _symmetry_equiv_pos_as_xyz
  1  'x, y, z'
loop_
 _atom_site_type_symbol
 _atom_site_label
 _atom_site_symmetry_multiplicity
 _atom_site_fract_x
 _atom_site_fract_y
 _atom_site_fract_z
 _atom_site_occupancy
  Rb  Rb0  1  0.25000000  0.25000000  0.25000000  1
  Rb  Rb1  1  0.75000000  0.75000000  0.75000000  1
  Au  Au2  1  0.50000000  0.50000000  0.50000000  1
  Au  Au3  1  0.00000000  0.00000000  -0.00000000  1
  Br  Br4  1  0.24998267  0.75001733  0.24998267  1
  Br  Br5  1  0.75001733  0.75001733  0.24998267  1
  Br  Br6  1  0.75001733  0.24998267  0.75001733  1
  Br  Br7  1  0.75001733  0.24998267  0.24998267  1
  Br  Br8  1  0.24998267  0.75001733  0.75001733  1
  Br  Br9  1  0.24998267  0.24998267  0.75001733  1
