# generated using pymatgen
data_ZnSnF5
_symmetry_space_group_name_H-M   'P 1'
_cell_length_a   5.64710880
_cell_length_b   5.64710830
_cell_length_c   8.16414091
_cell_angle_alpha   102.33305155
_cell_angle_beta   108.22265812
_cell_angle_gamma   103.83405782
_symmetry_Int_Tables_number   1
_chemical_formula_structural   ZnSnF5
_chemical_formula_sum   'Zn2 Sn2 F10'
_cell_volume   228.08387169
_cell_formula_units_Z   2
loop_
 _symmetry_equiv_pos_site_id
 _symmetry_equiv_pos_as_xyz
  1  'x, y, z'
loop_
 _atom_site_type_symbol
 _atom_site_label
 _atom_site_symmetry_multiplicity
 _atom_site_fract_x
 _atom_site_fract_y
 _atom_site_fract_z
 _atom_site_occupancy
  Zn  Zn0  1  0.22096438  0.47096438  0.75000000  1
  Zn  Zn1  1  0.77903562  0.52903562  0.25000000  1
  Sn  Sn2  1  0.00000000  0.00000000  0.00000000  1
  Sn  Sn3  1  0.50000000  0.00000000  0.50000000  1
  F  F4  1  0.32450235  0.07450235  0.25000000  1
  F  F5  1  0.67549765  0.92549765  0.75000000  1
  F  F6  1  0.56064550  0.66895659  0.35339294  1
  F  F7  1  0.81556265  0.20725256  0.14660706  1
  F  F8  1  0.78029449  0.67246509  0.04753259  1
  F  F9  1  0.12493250  0.73276190  0.45246741  1
  F  F10  1  0.21970551  0.32753491  0.95246741  1
  F  F11  1  0.87506750  0.26723810  0.54753259  1
  F  F12  1  0.18443735  0.79274744  0.85339294  1
  F  F13  1  0.43935450  0.33104341  0.64660706  1
