# generated using pymatgen
data_Sr2CuCO5
_symmetry_space_group_name_H-M   'P 1'
_cell_length_a   5.55671810
_cell_length_b   8.63180900
_cell_length_c   5.55671810
_cell_angle_alpha   71.22368263
_cell_angle_beta   90.00000000
_cell_angle_gamma   108.77631737
_symmetry_Int_Tables_number   1
_chemical_formula_structural   Sr2CuCO5
_chemical_formula_sum   'Sr4 Cu2 C2 O10'
_cell_volume   237.31143500
_cell_formula_units_Z   2
loop_
 _symmetry_equiv_pos_site_id
 _symmetry_equiv_pos_as_xyz
  1  'x, y, z'
loop_
 _atom_site_type_symbol
 _atom_site_label
 _atom_site_symmetry_multiplicity
 _atom_site_fract_x
 _atom_site_fract_y
 _atom_site_fract_z
 _atom_site_occupancy
  Sr  Sr0  1  0.11267821  0.22535643  0.38732179  1
  Sr  Sr1  1  0.38732179  0.77464357  0.11267821  1
  Sr  Sr2  1  0.61267821  0.22535643  0.88732179  1
  Sr  Sr3  1  0.88732179  0.77464357  0.61267821  1
  Cu  Cu4  1  0.00000000  0.00000000  0.00000000  1
  Cu  Cu5  1  0.50000000  0.00000000  0.50000000  1
  C  C6  1  0.75445519  0.50890937  0.24554481  1
  C  C7  1  0.24554481  0.49109063  0.75445519  1
  O  O8  1  0.75232692  0.00860075  0.24767308  1
  O  O9  1  0.24767308  0.99139925  0.25627283  1
  O  O10  1  0.56933753  0.42592053  0.14341700  1
  O  O11  1  0.83895913  0.67791826  0.16104087  1
  O  O12  1  0.85658300  0.42592053  0.43066247  1
  O  O13  1  0.25627283  0.00860075  0.74372717  1
  O  O14  1  0.74372717  0.99139925  0.75232692  1
  O  O15  1  0.43066247  0.57407947  0.56933753  1
  O  O16  1  0.16104087  0.32208174  0.83895913  1
  O  O17  1  0.14341700  0.57407947  0.85658300  1
