# generated using pymatgen
data_Nb15IrS32
_symmetry_space_group_name_H-M   'P 1'
_cell_length_a   13.50455811
_cell_length_b   8.95229841
_cell_length_c   14.38739675
_cell_angle_alpha   69.25926063
_cell_angle_beta   62.00989776
_cell_angle_gamma   41.04003836
_symmetry_Int_Tables_number   1
_chemical_formula_structural   Nb15IrS32
_chemical_formula_sum   'Nb15 Ir1 S32'
_cell_volume   1008.47174087
_cell_formula_units_Z   1
loop_
 _symmetry_equiv_pos_site_id
 _symmetry_equiv_pos_as_xyz
  1  'x, y, z'
loop_
 _atom_site_type_symbol
 _atom_site_label
 _atom_site_symmetry_multiplicity
 _atom_site_fract_x
 _atom_site_fract_y
 _atom_site_fract_z
 _atom_site_occupancy
  Nb  Nb0  1  0.00656217  1.00000000  1.00000000  1
  Nb  Nb1  1  0.24343783  0.00000000  0.00000000  1
  Nb  Nb2  1  0.98093630  0.02785158  0.50226832  1
  Nb  Nb3  1  0.12500000  0.50000000  -0.00000000  1
  Nb  Nb4  1  0.26906370  0.97214842  0.49773168  1
  Nb  Nb5  1  0.49059974  1.00000000  0.00000000  1
  Nb  Nb6  1  0.37778484  0.49446702  -0.00003671  1
  Nb  Nb7  1  0.75940026  0.00000000  -0.00000000  1
  Nb  Nb8  1  0.51105620  0.97214842  0.49773168  1
  Nb  Nb9  1  0.62500000  0.50000000  -0.00000000  1
  Nb  Nb10  1  0.35067422  0.50000000  0.50000000  1
  Nb  Nb11  1  0.73894380  0.02785158  0.50226832  1
  Nb  Nb12  1  0.62500000  0.50000000  0.50000000  1
  Nb  Nb13  1  0.87221516  0.50553298  0.00003671  1
  Nb  Nb14  1  0.89932578  0.50000000  0.50000000  1
  Ir  Ir15  1  0.12500000  0.50000000  0.50000000  1
  S  S16  1  0.02213086  0.33372735  0.12144572  1
  S  S17  1  0.10064296  0.16988669  0.38091988  1
  S  S18  1  0.27268822  0.33188567  0.12211737  1
  S  S19  1  0.03076556  0.33230739  0.62291245  1
  S  S20  1  0.10351189  0.16783716  0.87514007  1
  S  S21  1  0.14648811  0.83216284  0.12485993  1
  S  S22  1  0.34758834  0.17128741  0.38353691  1
  S  S23  1  0.21923444  0.66769261  0.37708755  1
  S  S24  1  0.52330775  0.33188567  0.12211737  1
  S  S25  1  0.26401359  0.33230739  0.62291245  1
  S  S26  1  0.59855147  0.16988669  0.38091988  1
  S  S27  1  0.35033102  0.16810603  0.87708381  1
  S  S28  1  0.39551986  0.83189397  0.12291619  1
  S  S29  1  0.14935704  0.83011331  0.61908012  1
  S  S30  1  0.77269507  0.33372735  0.12144572  1
  S  S31  1  0.22786914  0.66627265  0.87855428  1
  S  S32  1  0.51421440  0.34105932  0.62130130  1
  S  S33  1  0.47657602  0.65894068  0.37869870  1
  S  S34  1  0.64883759  0.83448969  0.11783412  1
  S  S35  1  0.85371589  0.16880022  0.37376899  1
  S  S36  1  0.60116241  0.16551031  0.88216588  1
  S  S37  1  0.39628411  0.83119978  0.62623101  1
  S  S38  1  0.77342398  0.34105932  0.62130130  1
  S  S39  1  0.73578560  0.65894068  0.37869870  1
  S  S40  1  0.47730493  0.66627265  0.87855428  1
  S  S41  1  0.85448014  0.16810603  0.87708381  1
  S  S42  1  0.89966898  0.83189397  0.12291619  1
  S  S43  1  0.65144853  0.83011331  0.61908012  1
  S  S44  1  0.98598641  0.66769261  0.37708755  1
  S  S45  1  0.72669225  0.66811433  0.87788263  1
  S  S46  1  0.90241166  0.82871259  0.61646309  1
  S  S47  1  0.97731178  0.66811433  0.87788263  1
