# generated using pymatgen
data_Ca2Ta2CuO8
_symmetry_space_group_name_H-M   'P 1'
_cell_length_a   5.40318611
_cell_length_b   6.71245392
_cell_length_c   9.99932854
_cell_angle_alpha   108.72863231
_cell_angle_beta   92.84601597
_cell_angle_gamma   90.62877967
_symmetry_Int_Tables_number   1
_chemical_formula_structural   Ca2Ta2CuO8
_chemical_formula_sum   'Ca4 Ta4 Cu2 O16'
_cell_volume   342.89650100
_cell_formula_units_Z   2
loop_
 _symmetry_equiv_pos_site_id
 _symmetry_equiv_pos_as_xyz
  1  'x, y, z'
loop_
 _atom_site_type_symbol
 _atom_site_label
 _atom_site_symmetry_multiplicity
 _atom_site_fract_x
 _atom_site_fract_y
 _atom_site_fract_z
 _atom_site_occupancy
  Ca  Ca0  1  0.75616102  0.45781971  0.58598319  1
  Ca  Ca1  1  0.74397336  0.87215815  0.41648913  1
  Ca  Ca2  1  0.24419958  0.54278516  0.41396175  1
  Ca  Ca3  1  0.25680248  0.12879945  0.58371956  1
  Ta  Ta4  1  0.73351728  0.26116332  0.23013896  1
  Ta  Ta5  1  0.76737946  0.02353169  0.76941531  1
  Ta  Ta6  1  0.26682392  0.73959321  0.76977957  1
  Ta  Ta7  1  0.23287015  0.97707470  0.23070717  1
  Cu  Cu8  1  0.74901177  0.69698850  0.99964855  1
  Cu  Cu9  1  0.25134340  0.30309188  0.00024593  1
  O  O10  1  0.06548417  0.19828234  0.14625165  1
  O  O11  1  0.44004929  0.03786887  0.85523219  1
  O  O12  1  0.93511979  0.80240193  0.85393199  1
  O  O13  1  0.56017922  0.96285978  0.14474839  1
  O  O14  1  0.54395990  0.38564553  0.11777155  1
  O  O15  1  0.96351429  0.25488339  0.87955293  1
  O  O16  1  0.45629883  0.61495698  0.88203924  1
  O  O17  1  0.03669773  0.74560000  0.12068598  1
  O  O18  1  0.47618024  0.25086623  0.36973363  1
  O  O19  1  0.02432219  0.87782791  0.63143579  1
  O  O20  1  0.33158141  0.84762082  0.37132365  1
  O  O21  1  0.16751195  0.47294118  0.62899233  1
  O  O22  1  0.66892238  0.15329206  0.62882912  1
  O  O23  1  0.83266776  0.52798777  0.37097717  1
  O  O24  1  0.97568447  0.12284562  0.36869613  1
  O  O25  1  0.52416293  0.74993882  0.63034316  1
