# generated using pymatgen
data_Ta18Ti15Se52
_symmetry_space_group_name_H-M   'P 1'
_cell_length_a   3.49709740
_cell_length_b   6.28733107
_cell_length_c   93.86876890
_cell_angle_alpha   114.47209666
_cell_angle_beta   104.01401935
_cell_angle_gamma   90.12567558
_symmetry_Int_Tables_number   1
_chemical_formula_structural   Ta18Ti15Se52
_chemical_formula_sum   'Ta18 Ti15 Se52'
_cell_volume   1810.28153616
_cell_formula_units_Z   1
loop_
 _symmetry_equiv_pos_site_id
 _symmetry_equiv_pos_as_xyz
  1  'x, y, z'
loop_
 _atom_site_type_symbol
 _atom_site_label
 _atom_site_symmetry_multiplicity
 _atom_site_fract_x
 _atom_site_fract_y
 _atom_site_fract_z
 _atom_site_occupancy
  Ta  Ta0  1  0.24704340  0.30089416  0.96178418  1
  Ta  Ta1  1  0.25462469  0.32022332  0.88529566  1
  Ta  Ta2  1  0.74214246  0.69137677  0.96087505  1
  Ta  Ta3  1  0.74270911  0.67858760  0.88360421  1
  Ta  Ta4  1  0.74620487  0.69440915  0.80697411  1
  Ta  Ta5  1  0.74602677  0.69419707  0.73016290  1
  Ta  Ta6  1  0.74634107  0.69431690  0.65325669  1
  Ta  Ta7  1  0.74648766  0.69465122  0.57637368  1
  Ta  Ta8  1  0.74705533  0.69440171  0.49949392  1
  Ta  Ta9  1  0.75375426  0.72217748  0.42320739  1
  Ta  Ta10  1  0.24412850  0.25473299  0.26927955  1
  Ta  Ta11  1  0.74038431  0.75357071  0.34617953  1
  Ta  Ta12  1  0.25478421  0.24910731  0.19226653  1
  Ta  Ta13  1  0.73639943  0.75327549  0.26938625  1
  Ta  Ta14  1  0.26030900  0.24455830  0.11531042  1
  Ta  Ta15  1  0.75073104  0.75010326  0.19235248  1
  Ta  Ta16  1  0.75906157  0.74697220  0.11532859  1
  Ta  Ta17  1  0.73746046  0.75208286  0.03814146  1
  Ti  Ti18  1  0.00054551  0.99563188  0.76927609  1
  Ti  Ti19  1  0.25335709  0.31141238  0.80818718  1
  Ti  Ti20  1  0.00024800  0.99494699  0.69232907  1
  Ti  Ti21  1  0.25291896  0.31071515  0.73129798  1
  Ti  Ti22  1  0.99654868  0.00202311  0.92285365  1
  Ti  Ti23  1  0.25312391  0.31089094  0.65438136  1
  Ti  Ti24  1  0.99945216  0.99374992  0.53838310  1
  Ti  Ti25  1  0.99918170  0.99573035  0.84598334  1
  Ti  Ti26  1  0.25307761  0.31107848  0.57749694  1
  Ti  Ti27  1  0.25347384  0.31077007  0.50059822  1
  Ti  Ti28  1  0.25750550  0.28615713  0.42346785  1
  Ti  Ti29  1  0.00006284  0.99490124  0.61538679  1
  Ti  Ti30  1  0.26356743  0.25545009  0.34651297  1
  Ti  Ti31  1  0.00260273  0.98638449  0.46160850  1
  Ti  Ti32  1  0.26172100  0.25518641  0.03868889  1
  Se  Se33  1  0.10057747  0.44846545  0.93910377  1
  Se  Se34  1  0.35022410  0.02011124  0.97747572  1
  Se  Se35  1  0.10013035  0.44950667  0.86167606  1
  Se  Se36  1  0.35821485  0.02145415  0.90132009  1
  Se  Se37  1  0.10731473  0.44711585  0.78557347  1
  Se  Se38  1  0.62720879  0.96935934  0.94327089  1
  Se  Se39  1  0.36338845  0.02756207  0.82495726  1
  Se  Se40  1  0.88696190  0.55161542  0.98337753  1
  Se  Se41  1  0.10651643  0.44664638  0.70872086  1
  Se  Se42  1  0.63758601  0.97595183  0.86738040  1
  Se  Se43  1  0.36393653  0.02753385  0.74815713  1
  Se  Se44  1  0.89701299  0.54846877  0.90718619  1
  Se  Se45  1  0.10681733  0.44678098  0.63181035  1
  Se  Se46  1  0.63834612  0.97799209  0.79050368  1
  Se  Se47  1  0.36406535  0.02749374  0.67124527  1
  Se  Se48  1  0.89083703  0.54903017  0.82937111  1
  Se  Se49  1  0.10710469  0.44702809  0.55493256  1
  Se  Se50  1  0.63783925  0.97718755  0.71357754  1
  Se  Se51  1  0.36407138  0.02807291  0.59434831  1
  Se  Se52  1  0.89071382  0.54811309  0.75253605  1
  Se  Se53  1  0.10748134  0.44625887  0.47801516  1
  Se  Se54  1  0.63784832  0.97715851  0.63664200  1
  Se  Se55  1  0.36451455  0.02821785  0.51746941  1
  Se  Se56  1  0.89089495  0.54810065  0.67561376  1
  Se  Se57  1  0.12138959  0.45698944  0.40289501  1
  Se  Se58  1  0.63765941  0.97748776  0.55974169  1
  Se  Se59  1  0.37926584  0.04330068  0.44247676  1
  Se  Se60  1  0.89074818  0.54836550  0.59871035  1
  Se  Se61  1  0.12880055  0.45318218  0.32691504  1
  Se  Se62  1  0.63978843  0.97488636  0.48296667  1
  Se  Se63  1  0.38278424  0.04404363  0.36574008  1
  Se  Se64  1  0.89119943  0.54781202  0.52183399  1
  Se  Se65  1  0.12290422  0.45471456  0.24962635  1
  Se  Se66  1  0.64565509  0.97870410  0.40650139  1
  Se  Se67  1  0.37873170  0.04318294  0.28895920  1
  Se  Se68  1  0.89241560  0.54391271  0.44422846  1
  Se  Se69  1  0.11835918  0.45599828  0.17272172  1
  Se  Se70  1  0.62096626  0.96248941  0.32723728  1
  Se  Se71  1  0.37375518  0.04522969  0.21192051  1
  Se  Se72  1  0.87215335  0.53909830  0.36545026  1
  Se  Se73  1  0.11594092  0.45705811  0.09569257  1
  Se  Se74  1  0.63262071  0.95419369  0.24976031  1
  Se  Se75  1  0.37108750  0.04668627  0.13503889  1
  Se  Se76  1  0.88946704  0.54314346  0.28906114  1
  Se  Se77  1  0.12770194  0.44954159  0.01899462  1
  Se  Se78  1  0.62320976  0.95514648  0.17269155  1
  Se  Se79  1  0.38147695  0.04102204  0.05779457  1
  Se  Se80  1  0.87880461  0.54439166  0.21187770  1
  Se  Se81  1  0.61789125  0.95648698  0.09557658  1
  Se  Se82  1  0.87321948  0.54573477  0.13488300  1
  Se  Se83  1  0.61892548  0.96106596  0.01936270  1
  Se  Se84  1  0.87043626  0.53623883  0.05750750  1
