# generated using pymatgen
data_Li4Mn3O7
_symmetry_space_group_name_H-M   'P 1'
_cell_length_a   3.00385844
_cell_length_b   6.06478763
_cell_length_c   14.50089768
_cell_angle_alpha   83.41520136
_cell_angle_beta   95.46861091
_cell_angle_gamma   94.40516960
_symmetry_Int_Tables_number   1
_chemical_formula_structural   Li4Mn3O7
_chemical_formula_sum   'Li8 Mn6 O14'
_cell_volume   260.65640798
_cell_formula_units_Z   2
loop_
 _symmetry_equiv_pos_site_id
 _symmetry_equiv_pos_as_xyz
  1  'x, y, z'
loop_
 _atom_site_type_symbol
 _atom_site_label
 _atom_site_symmetry_multiplicity
 _atom_site_fract_x
 _atom_site_fract_y
 _atom_site_fract_z
 _atom_site_occupancy
  Li  Li0  1  0.00914887  0.50474358  0.01152468  1
  Li  Li1  1  0.57142900  0.21428600  0.14285700  1
  Li  Li2  1  0.13370813  0.92382742  0.27418932  1
  Li  Li3  1  0.42522666  0.78929654  0.85802251  1
  Li  Li4  1  0.85796217  0.07115596  0.71423312  1
  Li  Li5  1  0.28489483  0.35741604  0.57148188  1
  Li  Li6  1  0.71763034  0.63927446  0.42769149  1
  Li  Li7  1  0.57142900  0.71428600  0.14285700  1
  Mn  Mn8  1  0.00882725  0.99025927  0.00676690  1
  Mn  Mn9  1  0.13402975  0.43831173  0.27894710  1
  Mn  Mn10  1  0.70379425  0.14887088  0.42741655  1
  Mn  Mn11  1  0.28447341  0.85774840  0.57032285  1
  Mn  Mn12  1  0.85838359  0.57082360  0.71539215  1
  Mn  Mn13  1  0.43906275  0.27970012  0.85829745  1
  O  O14  1  0.52837967  0.21944779  0.99653036  1
  O  O15  1  0.06249480  0.96933658  0.13340895  1
  O  O16  1  0.66553536  0.64477133  0.28512605  1
  O  O17  1  0.89636443  0.52681486  0.85381525  1
  O  O18  1  0.32029393  0.81664398  0.70838204  1
  O  O19  1  0.74829002  0.10215827  0.56510819  1
  O  O20  1  0.17270643  0.38658873  0.42059404  1
  O  O21  1  0.47732164  0.78380067  0.00058895  1
  O  O22  1  0.08036220  0.45923542  0.15230605  1
  O  O23  1  0.61447733  0.20912321  0.28918364  1
  O  O24  1  0.97015057  0.04198227  0.86511996  1
  O  O25  1  0.39456698  0.32641273  0.72060581  1
  O  O26  1  0.82256407  0.61192802  0.57733196  1
  O  O27  1  0.24649257  0.90175614  0.43189875  1
