# generated using pymatgen
data_Li3Mn2O5
_symmetry_space_group_name_H-M   'P 1'
_cell_length_a   2.88553056
_cell_length_b   5.10134561
_cell_length_c   13.15597110
_cell_angle_alpha   100.20888769
_cell_angle_beta   96.29606895
_cell_angle_gamma   73.57139065
_symmetry_Int_Tables_number   1
_chemical_formula_structural   Li3Mn2O5
_chemical_formula_sum   'Li6 Mn4 O10'
_cell_volume   182.44583446
_cell_formula_units_Z   2
loop_
 _symmetry_equiv_pos_site_id
 _symmetry_equiv_pos_as_xyz
  1  'x, y, z'
loop_
 _atom_site_type_symbol
 _atom_site_label
 _atom_site_symmetry_multiplicity
 _atom_site_fract_x
 _atom_site_fract_y
 _atom_site_fract_z
 _atom_site_occupancy
  Li  Li0  1  0.30326891  0.50578329  0.11232112  1
  Li  Li1  1  0.89673109  0.49421671  0.28767888  1
  Li  Li2  1  0.50417597  0.47876322  0.48711516  1
  Li  Li3  1  0.10000000  0.50000000  0.70000000  1
  Li  Li4  1  0.69582403  0.52123678  0.91288484  1
  Li  Li5  1  0.60000000  0.00000000  0.20000000  1
  Mn  Mn6  1  0.99256729  0.02992384  0.01505842  1
  Mn  Mn7  1  0.20743271  0.97007616  0.38494158  1
  Mn  Mn8  1  0.80571392  0.98282387  0.59425170  1
  Mn  Mn9  1  0.39428608  0.01717613  0.80574830  1
  O  O10  1  0.35765903  0.24791672  0.96323478  1
  O  O11  1  0.95003856  0.24127524  0.14135236  1
  O  O12  1  0.57433246  0.20564464  0.35430956  1
  O  O13  1  0.17143805  0.20026605  0.54314215  1
  O  O14  1  0.75832075  0.24047398  0.75711548  1
  O  O15  1  0.24996144  0.75872476  0.25864764  1
  O  O16  1  0.84234097  0.75208328  0.43676522  1
  O  O17  1  0.44167925  0.75952602  0.64288452  1
  O  O18  1  0.02856195  0.79973395  0.85685785  1
  O  O19  1  0.62566754  0.79435536  0.04569044  1
