# generated using pymatgen
data_Na8Al6Si6O25
_symmetry_space_group_name_H-M   'P 1'
_cell_length_a   8.95768881
_cell_length_b   8.95721620
_cell_length_c   8.95853658
_cell_angle_alpha   90.30338131
_cell_angle_beta   89.70306007
_cell_angle_gamma   89.69350175
_symmetry_Int_Tables_number   1
_chemical_formula_structural   Na8Al6Si6O25
_chemical_formula_sum   'Na8 Al6 Si6 O25'
_cell_volume   718.76662139
_cell_formula_units_Z   1
loop_
 _symmetry_equiv_pos_site_id
 _symmetry_equiv_pos_as_xyz
  1  'x, y, z'
loop_
 _atom_site_type_symbol
 _atom_site_label
 _atom_site_symmetry_multiplicity
 _atom_site_fract_x
 _atom_site_fract_y
 _atom_site_fract_z
 _atom_site_occupancy
  Na  Na0  1  0.15629227  0.15604484  0.15740485  1
  Na  Na1  1  0.12682619  0.87347826  0.87537577  1
  Na  Na2  1  0.29985726  0.30634427  0.69998945  1
  Na  Na3  1  0.30153869  0.70047592  0.30759251  1
  Na  Na4  1  0.69389187  0.69848146  0.70188922  1
  Na  Na5  1  0.80983434  0.19033928  0.19191267  1
  Na  Na6  1  0.84441722  0.15555559  0.84561729  1
  Na  Na7  1  0.84455872  0.84396705  0.15769315  1
  Al  Al8  1  0.99469650  0.25281536  0.50364427  1
  Al  Al9  1  0.24749831  0.50369474  0.00334016  1
  Al  Al10  1  0.49653345  0.00186323  0.75431188  1
  Al  Al11  1  0.49810224  0.00549318  0.25438526  1
  Al  Al12  1  0.74750125  0.50208616  0.00707945  1
  Al  Al13  1  0.99836097  0.75264172  0.50538076  1
  Si  Si14  1  0.99836893  0.50078294  0.25352041  1
  Si  Si15  1  0.24630400  0.00335385  0.50586245  1
  Si  Si16  1  0.49604635  0.75398558  0.00488021  1
  Si  Si17  1  0.49944566  0.25194302  0.00347198  1
  Si  Si18  1  0.74824290  0.00188885  0.50233538  1
  Si  Si19  1  0.99684094  0.50421175  0.75552298  1
  O  O20  1  0.06226499  0.63680664  0.35850435  1
  O  O21  1  0.05931095  0.36598604  0.65087786  1
  O  O22  1  0.13939985  0.43854195  0.15291997  1
  O  O23  1  0.13650897  0.56606715  0.85519383  1
  O  O24  1  0.14746631  0.14318655  0.44284007  1
  O  O25  1  0.14657445  0.86381435  0.56767114  1
  O  O26  1  0.34640246  0.06583985  0.64559565  1
  O  O27  1  0.35080592  0.94089445  0.36760805  1
  O  O28  1  0.36338927  0.35679391  0.93951292  1
  O  O29  1  0.35618992  0.65378783  0.06729594  1
  O  O30  1  0.43231742  0.14935181  0.13865404  1
  O  O31  1  0.43417468  0.85355874  0.86536330  1
  O  O32  1  0.56181749  0.15129339  0.86249164  1
  O  O33  1  0.55894587  0.85273117  0.14472216  1
  O  O34  1  0.64165837  0.34810152  0.06586123  1
  O  O35  1  0.63424955  0.64938703  0.94245324  1
  O  O36  1  0.65221438  0.06420428  0.36020570  1
  O  O37  1  0.64337130  0.93792598  0.63846161  1
  O  O38  1  0.85088234  0.13697026  0.56948532  1
  O  O39  1  0.84882430  0.86072188  0.44011739  1
  O  O40  1  0.86321989  0.56797290  0.15090621  1
  O  O41  1  0.85712396  0.44120717  0.85444584  1
  O  O42  1  0.93594640  0.35852256  0.34955305  1
  O  O43  1  0.93436933  0.64403341  0.65543208  1
  O  O44  1  0.96931356  0.03095410  0.03271933  1
