# generated using pymatgen
data_Li3Mn2CoO6
_symmetry_space_group_name_H-M   'P 1'
_cell_length_a   2.87659906
_cell_length_b   14.69570620
_cell_length_c   3.03866095
_cell_angle_alpha   93.12341955
_cell_angle_beta   118.25090345
_cell_angle_gamma   89.99999950
_symmetry_Int_Tables_number   1
_chemical_formula_structural   Li3Mn2CoO6
_chemical_formula_sum   'Li3 Mn2 Co1 O6'
_cell_volume   112.93745558
_cell_formula_units_Z   1
loop_
 _symmetry_equiv_pos_site_id
 _symmetry_equiv_pos_as_xyz
  1  'x, y, z'
loop_
 _atom_site_type_symbol
 _atom_site_label
 _atom_site_symmetry_multiplicity
 _atom_site_fract_x
 _atom_site_fract_y
 _atom_site_fract_z
 _atom_site_occupancy
  Li  Li0  1  0.33500372  0.16356640  0.67000844  1
  Li  Li1  1  -0.00000000  0.50000000  0.00000000  1
  Li  Li2  1  0.66499628  0.83643360  0.32999156  1
  Mn  Mn3  1  0.66796002  0.33275558  0.33591904  1
  Mn  Mn4  1  0.33203998  0.66724442  0.66408096  1
  Co  Co5  1  -0.00000000  0.00000000  0.00000000  1
  O  O6  1  0.67486996  0.07590265  0.34974092  1
  O  O7  1  0.31250670  0.41026718  0.62501341  1
  O  O8  1  0.97990748  0.74416460  0.95981395  1
  O  O9  1  0.02009252  0.25583540  0.04018605  1
  O  O10  1  0.68749330  0.58973282  0.37498659  1
  O  O11  1  0.32513004  0.92409735  0.65025908  1
