# generated using pymatgen
data_Sr3La3Zn2RuO12
_symmetry_space_group_name_H-M   'P 1'
_cell_length_a   5.61101556
_cell_length_b   8.86157054
_cell_length_c   6.96323174
_cell_angle_alpha   82.85916387
_cell_angle_beta   66.24020765
_cell_angle_gamma   71.54301477
_symmetry_Int_Tables_number   1
_chemical_formula_structural   Sr3La3Zn2RuO12
_chemical_formula_sum   'Sr3 La3 Zn2 Ru1 O12'
_cell_volume   300.58116662
_cell_formula_units_Z   1
loop_
 _symmetry_equiv_pos_site_id
 _symmetry_equiv_pos_as_xyz
  1  'x, y, z'
loop_
 _atom_site_type_symbol
 _atom_site_label
 _atom_site_symmetry_multiplicity
 _atom_site_fract_x
 _atom_site_fract_y
 _atom_site_fract_z
 _atom_site_occupancy
  Sr  Sr0  1  0.02992423  0.65995937  0.28019318  1
  Sr  Sr1  1  0.35532145  0.00087557  0.28848152  1
  Sr  Sr2  1  0.64422818  0.99825477  0.71328887  1
  La  La3  1  0.68563435  0.35120952  0.27752078  1
  La  La4  1  0.96484331  0.35066644  0.71964594  1
  La  La5  1  0.31319206  0.65084636  0.72277051  1
  Zn  Zn6  1  0.32394556  0.33256819  0.01953969  1
  Zn  Zn7  1  0.66604422  0.66802369  0.99988888  1
  Ru  Ru8  1  0.00045963  -0.00001637  0.99909711  1
  O  O9  1  0.50772524  0.35170810  0.63284042  1
  O  O10  1  0.16326903  0.99405897  0.67940297  1
  O  O11  1  0.84597069  0.65120757  0.65685205  1
  O  O12  1  0.49224577  0.65206065  0.36344881  1
  O  O13  1  0.15763439  0.32548012  0.35925009  1
  O  O14  1  0.83597662  0.01120819  0.31683856  1
  O  O15  1  0.67967546  0.16705861  0.98895035  1
  O  O16  1  0.32631938  0.83772841  0.99944178  1
  O  O17  1  0.00133338  0.49615741  0.99707817  1
  O  O18  1  0.50543104  0.49615741  0.99707817  1
  O  O19  1  0.16431657  0.16705861  0.98895035  1
  O  O20  1  0.83650943  0.83772841  0.99944178  1
