# generated using pymatgen
data_Li4Mn3O7
_symmetry_space_group_name_H-M   'P 1'
_cell_length_a   3.00430514
_cell_length_b   16.99243473
_cell_length_c   5.11041776
_cell_angle_alpha   90.56979204
_cell_angle_beta   91.71691684
_cell_angle_gamma   89.01605836
_symmetry_Int_Tables_number   1
_chemical_formula_structural   Li4Mn3O7
_chemical_formula_sum   'Li8 Mn6 O14'
_cell_volume   260.72198962
_cell_formula_units_Z   2
loop_
 _symmetry_equiv_pos_site_id
 _symmetry_equiv_pos_as_xyz
  1  'x, y, z'
loop_
 _atom_site_type_symbol
 _atom_site_label
 _atom_site_symmetry_multiplicity
 _atom_site_fract_x
 _atom_site_fract_y
 _atom_site_fract_z
 _atom_site_occupancy
  Li  Li0  1  0.92857100  0.14285700  0.35714300  1
  Li  Li1  1  0.36432163  0.28099254  0.20655089  1
  Li  Li2  1  0.78231535  0.42892499  0.07728658  1
  Li  Li3  1  0.21409662  0.57107443  0.92816859  1
  Li  Li4  1  0.64304638  0.71464057  0.78611641  1
  Li  Li5  1  0.07482765  0.85678901  0.63699942  1
  Li  Li6  1  0.49282137  0.00472146  0.50773511  1
  Li  Li7  1  0.42857100  0.14285700  0.85714300  1
  Mn  Mn8  1  0.99373567  0.00553862  0.99200118  1
  Mn  Mn9  1  0.86340733  0.28017538  0.72228482  1
  Mn  Mn10  1  0.29654576  0.42622515  0.56841515  1
  Mn  Mn11  1  0.71486739  0.57067592  0.42809165  1
  Mn  Mn12  1  0.14227561  0.71503908  0.28619335  1
  Mn  Mn13  1  0.56059724  0.85948885  0.14587085  1
  O  O14  1  0.49326036  0.06173882  0.15298555  1
  O  O15  1  0.88223268  0.22103311  0.01713966  1
  O  O16  1  0.35365290  0.35015006  0.86198969  1
  O  O17  1  0.71940936  0.49971456  0.73254283  1
  O  O18  1  0.14390809  0.64399442  0.58905992  1
  O  O19  1  0.57402802  0.78774301  0.45068731  1
  O  O20  1  0.99902967  0.92880252  0.29769193  1
  O  O21  1  0.36388264  0.22397518  0.56130045  1
  O  O22  1  0.85811333  0.35691148  0.41659407  1
  O  O23  1  0.28311398  0.49797099  0.26359869  1
  O  O24  1  0.71323491  0.64171958  0.12522608  1
  O  O25  1  0.13773364  0.78599944  0.98174317  1
  O  O26  1  0.50349010  0.93556494  0.85229531  1
  O  O27  1  0.97491032  0.06468189  0.69714534  1
