# generated using pymatgen
data_Li3Mn2O5
_symmetry_space_group_name_H-M   'P 1'
_cell_length_a   2.96835498
_cell_length_b   8.17626084
_cell_length_c   7.82790947
_cell_angle_alpha   74.97225969
_cell_angle_beta   96.71718828
_cell_angle_gamma   89.23754420
_symmetry_Int_Tables_number   1
_chemical_formula_structural   Li3Mn2O5
_chemical_formula_sum   'Li6 Mn4 O10'
_cell_volume   182.03815683
_cell_formula_units_Z   2
loop_
 _symmetry_equiv_pos_site_id
 _symmetry_equiv_pos_as_xyz
  1  'x, y, z'
loop_
 _atom_site_type_symbol
 _atom_site_label
 _atom_site_symmetry_multiplicity
 _atom_site_fract_x
 _atom_site_fract_y
 _atom_site_fract_z
 _atom_site_occupancy
  Li  Li0  1  0.75739873  0.10625605  0.57672437  1
  Li  Li1  1  0.99700819  0.47892081  0.00144179  1
  Li  Li2  1  0.20299181  0.92107919  0.39855821  1
  Li  Li3  1  0.44260127  0.29374395  0.82327563  1
  Li  Li4  1  0.60000000  0.70000000  0.20000000  1
  Li  Li5  1  0.60000000  0.20000000  0.20000000  1
  Mn  Mn6  1  0.01796700  0.00654799  0.00774820  1
  Mn  Mn7  1  0.18203300  0.39345201  0.39225180  1
  Mn  Mn8  1  0.41626185  0.79846157  0.80507033  1
  Mn  Mn9  1  0.78373815  0.60153843  0.59492967  1
  O  O10  1  0.45661246  0.03531200  0.82853153  1
  O  O11  1  0.62602560  0.44291791  0.22433480  1
  O  O12  1  0.77542079  0.84175862  0.60583974  1
  O  O13  1  0.99943123  0.23392676  0.99541026  1
  O  O14  1  0.15611125  0.63689421  0.40517841  1
  O  O15  1  0.20056877  0.16607324  0.40458974  1
  O  O16  1  0.42457921  0.55824138  0.79416026  1
  O  O17  1  0.57397440  0.95708209  0.17566520  1
  O  O18  1  0.74338754  0.36468800  0.57146847  1
  O  O19  1  0.04388875  0.76310579  0.99482159  1
