# generated using pymatgen
data_Li5Co3O8
_symmetry_space_group_name_H-M   'P 1'
_cell_length_a   4.96749562
_cell_length_b   5.06098798
_cell_length_c   5.84107873
_cell_angle_alpha   90.24425938
_cell_angle_beta   90.26718165
_cell_angle_gamma   109.10687706
_symmetry_Int_Tables_number   1
_chemical_formula_structural   Li5Co3O8
_chemical_formula_sum   'Li5 Co3 O8'
_cell_volume   138.75328048
_cell_formula_units_Z   1
loop_
 _symmetry_equiv_pos_site_id
 _symmetry_equiv_pos_as_xyz
  1  'x, y, z'
loop_
 _atom_site_type_symbol
 _atom_site_label
 _atom_site_symmetry_multiplicity
 _atom_site_fract_x
 _atom_site_fract_y
 _atom_site_fract_z
 _atom_site_occupancy
  Li  Li0  1  0.00000000  0.50000000  0.25000000  1
  Li  Li1  1  0.49954652  0.50032157  0.49232413  1
  Li  Li2  1  0.00000000  0.50000000  0.75000000  1
  Li  Li3  1  0.50045348  0.49967843  0.00767587  1
  Li  Li4  1  0.50000000  0.00000000  0.25000000  1
  Co  Co5  1  -0.00099944  0.00036632  0.00532133  1
  Co  Co6  1  0.00099944  -0.00036632  0.49467867  1
  Co  Co7  1  0.50000000  0.00000000  0.75000000  1
  O  O8  1  0.74545735  0.21932892  0.97901702  1
  O  O9  1  0.22211639  0.24005440  0.24676063  1
  O  O10  1  0.74370782  0.21564813  0.52240285  1
  O  O11  1  0.25482329  0.22471677  0.74530417  1
  O  O12  1  0.25454265  0.78067108  0.52098298  1
  O  O13  1  0.74517671  0.77528323  0.75469583  1
  O  O14  1  0.25629218  0.78435187  0.97759715  1
  O  O15  1  0.77788361  0.75994560  0.25323937  1
