# generated using pymatgen
data_Li7Mn5O12
_symmetry_space_group_name_H-M   'P 1'
_cell_length_a   2.99197529
_cell_length_b   12.23138949
_cell_length_c   6.48846444
_cell_angle_alpha   105.22934331
_cell_angle_beta   76.96264734
_cell_angle_gamma   87.04985603
_symmetry_Int_Tables_number   1
_chemical_formula_structural   Li7Mn5O12
_chemical_formula_sum   'Li7 Mn5 O12'
_cell_volume   221.65344869
_cell_formula_units_Z   1
loop_
 _symmetry_equiv_pos_site_id
 _symmetry_equiv_pos_as_xyz
  1  'x, y, z'
loop_
 _atom_site_type_symbol
 _atom_site_label
 _atom_site_symmetry_multiplicity
 _atom_site_fract_x
 _atom_site_fract_y
 _atom_site_fract_z
 _atom_site_occupancy
  Li  Li0  1  0.73521838  0.25488150  0.25580554  1
  Li  Li1  1  0.71253858  0.59492119  0.92836591  1
  Li  Li2  1  0.26478162  0.41178550  0.07752746  1
  Li  Li3  1  0.25589637  0.74695372  0.76597054  1
  Li  Li4  1  0.74410363  0.91971328  0.56736246  1
  Li  Li5  1  0.28746142  0.07174481  0.40496809  1
  Li  Li6  1  0.50000000  0.83333300  0.16666700  1
  Mn  Mn7  1  0.01414766  0.99275543  0.00369467  1
  Mn  Mn8  1  0.98585234  0.67391157  0.32963833  1
  Mn  Mn9  1  0.00000000  0.33333300  0.66666700  1
  Mn  Mn10  1  0.47968661  0.50412563  0.50559686  1
  Mn  Mn11  1  0.52031339  0.16254137  0.82773614  1
  O  O12  1  0.43452259  0.10961093  0.09720202  1
  O  O13  1  0.34887866  0.45525932  0.77791798  1
  O  O14  1  0.85776871  0.28854117  0.94723999  1
  O  O15  1  0.84006768  0.62416659  0.61153891  1
  O  O16  1  0.40293878  0.77569969  0.44597340  1
  O  O17  1  0.88600034  0.96298943  0.27133883  1
  O  O18  1  0.14223129  0.37812583  0.38609301  1
  O  O19  1  0.11399966  0.70367657  0.06199517  1
  O  O20  1  0.56547741  0.55705607  0.23613098  1
  O  O21  1  0.59706122  0.89096731  0.88735960  1
  O  O22  1  0.15993232  0.04250041  0.72179409  1
  O  O23  1  0.65112134  0.21140668  0.55541602  1
