# generated using pymatgen
data_Na4Ni2C4SO16
_symmetry_space_group_name_H-M   'P 1'
_cell_length_a   9.94747238
_cell_length_b   9.79963020
_cell_length_c   9.93939302
_cell_angle_alpha   60.06222468
_cell_angle_beta   59.33647391
_cell_angle_gamma   60.29996867
_symmetry_Int_Tables_number   1
_chemical_formula_structural   Na4Ni2C4SO16
_chemical_formula_sum   'Na8 Ni4 C8 S2 O32'
_cell_volume   683.45502513
_cell_formula_units_Z   2
loop_
 _symmetry_equiv_pos_site_id
 _symmetry_equiv_pos_as_xyz
  1  'x, y, z'
loop_
 _atom_site_type_symbol
 _atom_site_label
 _atom_site_symmetry_multiplicity
 _atom_site_fract_x
 _atom_site_fract_y
 _atom_site_fract_z
 _atom_site_occupancy
  Na  Na0  1  0.91227346  0.33584107  0.33898667  1
  Na  Na1  1  0.09036220  0.08525987  0.65513427  1
  Na  Na2  1  0.65272301  0.67305088  0.09203101  1
  Na  Na3  1  0.90938781  0.91510053  0.33044170  1
  Na  Na4  1  0.35020601  0.32483028  0.91567150  1
  Na  Na5  1  0.90839135  0.33044823  0.91542942  1
  Na  Na6  1  0.09234264  0.66893513  0.65305699  1
  Na  Na7  1  0.34061772  0.91160155  0.91053788  1
  Ni  Ni8  1  0.49980359  0.49966619  -0.00001081  1
  Ni  Ni9  1  0.50075555  0.99947748  0.49976831  1
  Ni  Ni10  1  0.49932040  0.49936528  0.50235477  1
  Ni  Ni11  1  0.99940236  0.50148324  0.50006395  1
  C  C12  1  0.64676382  0.28691420  0.28345655  1
  C  C13  1  0.28512572  0.28358297  0.28741375  1
  C  C14  1  0.28651230  0.64330296  0.28625267  1
  C  C15  1  0.28162649  0.28505969  0.64743841  1
  C  C16  1  0.71468300  0.35843348  0.71373130  1
  C  C17  1  0.71539458  0.71348139  0.35675085  1
  C  C18  1  0.35464960  0.71344247  0.71729279  1
  C  C19  1  0.71575667  0.71516231  0.71495106  1
  S  S20  1  0.12435718  0.12531462  0.12380872  1
  S  S21  1  0.87603290  0.87415497  0.87321091  1
  O  O22  1  0.30790331  0.06474620  0.05762018  1
  O  O23  1  0.06255540  0.06297969  0.06139866  1
  O  O24  1  0.06305920  0.31264430  0.06077764  1
  O  O25  1  0.05671515  0.06651189  0.30799070  1
  O  O26  1  0.39833516  0.30937607  0.14379663  1
  O  O27  1  0.64842110  0.14396286  0.30876266  1
  O  O28  1  0.65084816  0.40230430  0.14049883  1
  O  O29  1  0.31035571  0.14649344  0.40575226  1
  O  O30  1  0.14038104  0.39564462  0.31192248  1
  O  O31  1  0.65001088  0.31232544  0.39702195  1
  O  O32  1  0.31148221  0.64985383  0.14232481  1
  O  O33  1  0.39651447  0.14343380  0.64768802  1
  O  O34  1  0.69526119  0.59921613  0.34483292  1
  O  O35  1  0.86056352  0.34661153  0.59843949  1
  O  O36  1  0.40570773  0.63386922  0.31202996  1
  O  O37  1  0.13931688  0.30843765  0.65029727  1
  O  O38  1  0.59570721  0.36511232  0.68992093  1
  O  O39  1  0.85287808  0.69018872  0.36027402  1
  O  O40  1  0.14133482  0.65234195  0.39999156  1
  O  O41  1  0.30385298  0.40164148  0.65271932  1
  O  O42  1  0.59820461  0.85184958  0.36046775  1
  O  O43  1  0.69232916  0.35912942  0.85278992  1
  O  O44  1  0.34915144  0.69092405  0.60268181  1
  O  O45  1  0.86054438  0.60071262  0.69427582  1
  O  O46  1  0.36253557  0.59299683  0.85294912  1
  O  O47  1  0.69167378  0.84934445  0.59296075  1
  O  O48  1  0.34577322  0.85917041  0.69585478  1
  O  O49  1  0.60000240  0.69428683  0.85994056  1
  O  O50  1  0.94253794  0.93470214  0.68834685  1
  O  O51  1  0.93235942  0.68857244  0.93366841  1
  O  O52  1  0.93583033  0.93806638  0.93457451  1
  O  O53  1  0.69136821  0.93864263  0.93610779  1
