# generated using pymatgen
data_Mn3OF5
_symmetry_space_group_name_H-M   'P 1'
_cell_length_a   4.90478081
_cell_length_b   8.14827151
_cell_length_c   5.87099624
_cell_angle_alpha   93.41124536
_cell_angle_beta   87.89434542
_cell_angle_gamma   91.42272319
_symmetry_Int_Tables_number   1
_chemical_formula_structural   Mn3OF5
_chemical_formula_sum   'Mn6 O2 F10'
_cell_volume   234.00302419
_cell_formula_units_Z   2
loop_
 _symmetry_equiv_pos_site_id
 _symmetry_equiv_pos_as_xyz
  1  'x, y, z'
loop_
 _atom_site_type_symbol
 _atom_site_label
 _atom_site_symmetry_multiplicity
 _atom_site_fract_x
 _atom_site_fract_y
 _atom_site_fract_z
 _atom_site_occupancy
  Mn  Mn0  1  0.51460649  0.00683538  0.49113771  1
  Mn  Mn1  1  0.49628338  0.66442874  0.16956942  1
  Mn  Mn2  1  0.51661121  0.33814185  0.82177913  1
  Mn  Mn3  1  0.98739949  0.65495128  0.66771704  1
  Mn  Mn4  1  0.97635505  0.32463487  0.34762067  1
  Mn  Mn5  1  0.99492138  0.00753869  0.01250528  1
  O  O6  1  0.80272797  0.42472821  0.61810592  1
  O  O7  1  0.81083144  0.11327719  0.30281756  1
  F  F8  1  0.80664805  0.77021457  0.96631518  1
  F  F9  1  0.69150767  0.09951378  0.80331220  1
  F  F10  1  0.69604274  0.76992203  0.46596684  1
  F  F11  1  0.70173966  0.43652762  0.11778587  1
  F  F12  1  0.30706843  0.56635507  0.86394896  1
  F  F13  1  0.30617849  0.23182375  0.54264404  1
  F  F14  1  0.30377009  0.89810954  0.20258199  1
  F  F15  1  0.18441496  0.54649465  0.35880008  1
  F  F16  1  0.20473924  0.24783624  0.04530712  1
  F  F17  1  0.19815326  0.89866555  0.70208599  1
