# generated using pymatgen
data_Li6Mn3CoO10
_symmetry_space_group_name_H-M   'P 1'
_cell_length_a   5.04577987
_cell_length_b   7.68626352
_cell_length_c   5.15624260
_cell_angle_alpha   108.04724575
_cell_angle_beta   79.44613565
_cell_angle_gamma   76.36722347
_symmetry_Int_Tables_number   1
_chemical_formula_structural   Li6Mn3CoO10
_chemical_formula_sum   'Li6 Mn3 Co1 O10'
_cell_volume   177.53658960
_cell_formula_units_Z   1
loop_
 _symmetry_equiv_pos_site_id
 _symmetry_equiv_pos_as_xyz
  1  'x, y, z'
loop_
 _atom_site_type_symbol
 _atom_site_label
 _atom_site_symmetry_multiplicity
 _atom_site_fract_x
 _atom_site_fract_y
 _atom_site_fract_z
 _atom_site_occupancy
  Li  Li0  1  0.30062153  0.90031264  0.40280662  1
  Li  Li1  1  0.69647088  0.11187717  0.60050905  1
  Li  Li2  1  0.09309650  0.30476300  0.80228668  1
  Li  Li3  1  0.50920286  0.49435668  0.00227253  1
  Li  Li4  1  0.89559085  0.68875610  0.19493016  1
  Li  Li5  1  0.79953824  0.40010110  0.40046853  1
  Mn  Mn6  1  0.99802860  0.00571532  0.00428473  1
  Mn  Mn7  1  0.20774183  0.59323420  0.59164920  1
  Mn  Mn8  1  0.60136624  0.79507676  0.79214220  1
  Co  Co9  1  0.40402332  0.20741015  0.21365981  1
  O  O10  1  0.24223124  0.75102372  0.96999082  1
  O  O11  1  0.66054920  0.96910897  0.19640738  1
  O  O12  1  0.06869925  0.13581091  0.35022099  1
  O  O13  1  0.42773060  0.36148300  0.60231056  1
  O  O14  1  0.85553793  0.56792134  0.79586478  1
  O  O15  1  0.34093331  0.03650550  0.80999066  1
  O  O16  1  0.75020144  0.23176540  0.99920262  1
  O  O17  1  0.16885560  0.44988862  0.23370332  1
  O  O18  1  0.52631896  0.64642068  0.40839621  1
  O  O19  1  0.95326163  0.84846874  0.62890314  1
