# generated using pymatgen
data_Li7Mn4CoO12
_symmetry_space_group_name_H-M   'P 1'
_cell_length_a   5.21064647
_cell_length_b   8.62671723
_cell_length_c   5.21497572
_cell_angle_alpha   90.00000000
_cell_angle_beta   68.07471820
_cell_angle_gamma   90.00000000
_symmetry_Int_Tables_number   1
_chemical_formula_structural   Li7Mn4CoO12
_chemical_formula_sum   'Li7 Mn4 Co1 O12'
_cell_volume   217.46216885
_cell_formula_units_Z   1
loop_
 _symmetry_equiv_pos_site_id
 _symmetry_equiv_pos_as_xyz
  1  'x, y, z'
loop_
 _atom_site_type_symbol
 _atom_site_label
 _atom_site_symmetry_multiplicity
 _atom_site_fract_x
 _atom_site_fract_y
 _atom_site_fract_z
 _atom_site_occupancy
  Li  Li0  1  0.50000000  0.17292289  0.00000000  1
  Li  Li1  1  0.50000000  0.33072053  0.50000000  1
  Li  Li2  1  0.50000000  0.49394621  0.00000000  1
  Li  Li3  1  0.50000000  0.66334242  0.50000000  1
  Li  Li4  1  0.50000000  0.83237934  0.00000000  1
  Li  Li5  1  0.50000000  0.00471477  0.50000000  1
  Li  Li6  1  0.00000000  0.33002110  0.00000000  1
  Mn  Mn7  1  0.00000000  0.00762221  0.00000000  1
  Mn  Mn8  1  0.00000000  0.49672130  0.50000000  1
  Mn  Mn9  1  0.00000000  0.66348488  0.00000000  1
  Mn  Mn10  1  0.00000000  0.83317602  0.50000000  1
  Co  Co11  1  0.00000000  0.17265219  0.50000000  1
  O  O12  1  0.23651099  0.15368433  0.76165065  1
  O  O13  1  0.23018276  0.33477813  0.28182629  1
  O  O14  1  0.21508874  0.50670434  0.74101512  1
  O  O15  1  0.23538440  0.66562249  0.27554389  1
  O  O16  1  0.23402091  0.83574435  0.77680946  1
  O  O17  1  0.21021713  0.00261443  0.25060221  1
  O  O18  1  0.76348901  0.15368433  0.23834935  1
  O  O19  1  0.76981724  0.33477813  0.71817371  1
  O  O20  1  0.78491126  0.50670434  0.25898488  1
  O  O21  1  0.76461560  0.66562249  0.72445611  1
  O  O22  1  0.76597909  0.83574435  0.22319054  1
  O  O23  1  0.78978287  0.00261443  0.74939779  1
