# generated using pymatgen
data_LiV2(PO4)2
_symmetry_space_group_name_H-M   'P 1'
_cell_length_a   9.10309310
_cell_length_b   6.39704022
_cell_length_c   4.92440091
_cell_angle_alpha   90.00000000
_cell_angle_beta   90.00000000
_cell_angle_gamma   90.00000000
_symmetry_Int_Tables_number   1
_chemical_formula_structural   LiV2(PO4)2
_chemical_formula_sum   'Li2 V4 P4 O16'
_cell_volume   286.76191276
_cell_formula_units_Z   2
loop_
 _symmetry_equiv_pos_site_id
 _symmetry_equiv_pos_as_xyz
  1  'x, y, z'
loop_
 _atom_site_type_symbol
 _atom_site_label
 _atom_site_symmetry_multiplicity
 _atom_site_fract_x
 _atom_site_fract_y
 _atom_site_fract_z
 _atom_site_occupancy
  Li  Li0  1  0.33551557  0.25000000  0.95342023  1
  Li  Li1  1  0.83551557  0.25000000  0.54657977  1
  V  V2  1  0.99950114  0.98743152  0.00193525  1
  V  V3  1  0.99950114  0.51256848  0.00193525  1
  V  V4  1  0.49950114  0.98743152  0.49806475  1
  V  V5  1  0.49950114  0.51256848  0.49806475  1
  P  P6  1  0.17550292  0.25000000  0.47593479  1
  P  P7  1  0.32328953  0.75000000  0.98551157  1
  P  P8  1  0.67550292  0.25000000  0.02406521  1
  P  P9  1  0.82328953  0.75000000  0.51448843  1
  O  O10  1  0.11971685  0.05247815  0.34020500  1
  O  O11  1  0.11971685  0.44752185  0.34020500  1
  O  O12  1  0.12955304  0.25000000  0.78774169  1
  O  O13  1  0.15187636  0.75000000  0.95364412  1
  O  O14  1  0.35088083  0.25000000  0.44626603  1
  O  O15  1  0.37669864  0.75000000  0.28821350  1
  O  O16  1  0.37784357  0.54879830  0.84772798  1
  O  O17  1  0.37784357  0.95120170  0.84772798  1
  O  O18  1  0.61971685  0.05247815  0.15979500  1
  O  O19  1  0.61971685  0.44752185  0.15979500  1
  O  O20  1  0.62955304  0.25000000  0.71225831  1
  O  O21  1  0.65187636  0.75000000  0.54635588  1
  O  O22  1  0.85088083  0.25000000  0.05373397  1
  O  O23  1  0.87669864  0.75000000  0.21178650  1
  O  O24  1  0.87784357  0.54879830  0.65227202  1
  O  O25  1  0.87784357  0.95120170  0.65227202  1
