# generated using pymatgen
data_Li7Mn5O12
_symmetry_space_group_name_H-M   'P 1'
_cell_length_a   2.87500249
_cell_length_b   14.69711025
_cell_length_c   5.24506064
_cell_angle_alpha   86.38284550
_cell_angle_beta   90.00000000
_cell_angle_gamma   90.00000000
_symmetry_Int_Tables_number   1
_chemical_formula_structural   Li7Mn5O12
_chemical_formula_sum   'Li7 Mn5 O12'
_cell_volume   221.18448673
_cell_formula_units_Z   1
loop_
 _symmetry_equiv_pos_site_id
 _symmetry_equiv_pos_as_xyz
  1  'x, y, z'
loop_
 _atom_site_type_symbol
 _atom_site_label
 _atom_site_symmetry_multiplicity
 _atom_site_fract_x
 _atom_site_fract_y
 _atom_site_fract_z
 _atom_site_occupancy
  Li  Li0  1  0.50000000  0.99412046  0.50596968  1
  Li  Li1  1  0.00000000  0.16590363  0.66601095  1
  Li  Li2  1  0.50000000  0.33333300  0.83333300  1
  Li  Li3  1  0.00000000  0.50076337  0.00065605  1
  Li  Li4  1  0.00000000  0.83333300  0.33333300  1
  Li  Li5  1  0.50000000  0.67254654  0.16069732  1
  Li  Li6  1  0.50000000  0.83333300  0.83333300  1
  Mn  Mn7  1  0.00000000  0.99182721  0.98007208  1
  Mn  Mn8  1  -0.00000000  0.67483979  0.68659492  1
  Mn  Mn9  1  0.50000000  0.16312243  0.15606760  1
  Mn  Mn10  1  0.00000000  0.33333300  0.33333300  1
  Mn  Mn11  1  0.50000000  0.50354457  0.51059940  1
  O  O12  1  0.50000000  0.92462983  0.15464614  1
  O  O13  1  0.00000000  0.08487985  0.29597965  1
  O  O14  1  0.50000000  0.25806923  0.49079401  1
  O  O15  1  -0.00000000  0.42680852  0.66159971  1
  O  O16  1  0.00000000  0.74142820  0.96568444  1
  O  O17  1  0.50000000  0.59462206  0.82574633  1
  O  O18  1  0.50000000  0.07204494  0.84092067  1
  O  O19  1  0.00000000  0.23985848  0.00506729  1
  O  O20  1  0.50000000  0.40859677  0.17587199  1
  O  O21  1  -0.00000000  0.58178715  0.37068735  1
  O  O22  1  -0.00000000  0.92523780  0.70098156  1
  O  O23  1  0.50000000  0.74203717  0.51202086  1
