# generated using pymatgen
data_Li6Mn3CoO10
_symmetry_space_group_name_H-M   'P 1'
_cell_length_a   5.16296588
_cell_length_b   5.92231250
_cell_length_c   6.52585637
_cell_angle_alpha   75.70274427
_cell_angle_beta   96.21578996
_cell_angle_gamma   71.25904532
_symmetry_Int_Tables_number   1
_chemical_formula_structural   Li6Mn3CoO10
_chemical_formula_sum   'Li6 Mn3 Co1 O10'
_cell_volume   179.23929885
_cell_formula_units_Z   1
loop_
 _symmetry_equiv_pos_site_id
 _symmetry_equiv_pos_as_xyz
  1  'x, y, z'
loop_
 _atom_site_type_symbol
 _atom_site_label
 _atom_site_symmetry_multiplicity
 _atom_site_fract_x
 _atom_site_fract_y
 _atom_site_fract_z
 _atom_site_occupancy
  Li  Li0  1  0.19944889  0.10440324  0.40399130  1
  Li  Li1  1  0.39664299  0.69398892  0.79784525  1
  Li  Li2  1  0.79987893  0.90635370  0.60803225  1
  Li  Li3  1  0.00981520  0.49692437  0.99052330  1
  Li  Li4  1  0.59380406  0.29860207  0.19660857  1
  Li  Li5  1  0.39700476  0.20321664  0.79596673  1
  Mn  Mn6  1  0.99947036  0.00177280  0.99814028  1
  Mn  Mn7  1  0.20287636  0.59239551  0.40720718  1
  Mn  Mn8  1  0.59890600  0.80349471  0.19576058  1
  Co  Co9  1  0.79781704  0.39347782  0.60762197  1
  O  O10  1  0.92391118  0.94158465  0.29135348  1
  O  O11  1  0.10063376  0.55848875  0.67573931  1
  O  O12  1  0.49571398  0.72158524  0.49083606  1
  O  O13  1  0.72785912  0.33662105  0.89717107  1
  O  O14  1  0.29088640  0.11957234  0.09695659  1
  O  O15  1  0.48661282  0.27259243  0.48755328  1
  O  O16  1  0.71926915  0.86016336  0.92208081  1
  O  O17  1  0.07208718  0.06443438  0.71189569  1
  O  O18  1  0.27817930  0.65915104  0.10534157  1
  O  O19  1  0.90918251  0.47117700  0.31937475  1
