# generated using pymatgen
data_LiFe2OF3
_symmetry_space_group_name_H-M   'P 1'
_cell_length_a   6.24128293
_cell_length_b   6.24128293
_cell_length_c   6.20444478
_cell_angle_alpha   60.19504677
_cell_angle_beta   89.99999987
_cell_angle_gamma   120.39009325
_symmetry_Int_Tables_number   1
_chemical_formula_structural   LiFe2OF3
_chemical_formula_sum   'Li2 Fe4 O2 F6'
_cell_volume   170.38797224
_cell_formula_units_Z   2
loop_
 _symmetry_equiv_pos_site_id
 _symmetry_equiv_pos_as_xyz
  1  'x, y, z'
loop_
 _atom_site_type_symbol
 _atom_site_label
 _atom_site_symmetry_multiplicity
 _atom_site_fract_x
 _atom_site_fract_y
 _atom_site_fract_z
 _atom_site_occupancy
  Li  Li0  1  0.98019355  0.03961290  0.98019355  1
  Li  Li1  1  0.26980645  0.46038710  0.26980645  1
  Fe  Fe2  1  0.62500000  0.25000000  0.12500000  1
  Fe  Fe3  1  0.62500000  0.25000000  0.62500000  1
  Fe  Fe4  1  0.62500000  0.75000000  0.62500000  1
  Fe  Fe5  1  0.12500000  0.75000000  0.62500000  1
  O  O6  1  0.85034295  0.29931411  0.85034295  1
  O  O7  1  0.39965705  0.20068589  0.39965705  1
  F  F8  1  0.88076067  0.23075679  0.38462161  1
  F  F9  1  0.86537839  0.76538228  0.36923933  1
  F  F10  1  0.38462161  0.73461772  0.38462161  1
  F  F11  1  0.36923933  0.26924321  0.86537839  1
  F  F12  1  0.86537839  0.76538228  0.86537839  1
  F  F13  1  0.38462161  0.73461772  0.88076067  1
