# generated using pymatgen
data_Li4V3P8O29
_symmetry_space_group_name_H-M   'P 1'
_cell_length_a   9.73979024
_cell_length_b   9.77609096
_cell_length_c   14.34067447
_cell_angle_alpha   90.30659358
_cell_angle_beta   90.49368502
_cell_angle_gamma   60.37269089
_symmetry_Int_Tables_number   1
_chemical_formula_structural   Li4V3P8O29
_chemical_formula_sum   'Li8 V6 P16 O58'
_cell_volume   1186.90879196
_cell_formula_units_Z   2
loop_
 _symmetry_equiv_pos_site_id
 _symmetry_equiv_pos_as_xyz
  1  'x, y, z'
loop_
 _atom_site_type_symbol
 _atom_site_label
 _atom_site_symmetry_multiplicity
 _atom_site_fract_x
 _atom_site_fract_y
 _atom_site_fract_z
 _atom_site_occupancy
  Li  Li0  1  0.76821447  0.90841528  0.55071582  1
  Li  Li1  1  0.90461507  0.33117955  0.55407711  1
  Li  Li2  1  0.76282489  0.33857645  0.06100848  1
  Li  Li3  1  0.33154729  0.90383560  0.06358311  1
  Li  Li4  1  0.32528297  0.76867983  0.55738124  1
  Li  Li5  1  0.67804977  0.08787856  0.94443353  1
  Li  Li6  1  0.03585880  0.93995728  0.00556127  1
  Li  Li7  1  0.99646060  0.00380217  0.48149086  1
  V  V8  1  0.56221561  0.43663383  0.25424539  1
  V  V9  1  0.43372781  0.56418009  0.74989720  1
  V  V10  1  0.56454735  0.99762158  0.74593408  1
  V  V11  1  0.43464129  0.00111782  0.24863983  1
  V  V12  1  0.99958146  0.56559160  0.24638310  1
  V  V13  1  0.00080541  0.43956748  0.75477646  1
  P  P14  1  0.91715374  0.78089814  0.84363601  1
  P  P15  1  0.78176438  0.91134660  0.33763428  1
  P  P16  1  0.91535418  0.31093232  0.34236568  1
  P  P17  1  0.66571318  0.66163784  0.13150614  1
  P  P18  1  0.66905718  0.66209991  0.63322027  1
  P  P19  1  0.77189261  0.31561846  0.84122783  1
  P  P20  1  0.69172097  0.22371224  0.65973683  1
  P  P21  1  0.31373363  0.91127435  0.84419224  1
  P  P22  1  0.68796589  0.09053281  0.15910587  1
  P  P23  1  0.31256148  0.77666017  0.34360576  1
  P  P24  1  0.22006093  0.69334527  0.16443373  1
  P  P25  1  0.32772048  0.33601899  0.36485453  1
  P  P26  1  0.33847033  0.33146742  0.86567757  1
  P  P27  1  0.08163714  0.69561557  0.66014813  1
  P  P28  1  0.21613503  0.08717311  0.66533115  1
  P  P29  1  0.08163087  0.22069227  0.16115590  1
  O  O30  1  0.99231024  0.79336064  0.57847943  1
  O  O31  1  0.92043569  0.74025852  0.32495181  1
  O  O32  1  0.77236183  0.01985747  0.06996215  1
  O  O33  1  0.74272335  0.91555561  0.83395224  1
  O  O34  1  0.92240185  0.61869712  0.82986365  1
  O  O35  1  0.81068867  0.66368195  0.17976404  1
  O  O36  1  0.91972990  0.46483712  0.32961579  1
  O  O37  1  0.98530697  0.21024622  0.08298133  1
  O  O38  1  0.91364821  0.34499457  0.83322909  1
  O  O39  1  0.67591977  0.81074061  0.66846023  1
  O  O40  1  0.62340116  0.91576996  0.32864335  1
  O  O41  1  0.81437220  0.51433674  0.67959115  1
  O  O42  1  0.67837947  0.64211596  0.02835048  1
  O  O43  1  0.67471845  0.64891989  0.52946344  1
  O  O44  1  0.66762339  0.51306022  0.17614693  1
  O  O45  1  0.46804452  0.91268531  0.82954445  1
  O  O46  1  0.51308058  0.81251196  0.16381319  1
  O  O47  1  0.74166959  0.34489591  0.32852977  1
  O  O48  1  0.78809891  0.20017684  0.75753261  1
  O  O49  1  0.79419959  0.21713254  0.58129292  1
  O  O50  1  0.76792809  0.23984417  0.93110719  1
  O  O51  1  0.61663943  0.47363919  0.82366429  1
  O  O52  1  0.51473258  0.66998025  0.67234548  1
  O  O53  1  0.65218499  0.26443755  0.16480684  1
  O  O54  1  0.46840621  0.61861796  0.32917703  1
  O  O55  1  0.34785902  0.91199751  0.32733370  1
  O  O56  1  0.79752419  0.00574328  0.24900817  1
  O  O57  1  0.80674375  0.97813662  0.42642179  1
  O  O58  1  0.20387193  0.99458514  0.58586544  1
  O  O59  1  0.65937001  0.08367727  0.65750541  1
  O  O60  1  0.53620569  0.38227983  0.67210997  1
  O  O61  1  0.34179217  0.74147911  0.82344021  1
  O  O62  1  0.47514518  0.34103648  0.31901127  1
  O  O63  1  0.38205158  0.54245003  0.17270545  1
  O  O64  1  0.20655658  0.80002638  0.08650468  1
  O  O65  1  0.23301745  0.79211143  0.43451457  1
  O  O66  1  0.19542036  0.78874401  0.26111952  1
  O  O67  1  0.25673523  0.65737748  0.65983151  1
  O  O68  1  0.48799788  0.18519958  0.82811738  1
  O  O69  1  0.53411955  0.08379760  0.17174199  1
  O  O70  1  0.33592411  0.47889370  0.81678401  1
  O  O71  1  0.33197615  0.34331174  0.96861525  1
  O  O72  1  0.32937354  0.34884353  0.46743114  1
  O  O73  1  0.18356683  0.48104550  0.31610130  1
  O  O74  1  0.37873407  0.08168430  0.67371229  1
  O  O75  1  0.33012467  0.18986907  0.32238674  1
  O  O76  1  0.08542120  0.65303223  0.16254586  1
  O  O77  1  0.00670090  0.79565688  0.75376300  1
  O  O78  1  0.99296821  0.79882712  0.92893878  1
  O  O79  1  0.07606094  0.54033970  0.67435648  1
  O  O80  1  0.18829460  0.33378779  0.81900858  1
  O  O81  1  0.07617887  0.38114370  0.17139473  1
  O  O82  1  0.25440915  0.08399627  0.15858878  1
  O  O83  1  0.23585321  0.96634028  0.93653081  1
  O  O84  1  0.19349492  0.01807140  0.76271907  1
  O  O85  1  0.08053899  0.26133969  0.66411817  1
  O  O86  1  0.97772962  0.22729627  0.43308569  1
  O  O87  1  0.01339600  0.19527821  0.25904800  1
