# generated using pymatgen
data_Li4Si2NiO7
_symmetry_space_group_name_H-M   'P 1'
_cell_length_a   4.54062266
_cell_length_b   5.31967240
_cell_length_c   6.70747587
_cell_angle_alpha   81.50425889
_cell_angle_beta   90.00000000
_cell_angle_gamma   64.73683607
_symmetry_Int_Tables_number   1
_chemical_formula_structural   Li4Si2NiO7
_chemical_formula_sum   'Li4 Si2 Ni1 O7'
_cell_volume   144.55254610
_cell_formula_units_Z   1
loop_
 _symmetry_equiv_pos_site_id
 _symmetry_equiv_pos_as_xyz
  1  'x, y, z'
loop_
 _atom_site_type_symbol
 _atom_site_label
 _atom_site_symmetry_multiplicity
 _atom_site_fract_x
 _atom_site_fract_y
 _atom_site_fract_z
 _atom_site_occupancy
  Li  Li0  1  0.16364905  0.70466846  0.43497309  1
  Li  Li1  1  0.72075569  0.57241727  0.14706233  1
  Li  Li2  1  0.29317296  0.42758273  0.85293767  1
  Li  Li3  1  0.86831651  0.29533154  0.56502691  1
  Si  Si4  1  0.56434724  0.85141701  0.71192056  1
  Si  Si5  1  0.41576325  0.14858299  0.28807944  1
  Ni  Ni6  1  0.00123566  0.00000000  0.00000000  1
  O  O7  1  0.33656097  0.89562016  0.22303292  1
  O  O8  1  0.85980188  0.73973978  0.89123990  1
  O  O9  1  0.49837482  0.59276292  0.65572866  1
  O  O10  1  0.09113774  0.40723708  0.34427134  1
  O  O11  1  0.59954166  0.26026022  0.10876010  1
  O  O12  1  0.23218113  0.10437984  0.77696708  1
  O  O13  1  0.68216044  -0.00000000  0.50000000  1
