# generated using pymatgen
data_Li6VCr3(PO4)6
_symmetry_space_group_name_H-M   'P 1'
_cell_length_a   8.59948988
_cell_length_b   8.61234958
_cell_length_c   8.62106253
_cell_angle_alpha   61.30510559
_cell_angle_beta   61.09031579
_cell_angle_gamma   61.27077456
_symmetry_Int_Tables_number   1
_chemical_formula_structural   Li6VCr3(PO4)6
_chemical_formula_sum   'Li6 V1 Cr3 P6 O24'
_cell_volume   463.88712654
_cell_formula_units_Z   1
loop_
 _symmetry_equiv_pos_site_id
 _symmetry_equiv_pos_as_xyz
  1  'x, y, z'
loop_
 _atom_site_type_symbol
 _atom_site_label
 _atom_site_symmetry_multiplicity
 _atom_site_fract_x
 _atom_site_fract_y
 _atom_site_fract_z
 _atom_site_occupancy
  Li  Li0  1  0.02990244  0.00561935  0.99740657  1
  Li  Li1  1  0.74929378  0.14800957  0.35279908  1
  Li  Li2  1  0.47019561  0.50165165  0.49569346  1
  Li  Li3  1  0.25577537  0.84545418  0.65400420  1
  Li  Li4  1  0.65054098  0.25987615  0.84215610  1
  Li  Li5  1  0.84705833  0.65485683  0.25398794  1
  V  V6  1  0.85474309  0.85316583  0.85440189  1
  Cr  Cr7  1  0.14263569  0.14546872  0.13859293  1
  Cr  Cr8  1  0.35742150  0.36134627  0.35490166  1
  Cr  Cr9  1  0.64515383  0.64680577  0.64587351  1
  P  P10  1  0.04857065  0.75182162  0.44867995  1
  P  P11  1  0.44929951  0.05035985  0.74866456  1
  P  P12  1  0.75076403  0.45154846  0.04512501  1
  P  P13  1  0.25209947  0.53994911  0.95995831  1
  P  P14  1  0.54043925  0.96237607  0.25201081  1
  P  P15  1  0.95762017  0.25162523  0.53668054  1
  O  O16  1  0.13049283  0.28742816  0.50104121  1
  O  O17  1  0.29499067  0.51331210  0.12443534  1
  O  O18  1  0.04683668  0.92503150  0.26718149  1
  O  O19  1  0.52902208  0.12404759  0.29232611  1
  O  O20  1  0.23833599  0.59277305  0.42840398  1
  O  O21  1  0.01691876  0.80523872  0.61201268  1
  O  O22  1  0.25863759  0.07281873  0.90730049  1
  O  O23  1  0.45227845  0.23202621  0.57486752  1
  O  O24  1  0.59193955  0.43131403  0.23893683  1
  O  O25  1  0.20802422  0.37565099  0.98628610  1
  O  O26  1  0.09219751  0.73366519  0.93126235  1
  O  O27  1  0.36834960  0.99886951  0.21439154  1
  O  O28  1  0.61092854  0.01618236  0.80483015  1
  O  O29  1  0.90779360  0.25757043  0.07055016  1
  O  O30  1  0.81079635  0.60997189  0.01208053  1
  O  O31  1  0.41729854  0.56243264  0.76700512  1
  O  O32  1  0.56236801  0.77048074  0.41594671  1
  O  O33  1  0.73134392  0.92929467  0.08919089  1
  O  O34  1  0.97080517  0.20793753  0.37622195  1
  O  O35  1  0.76857052  0.41824343  0.56241458  1
  O  O36  1  0.47884870  0.88662945  0.69641021  1
  O  O37  1  0.92971021  0.09150591  0.73042526  1
  O  O38  1  0.69620445  0.48052858  0.88506840  1
  O  O39  1  0.88579536  0.69610893  0.48147491  1
