# generated using pymatgen
data_Li4V3P8O29
_symmetry_space_group_name_H-M   'P 1'
_cell_length_a   9.76433354
_cell_length_b   9.76948932
_cell_length_c   14.32489080
_cell_angle_alpha   89.61176957
_cell_angle_beta   89.92990422
_cell_angle_gamma   59.95557984
_symmetry_Int_Tables_number   1
_chemical_formula_structural   Li4V3P8O29
_chemical_formula_sum   'Li8 V6 P16 O58'
_cell_volume   1182.85230232
_cell_formula_units_Z   2
loop_
 _symmetry_equiv_pos_site_id
 _symmetry_equiv_pos_as_xyz
  1  'x, y, z'
loop_
 _atom_site_type_symbol
 _atom_site_label
 _atom_site_symmetry_multiplicity
 _atom_site_fract_x
 _atom_site_fract_y
 _atom_site_fract_z
 _atom_site_occupancy
  Li  Li0  1  0.76556902  0.90798900  0.55569386  1
  Li  Li1  1  0.91235148  0.32234996  0.55400617  1
  Li  Li2  1  0.76049653  0.33233755  0.06196561  1
  Li  Li3  1  0.32958374  0.90255142  0.06326428  1
  Li  Li4  1  0.33150573  0.76543299  0.55608452  1
  Li  Li5  1  0.08894639  0.23120406  0.94403795  1
  Li  Li6  1  0.98775600  0.92915230  0.01730663  1
  Li  Li7  1  0.99655231  0.99510879  0.48747912  1
  V  V8  1  0.56171076  0.43637822  0.25294682  1
  V  V9  1  0.43583963  0.56456114  0.75119978  1
  V  V10  1  0.56601965  -0.00006088  0.75073357  1
  V  V11  1  0.43740070  0.00022932  0.24728219  1
  V  V12  1  0.99852454  0.56998555  0.24943070  1
  V  V13  1  0.99902806  0.43858234  0.74559722  1
  P  P14  1  0.91614092  0.77368328  0.84162041  1
  P  P15  1  0.77595676  0.91455077  0.34332094  1
  P  P16  1  0.91322671  0.30983401  0.33983003  1
  P  P17  1  0.66837213  0.66099035  0.13042149  1
  P  P18  1  0.66297843  0.66970849  0.63127108  1
  P  P19  1  0.77421712  0.31507039  0.84487030  1
  P  P20  1  0.69617753  0.22160337  0.66393303  1
  P  P21  1  0.31417730  0.91294358  0.84184385  1
  P  P22  1  0.69467429  0.08772120  0.16255307  1
  P  P23  1  0.31163517  0.77749575  0.34289507  1
  P  P24  1  0.21737832  0.69726401  0.16405794  1
  P  P25  1  0.32825702  0.33370339  0.36469698  1
  P  P26  1  0.33452425  0.33010222  0.86490315  1
  P  P27  1  0.08552059  0.69538004  0.65972462  1
  P  P28  1  0.22203852  0.08494671  0.66065286  1
  P  P29  1  0.08705387  0.22827989  0.15948775  1
  O  O30  1  0.99669975  0.79701531  0.57833563  1
  O  O31  1  0.91656009  0.74303051  0.32763412  1
  O  O32  1  0.79647308  0.00473098  0.08187227  1
  O  O33  1  0.74198980  0.91376841  0.82572242  1
  O  O34  1  0.91544213  0.61820804  0.82752726  1
  O  O35  1  0.81258114  0.66246735  0.17885224  1
  O  O36  1  0.91693880  0.46475820  0.32868251  1
  O  O37  1  0.99697709  0.23374437  0.07237850  1
  O  O38  1  0.91941336  0.33826784  0.83307301  1
  O  O39  1  0.67172083  0.81514788  0.67122998  1
  O  O40  1  0.62049940  0.91515976  0.33137164  1
  O  O41  1  0.80926830  0.51416560  0.66923393  1
  O  O42  1  0.68075641  0.64130688  0.02704524  1
  O  O43  1  0.65385734  0.67488766  0.52730624  1
  O  O44  1  0.66950620  0.51195003  0.17592878  1
  O  O45  1  0.47426395  0.90744220  0.82426473  1
  O  O46  1  0.51449049  0.81219772  0.16263457  1
  O  O47  1  0.74006718  0.34303156  0.32950153  1
  O  O48  1  0.78718161  0.19757005  0.76261170  1
  O  O49  1  0.80082210  0.21020886  0.58511528  1
  O  O50  1  0.77468713  0.24558981  0.93731874  1
  O  O51  1  0.61906063  0.47488157  0.82334504  1
  O  O52  1  0.51046419  0.67596043  0.67475641  1
  O  O53  1  0.65318672  0.26466988  0.16328711  1
  O  O54  1  0.46790474  0.61840019  0.32789553  1
  O  O55  1  0.34584437  0.91323842  0.32543777  1
  O  O56  1  0.79075260  0.01727018  0.25961295  1
  O  O57  1  0.79920826  0.97654960  0.43385901  1
  O  O58  1  0.21220158  0.98968389  0.58284851  1
  O  O59  1  0.65875437  0.08440002  0.66065638  1
  O  O60  1  0.53977469  0.38306975  0.67358160  1
  O  O61  1  0.34049149  0.74389642  0.83198299  1
  O  O62  1  0.47544186  0.33934792  0.31835747  1
  O  O63  1  0.37995023  0.54493016  0.17177922  1
  O  O64  1  0.19961714  0.80499127  0.08401559  1
  O  O65  1  0.23343695  0.79081531  0.43469166  1
  O  O66  1  0.19340060  0.79178078  0.26073333  1
  O  O67  1  0.26068800  0.65923135  0.66167017  1
  O  O68  1  0.48189344  0.18398537  0.81645002  1
  O  O69  1  0.54039053  0.08061569  0.17157561  1
  O  O70  1  0.33749293  0.47738624  0.81864532  1
  O  O71  1  0.34630087  0.32330393  0.96785883  1
  O  O72  1  0.33251537  0.33965192  0.46771036  1
  O  O73  1  0.18196918  0.48468919  0.31990784  1
  O  O74  1  0.38245797  0.07964773  0.67240280  1
  O  O75  1  0.32809767  0.19160696  0.31900273  1
  O  O76  1  0.08243975  0.65808622  0.16392910  1
  O  O77  1  0.00980313  0.79307371  0.75383820  1
  O  O78  1  0.98668448  0.79219148  0.92779494  1
  O  O79  1  0.08503036  0.53741449  0.67005352  1
  O  O80  1  0.18784393  0.32663183  0.82600122  1
  O  O81  1  0.08871109  0.38293110  0.17493780  1
  O  O82  1  0.25601521  0.08401798  0.15651415  1
  O  O83  1  0.24020067  0.99066473  0.93292804  1
  O  O84  1  0.19634311  0.01587353  0.75941923  1
  O  O85  1  0.08396316  0.25847270  0.65751763  1
  O  O86  1  0.98170033  0.22114649  0.42926647  1
  O  O87  1  0.00421770  0.20110727  0.25056214  1
