# generated using pymatgen
data_Li4VAs2O9
_symmetry_space_group_name_H-M   'P 1'
_cell_length_a   9.00254621
_cell_length_b   9.00253918
_cell_length_c   9.65678559
_cell_angle_alpha   89.99874769
_cell_angle_beta   90.00039027
_cell_angle_gamma   90.00000509
_symmetry_Int_Tables_number   1
_chemical_formula_structural   Li4VAs2O9
_chemical_formula_sum   'Li16 V4 As8 O36'
_cell_volume   782.64167181
_cell_formula_units_Z   4
loop_
 _symmetry_equiv_pos_site_id
 _symmetry_equiv_pos_as_xyz
  1  'x, y, z'
loop_
 _atom_site_type_symbol
 _atom_site_label
 _atom_site_symmetry_multiplicity
 _atom_site_fract_x
 _atom_site_fract_y
 _atom_site_fract_z
 _atom_site_occupancy
  Li  Li0  1  0.12049075  0.84548020  0.09469364  1
  Li  Li1  1  0.12049804  0.65452637  0.59469082  1
  Li  Li2  1  0.15452046  0.87951381  0.40532158  1
  Li  Li3  1  0.15454340  0.62048228  0.90532417  1
  Li  Li4  1  0.34546767  0.62048749  0.40532208  1
  Li  Li5  1  0.34547081  0.87951299  0.90532880  1
  Li  Li6  1  0.37951190  0.65451884  0.09469044  1
  Li  Li7  1  0.37949767  0.84548990  0.59469031  1
  Li  Li8  1  0.62049063  0.15452530  0.40531975  1
  Li  Li9  1  0.62048062  0.34546190  0.90532985  1
  Li  Li10  1  0.65451683  0.12048879  0.09469439  1
  Li  Li11  1  0.65451656  0.37949855  0.59469323  1
  Li  Li12  1  0.84547978  0.12049789  0.59468843  1
  Li  Li13  1  0.84547886  0.37950997  0.09469100  1
  Li  Li14  1  0.87951623  0.34547228  0.40532603  1
  Li  Li15  1  0.87951066  0.15453360  0.90532239  1
  V  V16  1  0.25000076  0.24999279  0.32526452  1
  V  V17  1  0.25001744  0.25000412  0.82516803  1
  V  V18  1  0.75000133  0.75001245  0.17468003  1
  V  V19  1  0.75000777  0.75001857  0.67464992  1
  As  As20  1  0.06046478  0.93954269  0.75000950  1
  As  As21  1  0.06046917  0.56046485  0.25000439  1
  As  As22  1  0.43955040  0.56047436  0.74999463  1
  As  As23  1  0.43952832  0.93953352  0.25000796  1
  As  As24  1  0.56047177  0.06046516  0.75000029  1
  As  As25  1  0.56046755  0.43953075  0.25000749  1
  As  As26  1  0.93953616  0.06047535  0.25000366  1
  As  As27  1  0.93953927  0.43954424  0.75000143  1
  O  O28  1  0.06655939  0.36874017  0.27649631  1
  O  O29  1  0.06656754  0.13124573  0.77652223  1
  O  O30  1  0.15105214  0.87567769  0.60686618  1
  O  O31  1  0.15104867  0.62432889  0.10687203  1
  O  O32  1  0.12433688  0.84894672  0.89314077  1
  O  O33  1  0.12432916  0.65103198  0.39314601  1
  O  O34  1  0.13126347  0.06655915  0.27647489  1
  O  O35  1  0.13124760  0.43344940  0.77650529  1
  O  O36  1  0.24999461  0.24996041  0.49451234  1
  O  O37  1  0.25005703  0.25001012  0.99451770  1
  O  O38  1  0.36875840  0.06655226  0.77649697  1
  O  O39  1  0.36874452  0.43343801  0.27650819  1
  O  O40  1  0.37568204  0.65104032  0.89313728  1
  O  O41  1  0.37565986  0.84896118  0.39314792  1
  O  O42  1  0.34895817  0.87566826  0.10687124  1
  O  O43  1  0.34894576  0.62434067  0.60686445  1
  O  O44  1  0.43344009  0.13125589  0.27649141  1
  O  O45  1  0.43346330  0.36876148  0.77648107  1
  O  O46  1  0.56655328  0.63124666  0.22351272  1
  O  O47  1  0.56656075  0.86875660  0.72347927  1
  O  O48  1  0.65104131  0.37567136  0.39314470  1
  O  O49  1  0.65104237  0.12433059  0.89313950  1
  O  O50  1  0.62433322  0.15105082  0.60686583  1
  O  O51  1  0.62432747  0.34895438  0.10687294  1
  O  O52  1  0.63125242  0.56657306  0.72346091  1
  O  O53  1  0.63124499  0.93345169  0.22353843  1
  O  O54  1  0.75000667  0.75005254  0.50543838  1
  O  O55  1  0.75000252  0.75004998  0.00555536  1
  O  O56  1  0.86875485  0.56655753  0.22351206  1
  O  O57  1  0.86876081  0.93345775  0.72348624  1
  O  O58  1  0.87566576  0.15104846  0.10686866  1
  O  O59  1  0.87567279  0.34894629  0.60687076  1
  O  O60  1  0.84897594  0.12433741  0.39314702  1
  O  O61  1  0.84895549  0.37567959  0.89313713  1
  O  O62  1  0.93344682  0.63125049  0.72346284  1
  O  O63  1  0.93344931  0.86875744  0.22353420  1
