# generated using pymatgen
data_Li5Mn4(P2O7)4
_symmetry_space_group_name_H-M   'P 1'
_cell_length_a   9.87425191
_cell_length_b   9.76407319
_cell_length_c   11.16133692
_cell_angle_alpha   90.18762169
_cell_angle_beta   100.39123805
_cell_angle_gamma   89.76290450
_symmetry_Int_Tables_number   1
_chemical_formula_structural   Li5Mn4(P2O7)4
_chemical_formula_sum   'Li10 Mn8 P16 O56'
_cell_volume   1058.43550869
_cell_formula_units_Z   2
loop_
 _symmetry_equiv_pos_site_id
 _symmetry_equiv_pos_as_xyz
  1  'x, y, z'
loop_
 _atom_site_type_symbol
 _atom_site_label
 _atom_site_symmetry_multiplicity
 _atom_site_fract_x
 _atom_site_fract_y
 _atom_site_fract_z
 _atom_site_occupancy
  Li  Li0  1  0.11757863  0.71291770  0.44925891  1
  Li  Li1  1  0.08978833  0.10484878  0.02054459  1
  Li  Li2  1  0.42352764  0.60020523  0.97900246  1
  Li  Li3  1  0.39176595  0.20476464  0.54462869  1
  Li  Li4  1  0.60285991  0.79836391  0.45728294  1
  Li  Li5  1  0.85159939  0.59389429  0.95272184  1
  Li  Li6  1  0.64506548  0.09559356  0.04996722  1
  Li  Li7  1  0.90938982  0.89200503  0.97505724  1
  Li  Li8  1  0.83168434  0.57486555  0.45620278  1
  Li  Li9  1  0.88618804  0.28285997  0.54938779  1
  Mn  Mn10  1  0.19784365  0.92527337  0.66663809  1
  Mn  Mn11  1  0.28545915  0.22621361  0.83941942  1
  Mn  Mn12  1  0.23880964  0.70923733  0.17216878  1
  Mn  Mn13  1  0.30306754  0.42359510  0.33417652  1
  Mn  Mn14  1  0.69978554  0.58026647  0.67319775  1
  Mn  Mn15  1  0.76676465  0.28928874  0.83289899  1
  Mn  Mn16  1  0.72324825  0.77789215  0.16797598  1
  Mn  Mn17  1  0.79948312  0.07136800  0.32906782  1
  P  P18  1  0.02883072  0.43999341  0.75637324  1
  P  P19  1  0.12315912  0.70797731  0.88177132  1
  P  P20  1  0.05726127  0.93107294  0.24132477  1
  P  P21  1  0.12922812  0.14663445  0.43333302  1
  P  P22  1  0.37226377  0.64704527  0.57061160  1
  P  P23  1  0.43814649  0.42497093  0.75810275  1
  P  P24  1  0.53788223  0.06162658  0.76179283  1
  P  P25  1  0.37865416  0.21051560  0.11932872  1
  P  P26  1  0.61640497  0.79859450  0.88786915  1
  P  P27  1  0.46159361  0.94468557  0.24464383  1
  P  P28  1  0.56242553  0.57168628  0.24902386  1
  P  P29  1  0.62708042  0.34309237  0.41869339  1
  P  P30  1  0.87386282  0.85644729  0.56255276  1
  P  P31  1  0.94261983  0.06765721  0.75608482  1
  P  P32  1  0.88408843  0.28950528  0.11756667  1
  P  P33  1  0.97390258  0.55745476  0.23380685  1
  O  O34  1  0.00939526  0.42180904  0.62140413  1
  O  O35  1  0.02309052  0.84564749  0.54603092  1
  O  O36  1  0.09013125  0.07571081  0.72576678  1
  O  O37  1  0.11601972  0.33500670  0.83875018  1
  O  O38  1  0.10413320  0.58537658  0.78293854  1
  O  O39  1  0.18276241  0.82488153  0.81505372  1
  O  O40  1  0.22908511  0.65840374  0.99402790  1
  O  O41  1  0.02181274  0.25217515  0.09186396  1
  O  O42  1  0.12580382  0.06557845  0.30630551  1
  O  O43  1  0.06033934  0.93996015  0.10747956  1
  O  O44  1  0.12638366  0.54635602  0.21028538  1
  O  O45  1  0.20436581  0.27992643  0.41660556  1
  O  O46  1  0.14743182  0.80865081  0.29684701  1
  O  O47  1  0.22118723  0.06407540  0.53548029  1
  O  O48  1  0.28211719  0.56537599  0.46634914  1
  O  O49  1  0.34414147  0.30730033  0.69427519  1
  O  O50  1  0.29466312  0.78013467  0.58729676  1
  O  O51  1  0.39261626  0.06039423  0.80219335  1
  O  O52  1  0.37537398  0.56457112  0.69617236  1
  O  O53  1  0.41565702  0.42574555  0.88852473  1
  O  O54  1  0.47867076  0.76497173  0.91591174  1
  O  O55  1  0.27084363  0.16567144  0.00405603  1
  O  O56  1  0.31564796  0.32959669  0.18298498  1
  O  O57  1  0.38124693  0.08852285  0.21695044  1
  O  O58  1  0.40860393  0.57789051  0.26829985  1
  O  O59  1  0.37701040  0.84147333  0.15309081  1
  O  O60  1  0.53852198  0.10331552  0.63390391  1
  O  O61  1  0.48034934  0.33411902  0.44280993  1
  O  O62  1  0.52139948  0.66557918  0.55772441  1
  O  O63  1  0.46300117  0.91288317  0.37536376  1
  O  O64  1  0.63675568  0.14760243  0.86124187  1
  O  O65  1  0.58833694  0.41244710  0.73830691  1
  O  O66  1  0.59432669  0.90769666  0.77506109  1
  O  O67  1  0.69477029  0.67907953  0.84060310  1
  O  O68  1  0.71507943  0.87264975  0.99413226  1
  O  O69  1  0.51658377  0.22927374  0.08621830  1
  O  O70  1  0.57573283  0.59464092  0.11804643  1
  O  O71  1  0.61649249  0.42000790  0.28874441  1
  O  O72  1  0.60665410  0.96053670  0.20831056  1
  O  O73  1  0.69132397  0.20335646  0.40088064  1
  O  O74  1  0.65772753  0.67236712  0.33041285  1
  O  O75  1  0.72542737  0.42641200  0.51373753  1
  O  O76  1  0.77811046  0.93732711  0.46259306  1
  O  O77  1  0.85153084  0.19090429  0.70229147  1
  O  O78  1  0.80835044  0.71722015  0.57688877  1
  O  O79  1  0.88326932  0.45250180  0.80217153  1
  O  O80  1  0.93879397  0.05677725  0.88973849  1
  O  O81  1  0.87255275  0.93211246  0.69123490  1
  O  O82  1  0.98367771  0.73352413  0.91413855  1
  O  O83  1  0.78546571  0.35131385  0.00491233  1
  O  O84  1  0.80606388  0.17409154  0.17438240  1
  O  O85  1  0.90579146  0.40687397  0.22213795  1
  O  O86  1  0.88836576  0.64611788  0.13477980  1
  O  O87  1  0.90764607  0.92201597  0.26944980  1
  O  O88  1  0.97873127  0.16241478  0.44606259  1
  O  O89  1  0.96976764  0.59844068  0.36359321  1
