# generated using pymatgen
data_Li4V3P8O29
_symmetry_space_group_name_H-M   'P 1'
_cell_length_a   9.80418888
_cell_length_b   9.74993613
_cell_length_c   14.26726432
_cell_angle_alpha   89.99748273
_cell_angle_beta   89.91044795
_cell_angle_gamma   60.18063967
_symmetry_Int_Tables_number   1
_chemical_formula_structural   Li4V3P8O29
_chemical_formula_sum   'Li8 V6 P16 O58'
_cell_volume   1183.23699961
_cell_formula_units_Z   2
loop_
 _symmetry_equiv_pos_site_id
 _symmetry_equiv_pos_as_xyz
  1  'x, y, z'
loop_
 _atom_site_type_symbol
 _atom_site_label
 _atom_site_symmetry_multiplicity
 _atom_site_fract_x
 _atom_site_fract_y
 _atom_site_fract_z
 _atom_site_occupancy
  Li  Li0  1  0.90527371  0.76491260  0.05606818  1
  Li  Li1  1  0.90532932  0.32980431  0.55601323  1
  Li  Li2  1  0.33489668  0.89999308  0.05632968  1
  Li  Li3  1  0.33501805  0.76511948  0.55625532  1
  Li  Li4  1  0.09074620  0.67506300  0.44178601  1
  Li  Li5  1  0.09069652  0.23424137  0.94175407  1
  Li  Li6  1  0.94436646  0.01872168  0.99734344  1
  Li  Li7  1  0.94418098  0.03697949  0.49730680  1
  V  V8  1  0.56645232  0.43287106  0.24463989  1
  V  V9  1  0.43943587  0.55959731  0.75810863  1
  V  V10  1  0.56649379  0.00067656  0.74467014  1
  V  V11  1  0.43944856  0.00094864  0.25804607  1
  V  V12  1  0.99860805  0.56544511  0.24661033  1
  V  V13  1  0.99863956  0.43596359  0.74660740  1
  P  P14  1  0.90939500  0.77912198  0.83875148  1
  P  P15  1  0.78066928  0.91605596  0.34540332  1
  P  P16  1  0.90937929  0.31154733  0.33866181  1
  P  P17  1  0.66111090  0.67265612  0.13299371  1
  P  P18  1  0.66111240  0.66621604  0.63304432  1
  P  P19  1  0.78074831  0.30308725  0.84546303  1
  P  P20  1  0.69481539  0.22324786  0.66138325  1
  P  P21  1  0.31549387  0.91468987  0.84121981  1
  P  P22  1  0.69493416  0.08189833  0.16140661  1
  P  P23  1  0.31551521  0.76982888  0.34116643  1
  P  P24  1  0.22262230  0.69472938  0.15880486  1
  P  P25  1  0.33351542  0.34030573  0.36630035  1
  P  P26  1  0.33351885  0.32616509  0.86637945  1
  P  P27  1  0.09457838  0.68605995  0.66081808  1
  P  P28  1  0.22270461  0.08263710  0.65881705  1
  P  P29  1  0.09454650  0.21941399  0.16076874  1
  O  O30  1  0.02518627  0.76753318  0.57004810  1
  O  O31  1  0.91489877  0.74105738  0.33620130  1
  O  O32  1  0.79482295  0.99347718  0.07930617  1
  O  O33  1  0.73900355  0.91864687  0.82464836  1
  O  O34  1  0.91369246  0.62097658  0.82751942  1
  O  O35  1  0.81246107  0.67532417  0.16665534  1
  O  O36  1  0.91373984  0.46528422  0.32750357  1
  O  O37  1  0.02523311  0.20719555  0.07002021  1
  O  O38  1  0.91490847  0.34410345  0.83610534  1
  O  O39  1  0.66543483  0.81166980  0.67690401  1
  O  O40  1  0.61954997  0.92115300  0.33265914  1
  O  O41  1  0.81253093  0.51211937  0.66663182  1
  O  O42  1  0.64370255  0.68302269  0.02903530  1
  O  O43  1  0.64363513  0.67331013  0.52910698  1
  O  O44  1  0.66531595  0.52292341  0.17683178  1
  O  O45  1  0.47018358  0.91543758  0.82546007  1
  O  O46  1  0.51477680  0.81704851  0.18073108  1
  O  O47  1  0.73901028  0.34243771  0.32464550  1
  O  O48  1  0.79786423  0.19917184  0.75400208  1
  O  O49  1  0.79471328  0.21180623  0.57922557  1
  O  O50  1  0.79854746  0.20959602  0.93048194  1
  O  O51  1  0.61953982  0.45916439  0.83272068  1
  O  O52  1  0.51486553  0.66814865  0.68083234  1
  O  O53  1  0.65476176  0.25667782  0.16313766  1
  O  O54  1  0.47015852  0.61440372  0.32542489  1
  O  O55  1  0.34639235  0.91143015  0.33468568  1
  O  O56  1  0.79787331  0.00296791  0.25410232  1
  O  O57  1  0.79823825  0.99205589  0.43065530  1
  O  O58  1  0.21254221  0.98820475  0.57957541  1
  O  O59  1  0.65472879  0.08861379  0.66311135  1
  O  O60  1  0.54237855  0.38417886  0.67371507  1
  O  O61  1  0.34638294  0.74219409  0.83469550  1
  O  O62  1  0.47794078  0.33765628  0.31614112  1
  O  O63  1  0.38166620  0.53948582  0.16899551  1
  O  O64  1  0.21244989  0.79930195  0.07960367  1
  O  O65  1  0.23386807  0.77251252  0.43131064  1
  O  O66  1  0.19913205  0.79066352  0.25683116  1
  O  O67  1  0.26676844  0.65282610  0.66819912  1
  O  O68  1  0.47791379  0.18435533  0.81615957  1
  O  O69  1  0.54242792  0.07341257  0.17372281  1
  O  O70  1  0.33604999  0.47526856  0.82129047  1
  O  O71  1  0.34162317  0.32347679  0.97013622  1
  O  O72  1  0.34155031  0.33483308  0.47012710  1
  O  O73  1  0.18496420  0.48943100  0.32849490  1
  O  O74  1  0.38173169  0.07880109  0.66898715  1
  O  O75  1  0.33609245  0.18859455  0.32123958  1
  O  O76  1  0.08380596  0.66091788  0.15780072  1
  O  O77  1  0.00546068  0.79544770  0.75015427  1
  O  O78  1  0.97397669  0.79989089  0.92921784  1
  O  O79  1  0.09033019  0.52993656  0.67409355  1
  O  O80  1  0.18490623  0.32563749  0.82855256  1
  O  O81  1  0.09029909  0.37975656  0.17403369  1
  O  O82  1  0.26677690  0.08039881  0.16819368  1
  O  O83  1  0.23383806  0.99357624  0.93129739  1
  O  O84  1  0.19917401  0.01023045  0.75681633  1
  O  O85  1  0.08386328  0.25526690  0.65777552  1
  O  O86  1  0.97405978  0.22606309  0.42919927  1
  O  O87  1  0.00541071  0.19912325  0.25011139  1
