# generated using pymatgen
data_Li4V3P8O29
_symmetry_space_group_name_H-M   'P 1'
_cell_length_a   9.76721388
_cell_length_b   9.75094295
_cell_length_c   14.21608395
_cell_angle_alpha   89.95738453
_cell_angle_beta   90.09671996
_cell_angle_gamma   59.86683245
_symmetry_Int_Tables_number   1
_chemical_formula_structural   Li4V3P8O29
_chemical_formula_sum   'Li8 V6 P16 O58'
_cell_volume   1170.96046493
_cell_formula_units_Z   2
loop_
 _symmetry_equiv_pos_site_id
 _symmetry_equiv_pos_as_xyz
  1  'x, y, z'
loop_
 _atom_site_type_symbol
 _atom_site_label
 _atom_site_symmetry_multiplicity
 _atom_site_fract_x
 _atom_site_fract_y
 _atom_site_fract_z
 _atom_site_occupancy
  Li  Li0  1  0.90282193  0.76330156  0.05869578  1
  Li  Li1  1  0.76452021  0.33250389  0.05747082  1
  Li  Li2  1  0.32600092  0.90617475  0.06039046  1
  Li  Li3  1  0.67305899  0.23278533  0.44021949  1
  Li  Li4  1  0.33070802  0.76216132  0.56027397  1
  Li  Li5  1  0.23459338  0.09758771  0.44151689  1
  Li  Li6  1  0.00241129  0.99384430  0.99763674  1
  Li  Li7  1  0.97138277  0.97506807  0.50110660  1
  V  V8  1  0.56519309  0.43530369  0.25044535  1
  V  V9  1  0.43487449  0.56171858  0.75372994  1
  V  V10  1  0.56793534  0.99824470  0.75115229  1
  V  V11  1  0.43694172  0.99993242  0.24585166  1
  V  V12  1  0.00118550  0.56428632  0.25409728  1
  V  V13  1  0.99892815  0.43798468  0.74544342  1
  P  P14  1  0.91510801  0.77486022  0.84307802  1
  P  P15  1  0.77666716  0.91525600  0.34085554  1
  P  P16  1  0.91812268  0.30536173  0.34250473  1
  P  P17  1  0.67088227  0.66401930  0.13106667  1
  P  P18  1  0.66138404  0.66883902  0.63155900  1
  P  P19  1  0.78118737  0.31024489  0.83900004  1
  P  P20  1  0.68823118  0.22245991  0.65875210  1
  P  P21  1  0.31164997  0.91231472  0.84259471  1
  P  P22  1  0.69334617  0.08449416  0.15727842  1
  P  P23  1  0.31531681  0.77409415  0.34394517  1
  P  P24  1  0.21914564  0.69513779  0.16240179  1
  P  P25  1  0.33390096  0.33043885  0.36828357  1
  P  P26  1  0.33148209  0.33093757  0.86683256  1
  P  P27  1  0.08487783  0.69751758  0.66000834  1
  P  P28  1  0.22538267  0.08806170  0.66114281  1
  P  P29  1  0.08213106  0.22526406  0.15712962  1
  O  O30  1  0.00337935  0.79945837  0.57810973  1
  O  O31  1  0.91703507  0.74133046  0.33346727  1
  O  O32  1  0.79078926  0.99712630  0.07379696  1
  O  O33  1  0.74241955  0.91418001  0.83101347  1
  O  O34  1  0.91583810  0.61776418  0.82616284  1
  O  O35  1  0.81369924  0.67398789  0.17694249  1
  O  O36  1  0.91630697  0.46546111  0.32805673  1
  O  O37  1  0.99273124  0.21661950  0.07403463  1
  O  O38  1  0.91785908  0.34554405  0.82833651  1
  O  O39  1  0.65958769  0.81551186  0.67951088  1
  O  O40  1  0.61957446  0.91825151  0.33083296  1
  O  O41  1  0.81185850  0.52283891  0.67574259  1
  O  O42  1  0.68129134  0.66517486  0.02613088  1
  O  O43  1  0.65447805  0.67510467  0.52753650  1
  O  O44  1  0.67980087  0.50967491  0.16992117  1
  O  O45  1  0.46696751  0.91463227  0.82973636  1
  O  O46  1  0.51291083  0.81057554  0.16778313  1
  O  O47  1  0.74617809  0.33651921  0.34078586  1
  O  O48  1  0.79907165  0.20181791  0.74873058  1
  O  O49  1  0.76988145  0.21061274  0.56819028  1
  O  O50  1  0.79065539  0.22805421  0.92913115  1
  O  O51  1  0.62099597  0.46803745  0.82535810  1
  O  O52  1  0.51231487  0.66746792  0.67278311  1
  O  O53  1  0.65821147  0.25866326  0.16080802  1
  O  O54  1  0.47393143  0.61795777  0.32633070  1
  O  O55  1  0.34262535  0.91742226  0.33310136  1
  O  O56  1  0.79734825  0.00241559  0.24974966  1
  O  O57  1  0.79375233  0.99956567  0.42404444  1
  O  O58  1  0.22518827  0.00141505  0.57374864  1
  O  O59  1  0.65403663  0.08419763  0.66917390  1
  O  O60  1  0.53278709  0.38145621  0.67376751  1
  O  O61  1  0.34593506  0.73900060  0.83050353  1
  O  O62  1  0.48810669  0.32442422  0.33049856  1
  O  O63  1  0.37759000  0.53975108  0.17005736  1
  O  O64  1  0.20028789  0.80357740  0.08241777  1
  O  O65  1  0.24011520  0.78205623  0.43667082  1
  O  O66  1  0.19757071  0.79074386  0.26042573  1
  O  O67  1  0.26165401  0.65592607  0.66371596  1
  O  O68  1  0.47885930  0.18347893  0.82309559  1
  O  O69  1  0.53521412  0.08473789  0.16982658  1
  O  O70  1  0.33700248  0.47826744  0.82188975  1
  O  O71  1  0.32837560  0.33565890  0.97046023  1
  O  O72  1  0.32525901  0.33732577  0.47281315  1
  O  O73  1  0.18827307  0.48033572  0.31897639  1
  O  O74  1  0.38165085  0.08802446  0.67494935  1
  O  O75  1  0.32416125  0.18705262  0.32761823  1
  O  O76  1  0.07840470  0.66195610  0.16294621  1
  O  O77  1  0.01150762  0.79375299  0.75735934  1
  O  O78  1  0.98328009  0.78689334  0.93441774  1
  O  O79  1  0.07795861  0.54249509  0.66953757  1
  O  O80  1  0.18450295  0.33813579  0.81725630  1
  O  O81  1  0.07936541  0.38433306  0.17196079  1
  O  O82  1  0.25531676  0.08484105  0.15746781  1
  O  O83  1  0.22614617  0.98040001  0.93246172  1
  O  O84  1  0.20087733  0.00384527  0.75272901  1
  O  O85  1  0.08484409  0.26015967  0.66370621  1
  O  O86  1  0.00793866  0.21141357  0.42656586  1
  O  O87  1  0.00137326  0.20152760  0.25017926  1
