# generated using pymatgen
data_Li6MnV3(PO4)6
_symmetry_space_group_name_H-M   'P 1'
_cell_length_a   8.66772996
_cell_length_b   8.71689285
_cell_length_c   8.67896789
_cell_angle_alpha   90.34722518
_cell_angle_beta   60.91102333
_cell_angle_gamma   61.14844526
_symmetry_Int_Tables_number   1
_chemical_formula_structural   Li6MnV3(PO4)6
_chemical_formula_sum   'Li6 Mn1 V3 P6 O24'
_cell_volume   476.44959546
_cell_formula_units_Z   1
loop_
 _symmetry_equiv_pos_site_id
 _symmetry_equiv_pos_as_xyz
  1  'x, y, z'
loop_
 _atom_site_type_symbol
 _atom_site_label
 _atom_site_symmetry_multiplicity
 _atom_site_fract_x
 _atom_site_fract_y
 _atom_site_fract_z
 _atom_site_occupancy
  Li  Li0  1  0.62889307  0.70982868  0.11005642  1
  Li  Li1  1  0.38267354  0.67923154  0.65450521  1
  Li  Li2  1  0.63063798  0.21285585  0.26477951  1
  Li  Li3  1  0.98510082  0.74724591  0.63507674  1
  Li  Li4  1  0.98447949  0.24834297  0.37426977  1
  Li  Li5  1  0.38315562  0.17758469  0.96199451  1
  Mn  Mn6  1  0.21022596  0.85654582  0.14673932  1
  V  V7  1  0.21022621  0.35812560  0.64284091  1
  V  V8  1  0.79546633  0.64045088  0.35817118  1
  V  V9  1  0.79561672  0.13895801  0.84715028  1
  P  P10  1  0.27840380  0.95411651  0.47000694  1
  P  P11  1  0.28196550  0.45513973  0.24763168  1
  P  P12  1  0.99666660  0.25535775  0.04816229  1
  P  P13  1  0.72543216  0.53791599  0.74965565  1
  P  P14  1  0.99910427  0.75397015  0.95565865  1
  P  P15  1  0.72182581  0.04194597  0.52762683  1
  O  O16  1  0.31936052  0.91745617  0.27187225  1
  O  O17  1  0.09592188  0.93879374  0.61800854  1
  O  O18  1  0.23598525  0.64738544  0.24736648  1
  O  O19  1  0.09232852  0.44447860  0.28726521  1
  O  O20  1  0.48231306  0.79355363  0.44847898  1
  O  O21  1  0.16740661  0.10244863  0.07491653  1
  O  O22  1  0.47826286  0.29537140  0.06626646  1
  O  O23  1  0.13054026  0.80607239  0.98941840  1
  O  O24  1  0.87464418  0.69485156  0.11044023  1
  O  O25  1  0.32648154  0.41645002  0.40152501  1
  O  O26  1  0.16853938  0.60103969  0.76131027  1
  O  O27  1  0.78358388  0.84217192  0.47891216  1
  O  O28  1  0.23363321  0.14516769  0.51757292  1
  O  O29  1  0.82442473  0.41903522  0.23244473  1
  O  O30  1  0.67014063  0.58345936  0.60275604  1
  O  O31  1  0.12184414  0.30850436  0.88660641  1
  O  O32  1  0.87175861  0.19300642  0.01691227  1
  O  O33  1  0.54396810  0.68010435  0.94239998  1
  O  O34  1  0.82739680  0.91765568  0.93958743  1
  O  O35  1  0.52766550  0.18425461  0.52590951  1
  O  O36  1  0.92094638  0.54545338  0.69815270  1
  O  O37  1  0.78181824  0.34053933  0.74129630  1
  O  O38  1  0.90457349  0.05939529  0.38656828  1
  O  O39  1  0.66858734  0.08464908  0.72868800  1
