# generated using pymatgen
data_HfMg14Mn
_symmetry_space_group_name_H-M   'P 1'
_cell_length_a   6.34010612
_cell_length_b   6.34010561
_cell_length_c   10.11197521
_cell_angle_alpha   90.00000000
_cell_angle_beta   90.00000000
_cell_angle_gamma   120.00000268
_symmetry_Int_Tables_number   1
_chemical_formula_structural   HfMg14Mn
_chemical_formula_sum   'Hf1 Mg14 Mn1'
_cell_volume   352.01375610
_cell_formula_units_Z   1
loop_
 _symmetry_equiv_pos_site_id
 _symmetry_equiv_pos_as_xyz
  1  'x, y, z'
loop_
 _atom_site_type_symbol
 _atom_site_label
 _atom_site_symmetry_multiplicity
 _atom_site_fract_x
 _atom_site_fract_y
 _atom_site_fract_z
 _atom_site_occupancy
  Hf  Hf0  1  0.16666700  0.33333300  0.62500000  1
  Mg  Mg1  1  0.16575734  0.83287817  0.12500000  1
  Mg  Mg2  1  0.17270524  0.83635212  0.62500000  1
  Mg  Mg3  1  0.66712183  0.33424266  0.12500000  1
  Mg  Mg4  1  0.66364788  0.32729476  0.62500000  1
  Mg  Mg5  1  0.66712183  0.83287817  0.12500000  1
  Mg  Mg6  1  0.66364788  0.83635212  0.62500000  1
  Mg  Mg7  1  0.32863697  0.17136303  0.37173519  1
  Mg  Mg8  1  0.32863697  0.17136303  0.87826481  1
  Mg  Mg9  1  0.32863697  0.65727494  0.37173519  1
  Mg  Mg10  1  0.32863697  0.65727494  0.87826481  1
  Mg  Mg11  1  0.84272506  0.17136303  0.37173519  1
  Mg  Mg12  1  0.84272506  0.17136303  0.87826481  1
  Mg  Mg13  1  0.83333300  0.66666700  0.37844924  1
  Mg  Mg14  1  0.83333300  0.66666700  0.87155076  1
  Mn  Mn15  1  0.16666700  0.33333300  0.12500000  1
