# generated using pymatgen
data_Li4Nb2V3Ni3O16
_symmetry_space_group_name_H-M   'P 1'
_cell_length_a   5.95780426
_cell_length_b   5.97096086
_cell_length_c   9.74757496
_cell_angle_alpha   90.11183383
_cell_angle_beta   89.40700911
_cell_angle_gamma   119.88900148
_symmetry_Int_Tables_number   1
_chemical_formula_structural   Li4Nb2V3Ni3O16
_chemical_formula_sum   'Li4 Nb2 V3 Ni3 O16'
_cell_volume   300.61878265
_cell_formula_units_Z   1
loop_
 _symmetry_equiv_pos_site_id
 _symmetry_equiv_pos_as_xyz
  1  'x, y, z'
loop_
 _atom_site_type_symbol
 _atom_site_label
 _atom_site_symmetry_multiplicity
 _atom_site_fract_x
 _atom_site_fract_y
 _atom_site_fract_z
 _atom_site_occupancy
  Li  Li0  1  0.31347349  0.65772948  0.89768114  1
  Li  Li1  1  0.00836508  0.00134298  0.99019207  1
  Li  Li2  1  0.00779844  0.00232220  0.49388510  1
  Li  Li3  1  0.65899978  0.33195052  0.39979027  1
  Nb  Nb4  1  0.34338724  0.66820987  0.50036317  1
  Nb  Nb5  1  0.69106497  0.34483501  0.99921200  1
  V  V6  1  0.18205944  0.82930315  0.22447484  1
  V  V7  1  0.18140069  0.34712357  0.21681235  1
  V  V8  1  0.35897104  0.17723388  0.73176937  1
  Ni  Ni9  1  0.66095352  0.83047057  0.21386516  1
  Ni  Ni10  1  0.83282721  0.66149965  0.70934532  1
  Ni  Ni11  1  0.83255537  0.17080672  0.70923782  1
  O  O12  1  0.18145042  0.84287281  0.59512822  1
  O  O13  1  0.03482675  0.52842806  0.34498327  1
  O  O14  1  0.31107887  0.67129659  0.10462267  1
  O  O15  1  0.01421256  0.99655194  0.30270195  1
  O  O16  1  0.02465572  0.01224263  0.79954982  1
  O  O17  1  0.17778343  0.33722474  0.59430007  1
  O  O18  1  0.47242036  0.96329685  0.34237079  1
  O  O19  1  0.47225680  0.51379299  0.34274767  1
  O  O20  1  0.34135295  0.16574836  0.09169527  1
  O  O21  1  0.67037680  0.83581538  0.58871079  1
  O  O22  1  0.48996532  0.46187719  0.83941687  1
  O  O23  1  0.49174664  0.02707025  0.83869222  1
  O  O24  1  0.62622306  0.31353552  0.60677849  1
  O  O25  1  0.83474328  0.66680072  0.09180943  1
  O  O26  1  0.94493570  0.47190751  0.84578814  1
  O  O27  1  0.84011608  0.16901189  0.09191570  1
