# generated using pymatgen
data_Li2V2F7
_symmetry_space_group_name_H-M   'P 1'
_cell_length_a   10.36679332
_cell_length_b   7.21350967
_cell_length_c   7.67155546
_cell_angle_alpha   90.00000000
_cell_angle_beta   89.98573704
_cell_angle_gamma   90.00000000
_symmetry_Int_Tables_number   1
_chemical_formula_structural   Li2V2F7
_chemical_formula_sum   'Li8 V8 F28'
_cell_volume   573.68629404
_cell_formula_units_Z   4
loop_
 _symmetry_equiv_pos_site_id
 _symmetry_equiv_pos_as_xyz
  1  'x, y, z'
loop_
 _atom_site_type_symbol
 _atom_site_label
 _atom_site_symmetry_multiplicity
 _atom_site_fract_x
 _atom_site_fract_y
 _atom_site_fract_z
 _atom_site_occupancy
  Li  Li0  1  0.14087469  0.15101878  0.31747477  1
  Li  Li1  1  0.36629423  0.13051404  0.14818095  1
  Li  Li2  1  0.13370577  0.63051404  0.85181905  1
  Li  Li3  1  0.35912531  0.65101878  0.68252523  1
  Li  Li4  1  0.64087469  0.34898122  0.31747477  1
  Li  Li5  1  0.86629423  0.36948596  0.14818095  1
  Li  Li6  1  0.63370577  0.86948596  0.85181905  1
  Li  Li7  1  0.85912531  0.84898122  0.68252523  1
  V  V8  1  0.09427625  0.63077577  0.39411684  1
  V  V9  1  0.42004133  0.63225194  0.12625744  1
  V  V10  1  0.07995867  0.13225194  0.87374256  1
  V  V11  1  0.40572375  0.13077577  0.60588316  1
  V  V12  1  0.59427625  0.86922423  0.39411684  1
  V  V13  1  0.92004133  0.86774806  0.12625744  1
  V  V14  1  0.57995867  0.36774806  0.87374256  1
  V  V15  1  0.90572375  0.36922423  0.60588316  1
  F  F16  1  0.19487572  0.17606894  0.07511623  1
  F  F17  1  0.06076168  0.90667448  0.31416941  1
  F  F18  1  0.06879957  0.35001721  0.45100722  1
  F  F19  1  0.26471159  0.60026985  0.27346104  1
  F  F20  1  0.03054016  0.40605992  0.82043707  1
  F  F21  1  0.43988035  0.35451044  0.06328164  1
  F  F22  1  0.31353629  0.16630557  0.38245314  1
  F  F23  1  0.18646371  0.66630557  0.61754686  1
  F  F24  1  0.06011965  0.85451044  0.93671836  1
  F  F25  1  0.46945984  0.90605992  0.17956293  1
  F  F26  1  0.23528841  0.10026985  0.72653896  1
  F  F27  1  0.43120043  0.85001721  0.54899278  1
  F  F28  1  0.69487572  0.32393106  0.07511623  1
  F  F29  1  0.56076168  0.59332552  0.31416941  1
  F  F30  1  0.43923832  0.40667448  0.68583059  1
  F  F31  1  0.30512428  0.67606894  0.92488377  1
  F  F32  1  0.56879957  0.14998279  0.45100722  1
  F  F33  1  0.76471159  0.89973015  0.27346104  1
  F  F34  1  0.53054016  0.09394008  0.82043707  1
  F  F35  1  0.93988035  0.14548956  0.06328164  1
  F  F36  1  0.81353629  0.33369443  0.38245314  1
  F  F37  1  0.68646371  0.83369443  0.61754686  1
  F  F38  1  0.56011965  0.64548956  0.93671836  1
  F  F39  1  0.96945984  0.59394008  0.17956293  1
  F  F40  1  0.73528841  0.39973015  0.72653896  1
  F  F41  1  0.93120043  0.64998279  0.54899278  1
  F  F42  1  0.93923832  0.09332552  0.68583059  1
  F  F43  1  0.80512428  0.82393106  0.92488377  1
