# generated using pymatgen
data_Li4V3P8O29
_symmetry_space_group_name_H-M   'P 1'
_cell_length_a   9.74223951
_cell_length_b   9.74497519
_cell_length_c   14.21503652
_cell_angle_alpha   90.00860425
_cell_angle_beta   89.95165233
_cell_angle_gamma   60.00313283
_symmetry_Int_Tables_number   1
_chemical_formula_structural   Li4V3P8O29
_chemical_formula_sum   'Li8 V6 P16 O58'
_cell_volume   1168.77687814
_cell_formula_units_Z   2
loop_
 _symmetry_equiv_pos_site_id
 _symmetry_equiv_pos_as_xyz
  1  'x, y, z'
loop_
 _atom_site_type_symbol
 _atom_site_label
 _atom_site_symmetry_multiplicity
 _atom_site_fract_x
 _atom_site_fract_y
 _atom_site_fract_z
 _atom_site_occupancy
  Li  Li0  1  0.76225572  0.89680280  0.55546229  1
  Li  Li1  1  0.76210955  0.34102117  0.05565601  1
  Li  Li2  1  0.32197069  0.90968666  0.05901364  1
  Li  Li3  1  0.32157175  0.76854476  0.55912692  1
  Li  Li4  1  0.23231156  0.67094562  0.94284593  1
  Li  Li5  1  0.23232122  0.09669891  0.44289490  1
  Li  Li6  1  0.94487531  0.01490039  0.99123197  1
  Li  Li7  1  0.94332412  0.04298786  0.49059253  1
  V  V8  1  0.56717803  0.43142508  0.25774873  1
  V  V9  1  0.43800925  0.56106804  0.74358841  1
  V  V10  1  0.56722439  0.00125822  0.75790283  1
  V  V11  1  0.43823693  0.00080510  0.24355840  1
  V  V12  1  0.00027985  0.56467031  0.24874161  1
  V  V13  1  0.00028477  0.43502351  0.74886637  1
  P  P14  1  0.92034536  0.77668091  0.84166879  1
  P  P15  1  0.77562118  0.91069505  0.34196231  1
  P  P16  1  0.92031598  0.30300076  0.34155794  1
  P  P17  1  0.66772542  0.65890012  0.13255651  1
  P  P18  1  0.66769795  0.67335601  0.63266951  1
  P  P19  1  0.77532376  0.31398023  0.84212739  1
  P  P20  1  0.69772179  0.21607140  0.66145990  1
  P  P21  1  0.31301226  0.90857401  0.84173497  1
  P  P22  1  0.69801858  0.08597001  0.16120855  1
  P  P23  1  0.31337963  0.77815179  0.34171630  1
  P  P24  1  0.22736303  0.68377415  0.16246769  1
  P  P25  1  0.32864145  0.33378043  0.36728494  1
  P  P26  1  0.32865719  0.33753231  0.86737223  1
  P  P27  1  0.08185716  0.69475509  0.65613811  1
  P  P28  1  0.22733838  0.08886469  0.66249390  1
  P  P29  1  0.08194669  0.22310579  0.15608537  1
  O  O30  1  0.98943026  0.79424226  0.57485230  1
  O  O31  1  0.91815846  0.73894971  0.32838642  1
  O  O32  1  0.79587125  0.00474743  0.07794763  1
  O  O33  1  0.74501738  0.91485155  0.83614791  1
  O  O34  1  0.92395070  0.61722124  0.83092268  1
  O  O35  1  0.81119745  0.66352494  0.17986163  1
  O  O36  1  0.92397773  0.45875731  0.33085155  1
  O  O37  1  0.98956105  0.21549652  0.07491545  1
  O  O38  1  0.91809180  0.34285960  0.82841331  1
  O  O39  1  0.67041491  0.81955570  0.67932178  1
  O  O40  1  0.62066259  0.91015414  0.32719930  1
  O  O41  1  0.81116385  0.52524772  0.67991069  1
  O  O42  1  0.67636112  0.63858896  0.02847331  1
  O  O43  1  0.67643065  0.68533803  0.52859974  1
  O  O44  1  0.67059124  0.50978283  0.17899393  1
  O  O45  1  0.47193247  0.90774135  0.82711096  1
  O  O46  1  0.51169521  0.81070258  0.16506726  1
  O  O47  1  0.74504882  0.34001151  0.33599241  1
  O  O48  1  0.79358437  0.19602383  0.75761302  1
  O  O49  1  0.79548584  0.19995129  0.57822497  1
  O  O50  1  0.78949704  0.23158741  0.93324777  1
  O  O51  1  0.62050941  0.46947474  0.82726180  1
  O  O52  1  0.51164262  0.67747037  0.66501987  1
  O  O53  1  0.65859886  0.26209200  0.16577361  1
  O  O54  1  0.47235167  0.62023740  0.32684666  1
  O  O55  1  0.34154906  0.92059822  0.33251159  1
  O  O56  1  0.79404137  0.01001262  0.25731226  1
  O  O57  1  0.78981270  0.97916622  0.43300801  1
  O  O58  1  0.22969730  0.00346945  0.57364298  1
  O  O59  1  0.65860668  0.07916589  0.66582511  1
  O  O60  1  0.53929536  0.37701390  0.67115343  1
  O  O61  1  0.34139717  0.73789346  0.83251905  1
  O  O62  1  0.48118016  0.33331414  0.32535441  1
  O  O63  1  0.38426465  0.52753860  0.17839519  1
  O  O64  1  0.22974936  0.76687920  0.07368827  1
  O  O65  1  0.23418530  0.78540492  0.43261133  1
  O  O66  1  0.20356317  0.79415992  0.25276522  1
  O  O67  1  0.25517910  0.66162924  0.65587906  1
  O  O68  1  0.48121582  0.18549981  0.82544352  1
  O  O69  1  0.53967614  0.08325105  0.17092730  1
  O  O70  1  0.32659156  0.48678777  0.82694732  1
  O  O71  1  0.32287403  0.33630465  0.97154440  1
  O  O72  1  0.32275721  0.34089807  0.47144230  1
  O  O73  1  0.18706000  0.48080422  0.31711470  1
  O  O74  1  0.38426084  0.08810627  0.67851743  1
  O  O75  1  0.32668163  0.18651446  0.32686684  1
  O  O76  1  0.08531013  0.65514485  0.16404654  1
  O  O77  1  0.00488787  0.79740538  0.75050720  1
  O  O78  1  0.00267824  0.79541863  0.92530242  1
  O  O79  1  0.08038505  0.53783702  0.67083278  1
  O  O80  1  0.18702097  0.33196174  0.81727898  1
  O  O81  1  0.08012765  0.38167041  0.17061816  1
  O  O82  1  0.25535687  0.08308547  0.15582734  1
  O  O83  1  0.23351033  0.98041441  0.93261177  1
  O  O84  1  0.20340091  0.00219907  0.75270622  1
  O  O85  1  0.08528767  0.25951468  0.66410548  1
  O  O86  1  0.00253014  0.20201396  0.42525816  1
  O  O87  1  0.00511781  0.19747765  0.25053728  1
