# generated using pymatgen
data_SrH2
_symmetry_space_group_name_H-M   'P 1'
_cell_length_a   5.73083747
_cell_length_b   7.17147377
_cell_length_c   4.09061726
_cell_angle_alpha   90.00000000
_cell_angle_beta   90.00000000
_cell_angle_gamma   90.00000000
_symmetry_Int_Tables_number   1
_chemical_formula_structural   SrH2
_chemical_formula_sum   'Sr4 H8'
_cell_volume   168.11844043
_cell_formula_units_Z   4
loop_
 _symmetry_equiv_pos_site_id
 _symmetry_equiv_pos_as_xyz
  1  'x, y, z'
loop_
 _atom_site_type_symbol
 _atom_site_label
 _atom_site_symmetry_multiplicity
 _atom_site_fract_x
 _atom_site_fract_y
 _atom_site_fract_z
 _atom_site_occupancy
  Sr  Sr0  1  0.74915225  0.41200464  0.25000000  1
  Sr  Sr1  1  0.24915225  0.08799536  0.25000000  1
  Sr  Sr2  1  0.25084775  0.58799536  0.75000000  1
  Sr  Sr3  1  0.75084775  0.91200464  0.75000000  1
  H  H4  1  0.75352349  0.08170254  0.25000000  1
  H  H5  1  0.25352349  0.41829746  0.25000000  1
  H  H6  1  0.24647651  0.91829746  0.75000000  1
  H  H7  1  0.74647651  0.58170254  0.75000000  1
  H  H8  1  0.49941744  0.75103371  0.25000000  1
  H  H9  1  0.99941744  0.74896629  0.25000000  1
  H  H10  1  0.50058256  0.24896629  0.75000000  1
  H  H11  1  0.00058256  0.25103371  0.75000000  1
