# generated using pymatgen
data_Zn3Fe2O7
_symmetry_space_group_name_H-M   'P 1'
_cell_length_a   5.22334690
_cell_length_b   5.30609748
_cell_length_c   9.42436060
_cell_angle_alpha   106.35032307
_cell_angle_beta   90.00000000
_cell_angle_gamma   90.00000000
_symmetry_Int_Tables_number   1
_chemical_formula_structural   Zn3Fe2O7
_chemical_formula_sum   'Zn6 Fe4 O14'
_cell_volume   250.63828231
_cell_formula_units_Z   2
loop_
 _symmetry_equiv_pos_site_id
 _symmetry_equiv_pos_as_xyz
  1  'x, y, z'
loop_
 _atom_site_type_symbol
 _atom_site_label
 _atom_site_symmetry_multiplicity
 _atom_site_fract_x
 _atom_site_fract_y
 _atom_site_fract_z
 _atom_site_occupancy
  Zn  Zn0  1  0.72310181  0.74234922  1.00000000  1
  Zn  Zn1  1  0.22310181  0.25765078  0.00000000  1
  Zn  Zn2  1  0.79911416  0.57951341  0.60674997  1
  Zn  Zn3  1  0.29911416  0.42048659  0.39325003  1
  Zn  Zn4  1  0.79911416  0.97276244  0.39325003  1
  Zn  Zn5  1  0.29911416  0.02723756  0.60674997  1
  Fe  Fe6  1  0.75398412  0.35540171  0.20656315  1
  Fe  Fe7  1  0.25398412  0.64459829  0.79343685  1
  Fe  Fe8  1  0.25398412  0.85116144  0.20656315  1
  Fe  Fe9  1  0.75398412  0.14883856  0.79343685  1
  O  O10  1  0.68330561  0.93620440  0.58939620  1
  O  O11  1  0.18330561  0.06379560  0.41060380  1
  O  O12  1  0.18330561  0.65319080  0.58939620  1
  O  O13  1  0.68330561  0.34680920  0.41060380  1
  O  O14  1  0.05737953  0.29178998  0.73315499  1
  O  O15  1  0.55737953  0.70821002  0.26684501  1
  O  O16  1  0.55737953  0.44136501  0.73315499  1
  O  O17  1  0.05737953  0.55863499  0.26684501  1
  O  O18  1  0.93634730  0.83709816  0.84289645  1
  O  O19  1  0.43634730  0.16290184  0.15710355  1
  O  O20  1  0.83663876  0.36426377  0.00000000  1
  O  O21  1  0.33663876  0.63573623  1.00000000  1
  O  O22  1  0.93634730  0.99420172  0.15710355  1
  O  O23  1  0.43634730  0.00579828  0.84289645  1
