# generated using pymatgen
data_Li3Mn5(PO4)6
_symmetry_space_group_name_H-M   'P 1'
_cell_length_a   6.19486327
_cell_length_b   15.63044220
_cell_length_c   11.16644486
_cell_angle_alpha   89.85203549
_cell_angle_beta   90.74669695
_cell_angle_gamma   101.42976737
_symmetry_Int_Tables_number   1
_chemical_formula_structural   Li3Mn5(PO4)6
_chemical_formula_sum   'Li6 Mn10 P12 O48'
_cell_volume   1059.69701168
_cell_formula_units_Z   2
loop_
 _symmetry_equiv_pos_site_id
 _symmetry_equiv_pos_as_xyz
  1  'x, y, z'
loop_
 _atom_site_type_symbol
 _atom_site_label
 _atom_site_symmetry_multiplicity
 _atom_site_fract_x
 _atom_site_fract_y
 _atom_site_fract_z
 _atom_site_occupancy
  Li  Li0  1  0.21295213  0.73138362  0.45108047  1
  Li  Li1  1  0.03851194  0.07702389  0.25000000  1
  Li  Li2  1  0.51843049  0.73138362  0.04891953  1
  Li  Li3  1  0.48156951  0.26861638  0.95108047  1
  Li  Li4  1  0.96148806  0.92297611  0.75000000  1
  Li  Li5  1  0.78704787  0.26861638  0.54891953  1
  Mn  Mn6  1  0.20217338  0.89727970  0.09099448  1
  Mn  Mn7  1  -0.00000000  0.50000000  0.00000000  1
  Mn  Mn8  1  0.18960304  0.37920609  0.75000000  1
  Mn  Mn9  1  0.18710755  0.37421609  0.25000000  1
  Mn  Mn10  1  0.30489367  0.10272030  0.59099448  1
  Mn  Mn11  1  0.50000000  0.50000000  0.50000000  1
  Mn  Mn12  1  0.69510633  0.89727970  0.40900552  1
  Mn  Mn13  1  0.81289245  0.62578391  0.75000000  1
  Mn  Mn14  1  0.81039696  0.62079391  0.25000000  1
  Mn  Mn15  1  0.79782662  0.10272030  0.90900552  1
  P  P16  1  0.21145337  0.94913315  0.36653737  1
  P  P17  1  0.00492115  0.29473172  0.00101470  1
  P  P18  1  0.28173015  0.56346131  0.75000000  1
  P  P19  1  0.28047039  0.56093978  0.25000000  1
  P  P20  1  0.28980957  0.29473172  0.49898530  1
  P  P21  1  0.26232123  0.05086685  0.86653737  1
  P  P22  1  0.73767877  0.94913315  0.13346263  1
  P  P23  1  0.71019043  0.70526828  0.50101470  1
  P  P24  1  0.71952961  0.43906022  0.75000000  1
  P  P25  1  0.71826985  0.43653869  0.25000000  1
  P  P26  1  0.99507885  0.70526828  0.99898530  1
  P  P27  1  0.78854663  0.05086685  0.63346263  1
  O  O28  1  0.99594021  0.88572948  0.40539140  1
  O  O29  1  0.21314274  0.97460104  0.22966568  1
  O  O30  1  0.20750474  0.96209253  0.92756396  1
  O  O31  1  0.19996399  0.77941928  0.02326592  1
  O  O32  1  0.10194085  0.62301609  0.99756776  1
  O  O33  1  0.11889697  0.62469406  0.72680472  1
  O  O34  1  0.12204374  0.62516577  0.26793547  1
  O  O35  1  0.38302676  0.89198185  0.39418432  1
  O  O36  1  0.21987457  0.49732997  0.85642013  1
  O  O37  1  0.22208886  0.49605177  0.14296644  1
  O  O38  1  0.12146873  0.28089231  0.11930918  1
  O  O39  1  0.17611774  0.30099691  0.89933303  1
  O  O40  1  0.12487917  0.30099691  0.60066697  1
  O  O41  1  0.15942358  0.28089231  0.38069082  1
  O  O42  1  0.27745540  0.49732997  0.64357987  1
  O  O43  1  0.27396291  0.49605177  0.35703356  1
  O  O44  1  0.50895509  0.89198185  0.10581568  1
  O  O45  1  0.11021073  0.11427052  0.90539140  1
  O  O46  1  0.50579710  0.62469406  0.77319528  1
  O  O47  1  0.50312203  0.62516577  0.23206453  1
  O  O48  1  0.52107524  0.62301609  0.50243224  1
  O  O49  1  0.23854170  0.02539896  0.72966568  1
  O  O50  1  0.57945529  0.77941928  0.47673408  1
  O  O51  1  0.24541121  0.03790747  0.42756396  1
  O  O52  1  0.75458879  0.96209253  0.57243604  1
  O  O53  1  0.42054471  0.22058072  0.52326592  1
  O  O54  1  0.76145830  0.97460104  0.27033432  1
  O  O55  1  0.47892476  0.37698391  0.49756776  1
  O  O56  1  0.49687797  0.37483423  0.76793547  1
  O  O57  1  0.49420290  0.37530594  0.22680472  1
  O  O58  1  0.88978927  0.88572948  0.09460860  1
  O  O59  1  0.49104491  0.10801815  0.89418432  1
  O  O60  1  0.72603709  0.50394823  0.64296644  1
  O  O61  1  0.72254460  0.50267003  0.35642013  1
  O  O62  1  0.84057642  0.71910769  0.61930918  1
  O  O63  1  0.87512083  0.69900309  0.39933303  1
  O  O64  1  0.82388226  0.69900309  0.10066697  1
  O  O65  1  0.87853127  0.71910769  0.88069082  1
  O  O66  1  0.77791114  0.50394823  0.85703356  1
  O  O67  1  0.78012543  0.50267003  0.14357987  1
  O  O68  1  0.61697324  0.10801815  0.60581568  1
  O  O69  1  0.87795626  0.37483423  0.73206453  1
  O  O70  1  0.88110303  0.37530594  0.27319528  1
  O  O71  1  0.89805915  0.37698391  0.00243224  1
  O  O72  1  0.80003601  0.22058072  0.97673408  1
  O  O73  1  0.79249526  0.03790747  0.07243604  1
  O  O74  1  0.78685726  0.02539896  0.77033432  1
  O  O75  1  0.00405979  0.11427052  0.59460860  1
