# generated using pymatgen
data_Li3V3P8O29
_symmetry_space_group_name_H-M   'P 1'
_cell_length_a   9.81484462
_cell_length_b   9.78864382
_cell_length_c   14.59174025
_cell_angle_alpha   89.71372822
_cell_angle_beta   90.07714776
_cell_angle_gamma   59.88697625
_symmetry_Int_Tables_number   1
_chemical_formula_structural   Li3V3P8O29
_chemical_formula_sum   'Li6 V6 P16 O58'
_cell_volume   1212.65762033
_cell_formula_units_Z   2
loop_
 _symmetry_equiv_pos_site_id
 _symmetry_equiv_pos_as_xyz
  1  'x, y, z'
loop_
 _atom_site_type_symbol
 _atom_site_label
 _atom_site_symmetry_multiplicity
 _atom_site_fract_x
 _atom_site_fract_y
 _atom_site_fract_z
 _atom_site_occupancy
  Li  Li0  1  0.92140483  0.77961361  0.05140806  1
  Li  Li1  1  0.78338317  0.29848738  0.05057004  1
  Li  Li2  1  0.29175348  0.92397876  0.04786431  1
  Li  Li3  1  0.32307394  0.76631116  0.56414105  1
  Li  Li4  1  0.22047826  0.09680055  0.45646971  1
  Li  Li5  1  0.91260303  0.00212797  0.52052609  1
  V  V6  1  0.56599039  0.43366362  0.25452246  1
  V  V7  1  0.43716445  0.56238342  0.75035647  1
  V  V8  1  0.57126006  0.99568853  0.74874294  1
  V  V9  1  0.43864686  0.00074191  0.24942825  1
  V  V10  1  0.00387253  0.56126862  0.25393611  1
  V  V11  1  0.99506144  0.43924970  0.74290085  1
  P  P12  1  0.91394367  0.76969581  0.83956548  1
  P  P13  1  0.77653203  0.91467247  0.34007622  1
  P  P14  1  0.91963989  0.30449454  0.33837951  1
  P  P15  1  0.66817480  0.66474016  0.13659519  1
  P  P16  1  0.66101811  0.67089943  0.63085676  1
  P  P17  1  0.77564279  0.31817184  0.83845959  1
  P  P18  1  0.69391186  0.22238855  0.66326285  1
  P  P19  1  0.31978177  0.90853772  0.83772167  1
  P  P20  1  0.68725092  0.08787476  0.16166247  1
  P  P21  1  0.31854152  0.77256161  0.34400019  1
  P  P22  1  0.22734713  0.68699267  0.16749159  1
  P  P23  1  0.33469387  0.33041341  0.36485119  1
  P  P24  1  0.33144584  0.33017432  0.86187496  1
  P  P25  1  0.08424442  0.69802163  0.66196649  1
  P  P26  1  0.22804426  0.08848876  0.66263569  1
  P  P27  1  0.08791934  0.22851472  0.15953339  1
  O  O28  1  0.00492658  0.80505540  0.58336051  1
  O  O29  1  0.91131366  0.74078351  0.32611982  1
  O  O30  1  0.76973018  0.99535246  0.07959633  1
  O  O31  1  0.74518912  0.91427900  0.82795134  1
  O  O32  1  0.90498188  0.61934341  0.81643264  1
  O  O33  1  0.81980556  0.65875024  0.17578359  1
  O  O34  1  0.91972280  0.46380011  0.32602649  1
  O  O35  1  0.99874185  0.23520120  0.07615157  1
  O  O36  1  0.91774764  0.34393471  0.82502963  1
  O  O37  1  0.66542444  0.81499304  0.67648853  1
  O  O38  1  0.61615577  0.91900041  0.32545854  1
  O  O39  1  0.80983405  0.52103476  0.67295838  1
  O  O40  1  0.65704257  0.67337758  0.03520581  1
  O  O41  1  0.65543084  0.67812637  0.52922344  1
  O  O42  1  0.66342124  0.51803630  0.17762017  1
  O  O43  1  0.47825722  0.90182474  0.81962160  1
  O  O44  1  0.52320533  0.81653163  0.18149382  1
  O  O45  1  0.74694925  0.34049945  0.32987514  1
  O  O46  1  0.79053967  0.20157520  0.75758035  1
  O  O47  1  0.79295084  0.20008031  0.58225864  1
  O  O48  1  0.76859307  0.25394434  0.92899592  1
  O  O49  1  0.62188353  0.47865921  0.81717778  1
  O  O50  1  0.50935005  0.67407303  0.66990063  1
  O  O51  1  0.66037157  0.25839076  0.16317088  1
  O  O52  1  0.47713599  0.61620931  0.32449053  1
  O  O53  1  0.34183001  0.91805184  0.33146384  1
  O  O54  1  0.79081287  0.00702029  0.25251082  1
  O  O55  1  0.78983256  0.98692073  0.42490177  1
  O  O56  1  0.22589264  0.00352015  0.57710785  1
  O  O57  1  0.65114746  0.08956670  0.67122765  1
  O  O58  1  0.54043228  0.38457358  0.67131057  1
  O  O59  1  0.34445063  0.73942727  0.82642295  1
  O  O60  1  0.48409861  0.32982675  0.32391738  1
  O  O61  1  0.38167425  0.52573130  0.18369589  1
  O  O62  1  0.23384954  0.77611827  0.08715238  1
  O  O63  1  0.25207186  0.77419228  0.43546018  1
  O  O64  1  0.20382297  0.78486631  0.26192623  1
  O  O65  1  0.26137415  0.65333031  0.66436534  1
  O  O66  1  0.47429873  0.17772673  0.82156566  1
  O  O67  1  0.52562576  0.09589745  0.17969947  1
  O  O68  1  0.34851165  0.47066700  0.81730544  1
  O  O69  1  0.32658020  0.33687536  0.96297225  1
  O  O70  1  0.32907509  0.32541273  0.46605541  1
  O  O71  1  0.18880561  0.48178146  0.32107930  1
  O  O72  1  0.38485348  0.08636742  0.67377788  1
  O  O73  1  0.32902365  0.18504567  0.32166371  1
  O  O74  1  0.08376420  0.66075205  0.16564891  1
  O  O75  1  0.01494301  0.78752935  0.75849068  1
  O  O76  1  0.98495748  0.76285886  0.92998368  1
  O  O77  1  0.07255186  0.54583414  0.66717045  1
  O  O78  1  0.18054617  0.34745096  0.81363387  1
  O  O79  1  0.09455231  0.38121607  0.17964788  1
  O  O80  1  0.25879371  0.08340657  0.16246780  1
  O  O81  1  0.24614993  0.98228307  0.92573113  1
  O  O82  1  0.20577719  0.00435433  0.75186840  1
  O  O83  1  0.08813988  0.25987195  0.66450181  1
  O  O84  1  0.00460113  0.21222761  0.42095680  1
  O  O85  1  0.00388576  0.20396330  0.24823094  1
