# generated using pymatgen
data_B10Pb3O20
_symmetry_space_group_name_H-M   'P 1'
_cell_length_a   9.82610430
_cell_length_b   9.82610453
_cell_length_c   8.59931413
_cell_angle_alpha   89.43963992
_cell_angle_beta   89.43964285
_cell_angle_gamma   120.42292161
_symmetry_Int_Tables_number   1
_chemical_formula_structural   B10Pb3O20
_chemical_formula_sum   'B20 Pb6 O40'
_cell_volume   715.82423968
_cell_formula_units_Z   2
loop_
 _symmetry_equiv_pos_site_id
 _symmetry_equiv_pos_as_xyz
  1  'x, y, z'
loop_
 _atom_site_type_symbol
 _atom_site_label
 _atom_site_symmetry_multiplicity
 _atom_site_fract_x
 _atom_site_fract_y
 _atom_site_fract_z
 _atom_site_occupancy
  B  B0  1  0.49991935  0.69049470  0.66928297  1
  B  B1  1  0.30757124  0.80615346  0.65659574  1
  B  B2  1  0.19154611  0.50172976  0.67664911  1
  B  B3  1  0.69049470  0.49991935  0.16928297  1
  B  B4  1  0.80615346  0.30757124  0.15659574  1
  B  B5  1  0.50172976  0.19154611  0.17664911  1
  B  B6  1  0.36847530  0.39895754  0.71556275  1
  B  B7  1  0.60277909  0.97214981  0.69706803  1
  B  B8  1  0.03042872  0.62982502  0.70485920  1
  B  B9  1  0.39895754  0.36847530  0.21556275  1
  B  B10  1  0.97214981  0.60277909  0.19706803  1
  B  B11  1  0.62982502  0.03042872  0.20485920  1
  B  B12  1  0.60223428  0.86121855  0.43436178  1
  B  B13  1  0.13666358  0.72524339  0.43014997  1
  B  B14  1  0.26231947  0.39804332  0.44725639  1
  B  B15  1  0.86121855  0.60223428  0.93436178  1
  B  B16  1  0.72524339  0.13666358  0.93014997  1
  B  B17  1  0.39804332  0.26231947  0.94725639  1
  B  B18  1  0.01470456  -0.00212262  0.51637881  1
  B  B19  1  -0.00212262  0.01470456  0.01637881  1
  Pb  Pb20  1  0.86819979  0.26329527  0.51397872  1
  Pb  Pb21  1  0.74737341  0.60182273  0.52113309  1
  Pb  Pb22  1  0.39929795  0.14854044  0.52904942  1
  Pb  Pb23  1  0.26329527  0.86819979  0.01397872  1
  Pb  Pb24  1  0.60182273  0.74737341  0.02113309  1
  Pb  Pb25  1  0.14854044  0.39929795  0.02904942  1
  O  O26  1  0.54500421  0.71309348  0.50076374  1
  O  O27  1  0.28539348  0.81179740  0.48875270  1
  O  O28  1  0.17555975  0.45908459  0.50871286  1
  O  O29  1  0.71309348  0.54500421  0.00076374  1
  O  O30  1  0.81179740  0.28539348  0.98875269  1
  O  O31  1  0.45908459  0.17555975  0.00871286  1
  O  O32  1  0.60034780  0.83054095  0.75843278  1
  O  O33  1  0.17057752  0.77529357  0.74864281  1
  O  O34  1  0.22490358  0.39665284  0.76892622  1
  O  O35  1  0.83054095  0.60034780  0.25843278  1
  O  O36  1  0.77529357  0.17057752  0.24864281  1
  O  O37  1  0.39665284  0.22490358  0.26892622  1
  O  O38  1  0.35218723  0.36101698  0.54499887  1
  O  O39  1  0.64481673  0.98981494  0.52851163  1
  O  O40  1  0.00697861  0.63478609  0.53088466  1
  O  O41  1  0.36101698  0.35218723  0.04499887  1
  O  O42  1  0.98981494  0.64481673  0.02851163  1
  O  O43  1  0.63478609  0.00697861  0.03088466  1
  O  O44  1  0.61013283  0.88379587  0.27493933  1
  O  O45  1  0.11464008  0.71854309  0.27237514  1
  O  O46  1  0.27524272  0.38766941  0.28877108  1
  O  O47  1  0.88379587  0.61013283  0.77493933  1
  O  O48  1  0.71854309  0.11464008  0.77237514  1
  O  O49  1  0.38766941  0.27524272  0.78877108  1
  O  O50  1  0.50835414  0.55767920  0.73262072  1
  O  O51  1  0.44201622  0.95458479  0.70871459  1
  O  O52  1  0.05146515  0.49414723  0.73820113  1
  O  O53  1  0.55767920  0.50835414  0.23262072  1
  O  O54  1  0.95458479  0.44201622  0.20871459  1
  O  O55  1  0.49414723  0.05146515  0.23820113  1
  O  O56  1  0.33494740  0.66683135  0.68629057  1
  O  O57  1  0.66683135  0.33494740  0.18629057  1
  O  O58  1  0.33530355  0.65064797  0.03684506  1
  O  O59  1  0.65064797  0.33530355  0.53684506  1
  O  O60  1  0.86530141  0.86254312  0.50925187  1
  O  O61  1  0.14611331  -0.01942134  0.52125655  1
  O  O62  1  0.01767960  0.13686595  0.51077972  1
  O  O63  1  0.86254312  0.86530141  0.00925187  1
  O  O64  1  -0.01942134  0.14611331  0.02125655  1
  O  O65  1  0.13686595  0.01767960  0.01077972  1
