# generated using pymatgen
data_Si3(TeO6)2
_symmetry_space_group_name_H-M   'P 1'
_cell_length_a   10.27659778
_cell_length_b   10.27659767
_cell_length_c   10.27659721
_cell_angle_alpha   109.47122349
_cell_angle_beta   109.47122328
_cell_angle_gamma   109.47121825
_symmetry_Int_Tables_number   1
_chemical_formula_structural   Si3(TeO6)2
_chemical_formula_sum   'Si12 Te8 O48'
_cell_volume   835.46092054
_cell_formula_units_Z   4
loop_
 _symmetry_equiv_pos_site_id
 _symmetry_equiv_pos_as_xyz
  1  'x, y, z'
loop_
 _atom_site_type_symbol
 _atom_site_label
 _atom_site_symmetry_multiplicity
 _atom_site_fract_x
 _atom_site_fract_y
 _atom_site_fract_z
 _atom_site_occupancy
  Si  Si0  1  0.25000000  0.12500000  0.87500000  1
  Si  Si1  1  0.75000000  0.87500000  0.12500000  1
  Si  Si2  1  0.37500000  0.25000000  0.62500000  1
  Si  Si3  1  0.62500000  0.37500000  0.25000000  1
  Si  Si4  1  0.12500000  0.75000000  0.87500000  1
  Si  Si5  1  0.87500000  0.12500000  0.75000000  1
  Si  Si6  1  0.75000000  0.37500000  0.62500000  1
  Si  Si7  1  0.37500000  0.62500000  0.75000000  1
  Si  Si8  1  0.12500000  0.87500000  0.25000000  1
  Si  Si9  1  0.87500000  0.25000000  0.12500000  1
  Si  Si10  1  0.62500000  0.75000000  0.37500000  1
  Si  Si11  1  0.25000000  0.62500000  0.37500000  1
  Te  Te12  1  0.00000000  0.00000000  0.00000000  1
  Te  Te13  1  0.00000000  0.50000000  0.00000000  1
  Te  Te14  1  0.00000000  0.00000000  0.50000000  1
  Te  Te15  1  0.00000000  0.50000000  0.50000000  1
  Te  Te16  1  0.50000000  0.00000000  0.50000000  1
  Te  Te17  1  0.50000000  0.50000000  0.00000000  1
  Te  Te18  1  0.50000000  0.50000000  0.50000000  1
  Te  Te19  1  0.50000000  0.00000000  0.00000000  1
  O  O20  1  0.30283098  0.49270411  0.38703806  1
  O  O21  1  0.00729589  0.31012787  0.89433395  1
  O  O22  1  0.11296194  0.60566605  0.91579292  1
  O  O23  1  0.19716902  0.58420708  0.18987213  1
  O  O24  1  0.19716902  0.11296194  0.00729589  1
  O  O25  1  0.58420708  0.18987213  0.19716902  1
  O  O26  1  0.60566605  0.18987213  0.49270411  1
  O  O27  1  0.18987213  0.19716902  0.58420708  1
  O  O28  1  0.89433395  0.38703806  0.58420708  1
  O  O29  1  0.31012787  0.91579292  0.30283098  1
  O  O30  1  0.91579292  0.30283098  0.31012787  1
  O  O31  1  0.00729589  0.19716902  0.11296194  1
  O  O32  1  0.18987213  0.49270411  0.60566605  1
  O  O33  1  0.58420708  0.89433395  0.38703806  1
  O  O34  1  0.11296194  0.00729589  0.19716902  1
  O  O35  1  0.49270411  0.60566605  0.18987213  1
  O  O36  1  0.38703806  0.58420708  0.89433395  1
  O  O37  1  0.89433395  0.00729589  0.31012787  1
  O  O38  1  0.60566605  0.91579292  0.11296194  1
  O  O39  1  0.10566605  0.61296194  0.41579292  1
  O  O40  1  0.91579292  0.11296194  0.60566605  1
  O  O41  1  0.38703806  0.30283098  0.49270411  1
  O  O42  1  0.31012787  0.89433395  0.00729589  1
  O  O43  1  0.30283098  0.31012787  0.91579292  1
  O  O44  1  0.69716902  0.50729589  0.61296194  1
  O  O45  1  0.99270411  0.68987213  0.10566605  1
  O  O46  1  0.88703806  0.39433395  0.08420708  1
  O  O47  1  0.80283098  0.41579292  0.81012787  1
  O  O48  1  0.80283098  0.88703806  0.99270411  1
  O  O49  1  0.41579292  0.81012787  0.80283098  1
  O  O50  1  0.39433395  0.81012787  0.50729589  1
  O  O51  1  0.81012787  0.80283098  0.41579292  1
  O  O52  1  0.69716902  0.68987213  0.08420708  1
  O  O53  1  0.68987213  0.10566605  0.99270411  1
  O  O54  1  0.61296194  0.69716902  0.50729589  1
  O  O55  1  0.50729589  0.61296194  0.69716902  1
  O  O56  1  0.08420708  0.88703806  0.39433395  1
  O  O57  1  0.39433395  0.08420708  0.88703806  1
  O  O58  1  0.10566605  0.99270411  0.68987213  1
  O  O59  1  0.61296194  0.41579292  0.10566605  1
  O  O60  1  0.50729589  0.39433395  0.81012787  1
  O  O61  1  0.88703806  0.99270411  0.80283098  1
  O  O62  1  0.41579292  0.10566605  0.61296194  1
  O  O63  1  0.81012787  0.50729589  0.39433395  1
  O  O64  1  0.99270411  0.80283098  0.88703806  1
  O  O65  1  0.08420708  0.69716902  0.68987213  1
  O  O66  1  0.68987213  0.08420708  0.69716902  1
  O  O67  1  0.49270411  0.38703806  0.30283098  1
