# generated using pymatgen
data_CdPb3
_symmetry_space_group_name_H-M   'P 1'
_cell_length_a   6.24035722
_cell_length_b   6.24035722
_cell_length_c   6.24035722
_cell_angle_alpha   134.69381456
_cell_angle_beta   134.69381456
_cell_angle_gamma   66.00631656
_symmetry_Int_Tables_number   1
_chemical_formula_structural   CdPb3
_chemical_formula_sum   'Cd1 Pb3'
_cell_volume   120.92760598
_cell_formula_units_Z   1
loop_
 _symmetry_equiv_pos_site_id
 _symmetry_equiv_pos_as_xyz
  1  'x, y, z'
loop_
 _atom_site_type_symbol
 _atom_site_label
 _atom_site_symmetry_multiplicity
 _atom_site_fract_x
 _atom_site_fract_y
 _atom_site_fract_z
 _atom_site_occupancy
  Cd  Cd0  1  -0.00000000  0.00000000  -0.00000000  1
  Pb  Pb1  1  0.74999900  0.25000000  0.49999900  1
  Pb  Pb2  1  0.25000000  0.74999900  0.49999900  1
  Pb  Pb3  1  0.50000000  0.50000000  -0.00000000  1
