# generated using pymatgen
data_Ca5(PO4)3
_symmetry_space_group_name_H-M   'P 1'
_cell_length_a   9.54725603
_cell_length_b   9.54722346
_cell_length_c   6.88948854
_cell_angle_alpha   90.00000000
_cell_angle_beta   90.00000000
_cell_angle_gamma   120.00064250
_symmetry_Int_Tables_number   1
_chemical_formula_structural   Ca5(PO4)3
_chemical_formula_sum   'Ca10 P6 O24'
_cell_volume   543.83913829
_cell_formula_units_Z   2
loop_
 _symmetry_equiv_pos_site_id
 _symmetry_equiv_pos_as_xyz
  1  'x, y, z'
loop_
 _atom_site_type_symbol
 _atom_site_label
 _atom_site_symmetry_multiplicity
 _atom_site_fract_x
 _atom_site_fract_y
 _atom_site_fract_z
 _atom_site_occupancy
  Ca  Ca0  1  0.66667408  0.33334869  0.50089201  1
  Ca  Ca1  1  0.33332592  0.66665131  0.00089201  1
  Ca  Ca2  1  0.33332592  0.66665131  0.49910799  1
  Ca  Ca3  1  0.66667408  0.33334869  0.99910799  1
  Ca  Ca4  1  0.74911050  0.75287341  0.25000000  1
  Ca  Ca5  1  0.00374824  0.25088355  0.25000000  1
  Ca  Ca6  1  0.24714422  0.99624202  0.25000000  1
  Ca  Ca7  1  0.25088950  0.24712659  0.75000000  1
  Ca  Ca8  1  0.99625176  0.74911645  0.75000000  1
  Ca  Ca9  1  0.75285578  0.00375798  0.75000000  1
  P  P10  1  0.97020649  0.60104631  0.25000000  1
  P  P11  1  0.63083897  0.02979505  0.25000000  1
  P  P12  1  0.39895554  0.36915918  0.25000000  1
  P  P13  1  0.02979351  0.39895369  0.75000000  1
  P  P14  1  0.36916103  0.97020495  0.75000000  1
  P  P15  1  0.60104446  0.63084082  0.75000000  1
  O  O16  1  0.15595229  0.67136213  0.25000000  1
  O  O17  1  0.51540567  0.84404759  0.25000000  1
  O  O18  1  0.32863479  0.48458437  0.25000000  1
  O  O19  1  0.84404771  0.32863787  0.75000000  1
  O  O20  1  0.48459433  0.15595241  0.75000000  1
  O  O21  1  0.67136521  0.51541563  0.75000000  1
  O  O22  1  0.87800668  0.41193811  0.25000000  1
  O  O23  1  0.53393697  0.12199898  0.25000000  1
  O  O24  1  0.58806300  0.46607449  0.25000000  1
  O  O25  1  0.12199332  0.58806189  0.75000000  1
  O  O26  1  0.46606303  0.87800102  0.75000000  1
  O  O27  1  0.41193700  0.53392551  0.75000000  1
  O  O28  1  0.91428339  0.65715101  0.43088188  1
  O  O29  1  0.74286975  0.08571645  0.43087861  1
  O  O30  1  0.34285184  0.25713168  0.43088191  1
  O  O31  1  0.08571661  0.34284899  0.93088188  1
  O  O32  1  0.25713025  0.91428355  0.93087861  1
  O  O33  1  0.65714816  0.74286832  0.93088191  1
  O  O34  1  0.08571661  0.34284899  0.56911812  1
  O  O35  1  0.25713025  0.91428355  0.56912139  1
  O  O36  1  0.65714816  0.74286832  0.56911809  1
  O  O37  1  0.91428339  0.65715101  0.06911812  1
  O  O38  1  0.74286975  0.08571645  0.06912139  1
  O  O39  1  0.34285184  0.25713168  0.06911809  1
