# generated using pymatgen
data_Dy5Mg
_symmetry_space_group_name_H-M   'P 1'
_cell_length_a   3.57407208
_cell_length_b   9.34039145
_cell_length_c   5.59178795
_cell_angle_alpha   90.00000000
_cell_angle_beta   90.00000000
_cell_angle_gamma   78.96996273
_symmetry_Int_Tables_number   1
_chemical_formula_structural   Dy5Mg
_chemical_formula_sum   'Dy5 Mg1'
_cell_volume   183.22356827
_cell_formula_units_Z   1
loop_
 _symmetry_equiv_pos_site_id
 _symmetry_equiv_pos_as_xyz
  1  'x, y, z'
loop_
 _atom_site_type_symbol
 _atom_site_label
 _atom_site_symmetry_multiplicity
 _atom_site_fract_x
 _atom_site_fract_y
 _atom_site_fract_z
 _atom_site_occupancy
  Dy  Dy0  1  0.99876869  0.00246263  -0.00000000  1
  Dy  Dy1  1  0.32894327  0.34211546  -0.00000000  1
  Dy  Dy2  1  0.66723941  0.66551919  0.00000000  1
  Dy  Dy3  1  0.44613731  0.10772738  0.49999900  1
  Dy  Dy4  1  0.11435327  0.77129445  0.49999900  1
  Mg  Mg5  1  0.77789205  0.44421390  0.49999900  1
