# generated using pymatgen
data_Ca2Cu2O5
_symmetry_space_group_name_H-M   'P 1'
_cell_length_a   3.79241635
_cell_length_b   5.39072945
_cell_length_c   10.36489140
_cell_angle_alpha   89.99341958
_cell_angle_beta   90.00004828
_cell_angle_gamma   90.00008557
_symmetry_Int_Tables_number   1
_chemical_formula_structural   Ca2Cu2O5
_chemical_formula_sum   'Ca4 Cu4 O10'
_cell_volume   211.89870337
_cell_formula_units_Z   2
loop_
 _symmetry_equiv_pos_site_id
 _symmetry_equiv_pos_as_xyz
  1  'x, y, z'
loop_
 _atom_site_type_symbol
 _atom_site_label
 _atom_site_symmetry_multiplicity
 _atom_site_fract_x
 _atom_site_fract_y
 _atom_site_fract_z
 _atom_site_occupancy
  Ca  Ca0  1  0.50000086  0.19222415  0.86963521  1
  Ca  Ca1  1  0.49999987  0.80770225  0.13060101  1
  Ca  Ca2  1  0.50000043  0.69232220  0.63038810  1
  Ca  Ca3  1  0.50000115  0.30783926  0.36940085  1
  Cu  Cu4  1  0.00000085  0.22063506  0.62016221  1
  Cu  Cu5  1  -0.00000008  0.77927439  0.38022166  1
  Cu  Cu6  1  0.00000032  0.27940367  0.11997248  1
  Cu  Cu7  1  0.00000050  0.72078775  0.87983513  1
  O  O8  1  0.00000045  0.49994852  0.50004965  1
  O  O9  1  0.00000089  0.07784693  0.28932797  1
  O  O10  1  0.00000096  0.57755628  0.21050152  1
  O  O11  1  0.00000064  0.42215598  0.78937077  1
  O  O12  1  0.50000015  0.28648993  0.09971688  1
  O  O13  1  0.50000037  0.71346820  0.90035130  1
  O  O14  1  -0.00000091  0.92246546  0.71057343  1
  O  O15  1  0.50000120  0.21345574  0.59959785  1
  O  O16  1  0.00000022  -0.00001002  -0.00001182  1
  O  O17  1  0.50000016  0.78643325  0.40030581  1
