# generated using pymatgen
data_DyMg5
_symmetry_space_group_name_H-M   'P 1'
_cell_length_a   3.67399264
_cell_length_b   6.19948830
_cell_length_c   7.16385750
_cell_angle_alpha   72.89990474
_cell_angle_beta   90.00000000
_cell_angle_gamma   107.23636816
_symmetry_Int_Tables_number   1
_chemical_formula_structural   DyMg5
_chemical_formula_sum   'Dy1 Mg5'
_cell_volume   148.27296750
_cell_formula_units_Z   1
loop_
 _symmetry_equiv_pos_site_id
 _symmetry_equiv_pos_as_xyz
  1  'x, y, z'
loop_
 _atom_site_type_symbol
 _atom_site_label
 _atom_site_symmetry_multiplicity
 _atom_site_fract_x
 _atom_site_fract_y
 _atom_site_fract_z
 _atom_site_occupancy
  Dy  Dy0  1  0.36153279  0.72306558  0.77707891  1
  Mg  Mg1  1  0.03638912  0.07277824  0.94985647  1
  Mg  Mg2  1  0.68892126  0.37784251  0.12124352  1
  Mg  Mg3  1  0.36058804  0.72117607  0.27843335  1
  Mg  Mg4  1  0.03432095  0.06864191  0.43224538  1
  Mg  Mg5  1  0.68491384  0.36982869  0.60780838  1
