# generated using pymatgen
data_Mg5Sc
_symmetry_space_group_name_H-M   'P 1'
_cell_length_a   5.14913472
_cell_length_b   5.57028673
_cell_length_c   5.57028802
_cell_angle_alpha   60.00001251
_cell_angle_beta   90.00000000
_cell_angle_gamma   90.00000000
_symmetry_Int_Tables_number   1
_chemical_formula_structural   Mg5Sc
_chemical_formula_sum   'Mg5 Sc1'
_cell_volume   138.36305532
_cell_formula_units_Z   1
loop_
 _symmetry_equiv_pos_site_id
 _symmetry_equiv_pos_as_xyz
  1  'x, y, z'
loop_
 _atom_site_type_symbol
 _atom_site_label
 _atom_site_symmetry_multiplicity
 _atom_site_fract_x
 _atom_site_fract_y
 _atom_site_fract_z
 _atom_site_occupancy
  Mg  Mg0  1  0.00000000  0.00913990  0.99085910  1
  Mg  Mg1  1  0.50000000  0.33333300  -0.00000000  1
  Mg  Mg2  1  0.00000000  0.32419310  0.33333300  1
  Mg  Mg3  1  0.50000000  0.00000000  0.66666600  1
  Mg  Mg4  1  -0.00000000  0.66666600  0.67580690  1
  Sc  Sc5  1  0.50000000  0.66666600  0.33333400  1
