# generated using pymatgen
data_Zn3Cr2(SiO4)3
_symmetry_space_group_name_H-M   'P 1'
_cell_length_a   10.23797201
_cell_length_b   10.23797227
_cell_length_c   10.23797195
_cell_angle_alpha   109.47122179
_cell_angle_beta   109.47122233
_cell_angle_gamma   109.47121844
_symmetry_Int_Tables_number   1
_chemical_formula_structural   Zn3Cr2(SiO4)3
_chemical_formula_sum   'Zn12 Cr8 Si12 O48'
_cell_volume   826.07585344
_cell_formula_units_Z   4
loop_
 _symmetry_equiv_pos_site_id
 _symmetry_equiv_pos_as_xyz
  1  'x, y, z'
loop_
 _atom_site_type_symbol
 _atom_site_label
 _atom_site_symmetry_multiplicity
 _atom_site_fract_x
 _atom_site_fract_y
 _atom_site_fract_z
 _atom_site_occupancy
  Zn  Zn0  1  0.37500000  0.75000000  0.12500000  1
  Zn  Zn1  1  0.12500000  0.25000000  0.37500000  1
  Zn  Zn2  1  0.37500000  0.12500000  0.25000000  1
  Zn  Zn3  1  0.12500000  0.37500000  0.75000000  1
  Zn  Zn4  1  0.87500000  0.75000000  0.62500000  1
  Zn  Zn5  1  0.75000000  0.12500000  0.37500000  1
  Zn  Zn6  1  0.75000000  0.62500000  0.87500000  1
  Zn  Zn7  1  0.62500000  0.25000000  0.87500000  1
  Zn  Zn8  1  0.25000000  0.87500000  0.62500000  1
  Zn  Zn9  1  0.87500000  0.62500000  0.25000000  1
  Zn  Zn10  1  0.62500000  0.87500000  0.75000000  1
  Zn  Zn11  1  0.25000000  0.37500000  0.12500000  1
  Cr  Cr12  1  0.00000000  0.00000000  0.00000000  1
  Cr  Cr13  1  0.00000000  0.50000000  0.00000000  1
  Cr  Cr14  1  0.00000000  0.00000000  0.50000000  1
  Cr  Cr15  1  0.00000000  0.50000000  0.50000000  1
  Cr  Cr16  1  0.50000000  0.00000000  0.50000000  1
  Cr  Cr17  1  0.50000000  0.50000000  0.00000000  1
  Cr  Cr18  1  0.50000000  0.50000000  0.50000000  1
  Cr  Cr19  1  0.50000000  0.00000000  0.00000000  1
  Si  Si20  1  0.25000000  0.12500000  0.87500000  1
  Si  Si21  1  0.75000000  0.87500000  0.12500000  1
  Si  Si22  1  0.37500000  0.25000000  0.62500000  1
  Si  Si23  1  0.62500000  0.37500000  0.25000000  1
  Si  Si24  1  0.12500000  0.75000000  0.87500000  1
  Si  Si25  1  0.87500000  0.12500000  0.75000000  1
  Si  Si26  1  0.75000000  0.37500000  0.62500000  1
  Si  Si27  1  0.37500000  0.62500000  0.75000000  1
  Si  Si28  1  0.12500000  0.87500000  0.25000000  1
  Si  Si29  1  0.87500000  0.25000000  0.12500000  1
  Si  Si30  1  0.62500000  0.75000000  0.37500000  1
  Si  Si31  1  0.25000000  0.62500000  0.37500000  1
  O  O32  1  0.29148851  0.48212366  0.37657325  1
  O  O33  1  0.01787634  0.30936485  0.89444959  1
  O  O34  1  0.12342675  0.60555041  0.91491526  1
  O  O35  1  0.20851149  0.58508474  0.19063515  1
  O  O36  1  0.20851149  0.12342675  0.01787634  1
  O  O37  1  0.58508474  0.19063515  0.20851149  1
  O  O38  1  0.60555041  0.19063515  0.48212366  1
  O  O39  1  0.19063515  0.20851149  0.58508474  1
  O  O40  1  0.89444959  0.37657325  0.58508474  1
  O  O41  1  0.30936485  0.91491526  0.29148851  1
  O  O42  1  0.91491526  0.29148851  0.30936485  1
  O  O43  1  0.01787634  0.20851149  0.12342675  1
  O  O44  1  0.19063515  0.48212366  0.60555041  1
  O  O45  1  0.58508474  0.89444959  0.37657325  1
  O  O46  1  0.12342675  0.01787634  0.20851149  1
  O  O47  1  0.48212366  0.60555041  0.19063515  1
  O  O48  1  0.37657325  0.58508474  0.89444959  1
  O  O49  1  0.89444959  0.01787634  0.30936485  1
  O  O50  1  0.60555041  0.91491526  0.12342675  1
  O  O51  1  0.10555041  0.62342675  0.41491526  1
  O  O52  1  0.91491526  0.12342675  0.60555041  1
  O  O53  1  0.37657325  0.29148851  0.48212366  1
  O  O54  1  0.30936485  0.89444959  0.01787634  1
  O  O55  1  0.29148851  0.30936485  0.91491526  1
  O  O56  1  0.70851149  0.51787634  0.62342675  1
  O  O57  1  0.98212366  0.69063515  0.10555041  1
  O  O58  1  0.87657325  0.39444959  0.08508474  1
  O  O59  1  0.79148851  0.41491526  0.80936485  1
  O  O60  1  0.79148851  0.87657325  0.98212366  1
  O  O61  1  0.41491526  0.80936485  0.79148851  1
  O  O62  1  0.39444959  0.80936485  0.51787634  1
  O  O63  1  0.80936485  0.79148851  0.41491526  1
  O  O64  1  0.70851149  0.69063515  0.08508474  1
  O  O65  1  0.69063515  0.10555041  0.98212366  1
  O  O66  1  0.62342675  0.70851149  0.51787634  1
  O  O67  1  0.51787634  0.62342675  0.70851149  1
  O  O68  1  0.08508474  0.87657325  0.39444959  1
  O  O69  1  0.39444959  0.08508474  0.87657325  1
  O  O70  1  0.10555041  0.98212366  0.69063515  1
  O  O71  1  0.62342675  0.41491526  0.10555041  1
  O  O72  1  0.51787634  0.39444959  0.80936485  1
  O  O73  1  0.87657325  0.98212366  0.79148851  1
  O  O74  1  0.41491526  0.10555041  0.62342675  1
  O  O75  1  0.80936485  0.51787634  0.39444959  1
  O  O76  1  0.98212366  0.79148851  0.87657325  1
  O  O77  1  0.08508474  0.70851149  0.69063515  1
  O  O78  1  0.69063515  0.08508474  0.70851149  1
  O  O79  1  0.48212366  0.37657325  0.29148851  1
