# generated using pymatgen
data_Mg17Al11Sn
_symmetry_space_group_name_H-M   'P 1'
_cell_length_a   9.16020572
_cell_length_b   9.20884633
_cell_length_c   9.19664191
_cell_angle_alpha   109.71979882
_cell_angle_beta   109.50622989
_cell_angle_gamma   109.13436369
_symmetry_Int_Tables_number   1
_chemical_formula_structural   Mg17Al11Sn
_chemical_formula_sum   'Mg17 Al11 Sn1'
_cell_volume   597.57761129
_cell_formula_units_Z   1
loop_
 _symmetry_equiv_pos_site_id
 _symmetry_equiv_pos_as_xyz
  1  'x, y, z'
loop_
 _atom_site_type_symbol
 _atom_site_label
 _atom_site_symmetry_multiplicity
 _atom_site_fract_x
 _atom_site_fract_y
 _atom_site_fract_z
 _atom_site_occupancy
  Mg  Mg0  1  0.33990300  0.99480595  0.99999900  1
  Mg  Mg1  1  0.31688916  0.60027817  -0.00000000  1
  Mg  Mg2  1  0.00236833  0.00537432  0.00000000  1
  Mg  Mg3  1  0.00259156  0.34142558  -0.00000000  1
  Mg  Mg4  1  0.59298889  0.30581676  0.00000100  1
  Mg  Mg5  1  0.68398394  0.68564668  0.29486542  1
  Mg  Mg6  1  0.60549408  0.00059815  0.31673562  1
  Mg  Mg7  1  0.00410977  0.59974421  0.32167355  1
  Mg  Mg8  1  0.00251123  0.00723151  0.34960764  1
  Mg  Mg9  1  0.39662524  0.71362306  0.39626324  1
  Mg  Mg10  1  0.71435618  0.39804594  0.39985056  1
  Mg  Mg11  1  0.31450661  0.99819538  0.60015044  1
  Mg  Mg12  1  0.00036200  0.31735982  0.60373676  1
  Mg  Mg13  1  0.65290259  0.65762387  0.65039136  1
  Mg  Mg14  1  0.68243622  0.27807066  0.67832645  1
  Mg  Mg15  1  0.28875946  0.68386254  0.68326438  1
  Mg  Mg16  1  0.38912153  0.39078426  0.70513758  1
  Al  Al17  1  0.62538722  0.82503101  -0.00000000  1
  Al  Al18  1  0.36664500  0.36541642  0.18096013  1
  Al  Al19  1  0.82289515  0.18749968  0.18594251  1
  Al  Al20  1  0.19368776  0.82420430  0.18813791  1
  Al  Al21  1  0.18221689  0.36659128  0.36409886  1
  Al  Al22  1  0.36556616  0.18189880  0.36509784  1
  Al  Al23  1  0.00046832  0.81679996  0.63490216  1
  Al  Al24  1  0.81811803  0.00249242  0.63590114  1
  Al  Al25  1  0.00554985  0.63606839  0.81186209  1
  Al  Al26  1  0.63695464  0.00155817  0.81405849  1
  Al  Al27  1  0.18568288  0.18445529  0.81903887  1
  Sn  Sn28  1  0.80692533  0.62950039  0.00000100  1
