# generated using pymatgen
data_Mg17Al11Cd
_symmetry_space_group_name_H-M   'P 1'
_cell_length_a   9.18865070
_cell_length_b   9.20249128
_cell_length_c   9.12787254
_cell_angle_alpha   109.47796251
_cell_angle_beta   109.41627355
_cell_angle_gamma   109.81772212
_symmetry_Int_Tables_number   1
_chemical_formula_structural   Mg17Al11Cd
_chemical_formula_sum   'Mg17 Al11 Cd1'
_cell_volume   591.95819229
_cell_formula_units_Z   1
loop_
 _symmetry_equiv_pos_site_id
 _symmetry_equiv_pos_as_xyz
  1  'x, y, z'
loop_
 _atom_site_type_symbol
 _atom_site_label
 _atom_site_symmetry_multiplicity
 _atom_site_fract_x
 _atom_site_fract_y
 _atom_site_fract_z
 _atom_site_occupancy
  Mg  Mg0  1  0.00114802  0.34326180  0.99999900  1
  Mg  Mg1  1  0.00147881  0.00188672  0.99999900  1
  Mg  Mg2  1  0.31557164  0.60192012  1.00000000  1
  Mg  Mg3  1  0.34356319  0.99982072  1.00000000  1
  Mg  Mg4  1  0.59877258  0.31072349  0.00000100  1
  Mg  Mg5  1  0.68374071  0.68421670  0.28838762  1
  Mg  Mg6  1  0.60265068  0.00002286  0.31634633  1
  Mg  Mg7  1  0.00164442  0.60130739  0.31787268  1
  Mg  Mg8  1  0.00154589  0.00304963  0.34673059  1
  Mg  Mg9  1  0.39706302  0.71299654  0.39722223  1
  Mg  Mg10  1  0.71366948  0.39733067  0.39827198  1
  Mg  Mg11  1  0.31539750  0.99905870  0.60172902  1
  Mg  Mg12  1  0.99983978  0.31577431  0.60277877  1
  Mg  Mg13  1  0.65481430  0.65631705  0.65326741  1
  Mg  Mg14  1  0.68377073  0.28343471  0.68212732  1
  Mg  Mg15  1  0.28630435  0.68367753  0.68365367  1
  Mg  Mg16  1  0.39535409  0.39583008  0.71161338  1
  Al  Al17  1  0.62861874  0.82022646  1.00000000  1
  Al  Al18  1  0.36679691  0.36692250  0.18169660  1
  Al  Al19  1  0.81976179  0.18681611  0.18632893  1
  Al  Al20  1  0.19152972  0.82118992  0.18671010  1
  Al  Al21  1  0.18166352  0.36619575  0.36543521  1
  Al  Al22  1  0.36685554  0.18226488  0.36604223  1
  Al  Al23  1  0.00081331  0.81622265  0.63395777  1
  Al  Al24  1  0.81623031  0.00076154  0.63456679  1
  Al  Al25  1  0.00481862  0.63447982  0.81328890  1
  Al  Al26  1  0.63343386  0.00048718  0.81367207  1
  Al  Al27  1  0.18509932  0.18522391  0.81830140  1
  Cd  Cd28  1  0.80804917  0.62857828  0.00000000  1
