# generated using pymatgen
data_Mg17Al11Tl
_symmetry_space_group_name_H-M   'P 1'
_cell_length_a   9.20461973
_cell_length_b   9.25324633
_cell_length_c   9.17786373
_cell_angle_alpha   109.64552588
_cell_angle_beta   109.43054574
_cell_angle_gamma   109.56264703
_symmetry_Int_Tables_number   1
_chemical_formula_structural   Mg17Al11Tl
_chemical_formula_sum   'Mg17 Al11 Tl1'
_cell_volume   600.07617022
_cell_formula_units_Z   1
loop_
 _symmetry_equiv_pos_site_id
 _symmetry_equiv_pos_as_xyz
  1  'x, y, z'
loop_
 _atom_site_type_symbol
 _atom_site_label
 _atom_site_symmetry_multiplicity
 _atom_site_fract_x
 _atom_site_fract_y
 _atom_site_fract_z
 _atom_site_occupancy
  Mg  Mg0  1  0.33993938  0.99477832  0.99999900  1
  Mg  Mg1  1  0.31728883  0.60210700  0.00000000  1
  Mg  Mg2  1  0.00415791  0.34053917  1.00000000  1
  Mg  Mg3  1  0.00232937  0.00389194  1.00000000  1
  Mg  Mg4  1  0.59211327  0.30474725  1.00000000  1
  Mg  Mg5  1  0.68431243  0.68602868  0.29545007  1
  Mg  Mg6  1  0.60514897  0.00053195  0.31686724  1
  Mg  Mg7  1  0.00347790  0.59922634  0.32055681  1
  Mg  Mg8  1  0.00201081  0.00759267  0.34841842  1
  Mg  Mg9  1  0.39594179  0.71332160  0.39560541  1
  Mg  Mg10  1  0.71462204  0.39789682  0.40025940  1
  Mg  Mg11  1  0.31436164  0.99763742  0.59974160  1
  Mg  Mg12  1  0.00033738  0.31771719  0.60439559  1
  Mg  Mg13  1  0.65359138  0.65917224  0.65157958  1
  Mg  Mg14  1  0.68292108  0.27866953  0.67944219  1
  Mg  Mg15  1  0.28828172  0.68366571  0.68313276  1
  Mg  Mg16  1  0.38886236  0.39057961  0.70455093  1
  Al  Al17  1  0.62464938  0.82697546  1.00000000  1
  Al  Al18  1  0.36780690  0.36643425  0.18169517  1
  Al  Al19  1  0.82223480  0.18909466  0.18688312  1
  Al  Al20  1  0.19505172  0.82370857  0.18781896  1
  Al  Al21  1  0.18273687  0.36686448  0.36393302  1
  Al  Al22  1  0.36629451  0.18141234  0.36474245  1
  Al  Al23  1  0.00155207  0.81667090  0.63525855  1
  Al  Al24  1  0.81880385  0.00293046  0.63606698  1
  Al  Al25  1  0.00723376  0.63589161  0.81218104  1
  Al  Al26  1  0.63535368  0.00221254  0.81311788  1
  Al  Al27  1  0.18611073  0.18473808  0.81830383  1
  Tl  Tl28  1  0.80247447  0.62496020  1.00000000  1
