# generated using pymatgen
data_Pr5Mg
_symmetry_space_group_name_H-M   'P 1'
_cell_length_a   6.38794190
_cell_length_b   6.38794283
_cell_length_c   6.86039331
_cell_angle_alpha   117.74689611
_cell_angle_beta   62.25309464
_cell_angle_gamma   119.99998824
_symmetry_Int_Tables_number   1
_chemical_formula_structural   Pr5Mg
_chemical_formula_sum   'Pr5 Mg1'
_cell_volume   204.42571606
_cell_formula_units_Z   1
loop_
 _symmetry_equiv_pos_site_id
 _symmetry_equiv_pos_as_xyz
  1  'x, y, z'
loop_
 _atom_site_type_symbol
 _atom_site_label
 _atom_site_symmetry_multiplicity
 _atom_site_fract_x
 _atom_site_fract_y
 _atom_site_fract_z
 _atom_site_occupancy
  Pr  Pr0  1  0.96806428  1.00000000  1.00000000  1
  Pr  Pr1  1  0.69860172  0.36526872  0.00000000  1
  Pr  Pr2  1  0.33333300  0.63473128  1.00000000  1
  Pr  Pr3  1  0.17306617  0.16026683  0.48079948  1
  Pr  Pr4  1  0.49359883  0.83973317  0.51920152  1
  Mg  Mg5  1  0.83333200  0.50000000  0.50000100  1
