# generated using pymatgen
data_NdTm
_symmetry_space_group_name_H-M   'P 1'
_cell_length_a   3.62314420
_cell_length_b   3.62314679
_cell_length_c   5.83736947
_cell_angle_alpha   89.98871506
_cell_angle_beta   90.01135241
_cell_angle_gamma   119.99603869
_symmetry_Int_Tables_number   1
_chemical_formula_structural   NdTm
_chemical_formula_sum   'Nd1 Tm1'
_cell_volume   66.36463129
_cell_formula_units_Z   1
loop_
 _symmetry_equiv_pos_site_id
 _symmetry_equiv_pos_as_xyz
  1  'x, y, z'
loop_
 _atom_site_type_symbol
 _atom_site_label
 _atom_site_symmetry_multiplicity
 _atom_site_fract_x
 _atom_site_fract_y
 _atom_site_fract_z
 _atom_site_occupancy
  Nd  Nd0  1  0.66669051  0.33331011  0.75040842  1
  Tm  Tm1  1  0.33331049  0.66668889  0.24959058  1
