# generated using pymatgen
data_Tb5Mg
_symmetry_space_group_name_H-M   'P 1'
_cell_length_a   3.59320326
_cell_length_b   9.31809294
_cell_length_c   5.64080681
_cell_angle_alpha   90.00000000
_cell_angle_beta   90.00000000
_cell_angle_gamma   78.88329938
_symmetry_Int_Tables_number   1
_chemical_formula_structural   Tb5Mg
_chemical_formula_sum   'Tb5 Mg1'
_cell_volume   185.32062066
_cell_formula_units_Z   1
loop_
 _symmetry_equiv_pos_site_id
 _symmetry_equiv_pos_as_xyz
  1  'x, y, z'
loop_
 _atom_site_type_symbol
 _atom_site_label
 _atom_site_symmetry_multiplicity
 _atom_site_fract_x
 _atom_site_fract_y
 _atom_site_fract_z
 _atom_site_occupancy
  Tb  Tb0  1  0.99851585  0.00296630  0.00000000  1
  Tb  Tb1  1  0.32890792  0.34218717  0.00000000  1
  Tb  Tb2  1  0.66771342  0.66457116  0.00000000  1
  Tb  Tb3  1  0.44541906  0.10916389  0.50000000  1
  Tb  Tb4  1  0.11501707  0.76996886  0.50000000  1
  Mg  Mg5  1  0.77776069  0.44447763  0.50000000  1
