# generated using pymatgen
data_NpCo3
_symmetry_space_group_name_H-M   'P 1'
_cell_length_a   5.21481306
_cell_length_b   5.21952360
_cell_length_c   4.36855086
_cell_angle_alpha   90.00000000
_cell_angle_beta   90.00000000
_cell_angle_gamma   120.06302370
_symmetry_Int_Tables_number   1
_chemical_formula_structural   NpCo3
_chemical_formula_sum   'Np2 Co6'
_cell_volume   102.91092492
_cell_formula_units_Z   2
loop_
 _symmetry_equiv_pos_site_id
 _symmetry_equiv_pos_as_xyz
  1  'x, y, z'
loop_
 _atom_site_type_symbol
 _atom_site_label
 _atom_site_symmetry_multiplicity
 _atom_site_fract_x
 _atom_site_fract_y
 _atom_site_fract_z
 _atom_site_occupancy
  Np  Np0  1  0.66674321  0.33335783  0.25000000  1
  Np  Np1  1  0.33337007  0.66666233  0.75000000  1
  Co  Co2  1  0.83774450  0.16225483  0.75000000  1
  Co  Co3  1  0.32447517  0.16222481  0.75000000  1
  Co  Co4  1  0.83776614  0.67550710  0.75000000  1
  Co  Co5  1  0.16215389  0.83779819  0.25000000  1
  Co  Co6  1  0.67558479  0.83780039  0.25000000  1
  Co  Co7  1  0.16216624  0.32439852  0.25000000  1
