# generated using pymatgen
data_SrYb
_symmetry_space_group_name_H-M   'P 1'
_cell_length_a   4.13538497
_cell_length_b   4.13509204
_cell_length_c   6.53451950
_cell_angle_alpha   90.00592638
_cell_angle_beta   90.01195021
_cell_angle_gamma   119.98610822
_symmetry_Int_Tables_number   1
_chemical_formula_structural   SrYb
_chemical_formula_sum   'Sr1 Yb1'
_cell_volume   96.78458036
_cell_formula_units_Z   1
loop_
 _symmetry_equiv_pos_site_id
 _symmetry_equiv_pos_as_xyz
  1  'x, y, z'
loop_
 _atom_site_type_symbol
 _atom_site_label
 _atom_site_symmetry_multiplicity
 _atom_site_fract_x
 _atom_site_fract_y
 _atom_site_fract_z
 _atom_site_occupancy
  Sr  Sr0  1  0.66666333  0.33334466  0.75001938  1
  Yb  Yb1  1  0.33333767  0.66665434  0.24998262  1
