# generated using pymatgen
data_UH3CO6
_symmetry_space_group_name_H-M   'P 1'
_cell_length_a   5.68251335
_cell_length_b   6.27218771
_cell_length_c   7.84183295
_cell_angle_alpha   85.68890346
_cell_angle_beta   88.81278286
_cell_angle_gamma   81.62817979
_symmetry_Int_Tables_number   1
_chemical_formula_structural   UH3CO6
_chemical_formula_sum   'U2 H6 C2 O12'
_cell_volume   275.72274585
_cell_formula_units_Z   2
loop_
 _symmetry_equiv_pos_site_id
 _symmetry_equiv_pos_as_xyz
  1  'x, y, z'
loop_
 _atom_site_type_symbol
 _atom_site_label
 _atom_site_symmetry_multiplicity
 _atom_site_fract_x
 _atom_site_fract_y
 _atom_site_fract_z
 _atom_site_occupancy
  U  U0  1  0.63358252  0.64580707  0.79816088  1
  U  U1  1  0.36641748  0.35419293  0.20183912  1
  H  H2  1  0.79104764  0.25704823  0.99800612  1
  H  H3  1  0.20895236  0.74295177  0.00199388  1
  H  H4  1  0.37059507  0.09235555  0.65538815  1
  H  H5  1  0.62940493  0.90764445  0.34461185  1
  H  H6  1  0.53604708  0.13324574  0.81372729  1
  H  H7  1  0.46395292  0.86675426  0.18627271  1
  C  C8  1  0.97176804  0.61138151  0.45173383  1
  C  C9  1  0.02823196  0.38861849  0.54826617  1
  O  O10  1  0.38992980  0.58111447  0.67737919  1
  O  O11  1  0.61007020  0.41888553  0.32262081  1
  O  O12  1  0.87203797  0.72321038  0.91862930  1
  O  O13  1  0.12796203  0.27678962  0.08137070  1
  O  O14  1  0.81474633  0.74731515  0.51854136  1
  O  O15  1  0.18525367  0.25268485  0.48145864  1
  O  O16  1  0.91604380  0.35786229  0.68591967  1
  O  O17  1  0.08395620  0.64213771  0.31408033  1
  O  O18  1  0.62525573  0.30467045  0.96228836  1
  O  O19  1  0.37474427  0.69532955  0.03771164  1
  O  O20  1  0.48367321  0.02170029  0.74390370  1
  O  O21  1  0.51632679  0.97829971  0.25609630  1
