# generated using pymatgen
data_CoTe(PbO3)2
_symmetry_space_group_name_H-M   'P 1'
_cell_length_a   5.73349599
_cell_length_b   5.79424311
_cell_length_c   8.03740108
_cell_angle_alpha   90.31311168
_cell_angle_beta   90.00000000
_cell_angle_gamma   90.00000000
_symmetry_Int_Tables_number   1
_chemical_formula_structural   CoTe(PbO3)2
_chemical_formula_sum   'Co2 Te2 Pb4 O12'
_cell_volume   267.00868141
_cell_formula_units_Z   2
loop_
 _symmetry_equiv_pos_site_id
 _symmetry_equiv_pos_as_xyz
  1  'x, y, z'
loop_
 _atom_site_type_symbol
 _atom_site_label
 _atom_site_symmetry_multiplicity
 _atom_site_fract_x
 _atom_site_fract_y
 _atom_site_fract_z
 _atom_site_occupancy
  Co  Co0  1  0.50000000  0.50000000  0.50000000  1
  Co  Co1  1  0.00000000  -0.00000000  -0.00000000  1
  Te  Te2  1  0.50000000  0.50000000  -0.00000000  1
  Te  Te3  1  0.00000000  -0.00000000  0.50000000  1
  Pb  Pb4  1  0.99269705  0.49610971  0.75329849  1
  Pb  Pb5  1  0.50730295  0.99610971  0.25329849  1
  Pb  Pb6  1  0.00730295  0.50389029  0.24670151  1
  Pb  Pb7  1  0.49269705  0.00389029  0.74670151  1
  O  O8  1  0.50847464  0.55013403  0.75885004  1
  O  O9  1  0.99152536  0.05013403  0.25885004  1
  O  O10  1  0.49152536  0.44986597  0.24114996  1
  O  O11  1  0.00847464  0.94986597  0.74114996  1
  O  O12  1  0.22910120  0.75148819  0.47031535  1
  O  O13  1  0.27089880  0.25148819  0.97031535  1
  O  O14  1  0.77089880  0.24851181  0.52968465  1
  O  O15  1  0.72910120  0.74851181  0.02968465  1
  O  O16  1  0.74526187  0.77575046  0.47463978  1
  O  O17  1  0.75473813  0.27575046  0.97463978  1
  O  O18  1  0.25473813  0.22424954  0.52536022  1
  O  O19  1  0.24526187  0.72424954  0.02536022  1
