# generated using pymatgen
data_Cu2NO6
_symmetry_space_group_name_H-M   'P 1'
_cell_length_a   5.45055288
_cell_length_b   5.84650868
_cell_length_c   7.46461590
_cell_angle_alpha   90.00000000
_cell_angle_beta   95.13342498
_cell_angle_gamma   90.00000000
_symmetry_Int_Tables_number   1
_chemical_formula_structural   Cu2NO6
_chemical_formula_sum   'Cu4 N2 O12'
_cell_volume   236.91861212
_cell_formula_units_Z   2
loop_
 _symmetry_equiv_pos_site_id
 _symmetry_equiv_pos_as_xyz
  1  'x, y, z'
loop_
 _atom_site_type_symbol
 _atom_site_label
 _atom_site_symmetry_multiplicity
 _atom_site_fract_x
 _atom_site_fract_y
 _atom_site_fract_z
 _atom_site_occupancy
  Cu  Cu0  1  0.00000000  0.50000000  0.00000000  1
  Cu  Cu1  1  0.00000000  -0.00000000  0.00000000  1
  Cu  Cu2  1  0.50443119  0.25000000  0.99551827  1
  Cu  Cu3  1  0.49556881  0.75000000  0.00448173  1
  N  N4  1  0.22108533  0.25000000  0.40141634  1
  N  N5  1  0.77891467  0.75000000  0.59858366  1
  O  O6  1  0.89870246  0.25000000  0.87266011  1
  O  O7  1  0.10129754  0.75000000  0.12733989  1
  O  O8  1  0.30879543  0.49720973  0.90701142  1
  O  O9  1  0.69120457  0.99720973  0.09298858  1
  O  O10  1  0.69120457  0.50279027  0.09298858  1
  O  O11  1  0.30879543  0.00279027  0.90701142  1
  O  O12  1  0.18809769  0.25000000  0.22673152  1
  O  O13  1  0.81190231  0.75000000  0.77326848  1
  O  O14  1  0.23709923  0.43621093  0.47968667  1
  O  O15  1  0.76290077  0.93621093  0.52031333  1
  O  O16  1  0.76290077  0.56378907  0.52031333  1
  O  O17  1  0.23709923  0.06378907  0.47968667  1
