# generated using pymatgen
data_NiH5CN(ClO)2
_symmetry_space_group_name_H-M   'P 1'
_cell_length_a   6.72725676
_cell_length_b   7.10025271
_cell_length_c   7.10025271
_cell_angle_alpha   110.36578156
_cell_angle_beta   98.92600195
_cell_angle_gamma   98.92600195
_symmetry_Int_Tables_number   1
_chemical_formula_structural   NiH5CN(ClO)2
_chemical_formula_sum   'Ni2 H10 C2 N2 Cl4 O4'
_cell_volume   305.98013087
_cell_formula_units_Z   2
loop_
 _symmetry_equiv_pos_site_id
 _symmetry_equiv_pos_as_xyz
  1  'x, y, z'
loop_
 _atom_site_type_symbol
 _atom_site_label
 _atom_site_symmetry_multiplicity
 _atom_site_fract_x
 _atom_site_fract_y
 _atom_site_fract_z
 _atom_site_occupancy
  Ni  Ni0  1  0.50000000  -0.00000000  0.00000000  1
  Ni  Ni1  1  0.00000000  -0.00000000  0.00000000  1
  H  H2  1  0.25000000  0.31307957  0.68692043  1
  H  H3  1  0.75000000  0.68692043  0.31307957  1
  H  H4  1  0.73171336  0.26943238  0.51941961  1
  H  H5  1  0.76828664  0.48058039  0.73056762  1
  H  H6  1  0.26828664  0.73056762  0.48058039  1
  H  H7  1  0.23171336  0.51941961  0.26943238  1
  H  H8  1  0.62003524  0.25705738  0.71703098  1
  H  H9  1  0.87996476  0.28296902  0.74294262  1
  H  H10  1  0.37996476  0.74294262  0.28296902  1
  H  H11  1  0.12003524  0.71703098  0.25705738  1
  C  C12  1  0.25000000  0.21856394  0.78143606  1
  C  C13  1  0.75000000  0.78143606  0.21856394  1
  N  N14  1  0.75000000  0.32256609  0.67743391  1
  N  N15  1  0.25000000  0.67743391  0.32256609  1
  Cl  Cl16  1  0.32147698  0.17857518  0.25856916  1
  Cl  Cl17  1  0.17852302  0.74143084  0.82142482  1
  Cl  Cl18  1  0.67852302  0.82142482  0.74143084  1
  Cl  Cl19  1  0.82147698  0.25856916  0.17857518  1
  O  O20  1  0.41731527  0.16364263  0.82146273  1
  O  O21  1  0.08268473  0.17853727  0.83635737  1
  O  O22  1  0.58268473  0.83635737  0.17853727  1
  O  O23  1  0.91731527  0.82146273  0.16364263  1
