# generated using pymatgen
data_Al(CuO2)2
_symmetry_space_group_name_H-M   'P 1'
_cell_length_a   5.82678839
_cell_length_b   5.82678818
_cell_length_c   5.82678897
_cell_angle_alpha   60.10629122
_cell_angle_beta   60.10629423
_cell_angle_gamma   60.10629289
_symmetry_Int_Tables_number   1
_chemical_formula_structural   Al(CuO2)2
_chemical_formula_sum   'Al2 Cu4 O8'
_cell_volume   140.22240906
_cell_formula_units_Z   2
loop_
 _symmetry_equiv_pos_site_id
 _symmetry_equiv_pos_as_xyz
  1  'x, y, z'
loop_
 _atom_site_type_symbol
 _atom_site_label
 _atom_site_symmetry_multiplicity
 _atom_site_fract_x
 _atom_site_fract_y
 _atom_site_fract_z
 _atom_site_occupancy
  Al  Al0  1  0.62404544  0.62404544  0.62404544  1
  Al  Al1  1  0.37595456  0.37595456  0.37595456  1
  Cu  Cu2  1  0.00000000  0.50000000  0.00000000  1
  Cu  Cu3  1  0.00000000  0.00000000  0.00000000  1
  Cu  Cu4  1  0.50000000  0.00000000  0.00000000  1
  Cu  Cu5  1  0.00000000  0.00000000  0.50000000  1
  O  O6  1  0.24412708  0.75115946  0.75115946  1
  O  O7  1  0.24884054  0.24884054  0.75587292  1
  O  O8  1  0.24884054  0.75587292  0.24884054  1
  O  O9  1  0.24914131  0.24914131  0.24914131  1
  O  O10  1  0.75115946  0.75115946  0.24412708  1
  O  O11  1  0.75587292  0.24884054  0.24884054  1
  O  O12  1  0.75115946  0.24412708  0.75115946  1
  O  O13  1  0.75085869  0.75085869  0.75085869  1
