# generated using pymatgen
data_GeO2
_symmetry_space_group_name_H-M   'P 1'
_cell_length_a   7.61886759
_cell_length_b   7.64519872
_cell_length_c   7.66298636
_cell_angle_alpha   75.87283333
_cell_angle_beta   60.19026878
_cell_angle_gamma   60.59521583
_symmetry_Int_Tables_number   1
_chemical_formula_structural   GeO2
_chemical_formula_sum   'Ge8 O16'
_cell_volume   337.39735796
_cell_formula_units_Z   8
loop_
 _symmetry_equiv_pos_site_id
 _symmetry_equiv_pos_as_xyz
  1  'x, y, z'
loop_
 _atom_site_type_symbol
 _atom_site_label
 _atom_site_symmetry_multiplicity
 _atom_site_fract_x
 _atom_site_fract_y
 _atom_site_fract_z
 _atom_site_occupancy
  Ge  Ge0  1  0.45794704  0.57500157  0.21795079  1
  Ge  Ge1  1  0.82410217  0.92499843  0.21795079  1
  Ge  Ge2  1  0.54205296  0.42499843  0.78204921  1
  Ge  Ge3  1  0.17589783  0.07500157  0.78204921  1
  Ge  Ge4  1  0.30424417  0.04278861  0.32064460  1
  Ge  Ge5  1  0.87511123  0.45721139  0.32064460  1
  Ge  Ge6  1  0.69575583  0.95721139  0.67935540  1
  Ge  Ge7  1  0.12488877  0.54278861  0.67935540  1
  O  O8  1  0.50000000  0.50000000  0.00000000  1
  O  O9  1  -0.00000000  -0.00000000  0.00000000  1
  O  O10  1  0.13985190  0.25000000  0.22029621  1
  O  O11  1  0.86014810  0.75000000  0.77970379  1
  O  O12  1  0.69948808  0.42757032  0.25646224  1
  O  O13  1  0.54404968  0.07242968  0.25646224  1
  O  O14  1  0.30051192  0.57242968  0.74353776  1
  O  O15  1  0.45595032  0.92757032  0.74353776  1
  O  O16  1  0.38273887  0.83285664  0.19737284  1
  O  O17  1  0.91988829  0.66714336  0.19737284  1
  O  O18  1  0.61726113  0.16714336  0.80262716  1
  O  O19  1  0.08011171  0.33285664  0.80262716  1
  O  O20  1  0.84685993  0.97629985  0.41710472  1
  O  O21  1  0.23603535  0.52370015  0.41710472  1
  O  O22  1  0.15314007  0.02370015  0.58289528  1
  O  O23  1  0.76396465  0.47629985  0.58289528  1
