# generated using pymatgen
data_U2FeSe5
_symmetry_space_group_name_H-M   'P 1'
_cell_length_a   6.52819464
_cell_length_b   7.34543546
_cell_length_c   8.30553764
_cell_angle_alpha   97.13620128
_cell_angle_beta   113.14145901
_cell_angle_gamma   90.00000000
_symmetry_Int_Tables_number   1
_chemical_formula_structural   U2FeSe5
_chemical_formula_sum   'U4 Fe2 Se10'
_cell_volume   362.86731540
_cell_formula_units_Z   2
loop_
 _symmetry_equiv_pos_site_id
 _symmetry_equiv_pos_as_xyz
  1  'x, y, z'
loop_
 _atom_site_type_symbol
 _atom_site_label
 _atom_site_symmetry_multiplicity
 _atom_site_fract_x
 _atom_site_fract_y
 _atom_site_fract_z
 _atom_site_occupancy
  U  U0  1  0.89595933  0.58985516  0.21592273  1
  U  U1  1  0.68003660  0.91014484  0.78407727  1
  U  U2  1  0.10404067  0.41014484  0.78407727  1
  U  U3  1  0.31996340  0.08985516  0.21592273  1
  Fe  Fe4  1  -0.00000000  -0.00000000  0.50000000  1
  Fe  Fe5  1  0.50000000  0.50000000  0.50000000  1
  Se  Se6  1  0.08958840  0.75000000  1.00000000  1
  Se  Se7  1  0.91041160  0.25000000  0.00000000  1
  Se  Se8  1  0.70072422  0.92805034  0.17678341  1
  Se  Se9  1  0.52394082  0.57194966  0.82321659  1
  Se  Se10  1  0.29927578  0.07194966  0.82321659  1
  Se  Se11  1  0.47605918  0.42805034  0.17678341  1
  Se  Se12  1  0.87000953  0.68990328  0.56213815  1
  Se  Se13  1  0.30787138  0.81009672  0.43786185  1
  Se  Se14  1  0.12999047  0.31009672  0.43786185  1
  Se  Se15  1  0.69212862  0.18990328  0.56213815  1
