# generated using pymatgen
data_K2H2C2O5
_symmetry_space_group_name_H-M   'P 1'
_cell_length_a   5.58705057
_cell_length_b   5.58705057
_cell_length_c   10.75392860
_cell_angle_alpha   94.14401520
_cell_angle_beta   105.07324898
_cell_angle_gamma   111.12212737
_symmetry_Int_Tables_number   1
_chemical_formula_structural   K2H2C2O5
_chemical_formula_sum   'K4 H4 C4 O10'
_cell_volume   297.18084021
_cell_formula_units_Z   2
loop_
 _symmetry_equiv_pos_site_id
 _symmetry_equiv_pos_as_xyz
  1  'x, y, z'
loop_
 _atom_site_type_symbol
 _atom_site_label
 _atom_site_symmetry_multiplicity
 _atom_site_fract_x
 _atom_site_fract_y
 _atom_site_fract_z
 _atom_site_occupancy
  K  K0  1  0.33832690  0.96357393  0.62823012  1
  K  K1  1  0.83534381  0.71009678  0.87176988  1
  K  K2  1  0.66167310  0.03642607  0.37176988  1
  K  K3  1  0.16465619  0.28990322  0.12823012  1
  H  H4  1  0.06521898  0.44621543  0.69195749  1
  H  H5  1  0.25425795  0.37326149  0.80804251  1
  H  H6  1  0.93478102  0.55378457  0.30804251  1
  H  H7  1  0.74574205  0.62673851  0.19195749  1
  C  C8  1  0.64531634  0.55685231  0.55287850  1
  C  C9  1  0.50397381  0.09243784  0.94712150  1
  C  C10  1  0.35468366  0.44314769  0.44712150  1
  C  C11  1  0.49602619  0.90756216  0.05287850  1
  O  O12  1  0.73945502  0.38961814  0.59275839  1
  O  O13  1  0.29685975  0.14669663  0.90724161  1
  O  O14  1  0.26054498  0.61038186  0.40724161  1
  O  O15  1  0.70314025  0.85330337  0.09275839  1
  O  O16  1  0.76182693  0.80150018  0.59099186  1
  O  O17  1  0.71050832  0.17083508  0.90900814  1
  O  O18  1  0.23817307  0.19849982  0.40900814  1
  O  O19  1  0.28949168  0.82916492  0.09099186  1
  O  O20  1  0.25432594  0.50432594  0.75000000  1
  O  O21  1  0.74567406  0.49567406  0.25000000  1
