# generated using pymatgen
data_ErWBrO4
_symmetry_space_group_name_H-M   'P 1'
_cell_length_a   7.01777631
_cell_length_b   7.28929966
_cell_length_c   10.98197066
_cell_angle_alpha   102.74985248
_cell_angle_beta   108.46822187
_cell_angle_gamma   95.27302448
_symmetry_Int_Tables_number   1
_chemical_formula_structural   ErWBrO4
_chemical_formula_sum   'Er4 W4 Br4 O16'
_cell_volume   511.69696120
_cell_formula_units_Z   4
loop_
 _symmetry_equiv_pos_site_id
 _symmetry_equiv_pos_as_xyz
  1  'x, y, z'
loop_
 _atom_site_type_symbol
 _atom_site_label
 _atom_site_symmetry_multiplicity
 _atom_site_fract_x
 _atom_site_fract_y
 _atom_site_fract_z
 _atom_site_occupancy
  Er  Er0  1  0.66236200  0.10394014  0.73052573  1
  Er  Er1  1  0.33763800  0.89605986  0.26947427  1
  Er  Er2  1  0.37821993  0.66335913  0.76586671  1
  Er  Er3  1  0.62178007  0.33664087  0.23413329  1
  W  W4  1  0.72635052  0.81518084  0.13298153  1
  W  W5  1  0.27364948  0.18481916  0.86701847  1
  W  W6  1  0.76711595  0.58765166  0.62592202  1
  W  W7  1  0.23288405  0.41234834  0.37407798  1
  Br  Br8  1  0.26485834  0.00992161  0.51884752  1
  Br  Br9  1  0.73514166  0.99007839  0.48115248  1
  Br  Br10  1  0.19464294  0.72223706  0.98519139  1
  Br  Br11  1  0.80535706  0.27776294  0.01480861  1
  O  O12  1  0.65117398  0.73276174  0.95446726  1
  O  O13  1  0.34882602  0.26723826  0.04553274  1
  O  O14  1  -0.00002890  0.88243746  0.20431796  1
  O  O15  1  0.00002890  0.11756254  0.79568204  1
  O  O16  1  0.64576796  0.62931069  0.20094393  1
  O  O17  1  0.35423204  0.37068931  0.79905607  1
  O  O18  1  0.40201603  0.98734637  0.81158353  1
  O  O19  1  0.59798397  0.01265363  0.18841647  1
  O  O20  1  0.03858452  0.65273877  0.67036959  1
  O  O21  1  0.96141548  0.34726123  0.32963041  1
  O  O22  1  0.72546825  0.39481578  0.69828436  1
  O  O23  1  0.27453175  0.60518422  0.30171564  1
  O  O24  1  0.66075259  0.49896437  0.44516654  1
  O  O25  1  0.33924741  0.50103563  0.55483346  1
  O  O26  1  0.65687130  0.78493269  0.70495697  1
  O  O27  1  0.34312870  0.21506731  0.29504303  1
