# generated using pymatgen
data_Sr3(Cu2Sn)4
_symmetry_space_group_name_H-M   'P 1'
_cell_length_a   7.97597776
_cell_length_b   9.38177444
_cell_length_c   9.38177444
_cell_angle_alpha   120.00367121
_cell_angle_beta   90.00000000
_cell_angle_gamma   90.00000000
_symmetry_Int_Tables_number   1
_chemical_formula_structural   Sr3(Cu2Sn)4
_chemical_formula_sum   'Sr6 Cu16 Sn8'
_cell_volume   607.95085498
_cell_formula_units_Z   2
loop_
 _symmetry_equiv_pos_site_id
 _symmetry_equiv_pos_as_xyz
  1  'x, y, z'
loop_
 _atom_site_type_symbol
 _atom_site_label
 _atom_site_symmetry_multiplicity
 _atom_site_fract_x
 _atom_site_fract_y
 _atom_site_fract_z
 _atom_site_occupancy
  Sr  Sr0  1  0.50056229  0.52559192  0.47440808  1
  Sr  Sr1  1  0.50054863  0.94880033  0.47441432  1
  Sr  Sr2  1  0.50054863  0.52558568  0.05119967  1
  Sr  Sr3  1  0.00056229  0.47440808  0.52559192  1
  Sr  Sr4  1  0.00054863  0.05119967  0.52558568  1
  Sr  Sr5  1  0.00054863  0.47441432  0.94880033  1
  Cu  Cu6  1  0.32732301  0.16097465  0.83902535  1
  Cu  Cu7  1  0.32734768  0.67802610  0.83901874  1
  Cu  Cu8  1  0.32734768  0.16098126  0.32197390  1
  Cu  Cu9  1  0.82732301  0.83902535  0.16097465  1
  Cu  Cu10  1  0.82734768  0.32197390  0.16098126  1
  Cu  Cu11  1  0.82734768  0.83901874  0.67802610  1
  Cu  Cu12  1  0.02032016  0.09795942  0.90204058  1
  Cu  Cu13  1  0.02031066  0.80408726  0.90203755  1
  Cu  Cu14  1  0.02031066  0.09796245  0.19591274  1
  Cu  Cu15  1  0.52032016  0.90204058  0.09795942  1
  Cu  Cu16  1  0.52031066  0.19591274  0.09796245  1
  Cu  Cu17  1  0.52031066  0.90203755  0.80408726  1
  Cu  Cu18  1  0.66478508  0.33331777  0.66668223  1
  Cu  Cu19  1  0.16478508  0.66668223  0.33331777  1
  Cu  Cu20  1  0.77364847  -0.00000097  0.00000097  1
  Cu  Cu21  1  0.27364847  0.00000097  -0.00000097  1
  Sn  Sn22  1  0.70530645  0.16540113  0.83459887  1
  Sn  Sn23  1  0.70531222  0.66918122  0.83458527  1
  Sn  Sn24  1  0.70531222  0.16541473  0.33081878  1
  Sn  Sn25  1  0.20530645  0.83459887  0.16540113  1
  Sn  Sn26  1  0.20531222  0.33081878  0.16541473  1
  Sn  Sn27  1  0.20531222  0.83458527  0.66918122  1
  Sn  Sn28  1  0.31831616  0.33334401  0.66665599  1
  Sn  Sn29  1  0.81831616  0.66665599  0.33334401  1
