# generated using pymatgen
data_Gd3BeCrS7
_symmetry_space_group_name_H-M   'P 1'
_cell_length_a   5.93550547
_cell_length_b   9.73122599
_cell_length_c   9.73210178
_cell_angle_alpha   119.99820763
_cell_angle_beta   90.00000000
_cell_angle_gamma   90.00000000
_symmetry_Int_Tables_number   1
_chemical_formula_structural   Gd3BeCrS7
_chemical_formula_sum   'Gd6 Be2 Cr2 S14'
_cell_volume   486.82221232
_cell_formula_units_Z   2
loop_
 _symmetry_equiv_pos_site_id
 _symmetry_equiv_pos_as_xyz
  1  'x, y, z'
loop_
 _atom_site_type_symbol
 _atom_site_label
 _atom_site_symmetry_multiplicity
 _atom_site_fract_x
 _atom_site_fract_y
 _atom_site_fract_z
 _atom_site_occupancy
  Gd  Gd0  1  0.25301939  0.25130566  0.39014549  1
  Gd  Gd1  1  0.25303823  0.60987173  0.86118692  1
  Gd  Gd2  1  0.25309283  0.13884254  0.74869786  1
  Gd  Gd3  1  0.75301939  0.74869434  0.60985451  1
  Gd  Gd4  1  0.75303823  0.39012827  0.13881308  1
  Gd  Gd5  1  0.75309283  0.86115746  0.25130214  1
  Be  Be6  1  0.83724314  0.33334162  0.66669145  1
  Be  Be7  1  0.33724314  0.66665838  0.33330855  1
  Cr  Cr8  1  0.48161658  0.99997595  0.00001068  1
  Cr  Cr9  1  0.98161658  0.00002405  0.99998932  1
  S  S10  1  0.72699132  0.14526087  0.22431297  1
  S  S11  1  0.72699545  0.77564388  0.92092248  1
  S  S12  1  0.72688382  0.07906669  0.85472768  1
  S  S13  1  0.22699132  0.85473913  0.77568703  1
  S  S14  1  0.22699545  0.22435612  0.07907752  1
  S  S15  1  0.22688382  0.92093331  0.14527232  1
  S  S16  1  0.97475215  0.10648098  0.51733226  1
  S  S17  1  0.97480196  0.48272109  0.58922470  1
  S  S18  1  0.97473521  0.41081001  0.89352294  1
  S  S19  1  0.47475215  0.89351902  0.48266774  1
  S  S20  1  0.47480196  0.51727891  0.41077530  1
  S  S21  1  0.47473521  0.58918999  0.10647706  1
  S  S22  1  0.48482991  0.33334791  0.66664387  1
  S  S23  1  0.98482991  0.66665209  0.33335613  1
