# generated using pymatgen
data_Li3As
_symmetry_space_group_name_H-M   'P 1'
_cell_length_a   7.55808495
_cell_length_b   7.55803670
_cell_length_c   7.56456104
_cell_angle_alpha   90.00002330
_cell_angle_beta   89.99997542
_cell_angle_gamma   119.99994095
_symmetry_Int_Tables_number   1
_chemical_formula_structural   Li3As
_chemical_formula_sum   'Li18 As6'
_cell_volume   374.22723172
_cell_formula_units_Z   6
loop_
 _symmetry_equiv_pos_site_id
 _symmetry_equiv_pos_as_xyz
  1  'x, y, z'
loop_
 _atom_site_type_symbol
 _atom_site_label
 _atom_site_symmetry_multiplicity
 _atom_site_fract_x
 _atom_site_fract_y
 _atom_site_fract_z
 _atom_site_occupancy
  Li  Li0  1  0.00000000  -0.00000000  0.50000000  1
  Li  Li1  1  0.00000000  -0.00000000  0.00000000  1
  Li  Li2  1  0.33333732  0.66667238  0.71321522  1
  Li  Li3  1  0.33333683  0.66666517  0.21321546  1
  Li  Li4  1  0.66666268  0.33332762  0.28678478  1
  Li  Li5  1  0.66666317  0.33333483  0.78678454  1
  Li  Li6  1  0.35488326  0.33165245  0.58880818  1
  Li  Li7  1  0.66835648  0.02323808  0.58880365  1
  Li  Li8  1  0.97675186  0.64510895  0.58880840  1
  Li  Li9  1  0.35488317  0.02323070  0.08880773  1
  Li  Li10  1  0.97675229  0.33164245  0.08880828  1
  Li  Li11  1  0.66835643  0.64511824  0.08880367  1
  Li  Li12  1  0.64511674  0.66834755  0.41119182  1
  Li  Li13  1  0.33164352  0.97676192  0.41119635  1
  Li  Li14  1  0.02324814  0.35489105  0.41119160  1
  Li  Li15  1  0.64511683  0.97676930  0.91119227  1
  Li  Li16  1  0.02324771  0.66835755  0.91119172  1
  Li  Li17  1  0.33164357  0.35488176  0.91119633  1
  As  As18  1  0.67812750  0.67812820  0.74999781  1
  As  As19  1  0.32187173  0.00000146  0.75000140  1
  As  As20  1  0.99999947  0.32186130  0.75000100  1
  As  As21  1  0.67812827  0.99999854  0.24999860  1
  As  As22  1  0.00000053  0.67813870  0.24999900  1
  As  As23  1  0.32187250  0.32187180  0.25000219  1
