# generated using pymatgen
data_Sm3GaCoS7
_symmetry_space_group_name_H-M   'P 1'
_cell_length_a   6.14373290
_cell_length_b   9.76210485
_cell_length_c   9.76228789
_cell_angle_alpha   120.00275719
_cell_angle_beta   90.00000000
_cell_angle_gamma   90.00000000
_symmetry_Int_Tables_number   1
_chemical_formula_structural   Sm3GaCoS7
_chemical_formula_sum   'Sm6 Ga2 Co2 S14'
_cell_volume   507.04437612
_cell_formula_units_Z   2
loop_
 _symmetry_equiv_pos_site_id
 _symmetry_equiv_pos_as_xyz
  1  'x, y, z'
loop_
 _atom_site_type_symbol
 _atom_site_label
 _atom_site_symmetry_multiplicity
 _atom_site_fract_x
 _atom_site_fract_y
 _atom_site_fract_z
 _atom_site_occupancy
  Sm  Sm0  1  0.17865814  0.84769004  0.22053403  1
  Sm  Sm1  1  0.17865398  0.77946767  0.62716112  1
  Sm  Sm2  1  0.17866133  0.37283733  0.15231290  1
  Sm  Sm3  1  0.67865814  0.15230996  0.77946597  1
  Sm  Sm4  1  0.67865398  0.22053233  0.37283888  1
  Sm  Sm5  1  0.67866133  0.62716267  0.84768710  1
  Ga  Ga6  1  0.10479544  0.33333871  0.66665852  1
  Ga  Ga7  1  0.60479544  0.66666129  0.33334148  1
  Co  Co8  1  0.49889153  0.99999537  0.99999352  1
  Co  Co9  1  0.99889153  0.00000463  0.00000648  1
  S  S10  1  0.45296023  0.56919619  0.08841652  1
  S  S11  1  0.45296378  0.91157040  0.48078149  1
  S  S12  1  0.45295707  0.51921111  0.43079767  1
  S  S13  1  0.95296023  0.43080381  0.91158348  1
  S  S14  1  0.95296378  0.08842960  0.51921851  1
  S  S15  1  0.95295707  0.48078889  0.56920233  1
  S  S16  1  0.47123868  0.33333281  0.66666619  1
  S  S17  1  0.97123868  0.66666719  0.33333381  1
  S  S18  1  0.25641933  0.12841008  0.22012916  1
  S  S19  1  0.25641083  0.77986333  0.90827807  1
  S  S20  1  0.25640966  0.09172140  0.87158032  1
  S  S21  1  0.75641933  0.87158992  0.77987084  1
  S  S22  1  0.75641083  0.22013667  0.09172193  1
  S  S23  1  0.75640966  0.90827860  0.12841968  1
