# generated using pymatgen
data_BAsH4NO4F
_symmetry_space_group_name_H-M   'P 1'
_cell_length_a   4.52116727
_cell_length_b   4.67117098
_cell_length_c   13.03896068
_cell_angle_alpha   89.66349042
_cell_angle_beta   89.30463177
_cell_angle_gamma   61.05671225
_symmetry_Int_Tables_number   1
_chemical_formula_structural   BAsH4NO4F
_chemical_formula_sum   'B2 As2 H8 N2 O8 F2'
_cell_volume   240.95979889
_cell_formula_units_Z   2
loop_
 _symmetry_equiv_pos_site_id
 _symmetry_equiv_pos_as_xyz
  1  'x, y, z'
loop_
 _atom_site_type_symbol
 _atom_site_label
 _atom_site_symmetry_multiplicity
 _atom_site_fract_x
 _atom_site_fract_y
 _atom_site_fract_z
 _atom_site_occupancy
  B  B0  1  0.74186097  0.68137955  0.69404536  1
  B  B1  1  0.42324052  0.31862045  0.19404536  1
  As  As2  1  0.05856969  0.03189550  0.77395938  1
  As  As3  1  0.09046519  0.96810450  0.27395938  1
  H  H4  1  0.73001546  0.47060497  0.95836242  1
  H  H5  1  0.20062043  0.52939503  0.45836242  1
  H  H6  1  0.38297346  0.83572679  0.98210040  1
  H  H7  1  0.21870026  0.16427321  0.48210040  1
  H  H8  1  0.75273316  0.82528912  0.95332020  1
  H  H9  1  0.57802228  0.17471088  0.45332020  1
  H  H10  1  0.70338400  0.67873788  0.06719960  1
  H  H11  1  0.38212189  0.32126212  0.56719960  1
  N  N12  1  0.64190366  0.70146666  0.99115995  1
  N  N13  1  0.34337032  0.29853334  0.49115995  1
  O  O14  1  0.48472962  0.74093914  0.77397289  1
  O  O15  1  0.22566876  0.25906086  0.27397289  1
  O  O16  1  0.05430276  0.37918353  0.72256102  1
  O  O17  1  0.43348628  0.62081647  0.22256102  1
  O  O18  1  0.83334634  0.94510020  0.68335400  1
  O  O19  1  0.77844655  0.05489980  0.18335400  1
  O  O20  1  0.93106110  0.05618045  0.89696006  1
  O  O21  1  0.98724155  0.94381955  0.39696006  1
  F  F22  1  0.62333916  0.65645741  0.59573473  1
  F  F23  1  0.27979657  0.34354259  0.09573473  1
