# generated using pymatgen
data_ErCo9Si2
_symmetry_space_group_name_H-M   'P 1'
_cell_length_a   6.25725974
_cell_length_b   7.50549500
_cell_length_c   7.50549500
_cell_angle_alpha   79.99349320
_cell_angle_beta   65.36442140
_cell_angle_gamma   65.36442140
_symmetry_Int_Tables_number   1
_chemical_formula_structural   ErCo9Si2
_chemical_formula_sum   'Er2 Co18 Si4'
_cell_volume   291.23869124
_cell_formula_units_Z   2
loop_
 _symmetry_equiv_pos_site_id
 _symmetry_equiv_pos_as_xyz
  1  'x, y, z'
loop_
 _atom_site_type_symbol
 _atom_site_label
 _atom_site_symmetry_multiplicity
 _atom_site_fract_x
 _atom_site_fract_y
 _atom_site_fract_z
 _atom_site_occupancy
  Er  Er0  1  0.37500000  0.25000000  0.75000000  1
  Er  Er1  1  0.62500000  0.75000000  0.25000000  1
  Co  Co2  1  0.12500000  0.75000000  0.25000000  1
  Co  Co3  1  0.87500000  0.25000000  0.75000000  1
  Co  Co4  1  0.55882966  0.57864482  0.66817821  1
  Co  Co5  1  0.55882966  0.16817821  0.07864482  1
  Co  Co6  1  0.13747448  0.42135518  0.16817821  1
  Co  Co7  1  0.13747448  0.66817821  0.92135518  1
  Co  Co8  1  0.80565269  0.33182179  0.42135518  1
  Co  Co9  1  0.80565269  0.92135518  0.83182179  1
  Co  Co10  1  0.72700787  0.83182179  0.57864482  1
  Co  Co11  1  0.72700787  0.07864482  0.33182179  1
  Co  Co12  1  0.44117034  0.42135518  0.33182179  1
  Co  Co13  1  0.44117034  0.83182179  0.92135518  1
  Co  Co14  1  0.86252552  0.57864482  0.83182179  1
  Co  Co15  1  0.86252552  0.33182179  0.07864482  1
  Co  Co16  1  0.19434731  0.66817821  0.57864482  1
  Co  Co17  1  0.19434731  0.07864482  0.16817821  1
  Co  Co18  1  0.27299213  0.16817821  0.42135518  1
  Co  Co19  1  0.27299213  0.92135518  0.66817821  1
  Si  Si20  1  0.50000000  0.50000000  -0.00000000  1
  Si  Si21  1  0.00000000  0.50000000  0.50000000  1
  Si  Si22  1  0.00000000  0.00000000  -0.00000000  1
  Si  Si23  1  0.00000000  0.00000000  0.50000000  1
