# generated using pymatgen
data_Ba2CuP2O9
_symmetry_space_group_name_H-M   'P 1'
_cell_length_a   5.82243058
_cell_length_b   8.48997127
_cell_length_c   9.04736490
_cell_angle_alpha   112.20353561
_cell_angle_beta   90.00000000
_cell_angle_gamma   90.00000000
_symmetry_Int_Tables_number   1
_chemical_formula_structural   Ba2CuP2O9
_chemical_formula_sum   'Ba4 Cu2 P4 O18'
_cell_volume   414.06831202
_cell_formula_units_Z   2
loop_
 _symmetry_equiv_pos_site_id
 _symmetry_equiv_pos_as_xyz
  1  'x, y, z'
loop_
 _atom_site_type_symbol
 _atom_site_label
 _atom_site_symmetry_multiplicity
 _atom_site_fract_x
 _atom_site_fract_y
 _atom_site_fract_z
 _atom_site_occupancy
  Ba  Ba0  1  0.25000000  0.79092985  0.90641611  1
  Ba  Ba1  1  0.75000000  0.20907015  0.09358389  1
  Ba  Ba2  1  0.25000000  0.19674706  0.71800100  1
  Ba  Ba3  1  0.75000000  0.80325294  0.28199900  1
  Cu  Cu4  1  0.00000000  0.50000000  0.50000000  1
  Cu  Cu5  1  0.50000000  0.50000000  0.50000000  1
  P  P6  1  0.75000000  0.50793370  0.81276020  1
  P  P7  1  0.25000000  0.49206630  0.18723980  1
  P  P8  1  0.75000000  0.94209736  0.69734590  1
  P  P9  1  0.25000000  0.05790264  0.30265410  1
  O  O10  1  0.97516198  0.49436894  0.70941321  1
  O  O11  1  0.47516198  0.50563106  0.29058679  1
  O  O12  1  0.02483802  0.50563106  0.29058679  1
  O  O13  1  0.52483802  0.49436894  0.70941321  1
  O  O14  1  0.75000000  0.68131426  0.95148717  1
  O  O15  1  0.25000000  0.31868574  0.04851283  1
  O  O16  1  0.75000000  0.35863751  0.86846094  1
  O  O17  1  0.25000000  0.64136249  0.13153906  1
  O  O18  1  0.96628464  0.98094854  0.80514189  1
  O  O19  1  0.46628464  0.01905146  0.19485811  1
  O  O20  1  0.03371536  0.01905146  0.19485811  1
  O  O21  1  0.53371536  0.98094854  0.80514189  1
  O  O22  1  0.75000000  0.75806142  0.56806888  1
  O  O23  1  0.25000000  0.24193858  0.43193112  1
  O  O24  1  0.75000000  0.05648440  0.59668011  1
  O  O25  1  0.25000000  0.94351560  0.40331989  1
  O  O26  1  0.25000000  0.63258616  0.56487661  1
  O  O27  1  0.75000000  0.36741384  0.43512339  1
