# generated using pymatgen
data_Zn2NiSbO6
_symmetry_space_group_name_H-M   'P 1'
_cell_length_a   5.29621098
_cell_length_b   5.26536718
_cell_length_c   7.61734735
_cell_angle_alpha   90.00000000
_cell_angle_beta   90.00000000
_cell_angle_gamma   92.95973347
_symmetry_Int_Tables_number   1
_chemical_formula_structural   Zn2NiSbO6
_chemical_formula_sum   'Zn4 Ni2 Sb2 O12'
_cell_volume   212.13776735
_cell_formula_units_Z   2
loop_
 _symmetry_equiv_pos_site_id
 _symmetry_equiv_pos_as_xyz
  1  'x, y, z'
loop_
 _atom_site_type_symbol
 _atom_site_label
 _atom_site_symmetry_multiplicity
 _atom_site_fract_x
 _atom_site_fract_y
 _atom_site_fract_z
 _atom_site_occupancy
  Zn  Zn0  1  0.51983302  0.55762526  0.75000000  1
  Zn  Zn1  1  0.48016698  0.44237474  0.25000000  1
  Zn  Zn2  1  0.03231791  0.02051849  0.75000000  1
  Zn  Zn3  1  0.96768209  0.97948151  0.25000000  1
  Ni  Ni4  1  0.50000000  0.00000000  0.50000000  1
  Ni  Ni5  1  0.50000000  0.00000000  0.00000000  1
  Sb  Sb6  1  0.00000000  0.50000000  0.50000000  1
  Sb  Sb7  1  0.00000000  0.50000000  0.00000000  1
  O  O8  1  0.32918627  0.67677074  0.43481030  1
  O  O9  1  0.16333257  0.18821103  0.06880697  1
  O  O10  1  0.67081373  0.32322926  0.93481030  1
  O  O11  1  0.83666743  0.81178897  0.56880697  1
  O  O12  1  0.16333257  0.18821103  0.43119303  1
  O  O13  1  0.83666743  0.81178897  0.93119303  1
  O  O14  1  0.86932020  0.58739111  0.25000000  1
  O  O15  1  0.32918627  0.67677074  0.06518970  1
  O  O16  1  0.38967059  0.91461441  0.75000000  1
  O  O17  1  0.67081373  0.32322926  0.56518970  1
  O  O18  1  0.13067980  0.41260889  0.75000000  1
  O  O19  1  0.61032941  0.08538559  0.25000000  1
