# generated using pymatgen
data_Nd3GaCoS7
_symmetry_space_group_name_H-M   'P 1'
_cell_length_a   6.11239545
_cell_length_b   9.92063901
_cell_length_c   9.92197388
_cell_angle_alpha   120.00291723
_cell_angle_beta   90.00000000
_cell_angle_gamma   90.00000000
_symmetry_Int_Tables_number   1
_chemical_formula_structural   Nd3GaCoS7
_chemical_formula_sum   'Nd6 Ga2 Co2 S14'
_cell_volume   521.03516435
_cell_formula_units_Z   2
loop_
 _symmetry_equiv_pos_site_id
 _symmetry_equiv_pos_as_xyz
  1  'x, y, z'
loop_
 _atom_site_type_symbol
 _atom_site_label
 _atom_site_symmetry_multiplicity
 _atom_site_fract_x
 _atom_site_fract_y
 _atom_site_fract_z
 _atom_site_occupancy
  Nd  Nd0  1  0.18024387  0.85008592  0.22240015  1
  Nd  Nd1  1  0.18027565  0.77763441  0.62776731  1
  Nd  Nd2  1  0.18023042  0.37210492  0.14976332  1
  Nd  Nd3  1  0.68024387  0.14991408  0.77759985  1
  Nd  Nd4  1  0.68027565  0.22236559  0.37223269  1
  Nd  Nd5  1  0.68023042  0.62789508  0.85023668  1
  Ga  Ga6  1  0.10410246  0.33337008  0.66673839  1
  Ga  Ga7  1  0.60410246  0.66662992  0.33326161  1
  Co  Co8  1  0.49064446  0.00009904  0.00002211  1
  Co  Co9  1  0.99064446  0.99990096  0.99997789  1
  S  S10  1  0.45513294  0.57173270  0.09047044  1
  S  S11  1  0.45514831  0.90939374  0.48128995  1
  S  S12  1  0.45513921  0.51860001  0.42801667  1
  S  S13  1  0.95513294  0.42826730  0.90952956  1
  S  S14  1  0.95514831  0.09060626  0.51871005  1
  S  S15  1  0.95513921  0.48139999  0.57198333  1
  S  S16  1  0.47231369  0.33345999  0.66665396  1
  S  S17  1  0.97231369  0.66654001  0.33334604  1
  S  S18  1  0.24817472  0.12943272  0.21882362  1
  S  S19  1  0.24822833  0.78152746  0.91082721  1
  S  S20  1  0.24815595  0.08948423  0.87027620  1
  S  S21  1  0.74817472  0.87056728  0.78117638  1
  S  S22  1  0.74822833  0.21847254  0.08917279  1
  S  S23  1  0.74815595  0.91051577  0.12972380  1
