# generated using pymatgen
data_Zr2Ir
_symmetry_space_group_name_H-M   'P 1'
_cell_length_a   8.87349128
_cell_length_b   8.87349128
_cell_length_c   8.87349128
_cell_angle_alpha   60.00000000
_cell_angle_beta   60.00000000
_cell_angle_gamma   60.00000000
_symmetry_Int_Tables_number   1
_chemical_formula_structural   Zr2Ir
_chemical_formula_sum   'Zr16 Ir8'
_cell_volume   494.04736051
_cell_formula_units_Z   8
loop_
 _symmetry_equiv_pos_site_id
 _symmetry_equiv_pos_as_xyz
  1  'x, y, z'
loop_
 _atom_site_type_symbol
 _atom_site_label
 _atom_site_symmetry_multiplicity
 _atom_site_fract_x
 _atom_site_fract_y
 _atom_site_fract_z
 _atom_site_occupancy
  Zr  Zr0  1  0.00000000  -0.00000000  0.50000000  1
  Zr  Zr1  1  0.00000000  0.50000000  0.00000000  1
  Zr  Zr2  1  0.50000000  -0.00000000  0.00000000  1
  Zr  Zr3  1  -0.00000000  -0.00000000  0.00000000  1
  Zr  Zr4  1  0.43781471  0.81218529  0.81218529  1
  Zr  Zr5  1  0.81218529  0.43781471  0.43781471  1
  Zr  Zr6  1  0.81218529  0.43781471  0.81218529  1
  Zr  Zr7  1  0.43781471  0.81218529  0.43781471  1
  Zr  Zr8  1  0.81218529  0.81218529  0.43781471  1
  Zr  Zr9  1  0.43781471  0.43781471  0.81218529  1
  Zr  Zr10  1  0.56218529  0.18781471  0.18781471  1
  Zr  Zr11  1  0.18781471  0.56218529  0.56218529  1
  Zr  Zr12  1  0.18781471  0.56218529  0.18781471  1
  Zr  Zr13  1  0.56218529  0.18781471  0.56218529  1
  Zr  Zr14  1  0.18781471  0.18781471  0.56218529  1
  Zr  Zr15  1  0.56218529  0.56218529  0.18781471  1
  Ir  Ir16  1  0.22282010  0.22282010  0.83153969  1
  Ir  Ir17  1  0.22282010  0.83153969  0.22282010  1
  Ir  Ir18  1  0.83153969  0.22282010  0.22282010  1
  Ir  Ir19  1  0.22282010  0.22282010  0.22282010  1
  Ir  Ir20  1  0.77717990  0.77717990  0.16846031  1
  Ir  Ir21  1  0.77717990  0.16846031  0.77717990  1
  Ir  Ir22  1  0.16846031  0.77717990  0.77717990  1
  Ir  Ir23  1  0.77717990  0.77717990  0.77717990  1
