# generated using pymatgen
data_Ti6Ga16Rh7
_symmetry_space_group_name_H-M   'P 1'
_cell_length_a   8.63692560
_cell_length_b   8.63692560
_cell_length_c   8.63692560
_cell_angle_alpha   60.00000000
_cell_angle_beta   60.00000000
_cell_angle_gamma   60.00000000
_symmetry_Int_Tables_number   1
_chemical_formula_structural   Ti6Ga16Rh7
_chemical_formula_sum   'Ti6 Ga16 Rh7'
_cell_volume   455.57778387
_cell_formula_units_Z   1
loop_
 _symmetry_equiv_pos_site_id
 _symmetry_equiv_pos_as_xyz
  1  'x, y, z'
loop_
 _atom_site_type_symbol
 _atom_site_label
 _atom_site_symmetry_multiplicity
 _atom_site_fract_x
 _atom_site_fract_y
 _atom_site_fract_z
 _atom_site_occupancy
  Ti  Ti0  1  0.68885316  0.31114684  0.31114684  1
  Ti  Ti1  1  0.68885316  0.31114684  0.68885316  1
  Ti  Ti2  1  0.68885316  0.68885316  0.31114684  1
  Ti  Ti3  1  0.31114684  0.68885316  0.68885316  1
  Ti  Ti4  1  0.31114684  0.68885316  0.31114684  1
  Ti  Ti5  1  0.31114684  0.31114684  0.68885316  1
  Ga  Ga6  1  0.63251488  0.12249504  0.12249504  1
  Ga  Ga7  1  0.12249504  0.63251488  0.12249504  1
  Ga  Ga8  1  0.12249504  0.12249504  0.63251488  1
  Ga  Ga9  1  0.12249504  0.12249504  0.12249504  1
  Ga  Ga10  1  0.36748512  0.87750496  0.87750496  1
  Ga  Ga11  1  0.87750496  0.36748512  0.87750496  1
  Ga  Ga12  1  0.87750496  0.87750496  0.36748512  1
  Ga  Ga13  1  0.87750496  0.87750496  0.87750496  1
  Ga  Ga14  1  0.95219636  0.34926788  0.34926788  1
  Ga  Ga15  1  0.34926788  0.95219636  0.34926788  1
  Ga  Ga16  1  0.34926788  0.34926788  0.95219636  1
  Ga  Ga17  1  0.34926788  0.34926788  0.34926788  1
  Ga  Ga18  1  0.04780364  0.65073212  0.65073212  1
  Ga  Ga19  1  0.65073212  0.04780364  0.65073212  1
  Ga  Ga20  1  0.65073212  0.65073212  0.04780364  1
  Ga  Ga21  1  0.65073212  0.65073212  0.65073212  1
  Rh  Rh22  1  -0.00000000  0.00000000  -0.00000000  1
  Rh  Rh23  1  0.50000000  0.00000000  -0.00000000  1
  Rh  Rh24  1  0.50000000  0.00000000  0.50000000  1
  Rh  Rh25  1  0.50000000  0.50000000  -0.00000000  1
  Rh  Rh26  1  -0.00000000  0.50000000  0.50000000  1
  Rh  Rh27  1  -0.00000000  0.50000000  -0.00000000  1
  Rh  Rh28  1  -0.00000000  0.00000000  0.50000000  1
