# generated using pymatgen
data_Y2Si3(SnO4)3
_symmetry_space_group_name_H-M   'P 1'
_cell_length_a   11.27588463
_cell_length_b   11.27588408
_cell_length_c   11.27588423
_cell_angle_alpha   109.47122093
_cell_angle_beta   109.47121993
_cell_angle_gamma   109.47122232
_symmetry_Int_Tables_number   1
_chemical_formula_structural   Y2Si3(SnO4)3
_chemical_formula_sum   'Y8 Si12 Sn12 O48'
_cell_volume   1103.64636419
_cell_formula_units_Z   4
loop_
 _symmetry_equiv_pos_site_id
 _symmetry_equiv_pos_as_xyz
  1  'x, y, z'
loop_
 _atom_site_type_symbol
 _atom_site_label
 _atom_site_symmetry_multiplicity
 _atom_site_fract_x
 _atom_site_fract_y
 _atom_site_fract_z
 _atom_site_occupancy
  Y  Y0  1  0.50000000  0.00000000  0.00000000  1
  Y  Y1  1  0.00000000  0.00000000  0.00000000  1
  Y  Y2  1  0.00000000  0.50000000  0.00000000  1
  Y  Y3  1  0.00000000  0.00000000  0.50000000  1
  Y  Y4  1  0.00000000  0.50000000  0.50000100  1
  Y  Y5  1  0.50000000  0.00000000  0.50000100  1
  Y  Y6  1  0.50000000  0.50000000  0.00000000  1
  Y  Y7  1  0.50000000  0.50000000  0.50000000  1
  Si  Si8  1  0.25000000  0.12500000  0.87500000  1
  Si  Si9  1  0.87500000  0.25000000  0.12500000  1
  Si  Si10  1  0.62500000  0.75000100  0.37500000  1
  Si  Si11  1  0.25000000  0.62500000  0.37500100  1
  Si  Si12  1  0.37500000  0.62500000  0.75000000  1
  Si  Si13  1  0.75000000  0.37500000  0.62500000  1
  Si  Si14  1  0.87500000  0.12500000  0.75000000  1
  Si  Si15  1  0.12500000  0.75000100  0.87500000  1
  Si  Si16  1  0.12500000  0.87500100  0.25000000  1
  Si  Si17  1  0.62500000  0.37500000  0.25000000  1
  Si  Si18  1  0.37500000  0.25000000  0.62500000  1
  Si  Si19  1  0.75000000  0.87500100  0.12500000  1
  Sn  Sn20  1  0.25000000  0.87500100  0.62500000  1
  Sn  Sn21  1  0.87500000  0.62500000  0.25000000  1
  Sn  Sn22  1  0.62500100  0.87500100  0.75000100  1
  Sn  Sn23  1  0.87500100  0.75000100  0.62500100  1
  Sn  Sn24  1  0.62500000  0.25000000  0.87500000  1
  Sn  Sn25  1  0.75000000  0.62500000  0.87500000  1
  Sn  Sn26  1  0.75000000  0.12500000  0.37500000  1
  Sn  Sn27  1  0.12500000  0.37500000  0.75000000  1
  Sn  Sn28  1  0.37500000  0.12500000  0.25000000  1
  Sn  Sn29  1  0.12500000  0.25000000  0.37500000  1
  Sn  Sn30  1  0.37500000  0.75000100  0.12500000  1
  Sn  Sn31  1  0.25000000  0.37500000  0.12500000  1
  O  O32  1  0.29114897  0.49814227  0.38337545  1
  O  O33  1  0.00185773  0.29300670  0.88523318  1
  O  O34  1  0.11662455  0.61476682  0.90777352  1
  O  O35  1  0.20885003  0.59222648  0.20699330  1
  O  O36  1  0.20885003  0.11662355  0.00185673  1
  O  O37  1  0.59222548  0.20699230  0.20885003  1
  O  O38  1  0.61476582  0.20699230  0.49814227  1
  O  O39  1  0.20699330  0.20885003  0.59222748  1
  O  O40  1  0.88523418  0.38337545  0.59222648  1
  O  O41  1  0.29300770  0.90777352  0.29114997  1
  O  O42  1  0.90777352  0.29114997  0.29300770  1
  O  O43  1  0.00185772  0.20885003  0.11662355  1
  O  O44  1  0.20699330  0.49814227  0.61476682  1
  O  O45  1  0.59222648  0.88523418  0.38337645  1
  O  O46  1  0.11662355  0.00185673  0.20885003  1
  O  O47  1  0.49814227  0.61476682  0.20699230  1
  O  O48  1  0.38337545  0.59222648  0.88523318  1
  O  O49  1  0.88523318  0.00185673  0.29300670  1
  O  O50  1  0.61476582  0.90777352  0.11662455  1
  O  O51  1  0.11476582  0.61662355  0.40777352  1
  O  O52  1  0.49814228  0.38337545  0.29114897  1
  O  O53  1  0.38337545  0.29114997  0.49814228  1
  O  O54  1  0.29300770  0.88523418  0.00185773  1
  O  O55  1  0.29114897  0.29300670  0.90777252  1
  O  O56  1  0.70885003  0.50185673  0.61662455  1
  O  O57  1  0.99814227  0.70699230  0.11476582  1
  O  O58  1  0.88337645  0.38523418  0.09222648  1
  O  O59  1  0.79114997  0.40777352  0.79300770  1
  O  O60  1  0.79114897  0.88337645  0.99814327  1
  O  O61  1  0.40777352  0.79300670  0.79114897  1
  O  O62  1  0.38523418  0.79300670  0.50185673  1
  O  O63  1  0.79300770  0.79114997  0.40777352  1
  O  O64  1  0.70885003  0.70699230  0.09222648  1
  O  O65  1  0.70699330  0.11476682  0.99814227  1
  O  O66  1  0.61662355  0.70885103  0.50185772  1
  O  O67  1  0.50185772  0.61662355  0.70885003  1
  O  O68  1  0.09222648  0.88337645  0.38523318  1
  O  O69  1  0.38523318  0.09222548  0.88337545  1
  O  O70  1  0.11476682  0.99814227  0.70699230  1
  O  O71  1  0.61662455  0.40777352  0.11476582  1
  O  O72  1  0.50185773  0.38523418  0.79300770  1
  O  O73  1  0.88337645  0.99814227  0.79114997  1
  O  O74  1  0.40777452  0.11476682  0.61662455  1
  O  O75  1  0.79300670  0.50185673  0.38523418  1
  O  O76  1  0.99814228  0.79114997  0.88337645  1
  O  O77  1  0.09222748  0.70885103  0.70699330  1
  O  O78  1  0.70699230  0.09222548  0.70885003  1
  O  O79  1  0.90777352  0.11662355  0.61476582  1
