# generated using pymatgen
data_In6Se7
_symmetry_space_group_name_H-M   'P 1'
_cell_length_a   4.12450146
_cell_length_b   9.57839409
_cell_length_c   18.24209294
_cell_angle_alpha   101.28284996
_cell_angle_beta   90.00000000
_cell_angle_gamma   90.00000000
_symmetry_Int_Tables_number   1
_chemical_formula_structural   In6Se7
_chemical_formula_sum   'In12 Se14'
_cell_volume   706.74568149
_cell_formula_units_Z   2
loop_
 _symmetry_equiv_pos_site_id
 _symmetry_equiv_pos_as_xyz
  1  'x, y, z'
loop_
 _atom_site_type_symbol
 _atom_site_label
 _atom_site_symmetry_multiplicity
 _atom_site_fract_x
 _atom_site_fract_y
 _atom_site_fract_z
 _atom_site_occupancy
  In  In0  1  0.75000000  0.96930881  0.27488309  1
  In  In1  1  0.25000000  0.03069119  0.72511691  1
  In  In2  1  0.75000000  0.56580576  0.12255760  1
  In  In3  1  0.25000000  0.43419424  0.87744240  1
  In  In4  1  0.75000000  0.31992703  0.18733214  1
  In  In5  1  0.25000000  0.68007297  0.81266786  1
  In  In6  1  0.75000000  0.52016943  0.60275181  1
  In  In7  1  0.25000000  0.47983057  0.39724819  1
  In  In8  1  0.75000000  0.82618028  0.46809077  1
  In  In9  1  0.25000000  0.17381972  0.53190923  1
  In  In10  1  0.75000000  0.14588274  0.95373754  1
  In  In11  1  0.25000000  0.85411726  0.04626246  1
  Se  Se12  1  0.75000000  0.66486017  0.99401541  1
  Se  Se13  1  0.25000000  0.33513983  0.00598459  1
  Se  Se14  1  0.75000000  0.61801138  0.34500376  1
  Se  Se15  1  0.25000000  0.38198862  0.65499624  1
  Se  Se16  1  0.75000000  0.74166695  0.72778509  1
  Se  Se17  1  0.25000000  0.25833305  0.27221491  1
  Se  Se18  1  0.75000000  0.05681945  0.09119083  1
  Se  Se19  1  0.25000000  0.94318055  0.90880917  1
  Se  Se20  1  0.75000000  0.25337715  0.82278855  1
  Se  Se21  1  0.25000000  0.74662285  0.17721145  1
  Se  Se22  1  0.75000000  0.03367024  0.59171526  1
  Se  Se23  1  0.25000000  0.96632976  0.40828474  1
  Se  Se24  1  0.75000000  0.33083693  0.46767399  1
  Se  Se25  1  0.25000000  0.66916307  0.53232601  1
