# generated using pymatgen
data_NaCd2(SiO3)3
_symmetry_space_group_name_H-M   'P 1'
_cell_length_a   7.06093829
_cell_length_b   7.03397531
_cell_length_c   7.95296619
_cell_angle_alpha   102.34683652
_cell_angle_beta   95.04531638
_cell_angle_gamma   90.49228067
_symmetry_Int_Tables_number   1
_chemical_formula_structural   NaCd2(SiO3)3
_chemical_formula_sum   'Na2 Cd4 Si6 O18'
_cell_volume   384.21250775
_cell_formula_units_Z   2
loop_
 _symmetry_equiv_pos_site_id
 _symmetry_equiv_pos_as_xyz
  1  'x, y, z'
loop_
 _atom_site_type_symbol
 _atom_site_label
 _atom_site_symmetry_multiplicity
 _atom_site_fract_x
 _atom_site_fract_y
 _atom_site_fract_z
 _atom_site_occupancy
  Na  Na0  1  0.64856673  0.73730026  0.43362086  1
  Na  Na1  1  0.35143327  0.26269974  0.56637914  1
  Cd  Cd2  1  0.85168947  0.41075985  0.14589646  1
  Cd  Cd3  1  0.14831053  0.58924015  0.85410354  1
  Cd  Cd4  1  0.86624275  0.91440932  0.15132916  1
  Cd  Cd5  1  0.13375725  0.08559068  0.84867084  1
  Si  Si6  1  0.33907450  0.40503211  0.21711518  1
  Si  Si7  1  0.66092550  0.59496789  0.78288482  1
  Si  Si8  1  0.34739618  0.95257677  0.21271537  1
  Si  Si9  1  0.65260382  0.04742323  0.78728463  1
  Si  Si10  1  0.14743005  0.73484605  0.45203622  1
  Si  Si11  1  0.85256995  0.26515395  0.54796378  1
  O  O12  1  0.16837880  0.38960097  0.06351094  1
  O  O13  1  0.83162120  0.61039903  0.93648906  1
  O  O14  1  0.17817597  0.89250968  0.05563915  1
  O  O15  1  0.82182403  0.10749032  0.94436085  1
  O  O16  1  0.27397129  0.53395016  0.40330082  1
  O  O17  1  0.72602871  0.46604984  0.59669918  1
  O  O18  1  0.28037921  0.90709035  0.39606675  1
  O  O19  1  0.71962079  0.09290965  0.60393325  1
  O  O20  1  0.87501303  0.21116617  0.34225741  1
  O  O21  1  0.12498697  0.78883383  0.65774259  1
  O  O22  1  0.94630514  0.70721191  0.33048071  1
  O  O23  1  0.05369486  0.29278809  0.66951929  1
  O  O24  1  0.54619029  0.49636392  0.18974860  1
  O  O25  1  0.45380971  0.50363608  0.81025140  1
  O  O26  1  0.55041371  0.85124064  0.17595179  1
  O  O27  1  0.44958629  0.14875936  0.82404821  1
  O  O28  1  0.38400398  0.19119110  0.26294529  1
  O  O29  1  0.61599602  0.80880890  0.73705471  1
