# generated using pymatgen
data_LiTi2O4
_symmetry_space_group_name_H-M   'P 1'
_cell_length_a   3.94022240
_cell_length_b   8.15514849
_cell_length_c   8.89467857
_cell_angle_alpha   90.00809397
_cell_angle_beta   90.00000000
_cell_angle_gamma   90.00000000
_symmetry_Int_Tables_number   1
_chemical_formula_structural   LiTi2O4
_chemical_formula_sum   'Li4 Ti8 O16'
_cell_volume   285.81358181
_cell_formula_units_Z   4
loop_
 _symmetry_equiv_pos_site_id
 _symmetry_equiv_pos_as_xyz
  1  'x, y, z'
loop_
 _atom_site_type_symbol
 _atom_site_label
 _atom_site_symmetry_multiplicity
 _atom_site_fract_x
 _atom_site_fract_y
 _atom_site_fract_z
 _atom_site_occupancy
  Li  Li0  1  0.00000000  0.99774329  0.00707772  1
  Li  Li1  1  0.50000000  0.75219996  0.50736301  1
  Li  Li2  1  0.50000000  0.00503235  0.75384608  1
  Li  Li3  1  0.00000000  0.74489615  0.25346852  1
  Ti  Ti4  1  -0.00000000  0.02091657  0.50061405  1
  Ti  Ti5  1  0.00000000  0.49179597  0.50570335  1
  Ti  Ti6  1  0.50000000  0.72883074  0.99935462  1
  Ti  Ti7  1  0.50000000  0.25850495  0.00559807  1
  Ti  Ti8  1  0.50000000  0.01687907  0.24628189  1
  Ti  Ti9  1  0.50000000  0.48688825  0.24502688  1
  Ti  Ti10  1  -0.00000000  0.73270527  0.74709352  1
  Ti  Ti11  1  0.00000000  0.26353477  0.74533114  1
  O  O12  1  0.00000000  0.00202184  0.72203468  1
  O  O13  1  0.00000000  0.50159437  0.73201855  1
  O  O14  1  0.50000000  0.74799670  0.22195762  1
  O  O15  1  0.50000000  0.24853724  0.23176091  1
  O  O16  1  0.50000000  0.99322866  0.47618518  1
  O  O17  1  0.50000000  0.51026113  0.47381953  1
  O  O18  1  0.00000000  0.75695828  0.97726454  1
  O  O19  1  -0.00000000  0.23952138  0.97417984  1
  O  O20  1  0.00000000  0.75142054  0.52250000  1
  O  O21  1  0.00000000  0.25152995  0.51994252  1
  O  O22  1  0.50000000  0.99857602  0.02248262  1
  O  O23  1  0.50000000  0.49856259  0.01956077  1
  O  O24  1  0.50000000  0.76021888  0.76775657  1
  O  O25  1  0.50000000  0.24640964  0.77657568  1
  O  O26  1  0.00000000  0.98989942  0.26870232  1
  O  O27  1  0.00000000  0.50332603  0.27650979  1
