# generated using pymatgen
data_NaMn2(SiO3)3
_symmetry_space_group_name_H-M   'P 1'
_cell_length_a   6.58796982
_cell_length_b   7.16387705
_cell_length_c   7.51222196
_cell_angle_alpha   101.14873615
_cell_angle_beta   93.26183091
_cell_angle_gamma   89.48677110
_symmetry_Int_Tables_number   1
_chemical_formula_structural   NaMn2(SiO3)3
_chemical_formula_sum   'Na2 Mn4 Si6 O18'
_cell_volume   347.28733892
_cell_formula_units_Z   2
loop_
 _symmetry_equiv_pos_site_id
 _symmetry_equiv_pos_as_xyz
  1  'x, y, z'
loop_
 _atom_site_type_symbol
 _atom_site_label
 _atom_site_symmetry_multiplicity
 _atom_site_fract_x
 _atom_site_fract_y
 _atom_site_fract_z
 _atom_site_occupancy
  Na  Na0  1  0.37620751  0.27077109  0.58236684  1
  Na  Na1  1  0.62379249  0.72922891  0.41763316  1
  Mn  Mn2  1  0.14117609  0.58778433  0.85522789  1
  Mn  Mn3  1  0.85882391  0.41221567  0.14477211  1
  Mn  Mn4  1  0.13162464  0.07875404  0.84655271  1
  Mn  Mn5  1  0.86837536  0.92124596  0.15344729  1
  Si  Si6  1  0.35042527  0.39992904  0.21410147  1
  Si  Si7  1  0.64957473  0.60007096  0.78589853  1
  Si  Si8  1  0.35434488  0.96137843  0.20885947  1
  Si  Si9  1  0.64565512  0.03862157  0.79114053  1
  Si  Si10  1  0.14709926  0.73405840  0.45576973  1
  Si  Si11  1  0.85290074  0.26594160  0.54423027  1
  O  O12  1  0.10775520  0.78203016  0.67204906  1
  O  O13  1  0.89224480  0.21796984  0.32795094  1
  O  O14  1  0.94365960  0.71427048  0.31763862  1
  O  O15  1  0.05634040  0.28572952  0.68236138  1
  O  O16  1  0.57323031  0.46330296  0.17618347  1
  O  O17  1  0.42676969  0.53669704  0.82381653  1
  O  O18  1  0.57323841  0.87792681  0.15348071  1
  O  O19  1  0.42676159  0.12207319  0.84651929  1
  O  O20  1  0.15579734  0.40743853  0.06535841  1
  O  O21  1  0.84420266  0.59256147  0.93464159  1
  O  O22  1  0.16381020  0.89672537  0.05524144  1
  O  O23  1  0.83618980  0.10327463  0.94475856  1
  O  O24  1  0.28607920  0.53812728  0.40921802  1
  O  O25  1  0.71392080  0.46187272  0.59078198  1
  O  O26  1  0.29549559  0.90044237  0.40336414  1
  O  O27  1  0.70450441  0.09955763  0.59663586  1
  O  O28  1  0.35510458  0.19139119  0.27067034  1
  O  O29  1  0.64489542  0.80860881  0.72932966  1
