# generated using pymatgen
data_K2Cr3O9
_symmetry_space_group_name_H-M   'P 1'
_cell_length_a   6.00345101
_cell_length_b   8.22584428
_cell_length_c   9.46242087
_cell_angle_alpha   114.70555608
_cell_angle_beta   90.00000000
_cell_angle_gamma   90.00000000
_symmetry_Int_Tables_number   1
_chemical_formula_structural   K2Cr3O9
_chemical_formula_sum   'K4 Cr6 O18'
_cell_volume   424.51513950
_cell_formula_units_Z   2
loop_
 _symmetry_equiv_pos_site_id
 _symmetry_equiv_pos_as_xyz
  1  'x, y, z'
loop_
 _atom_site_type_symbol
 _atom_site_label
 _atom_site_symmetry_multiplicity
 _atom_site_fract_x
 _atom_site_fract_y
 _atom_site_fract_z
 _atom_site_occupancy
  K  K0  1  0.75000000  0.17050413  0.08421060  1
  K  K1  1  0.25000000  0.82949587  0.91578940  1
  K  K2  1  0.75000000  0.76870334  0.25221602  1
  K  K3  1  0.25000000  0.23129666  0.74778398  1
  Cr  Cr4  1  0.50000000  0.50000000  0.50000000  1
  Cr  Cr5  1  -0.00000000  0.50000000  0.50000000  1
  Cr  Cr6  1  0.25000000  0.46027155  0.17639217  1
  Cr  Cr7  1  0.75000000  0.53972845  0.82360783  1
  Cr  Cr8  1  0.25000000  0.07403039  0.33023162  1
  Cr  Cr9  1  0.75000000  0.92596961  0.66976838  1
  O  O10  1  0.47906701  0.50872923  0.29387283  1
  O  O11  1  0.97906701  0.49127077  0.70612717  1
  O  O12  1  0.52093299  0.49127077  0.70612717  1
  O  O13  1  0.02093299  0.50872923  0.29387283  1
  O  O14  1  0.25000000  0.31429962  0.44139207  1
  O  O15  1  0.75000000  0.68570038  0.55860793  1
  O  O16  1  0.75000000  0.35333212  0.43311385  1
  O  O17  1  0.25000000  0.64666788  0.56688615  1
  O  O18  1  0.25000000  0.24850650  0.05819377  1
  O  O19  1  0.75000000  0.75149350  0.94180623  1
  O  O20  1  0.25000000  0.57862965  0.07525099  1
  O  O21  1  0.75000000  0.42137035  0.92474901  1
  O  O22  1  0.47009177  0.01183852  0.21869349  1
  O  O23  1  0.97009177  0.98816148  0.78130651  1
  O  O24  1  0.52990823  0.98816148  0.78130651  1
  O  O25  1  0.02990823  0.01183852  0.21869349  1
  O  O26  1  0.25000000  0.97312753  0.44521538  1
  O  O27  1  0.75000000  0.02687247  0.55478462  1
