# generated using pymatgen
data_BaV2Cu(AgO4)2
_symmetry_space_group_name_H-M   'P 1'
_cell_length_a   5.47899125
_cell_length_b   5.70594209
_cell_length_c   14.52686937
_cell_angle_alpha   94.99023436
_cell_angle_beta   90.48539224
_cell_angle_gamma   117.81832231
_symmetry_Int_Tables_number   1
_chemical_formula_structural   BaV2Cu(AgO4)2
_chemical_formula_sum   'Ba2 V4 Cu2 Ag4 O16'
_cell_volume   399.52190029
_cell_formula_units_Z   2
loop_
 _symmetry_equiv_pos_site_id
 _symmetry_equiv_pos_as_xyz
  1  'x, y, z'
loop_
 _atom_site_type_symbol
 _atom_site_label
 _atom_site_symmetry_multiplicity
 _atom_site_fract_x
 _atom_site_fract_y
 _atom_site_fract_z
 _atom_site_occupancy
  Ba  Ba0  1  0.46724122  0.95616507  0.74870043  1
  Ba  Ba1  1  0.53275878  0.04383493  0.25129957  1
  V  V2  1  0.84085599  0.68224818  0.87314746  1
  V  V3  1  0.15914401  0.31775182  0.12685254  1
  V  V4  1  0.14253178  0.28373405  0.62508500  1
  V  V5  1  0.85746822  0.71626595  0.37491500  1
  Cu  Cu6  1  0.50000000  -0.00000000  -0.00000000  1
  Cu  Cu7  1  0.50000000  -0.00000000  0.50000000  1
  Ag  Ag8  1  0.17014721  0.33161501  0.91032973  1
  Ag  Ag9  1  0.82985279  0.66838499  0.08967027  1
  Ag  Ag10  1  0.81050097  0.62367862  0.58810361  1
  Ag  Ag11  1  0.18949903  0.37632138  0.41189639  1
  O  O12  1  0.57845744  0.76219207  0.91321876  1
  O  O13  1  0.42154256  0.23780793  0.08678124  1
  O  O14  1  0.17660905  0.92145750  0.91934860  1
  O  O15  1  0.82339095  0.07854250  0.08065140  1
  O  O16  1  0.23413523  0.03366911  0.58477935  1
  O  O17  1  0.76586477  0.96633089  0.41522065  1
  O  O18  1  0.78454162  0.18090021  0.60061172  1
  O  O19  1  0.21545838  0.81909979  0.39938828  1
  O  O20  1  0.85459712  0.70506701  0.75638620  1
  O  O21  1  0.14540288  0.29493299  0.24361380  1
  O  O22  1  0.20109514  0.33661034  0.74274339  1
  O  O23  1  0.79890486  0.66338966  0.25725661  1
  O  O24  1  0.64840400  0.41682889  0.41903148  1
  O  O25  1  0.35159600  0.58317111  0.58096852  1
  O  O26  1  0.76038800  0.36031030  0.89605816  1
  O  O27  1  0.23961200  0.63968970  0.10394184  1
