# generated using pymatgen
data_Ca3Si4(SbO7)2
_symmetry_space_group_name_H-M   'P 1'
_cell_length_a   8.04366176
_cell_length_b   9.92325488
_cell_length_c   10.04243343
_cell_angle_alpha   65.02919734
_cell_angle_beta   66.39157906
_cell_angle_gamma   66.09047631
_symmetry_Int_Tables_number   1
_chemical_formula_structural   Ca3Si4(SbO7)2
_chemical_formula_sum   'Ca6 Si8 Sb4 O28'
_cell_volume   638.34027044
_cell_formula_units_Z   2
loop_
 _symmetry_equiv_pos_site_id
 _symmetry_equiv_pos_as_xyz
  1  'x, y, z'
loop_
 _atom_site_type_symbol
 _atom_site_label
 _atom_site_symmetry_multiplicity
 _atom_site_fract_x
 _atom_site_fract_y
 _atom_site_fract_z
 _atom_site_occupancy
  Ca  Ca0  1  0.84198191  0.94194100  0.46726837  1
  Ca  Ca1  1  0.25119129  0.55805900  0.03273163  1
  Ca  Ca2  1  0.74880871  0.44194100  0.96726837  1
  Ca  Ca3  1  0.64087975  0.25000000  0.75000000  1
  Ca  Ca4  1  0.15801809  0.05805900  0.53273163  1
  Ca  Ca5  1  0.35912025  0.75000000  0.25000000  1
  Si  Si6  1  0.46591451  0.28666298  0.33431607  1
  Si  Si7  1  0.91310543  0.78666298  0.83431607  1
  Si  Si8  1  0.50764207  0.87841398  0.86353174  1
  Si  Si9  1  0.75041322  0.37841398  0.36353174  1
  Si  Si10  1  0.08689457  0.21333702  0.16568393  1
  Si  Si11  1  0.49235793  0.12158602  0.13646826  1
  Si  Si12  1  0.24958678  0.62158602  0.63646826  1
  Si  Si13  1  0.53408549  0.71333702  0.66568393  1
  Sb  Sb14  1  0.21923542  0.25000000  0.75000000  1
  Sb  Sb15  1  0.78076458  0.75000000  0.25000000  1
  Sb  Sb16  1  0.00000000  0.00000000  0.00000000  1
  Sb  Sb17  1  0.00000000  0.50000000  0.50000000  1
  O  O18  1  0.15112392  0.68102472  0.49801972  1
  O  O19  1  0.04046587  0.59555916  0.25411238  1
  O  O20  1  0.48472338  0.95101584  0.16794162  1
  O  O21  1  0.10986259  0.09555916  0.75411238  1
  O  O22  1  0.72778696  0.70116858  0.52103841  1
  O  O23  1  0.91551014  0.37343255  0.19427791  1
  O  O24  1  0.39631815  0.45101584  0.66794162  1
  O  O25  1  0.94999395  0.79883142  0.97896159  1
  O  O26  1  0.08448986  0.62656745  0.80572209  1
  O  O27  1  0.35104738  0.76013287  0.59836275  1
  O  O28  1  0.95953413  0.40444084  0.74588762  1
  O  O29  1  0.27221304  0.29883142  0.47896159  1
  O  O30  1  0.48322161  0.12656745  0.30572209  1
  O  O31  1  0.66983065  0.18102472  0.99801972  1
  O  O32  1  0.29045700  0.26013287  0.09836275  1
  O  O33  1  0.05000605  0.20116858  0.02103841  1
  O  O34  1  0.07757912  0.07156875  0.32336503  1
  O  O35  1  0.64895262  0.23986713  0.40163725  1
  O  O36  1  0.47251190  0.42843125  0.17663497  1
  O  O37  1  0.70954300  0.73986713  0.90163725  1
  O  O38  1  0.51677839  0.87343255  0.69427791  1
  O  O39  1  0.89013741  0.90444084  0.24588762  1
  O  O40  1  0.52748810  0.57156875  0.82336503  1
  O  O41  1  0.51527662  0.04898416  0.83205838  1
  O  O42  1  0.92242088  0.92843125  0.67663497  1
  O  O43  1  0.60368185  0.54898416  0.33205838  1
  O  O44  1  0.33016935  0.81897528  0.00198028  1
  O  O45  1  0.84887608  0.31897528  0.50198028  1
