# generated using pymatgen
data_U(BO2)4
_symmetry_space_group_name_H-M   'P 1'
_cell_length_a   4.25188101
_cell_length_b   7.28661221
_cell_length_c   8.30999472
_cell_angle_alpha   113.43494840
_cell_angle_beta   104.82272885
_cell_angle_gamma   90.00000000
_symmetry_Int_Tables_number   1
_chemical_formula_structural   U(BO2)4
_chemical_formula_sum   'U2 B8 O16'
_cell_volume   226.85308401
_cell_formula_units_Z   2
loop_
 _symmetry_equiv_pos_site_id
 _symmetry_equiv_pos_as_xyz
  1  'x, y, z'
loop_
 _atom_site_type_symbol
 _atom_site_label
 _atom_site_symmetry_multiplicity
 _atom_site_fract_x
 _atom_site_fract_y
 _atom_site_fract_z
 _atom_site_occupancy
  U  U0  1  0.84333987  0.75000000  1.00000000  1
  U  U1  1  0.15666013  0.25000000  0.00000000  1
  B  B2  1  0.99968546  0.79644484  0.60945627  1
  B  B3  1  0.39022919  0.70355516  0.39054373  1
  B  B4  1  0.00031454  0.20355516  0.39054373  1
  B  B5  1  0.60977081  0.29644484  0.60945627  1
  B  B6  1  0.17368224  0.50644281  0.71943245  1
  B  B7  1  0.45424979  0.99355719  0.28056755  1
  B  B8  1  0.82631776  0.49355719  0.28056755  1
  B  B9  1  0.54575021  0.00644281  0.71943245  1
  O  O10  1  0.06979730  0.66836625  0.43290080  1
  O  O11  1  0.63689651  0.83163375  0.56709920  1
  O  O12  1  0.93020270  0.33163375  0.56709920  1
  O  O13  1  0.36310349  0.16836625  0.43290080  1
  O  O14  1  0.19347618  0.99165569  0.69063204  1
  O  O15  1  0.50284414  0.50834431  0.30936796  1
  O  O16  1  0.80652382  0.00834431  0.30936796  1
  O  O17  1  0.49715586  0.49165569  0.69063204  1
  O  O18  1  0.06230034  0.70064306  0.73628258  1
  O  O19  1  0.32601776  0.79935694  0.26371742  1
  O  O20  1  0.93769966  0.29935694  0.26371742  1
  O  O21  1  0.67398224  0.20064306  0.73628258  1
  O  O22  1  0.17970974  0.50598176  0.89676250  1
  O  O23  1  0.28294724  0.99401824  0.10323750  1
  O  O24  1  0.82029026  0.49401824  0.10323750  1
  O  O25  1  0.71705276  0.00598176  0.89676250  1
