# generated using pymatgen
data_BaH2PdN4O9
_symmetry_space_group_name_H-M   'P 1'
_cell_length_a   7.74321878
_cell_length_b   10.83236021
_cell_length_c   11.48354779
_cell_angle_alpha   98.17045577
_cell_angle_beta   90.00000000
_cell_angle_gamma   90.00000000
_symmetry_Int_Tables_number   1
_chemical_formula_structural   BaH2PdN4O9
_chemical_formula_sum   'Ba4 H8 Pd4 N16 O36'
_cell_volume   953.43246781
_cell_formula_units_Z   4
loop_
 _symmetry_equiv_pos_site_id
 _symmetry_equiv_pos_as_xyz
  1  'x, y, z'
loop_
 _atom_site_type_symbol
 _atom_site_label
 _atom_site_symmetry_multiplicity
 _atom_site_fract_x
 _atom_site_fract_y
 _atom_site_fract_z
 _atom_site_occupancy
  Ba  Ba0  1  0.58122118  0.11400684  0.32007902  1
  Ba  Ba1  1  0.91877882  0.61400684  0.82007902  1
  Ba  Ba2  1  0.41877882  0.88599316  0.67992098  1
  Ba  Ba3  1  0.08122118  0.38599316  0.17992098  1
  H  H4  1  0.66036392  0.15908453  0.04527512  1
  H  H5  1  0.83963608  0.65908453  0.54527512  1
  H  H6  1  0.33963608  0.84091547  0.95472488  1
  H  H7  1  0.16036392  0.34091547  0.45472488  1
  H  H8  1  0.47415076  0.10727571  0.02337318  1
  H  H9  1  0.02584924  0.60727571  0.52337318  1
  H  H10  1  0.52584924  0.89272429  0.97662682  1
  H  H11  1  0.97415076  0.39272429  0.47662682  1
  Pd  Pd12  1  0.09914929  0.88418773  0.24804152  1
  Pd  Pd13  1  0.40085071  0.38418773  0.74804152  1
  Pd  Pd14  1  0.90085071  0.11581227  0.75195848  1
  Pd  Pd15  1  0.59914929  0.61581227  0.25195848  1
  N  N16  1  0.08780989  0.07386188  0.24407867  1
  N  N17  1  0.41219011  0.57386188  0.74407867  1
  N  N18  1  0.91219011  0.92613812  0.75592133  1
  N  N19  1  0.58780989  0.42613812  0.25592133  1
  N  N20  1  0.20180131  0.91040634  0.41535259  1
  N  N21  1  0.29819869  0.41040634  0.91535259  1
  N  N22  1  0.79819869  0.08959366  0.58464741  1
  N  N23  1  0.70180131  0.58959366  0.08464741  1
  N  N24  1  0.10928870  0.69424247  0.24809674  1
  N  N25  1  0.39071130  0.19424247  0.74809674  1
  N  N26  1  0.89071130  0.30575753  0.75190326  1
  N  N27  1  0.60928870  0.80575753  0.25190326  1
  N  N28  1  0.00142687  0.84873541  0.07887172  1
  N  N29  1  0.49857313  0.34873541  0.57887172  1
  N  N30  1  0.99857313  0.15126459  0.92112828  1
  N  N31  1  0.50142687  0.65126459  0.42112828  1
  O  O32  1  0.94602765  0.12758998  0.23701237  1
  O  O33  1  0.55397235  0.62758998  0.73701237  1
  O  O34  1  0.05397235  0.87241002  0.76298763  1
  O  O35  1  0.44602765  0.37241002  0.26298763  1
  O  O36  1  0.22409363  0.13775410  0.24394710  1
  O  O37  1  0.27590637  0.63775410  0.74394710  1
  O  O38  1  0.77590637  0.86224590  0.75605290  1
  O  O39  1  0.72409363  0.36224590  0.25605290  1
  O  O40  1  0.34578880  0.96482714  0.43291014  1
  O  O41  1  0.15421120  0.46482714  0.93291014  1
  O  O42  1  0.65421120  0.03517286  0.56708986  1
  O  O43  1  0.84578880  0.53517286  0.06708986  1
  O  O44  1  0.13209287  0.86625435  0.49778909  1
  O  O45  1  0.36790713  0.36625435  0.99778909  1
  O  O46  1  0.86790713  0.13374565  0.50221091  1
  O  O47  1  0.63209287  0.63374565  0.00221091  1
  O  O48  1  0.00582205  0.64078950  0.30812712  1
  O  O49  1  0.49417795  0.14078950  0.80812712  1
  O  O50  1  0.99417795  0.35921050  0.69187288  1
  O  O51  1  0.50582205  0.85921050  0.19187288  1
  O  O52  1  0.21779327  0.63208316  0.18343346  1
  O  O53  1  0.28220673  0.13208316  0.68343346  1
  O  O54  1  0.78220673  0.36791684  0.81656654  1
  O  O55  1  0.71779327  0.86791684  0.31656654  1
  O  O56  1  0.85643584  0.88704589  0.05673497  1
  O  O57  1  0.64356416  0.38704589  0.55673497  1
  O  O58  1  0.14356416  0.11295411  0.94326503  1
  O  O59  1  0.35643584  0.61295411  0.44326503  1
  O  O60  1  0.08730064  0.78071727  0.00086620  1
  O  O61  1  0.41269936  0.28071727  0.50086620  1
  O  O62  1  0.91269936  0.21928273  0.99913380  1
  O  O63  1  0.58730064  0.71928273  0.49913380  1
  O  O64  1  0.56647267  0.11766704  0.08171163  1
  O  O65  1  0.93352733  0.61766704  0.58171163  1
  O  O66  1  0.43352733  0.88233296  0.91828837  1
  O  O67  1  0.06647267  0.38233296  0.41828837  1
