# generated using pymatgen
data_SbSO2F7
_symmetry_space_group_name_H-M   'P 1'
_cell_length_a   5.21878753
_cell_length_b   8.28937829
_cell_length_c   19.03424026
_cell_angle_alpha   90.00000000
_cell_angle_beta   89.47328961
_cell_angle_gamma   90.00000000
_symmetry_Int_Tables_number   1
_chemical_formula_structural   SbSO2F7
_chemical_formula_sum   'Sb4 S4 O8 F28'
_cell_volume   823.39603455
_cell_formula_units_Z   4
loop_
 _symmetry_equiv_pos_site_id
 _symmetry_equiv_pos_as_xyz
  1  'x, y, z'
loop_
 _atom_site_type_symbol
 _atom_site_label
 _atom_site_symmetry_multiplicity
 _atom_site_fract_x
 _atom_site_fract_y
 _atom_site_fract_z
 _atom_site_occupancy
  Sb  Sb0  1  0.10131201  0.40366193  0.86315918  1
  Sb  Sb1  1  0.89868799  0.90366193  0.63684082  1
  Sb  Sb2  1  0.89868799  0.59633807  0.13684082  1
  Sb  Sb3  1  0.10131201  0.09633807  0.36315918  1
  S  S4  1  0.51385339  0.36382229  0.62224699  1
  S  S5  1  0.48614661  0.86382229  0.87775301  1
  S  S6  1  0.48614661  0.63617771  0.37775301  1
  S  S7  1  0.51385339  0.13617771  0.12224699  1
  O  O8  1  0.54910085  0.33189609  0.54988167  1
  O  O9  1  0.45089915  0.83189609  0.95011833  1
  O  O10  1  0.45089915  0.66810391  0.45011833  1
  O  O11  1  0.54910085  0.16810391  0.04988167  1
  O  O12  1  0.61241846  0.49796060  0.65926301  1
  O  O13  1  0.38758154  0.99796060  0.84073699  1
  O  O14  1  0.38758154  0.50203940  0.34073699  1
  O  O15  1  0.61241846  0.00203940  0.15926301  1
  F  F16  1  0.90058980  0.50674527  0.79387900  1
  F  F17  1  0.09941020  0.00674527  0.70612100  1
  F  F18  1  0.09941020  0.49325473  0.20612100  1
  F  F19  1  0.90058980  0.99325473  0.29387900  1
  F  F20  1  0.38156716  0.37939158  0.92456258  1
  F  F21  1  0.61843284  0.87939158  0.57543742  1
  F  F22  1  0.61843284  0.62060842  0.07543742  1
  F  F23  1  0.38156716  0.12060842  0.42456258  1
  F  F24  1  0.96082930  0.55217356  0.92849603  1
  F  F25  1  0.03917070  0.05217356  0.57150397  1
  F  F26  1  0.03917070  0.44782644  0.07150397  1
  F  F27  1  0.96082930  0.94782644  0.42849603  1
  F  F28  1  0.40103209  0.70485700  0.83552614  1
  F  F29  1  0.59896791  0.20485700  0.66447386  1
  F  F30  1  0.59896791  0.29514300  0.16447386  1
  F  F31  1  0.40103209  0.79514300  0.33552614  1
  F  F32  1  0.32433656  0.34259562  0.78885346  1
  F  F33  1  0.67566344  0.84259562  0.71114654  1
  F  F34  1  0.67566344  0.65740438  0.21114654  1
  F  F35  1  0.32433656  0.15740438  0.28885346  1
  F  F36  1  0.91185890  0.21561442  0.88012713  1
  F  F37  1  0.08814110  0.71561442  0.61987287  1
  F  F38  1  0.08814110  0.78438558  0.11987287  1
  F  F39  1  0.91185890  0.28438558  0.38012713  1
  F  F40  1  0.22104716  0.34623554  0.64067447  1
  F  F41  1  0.77895284  0.84623554  0.85932553  1
  F  F42  1  0.77895284  0.65376446  0.35932553  1
  F  F43  1  0.22104716  0.15376446  0.14067447  1
