# generated using pymatgen
data_SiS2
_symmetry_space_group_name_H-M   'P 1'
_cell_length_a   7.44526171
_cell_length_b   7.62844649
_cell_length_c   15.09849486
_cell_angle_alpha   90.00000000
_cell_angle_beta   101.88390790
_cell_angle_gamma   90.00000000
_symmetry_Int_Tables_number   1
_chemical_formula_structural   SiS2
_chemical_formula_sum   'Si12 S24'
_cell_volume   839.15122388
_cell_formula_units_Z   12
loop_
 _symmetry_equiv_pos_site_id
 _symmetry_equiv_pos_as_xyz
  1  'x, y, z'
loop_
 _atom_site_type_symbol
 _atom_site_label
 _atom_site_symmetry_multiplicity
 _atom_site_fract_x
 _atom_site_fract_y
 _atom_site_fract_z
 _atom_site_occupancy
  Si  Si0  1  0.36526392  0.13028356  0.00068741  1
  Si  Si1  1  0.63473608  0.63028356  0.49931259  1
  Si  Si2  1  0.63473608  0.86971644  0.99931259  1
  Si  Si3  1  0.36526392  0.36971644  0.50068741  1
  Si  Si4  1  0.19942886  0.37040575  0.16566995  1
  Si  Si5  1  0.80057114  0.87040575  0.33433005  1
  Si  Si6  1  0.80057114  0.62959425  0.83433005  1
  Si  Si7  1  0.19942886  0.12959425  0.66566995  1
  Si  Si8  1  0.94304424  0.63859919  0.16417721  1
  Si  Si9  1  0.05695576  0.13859919  0.33582279  1
  Si  Si10  1  0.05695576  0.36140081  0.83582279  1
  Si  Si11  1  0.94304424  0.86140081  0.66417721  1
  S  S12  1  0.58377617  0.11416412  0.92712446  1
  S  S13  1  0.41622383  0.61416412  0.57287554  1
  S  S14  1  0.41622383  0.88583588  0.07287554  1
  S  S15  1  0.58377617  0.38583588  0.42712446  1
  S  S16  1  0.08828606  0.13135479  0.92133075  1
  S  S17  1  0.91171394  0.63135479  0.57866925  1
  S  S18  1  0.91171394  0.86864521  0.07866925  1
  S  S19  1  0.08828606  0.36864521  0.42133075  1
  S  S20  1  0.40761770  0.36239381  0.08445037  1
  S  S21  1  0.59238230  0.86239381  0.41554963  1
  S  S22  1  0.59238230  0.63760619  0.91554963  1
  S  S23  1  0.40761770  0.13760619  0.58445037  1
  S  S24  1  0.25673089  0.14104055  0.25008131  1
  S  S25  1  0.74326911  0.64104055  0.24991869  1
  S  S26  1  0.74326911  0.85895945  0.74991869  1
  S  S27  1  0.25673089  0.35895945  0.75008131  1
  S  S28  1  0.91751937  0.38938749  0.09670820  1
  S  S29  1  0.08248063  0.88938749  0.40329180  1
  S  S30  1  0.08248063  0.61061251  0.90329180  1
  S  S31  1  0.91751937  0.11061251  0.59670820  1
  S  S32  1  0.22514385  0.61991398  0.23306631  1
  S  S33  1  0.77485615  0.11991398  0.26693369  1
  S  S34  1  0.77485615  0.38008602  0.76693369  1
  S  S35  1  0.22514385  0.88008602  0.73306631  1
