# generated using pymatgen
data_GaAs(H2O3)2
_symmetry_space_group_name_H-M   'P 1'
_cell_length_a   8.97073919
_cell_length_b   10.26629726
_cell_length_c   10.54773852
_cell_angle_alpha   90.00000000
_cell_angle_beta   90.00000000
_cell_angle_gamma   90.00000000
_symmetry_Int_Tables_number   1
_chemical_formula_structural   GaAs(H2O3)2
_chemical_formula_sum   'Ga8 As8 H32 O48'
_cell_volume   971.40742912
_cell_formula_units_Z   8
loop_
 _symmetry_equiv_pos_site_id
 _symmetry_equiv_pos_as_xyz
  1  'x, y, z'
loop_
 _atom_site_type_symbol
 _atom_site_label
 _atom_site_symmetry_multiplicity
 _atom_site_fract_x
 _atom_site_fract_y
 _atom_site_fract_z
 _atom_site_occupancy
  Ga  Ga0  1  0.85849311  0.83272689  0.87155334  1
  Ga  Ga1  1  0.35849311  0.66727311  0.12844666  1
  Ga  Ga2  1  0.14150689  0.33272689  0.62844666  1
  Ga  Ga3  1  0.64150689  0.16727311  0.37155334  1
  Ga  Ga4  1  0.14150689  0.16727311  0.12844666  1
  Ga  Ga5  1  0.64150689  0.33272689  0.87155334  1
  Ga  Ga6  1  0.85849311  0.66727311  0.37155334  1
  Ga  Ga7  1  0.35849311  0.83272689  0.62844666  1
  As  As8  1  0.54300179  0.65199759  0.85074843  1
  As  As9  1  0.04300179  0.84800241  0.14925157  1
  As  As10  1  0.45699821  0.15199759  0.64925157  1
  As  As11  1  0.95699821  0.34800241  0.35074843  1
  As  As12  1  0.45699821  0.34800241  0.14925157  1
  As  As13  1  0.95699821  0.15199759  0.85074843  1
  As  As14  1  0.54300179  0.84800241  0.35074843  1
  As  As15  1  0.04300179  0.65199759  0.64925157  1
  H  H16  1  0.69140719  0.81212766  0.67737870  1
  H  H17  1  0.19140719  0.68787234  0.32262130  1
  H  H18  1  0.30859281  0.31212766  0.82262130  1
  H  H19  1  0.80859281  0.18787234  0.17737870  1
  H  H20  1  0.30859281  0.18787234  0.32262130  1
  H  H21  1  0.80859281  0.31212766  0.67737870  1
  H  H22  1  0.69140719  0.68787234  0.17737870  1
  H  H23  1  0.19140719  0.81212766  0.82262130  1
  H  H24  1  0.67793103  0.95368243  0.71106325  1
  H  H25  1  0.17793103  0.54631757  0.28893675  1
  H  H26  1  0.32206897  0.45368243  0.78893675  1
  H  H27  1  0.82206897  0.04631757  0.21106325  1
  H  H28  1  0.32206897  0.04631757  0.28893675  1
  H  H29  1  0.82206897  0.45368243  0.71106325  1
  H  H30  1  0.67793103  0.54631757  0.21106325  1
  H  H31  1  0.17793103  0.95368243  0.78893675  1
  H  H32  1  0.65954194  0.93595514  0.03577633  1
  H  H33  1  0.15954194  0.56404486  0.96422367  1
  H  H34  1  0.34045806  0.43595514  0.46422367  1
  H  H35  1  0.84045806  0.06404486  0.53577633  1
  H  H36  1  0.34045806  0.06404486  0.96422367  1
  H  H37  1  0.84045806  0.43595514  0.03577633  1
  H  H38  1  0.65954194  0.56404486  0.53577633  1
  H  H39  1  0.15954194  0.93595514  0.46422367  1
  H  H40  1  0.69936372  0.03915349  0.92679850  1
  H  H41  1  0.19936372  0.46084651  0.07320150  1
  H  H42  1  0.30063628  0.53915349  0.57320150  1
  H  H43  1  0.80063628  0.96084651  0.42679850  1
  H  H44  1  0.30063628  0.96084651  0.07320150  1
  H  H45  1  0.80063628  0.53915349  0.92679850  1
  H  H46  1  0.69936372  0.46084651  0.42679850  1
  H  H47  1  0.19936372  0.03915349  0.57320150  1
  O  O48  1  0.51652270  0.72252940  0.70364667  1
  O  O49  1  0.01652270  0.77747060  0.29635333  1
  O  O50  1  0.48347730  0.22252940  0.79635333  1
  O  O51  1  0.98347730  0.27747060  0.20364667  1
  O  O52  1  0.48347730  0.27747060  0.29635333  1
  O  O53  1  0.98347730  0.22252940  0.70364667  1
  O  O54  1  0.51652270  0.77747060  0.20364667  1
  O  O55  1  0.01652270  0.72252940  0.79635333  1
  O  O56  1  0.51307203  0.48680092  0.84423351  1
  O  O57  1  0.01307203  0.01319908  0.15576649  1
  O  O58  1  0.48692797  0.98680092  0.65576649  1
  O  O59  1  0.98692797  0.51319908  0.34423351  1
  O  O60  1  0.48692797  0.51319908  0.15576649  1
  O  O61  1  0.98692797  0.98680092  0.84423351  1
  O  O62  1  0.51307203  0.01319908  0.34423351  1
  O  O63  1  0.01307203  0.48680092  0.65576649  1
  O  O64  1  0.42212006  0.71518217  0.95829095  1
  O  O65  1  0.92212006  0.78481783  0.04170905  1
  O  O66  1  0.57787994  0.21518217  0.54170905  1
  O  O67  1  0.07787994  0.28481783  0.45829095  1
  O  O68  1  0.57787994  0.28481783  0.04170905  1
  O  O69  1  0.07787994  0.21518217  0.95829095  1
  O  O70  1  0.42212006  0.78481783  0.45829095  1
  O  O71  1  0.92212006  0.71518217  0.54170905  1
  O  O72  1  0.73124984  0.67414738  0.88138507  1
  O  O73  1  0.23124984  0.82585262  0.11861493  1
  O  O74  1  0.26875016  0.17414738  0.61861493  1
  O  O75  1  0.76875016  0.32585262  0.38138507  1
  O  O76  1  0.26875016  0.32585262  0.11861493  1
  O  O77  1  0.76875016  0.17414738  0.88138507  1
  O  O78  1  0.73124984  0.82585262  0.38138507  1
  O  O79  1  0.23124984  0.67414738  0.61861493  1
  O  O80  1  0.75653415  0.88583109  0.70242449  1
  O  O81  1  0.25653415  0.61416891  0.29757551  1
  O  O82  1  0.24346585  0.38583109  0.79757551  1
  O  O83  1  0.74346585  0.11416891  0.20242449  1
  O  O84  1  0.24346585  0.11416891  0.29757551  1
  O  O85  1  0.74346585  0.38583109  0.70242449  1
  O  O86  1  0.75653415  0.61416891  0.20242449  1
  O  O87  1  0.25653415  0.88583109  0.79757551  1
  O  O88  1  0.68098881  0.94355296  0.94539257  1
  O  O89  1  0.18098881  0.55644704  0.05460743  1
  O  O90  1  0.31901119  0.44355296  0.55460743  1
  O  O91  1  0.81901119  0.05644704  0.44539257  1
  O  O92  1  0.31901119  0.05644704  0.05460743  1
  O  O93  1  0.81901119  0.44355296  0.94539257  1
  O  O94  1  0.68098881  0.55644704  0.44539257  1
  O  O95  1  0.18098881  0.94355296  0.55460743  1
