# generated using pymatgen
data_VH8N2OF4
_symmetry_space_group_name_H-M   'P 1'
_cell_length_a   5.92271768
_cell_length_b   7.77779734
_cell_length_c   11.89372980
_cell_angle_alpha   90.00000000
_cell_angle_beta   90.00000000
_cell_angle_gamma   90.00000000
_symmetry_Int_Tables_number   1
_chemical_formula_structural   VH8N2OF4
_chemical_formula_sum   'V4 H32 N8 O4 F16'
_cell_volume   547.89296288
_cell_formula_units_Z   4
loop_
 _symmetry_equiv_pos_site_id
 _symmetry_equiv_pos_as_xyz
  1  'x, y, z'
loop_
 _atom_site_type_symbol
 _atom_site_label
 _atom_site_symmetry_multiplicity
 _atom_site_fract_x
 _atom_site_fract_y
 _atom_site_fract_z
 _atom_site_occupancy
  V  V0  1  0.25458774  0.67323661  0.43484788  1
  V  V1  1  0.75458774  0.32676339  0.56515212  1
  V  V2  1  0.75458774  0.82676339  0.93484788  1
  V  V3  1  0.25458774  0.17323661  0.06515212  1
  H  H4  1  0.23458869  0.77724754  0.12317915  1
  H  H5  1  0.73458869  0.22275246  0.87682085  1
  H  H6  1  0.73458869  0.72275246  0.62317915  1
  H  H7  1  0.23458869  0.27724754  0.37682085  1
  H  H8  1  0.23971576  0.56352763  0.15550255  1
  H  H9  1  0.73971576  0.43647237  0.84449745  1
  H  H10  1  0.73971576  0.93647237  0.65550255  1
  H  H11  1  0.23971576  0.06352763  0.34449745  1
  H  H12  1  0.08896444  0.63658247  0.04382827  1
  H  H13  1  0.58896444  0.36341753  0.95617173  1
  H  H14  1  0.58896444  0.86341753  0.54382827  1
  H  H15  1  0.08896444  0.13658247  0.45617173  1
  H  H16  1  0.37037869  0.64071963  0.03806191  1
  H  H17  1  0.87037869  0.35928037  0.96193809  1
  H  H18  1  0.87037869  0.85928037  0.53806191  1
  H  H19  1  0.37037869  0.14071963  0.46193809  1
  H  H20  1  0.21399985  0.08104690  0.71052983  1
  H  H21  1  0.71399985  0.91895310  0.28947017  1
  H  H22  1  0.71399985  0.41895310  0.21052983  1
  H  H23  1  0.21399985  0.58104690  0.78947017  1
  H  H24  1  0.38202879  0.01197482  0.81773032  1
  H  H25  1  0.88202879  0.98802518  0.18226968  1
  H  H26  1  0.88202879  0.48802518  0.31773032  1
  H  H27  1  0.38202879  0.51197482  0.68226968  1
  H  H28  1  0.10049806  0.98678608  0.82459882  1
  H  H29  1  0.60049806  0.01321392  0.17540118  1
  H  H30  1  0.60049806  0.51321392  0.32459882  1
  H  H31  1  0.10049806  0.48678608  0.67540118  1
  H  H32  1  0.25201411  0.87251119  0.73077906  1
  H  H33  1  0.75201411  0.12748881  0.26922094  1
  H  H34  1  0.75201411  0.62748881  0.23077906  1
  H  H35  1  0.25201411  0.37251119  0.76922094  1
  N  N36  1  0.73799578  0.51118991  0.27158709  1
  N  N37  1  0.23799578  0.48881009  0.72841291  1
  N  N38  1  0.23799578  0.98881009  0.77158709  1
  N  N39  1  0.73799578  0.01118991  0.22841291  1
  N  N40  1  0.23315456  0.65285520  0.09121339  1
  N  N41  1  0.73315456  0.34714480  0.90878661  1
  N  N42  1  0.73315456  0.84714480  0.59121339  1
  N  N43  1  0.23315456  0.15285520  0.40878661  1
  O  O44  1  0.45185743  0.80251260  0.38307797  1
  O  O45  1  0.95185743  0.19748740  0.61692203  1
  O  O46  1  0.95185743  0.69748740  0.88307797  1
  O  O47  1  0.45185743  0.30251260  0.11692203  1
  F  F48  1  0.22508937  0.00234248  0.18610071  1
  F  F49  1  0.72508937  0.99765752  0.81389929  1
  F  F50  1  0.72508937  0.49765752  0.68610071  1
  F  F51  1  0.22508937  0.50234248  0.31389929  1
  F  F52  1  0.71592483  0.72269336  0.08222649  1
  F  F53  1  0.21592483  0.27730664  0.91777351  1
  F  F54  1  0.21592483  0.77730664  0.58222649  1
  F  F55  1  0.71592483  0.22269336  0.41777351  1
  F  F56  1  0.46617566  0.50365927  0.50226577  1
  F  F57  1  0.96617566  0.49634073  0.49773423  1
  F  F58  1  0.96617566  0.99634073  0.00226577  1
  F  F59  1  0.46617566  0.00365927  0.99773423  1
  F  F60  1  0.98922624  0.79559384  0.38521379  1
  F  F61  1  0.48922624  0.20440616  0.61478621  1
  F  F62  1  0.48922624  0.70440616  0.88521379  1
  F  F63  1  0.98922624  0.29559384  0.11478621  1
