# generated using pymatgen
data_Na3U6FeF30
_symmetry_space_group_name_H-M   'P 1'
_cell_length_a   9.88400329
_cell_length_b   9.87847610
_cell_length_c   13.09916992
_cell_angle_alpha   90.00000001
_cell_angle_beta   90.00122027
_cell_angle_gamma   119.98150497
_symmetry_Int_Tables_number   1
_chemical_formula_structural   Na3U6FeF30
_chemical_formula_sum   'Na6 U12 Fe2 F60'
_cell_volume   1107.84282783
_cell_formula_units_Z   2
loop_
 _symmetry_equiv_pos_site_id
 _symmetry_equiv_pos_as_xyz
  1  'x, y, z'
loop_
 _atom_site_type_symbol
 _atom_site_label
 _atom_site_symmetry_multiplicity
 _atom_site_fract_x
 _atom_site_fract_y
 _atom_site_fract_z
 _atom_site_occupancy
  Na  Na0  1  0.33307397  0.66666887  0.83951606  1
  Na  Na1  1  0.33307397  0.66640510  0.33951606  1
  Na  Na2  1  0.66692603  0.33333113  0.16048394  1
  Na  Na3  1  0.66692603  0.33359490  0.66048394  1
  Na  Na4  1  -0.00000000  -0.00000000  -0.00000000  1
  Na  Na5  1  -0.00000000  -0.00000000  0.50000000  1
  U  U6  1  0.92348206  0.60123192  0.89760827  1
  U  U7  1  0.39897104  0.32255489  0.89756052  1
  U  U8  1  0.67777596  0.07633185  0.89760384  1
  U  U9  1  0.92348206  0.32225014  0.39760827  1
  U  U10  1  0.67777596  0.60144411  0.39760384  1
  U  U11  1  0.39897104  0.07641615  0.39756052  1
  U  U12  1  0.07651794  0.39876808  0.10239173  1
  U  U13  1  0.60102896  0.67744511  0.10243948  1
  U  U14  1  0.32222404  0.92366815  0.10239616  1
  U  U15  1  0.07651794  0.67774986  0.60239173  1
  U  U16  1  0.32222404  0.39855589  0.60239616  1
  U  U17  1  0.60102896  0.92358385  0.60243948  1
  Fe  Fe18  1  0.00000000  0.99966783  0.75000000  1
  Fe  Fe19  1  1.00000000  0.00033217  0.25000000  1
  F  F20  1  0.13028119  0.69381452  0.78502591  1
  F  F21  1  0.30599744  0.43659048  0.78505395  1
  F  F22  1  0.56302534  0.86951966  0.78503614  1
  F  F23  1  0.13028119  0.43646667  0.28502591  1
  F  F24  1  0.56302534  0.69350568  0.28503614  1
  F  F25  1  0.30599744  0.86940696  0.28505395  1
  F  F26  1  0.86971881  0.30618548  0.21497409  1
  F  F27  1  0.69400256  0.56340952  0.21494605  1
  F  F28  1  0.43697466  0.13048034  0.21496386  1
  F  F29  1  0.86971881  0.56353333  0.71497409  1
  F  F30  1  0.43697466  0.30649432  0.71496386  1
  F  F31  1  0.69400256  0.13059304  0.71494605  1
  F  F32  1  0.11611458  0.80487343  0.98023169  1
  F  F33  1  0.19517454  0.31134319  0.98032108  1
  F  F34  1  0.68820981  0.88337006  0.98044067  1
  F  F35  1  0.11611458  0.31124115  0.48023169  1
  F  F36  1  0.68820981  0.80483976  0.48044067  1
  F  F37  1  0.19517454  0.88383136  0.48032108  1
  F  F38  1  0.88388542  0.19512657  0.01976831  1
  F  F39  1  0.80482546  0.68865681  0.01967892  1
  F  F40  1  0.31179019  0.11662994  0.01955933  1
  F  F41  1  0.88388542  0.68875885  0.51976831  1
  F  F42  1  0.31179019  0.19516024  0.51955933  1
  F  F43  1  0.80482546  0.11616864  0.51967892  1
  F  F44  1  0.88084354  0.46892825  0.04973313  1
  F  F45  1  0.53133201  0.41203100  0.04978797  1
  F  F46  1  0.58813270  0.11929335  0.04962815  1
  F  F47  1  0.88084354  0.41191529  0.54973313  1
  F  F48  1  0.58813270  0.46883935  0.54962815  1
  F  F49  1  0.53133201  0.11930101  0.54978797  1
  F  F50  1  0.11915646  0.53107175  0.95026687  1
  F  F51  1  0.46866799  0.58796900  0.95021203  1
  F  F52  1  0.41186730  0.88070665  0.95037185  1
  F  F53  1  0.11915646  0.58808471  0.45026687  1
  F  F54  1  0.41186730  0.53116065  0.45037185  1
  F  F55  1  0.46866799  0.88069899  0.45021203  1
  F  F56  1  0.91646966  0.81003719  0.84231676  1
  F  F57  1  0.18950330  0.10668852  0.84196667  1
  F  F58  1  0.89291806  0.08252745  0.84259722  1
  F  F59  1  0.91646966  0.10643247  0.34231676  1
  F  F60  1  0.89291806  0.81039061  0.34259722  1
  F  F61  1  0.18950330  0.08281478  0.34196667  1
  F  F62  1  0.08353034  0.18996281  0.15768324  1
  F  F63  1  0.81049670  0.89331148  0.15803333  1
  F  F64  1  0.10708194  0.91747255  0.15740278  1
  F  F65  1  0.08353034  0.89356753  0.65768324  1
  F  F66  1  0.10708194  0.18960939  0.65740278  1
  F  F67  1  0.81049670  0.91718522  0.65803333  1
  F  F68  1  0.66054254  0.48734836  0.86335728  1
  F  F69  1  0.51274094  0.17325122  0.86327754  1
  F  F70  1  0.82683811  0.33941204  0.86327532  1
  F  F71  1  0.66054254  0.17319418  0.36335728  1
  F  F72  1  0.82683811  0.48742607  0.36327532  1
  F  F73  1  0.51274094  0.33948972  0.36327754  1
  F  F74  1  0.33945746  0.51265164  0.13664272  1
  F  F75  1  0.48725906  0.82674878  0.13672246  1
  F  F76  1  0.17316189  0.66058796  0.13672468  1
  F  F77  1  0.33945746  0.82680582  0.63664272  1
  F  F78  1  0.17316189  0.51257393  0.63672468  1
  F  F79  1  0.48725906  0.66051028  0.63672246  1
