# generated using pymatgen
data_CeMoBrO4
_symmetry_space_group_name_H-M   'P 1'
_cell_length_a   6.00445471
_cell_length_b   7.56261110
_cell_length_c   10.15187811
_cell_angle_alpha   89.77328500
_cell_angle_beta   90.00000000
_cell_angle_gamma   90.00000000
_symmetry_Int_Tables_number   1
_chemical_formula_structural   CeMoBrO4
_chemical_formula_sum   'Ce4 Mo4 Br4 O16'
_cell_volume   460.98663681
_cell_formula_units_Z   4
loop_
 _symmetry_equiv_pos_site_id
 _symmetry_equiv_pos_as_xyz
  1  'x, y, z'
loop_
 _atom_site_type_symbol
 _atom_site_label
 _atom_site_symmetry_multiplicity
 _atom_site_fract_x
 _atom_site_fract_y
 _atom_site_fract_z
 _atom_site_occupancy
  Ce  Ce0  1  0.94933708  0.38192995  0.22215211  1
  Ce  Ce1  1  0.05066292  0.88192995  0.22215211  1
  Ce  Ce2  1  0.54845412  0.62732861  0.76889851  1
  Ce  Ce3  1  0.45154588  0.12732861  0.76889851  1
  Mo  Mo4  1  0.49772404  0.62882795  0.35167015  1
  Mo  Mo5  1  0.50227596  0.12882795  0.35167015  1
  Mo  Mo6  1  0.00109738  0.37893500  0.63930744  1
  Mo  Mo7  1  0.99890262  0.87893500  0.63930744  1
  Br  Br8  1  0.99067634  0.62588980  0.98149196  1
  Br  Br9  1  0.00932366  0.12588980  0.98149196  1
  Br  Br10  1  0.50881423  0.37599287  0.00885278  1
  Br  Br11  1  0.49118577  0.87599287  0.00885278  1
  O  O12  1  0.48867084  0.62776614  0.52450802  1
  O  O13  1  0.51132916  0.12776614  0.52450802  1
  O  O14  1  0.60014694  0.37936353  0.32041932  1
  O  O15  1  0.39985306  0.87936353  0.32041932  1
  O  O16  1  0.78162149  0.67158129  0.26525624  1
  O  O17  1  0.21837851  0.17158129  0.26525624  1
  O  O18  1  0.78362383  0.08786286  0.26044184  1
  O  O19  1  0.21637617  0.58786286  0.26044184  1
  O  O20  1  0.01044189  0.38210902  0.46635840  1
  O  O21  1  0.98955811  0.88210902  0.46635840  1
  O  O22  1  0.89893409  0.62806290  0.67045072  1
  O  O23  1  0.10106591  0.12806290  0.67045072  1
  O  O24  1  0.71797029  0.33245848  0.72586979  1
  O  O25  1  0.28202971  0.83245848  0.72586979  1
  O  O26  1  0.71707054  0.91984160  0.72937274  1
  O  O27  1  0.28292946  0.41984160  0.72937274  1
