# generated using pymatgen
data_Na2H8WO12
_symmetry_space_group_name_H-M   'P 1'
_cell_length_a   8.62413183
_cell_length_b   9.97430100
_cell_length_c   12.44387091
_cell_angle_alpha   92.56803187
_cell_angle_beta   90.00000000
_cell_angle_gamma   90.00000000
_symmetry_Int_Tables_number   1
_chemical_formula_structural   Na2H8WO12
_chemical_formula_sum   'Na8 H32 W4 O48'
_cell_volume   1069.34288344
_cell_formula_units_Z   4
loop_
 _symmetry_equiv_pos_site_id
 _symmetry_equiv_pos_as_xyz
  1  'x, y, z'
loop_
 _atom_site_type_symbol
 _atom_site_label
 _atom_site_symmetry_multiplicity
 _atom_site_fract_x
 _atom_site_fract_y
 _atom_site_fract_z
 _atom_site_occupancy
  Na  Na0  1  0.29780334  0.37589511  0.76852415  1
  Na  Na1  1  0.79780334  0.62410489  0.73147585  1
  Na  Na2  1  0.70219666  0.62410489  0.23147585  1
  Na  Na3  1  0.20219666  0.37589511  0.26852415  1
  Na  Na4  1  0.16318743  0.15756062  0.02787989  1
  Na  Na5  1  0.66318743  0.84243938  0.47212011  1
  Na  Na6  1  0.83681257  0.84243938  0.97212011  1
  Na  Na7  1  0.33681257  0.15756062  0.52787989  1
  H  H8  1  0.40605741  0.03276037  0.91156964  1
  H  H9  1  0.90605741  0.96723963  0.58843036  1
  H  H10  1  0.59394259  0.96723963  0.08843036  1
  H  H11  1  0.09394259  0.03276037  0.41156964  1
  H  H12  1  0.37689369  0.16042056  0.85274852  1
  H  H13  1  0.87689369  0.83957944  0.64725148  1
  H  H14  1  0.62310631  0.83957944  0.14725148  1
  H  H15  1  0.12310631  0.16042056  0.35274852  1
  H  H16  1  0.25374407  0.03580037  0.72311251  1
  H  H17  1  0.75374407  0.96419963  0.77688749  1
  H  H18  1  0.74625593  0.96419963  0.27688749  1
  H  H19  1  0.24625593  0.03580037  0.22311251  1
  H  H20  1  0.12265612  0.13482845  0.68922879  1
  H  H21  1  0.62265612  0.86517155  0.81077121  1
  H  H22  1  0.87734388  0.86517155  0.31077121  1
  H  H23  1  0.37734388  0.13482845  0.18922879  1
  H  H24  1  0.06532058  0.40936633  0.61984758  1
  H  H25  1  0.56532058  0.59063367  0.88015242  1
  H  H26  1  0.93467942  0.59063367  0.38015242  1
  H  H27  1  0.43467942  0.40936633  0.11984758  1
  H  H28  1  0.19354393  0.48571181  0.55945905  1
  H  H29  1  0.69354393  0.51428819  0.94054095  1
  H  H30  1  0.80645607  0.51428819  0.44054095  1
  H  H31  1  0.30645607  0.48571181  0.05945905  1
  H  H32  1  0.05817577  0.48268934  0.89287049  1
  H  H33  1  0.55817577  0.51731066  0.60712951  1
  H  H34  1  0.94182423  0.51731066  0.10712951  1
  H  H35  1  0.44182423  0.48268934  0.39287049  1
  H  H36  1  0.98872080  0.33740391  0.89716285  1
  H  H37  1  0.48872080  0.66259609  0.60283715  1
  H  H38  1  0.01127920  0.66259609  0.10283715  1
  H  H39  1  0.51127920  0.33740391  0.39716285  1
  W  W40  1  0.72222516  0.23702065  0.62077958  1
  W  W41  1  0.22222516  0.76297935  0.87922042  1
  W  W42  1  0.27777484  0.76297935  0.37922042  1
  W  W43  1  0.77777484  0.23702065  0.12077958  1
  O  O44  1  0.56601363  0.30072709  0.72979744  1
  O  O45  1  0.06601363  0.69927291  0.77020256  1
  O  O46  1  0.43398637  0.69927291  0.27020256  1
  O  O47  1  0.93398637  0.30072709  0.22979744  1
  O  O48  1  0.52315470  0.34533329  0.61888390  1
  O  O49  1  0.02315470  0.65466671  0.88111610  1
  O  O50  1  0.47684530  0.65466671  0.38111610  1
  O  O51  1  0.97684530  0.34533329  0.11888390  1
  O  O52  1  0.82457269  0.14024300  0.73901797  1
  O  O53  1  0.32457269  0.85975700  0.76098203  1
  O  O54  1  0.17542731  0.85975700  0.26098203  1
  O  O55  1  0.67542731  0.14024300  0.23901797  1
  O  O56  1  0.92021659  0.13102980  0.63764966  1
  O  O57  1  0.42021659  0.86897020  0.86235034  1
  O  O58  1  0.07978341  0.86897020  0.36235034  1
  O  O59  1  0.57978341  0.13102980  0.13764966  1
  O  O60  1  0.60017444  0.07162388  0.58105453  1
  O  O61  1  0.10017444  0.92837612  0.91894547  1
  O  O62  1  0.39982556  0.92837612  0.41894547  1
  O  O63  1  0.89982556  0.07162388  0.08105453  1
  O  O64  1  0.65746549  0.14304829  0.48401430  1
  O  O65  1  0.15746549  0.85695171  0.01598570  1
  O  O66  1  0.34253451  0.85695171  0.51598570  1
  O  O67  1  0.84253451  0.14304829  0.98401430  1
  O  O68  1  0.34977390  0.59302195  0.85428256  1
  O  O69  1  0.84977390  0.40697805  0.64571744  1
  O  O70  1  0.65022610  0.40697805  0.14571744  1
  O  O71  1  0.15022610  0.59302195  0.35428256  1
  O  O72  1  0.32684820  0.63279095  0.97132938  1
  O  O73  1  0.82684820  0.36720905  0.52867062  1
  O  O74  1  0.67315180  0.36720905  0.02867062  1
  O  O75  1  0.17315180  0.63279095  0.47132938  1
  O  O76  1  0.38803229  0.13030755  0.92576313  1
  O  O77  1  0.88803229  0.86969245  0.57423687  1
  O  O78  1  0.61196771  0.86969245  0.07423687  1
  O  O79  1  0.11196771  0.13030755  0.42576313  1
  O  O80  1  0.23505308  0.12946128  0.70420406  1
  O  O81  1  0.73505308  0.87053872  0.79579594  1
  O  O82  1  0.76494692  0.87053872  0.29579594  1
  O  O83  1  0.26494692  0.12946128  0.20420406  1
  O  O84  1  0.17829279  0.41352134  0.60950010  1
  O  O85  1  0.67829279  0.58647866  0.89049990  1
  O  O86  1  0.82170721  0.58647866  0.39049990  1
  O  O87  1  0.32170721  0.41352134  0.10950010  1
  O  O88  1  0.08602330  0.38565051  0.89079009  1
  O  O89  1  0.58602330  0.61434949  0.60920991  1
  O  O90  1  0.91397670  0.61434949  0.10920991  1
  O  O91  1  0.41397670  0.38565051  0.39079009  1
