# generated using pymatgen
data_BP4(SI)3
_symmetry_space_group_name_H-M   'P 1'
_cell_length_a   9.12876561
_cell_length_b   12.31238209
_cell_length_c   13.29316421
_cell_angle_alpha   90.00000000
_cell_angle_beta   90.00000000
_cell_angle_gamma   90.00000000
_symmetry_Int_Tables_number   1
_chemical_formula_structural   BP4(SI)3
_chemical_formula_sum   'B4 P16 S12 I12'
_cell_volume   1494.10978640
_cell_formula_units_Z   4
loop_
 _symmetry_equiv_pos_site_id
 _symmetry_equiv_pos_as_xyz
  1  'x, y, z'
loop_
 _atom_site_type_symbol
 _atom_site_label
 _atom_site_symmetry_multiplicity
 _atom_site_fract_x
 _atom_site_fract_y
 _atom_site_fract_z
 _atom_site_occupancy
  B  B0  1  0.03290830  0.75000000  0.36185697  1
  B  B1  1  0.46709170  0.75000000  0.86185697  1
  B  B2  1  0.96709170  0.25000000  0.63814303  1
  B  B3  1  0.53290830  0.25000000  0.13814303  1
  P  P4  1  0.82034813  0.75000000  0.38694871  1
  P  P5  1  0.67965187  0.75000000  0.88694871  1
  P  P6  1  0.17965187  0.25000000  0.61305129  1
  P  P7  1  0.32034813  0.25000000  0.11305129  1
  P  P8  1  0.48458094  0.75000000  0.32390289  1
  P  P9  1  0.01541906  0.75000000  0.82390289  1
  P  P10  1  0.51541906  0.25000000  0.67609711  1
  P  P11  1  0.98458094  0.25000000  0.17609711  1
  P  P12  1  0.51954552  0.84245248  0.47089383  1
  P  P13  1  0.98045448  0.65754752  0.97089383  1
  P  P14  1  0.48045448  0.34245248  0.52910617  1
  P  P15  1  0.01954552  0.15754752  0.02910617  1
  P  P16  1  0.48045448  0.15754752  0.52910617  1
  P  P17  1  0.01954552  0.34245248  0.02910617  1
  P  P18  1  0.51954552  0.65754752  0.47089383  1
  P  P19  1  0.98045448  0.84245248  0.97089383  1
  S  S20  1  0.69307191  0.75000000  0.25567502  1
  S  S21  1  0.80692809  0.75000000  0.75567502  1
  S  S22  1  0.30692809  0.25000000  0.74432498  1
  S  S23  1  0.19307191  0.25000000  0.24432498  1
  S  S24  1  0.74394456  0.88405516  0.46786069  1
  S  S25  1  0.75605544  0.61594484  0.96786069  1
  S  S26  1  0.25605544  0.38405516  0.53213931  1
  S  S27  1  0.24394456  0.11594484  0.03213931  1
  S  S28  1  0.25605544  0.11594484  0.53213931  1
  S  S29  1  0.24394456  0.38405516  0.03213931  1
  S  S30  1  0.74394456  0.61594484  0.46786069  1
  S  S31  1  0.75605544  0.88405516  0.96786069  1
  I  I32  1  0.13609345  0.75000000  0.51525383  1
  I  I33  1  0.36390655  0.75000000  0.01525383  1
  I  I34  1  0.86390655  0.25000000  0.48474617  1
  I  I35  1  0.63609345  0.25000000  0.98474617  1
  I  I36  1  0.07985780  0.90190340  0.27704551  1
  I  I37  1  0.42014220  0.59809660  0.77704551  1
  I  I38  1  0.92014220  0.40190340  0.72295449  1
  I  I39  1  0.57985780  0.09809660  0.22295449  1
  I  I40  1  0.92014220  0.09809660  0.72295449  1
  I  I41  1  0.57985780  0.40190340  0.22295449  1
  I  I42  1  0.07985780  0.59809660  0.27704551  1
  I  I43  1  0.42014220  0.90190340  0.77704551  1
