# generated using pymatgen
data_In2Mo15Se19
_symmetry_space_group_name_H-M   'P 1'
_cell_length_a   9.79213825
_cell_length_b   9.79213825
_cell_length_c   20.38791274
_cell_angle_alpha   76.10486209
_cell_angle_beta   76.10486209
_cell_angle_gamma   59.99999844
_symmetry_Int_Tables_number   1
_chemical_formula_structural   In2Mo15Se19
_chemical_formula_sum   'In4 Mo30 Se38'
_cell_volume   1626.61370240
_cell_formula_units_Z   2
loop_
 _symmetry_equiv_pos_site_id
 _symmetry_equiv_pos_as_xyz
  1  'x, y, z'
loop_
 _atom_site_type_symbol
 _atom_site_label
 _atom_site_symmetry_multiplicity
 _atom_site_fract_x
 _atom_site_fract_y
 _atom_site_fract_z
 _atom_site_occupancy
  In  In0  1  0.61369469  0.61369469  0.15891594  1
  In  In1  1  0.11369469  0.11369469  0.65891594  1
  In  In2  1  0.38630531  0.38630531  0.84108406  1
  In  In3  1  0.88630531  0.88630531  0.34108406  1
  Mo  Mo4  1  0.49766038  0.68774763  0.44109504  1
  Mo  Mo5  1  0.68774763  0.37349695  0.44109504  1
  Mo  Mo6  1  0.37349695  0.49766038  0.44109504  1
  Mo  Mo7  1  0.99766038  0.87349695  0.94109504  1
  Mo  Mo8  1  0.87349695  0.18774763  0.94109504  1
  Mo  Mo9  1  0.18774763  0.99766038  0.94109504  1
  Mo  Mo10  1  0.50233962  0.31225237  0.55890496  1
  Mo  Mo11  1  0.31225237  0.62650305  0.55890496  1
  Mo  Mo12  1  0.62650305  0.50233962  0.55890496  1
  Mo  Mo13  1  0.00233962  0.12650305  0.05890496  1
  Mo  Mo14  1  0.12650305  0.81225237  0.05890496  1
  Mo  Mo15  1  0.81225237  0.00233962  0.05890496  1
  Mo  Mo16  1  0.72412568  0.86114913  0.86706712  1
  Mo  Mo17  1  0.86114913  0.54765808  0.86706712  1
  Mo  Mo18  1  0.54765808  0.72412568  0.86706712  1
  Mo  Mo19  1  0.22412568  0.04765808  0.36706712  1
  Mo  Mo20  1  0.04765808  0.36114913  0.36706712  1
  Mo  Mo21  1  0.36114913  0.22412568  0.36706712  1
  Mo  Mo22  1  0.27587432  0.13885087  0.13293288  1
  Mo  Mo23  1  0.13885087  0.45234192  0.13293288  1
  Mo  Mo24  1  0.45234192  0.27587432  0.13293288  1
  Mo  Mo25  1  0.77587432  0.95234192  0.63293288  1
  Mo  Mo26  1  0.95234192  0.63885087  0.63293288  1
  Mo  Mo27  1  0.63885087  0.77587432  0.63293288  1
  Mo  Mo28  1  0.59092598  0.90907402  0.75000000  1
  Mo  Mo29  1  0.90907402  0.75000000  0.75000000  1
  Mo  Mo30  1  0.75000000  0.59092598  0.75000000  1
  Mo  Mo31  1  0.09092598  0.25000000  0.25000000  1
  Mo  Mo32  1  0.25000000  0.40907402  0.25000000  1
  Mo  Mo33  1  0.40907402  0.09092598  0.25000000  1
  Se  Se34  1  0.80256900  0.55650195  0.45098368  1
  Se  Se35  1  0.55650195  0.18994538  0.45098368  1
  Se  Se36  1  0.18994538  0.80256900  0.45098368  1
  Se  Se37  1  0.30256900  0.68994538  0.95098368  1
  Se  Se38  1  0.68994538  0.05650195  0.95098368  1
  Se  Se39  1  0.05650195  0.30256900  0.95098368  1
  Se  Se40  1  0.19743100  0.44349805  0.54901632  1
  Se  Se41  1  0.44349805  0.81005462  0.54901632  1
  Se  Se42  1  0.81005462  0.19743100  0.54901632  1
  Se  Se43  1  0.69743100  0.31005462  0.04901632  1
  Se  Se44  1  0.31005462  0.94349805  0.04901632  1
  Se  Se45  1  0.94349805  0.69743100  0.04901632  1
  Se  Se46  1  0.42083970  0.03823573  0.85672452  1
  Se  Se47  1  0.03823573  0.68420005  0.85672452  1
  Se  Se48  1  0.68420005  0.42083970  0.85672452  1
  Se  Se49  1  0.92083970  0.18420005  0.35672452  1
  Se  Se50  1  0.18420005  0.53823573  0.35672452  1
  Se  Se51  1  0.53823573  0.92083970  0.35672452  1
  Se  Se52  1  0.57916030  0.96176427  0.14327548  1
  Se  Se53  1  0.96176427  0.31579995  0.14327548  1
  Se  Se54  1  0.31579995  0.57916030  0.14327548  1
  Se  Se55  1  0.07916030  0.81579995  0.64327548  1
  Se  Se56  1  0.81579995  0.46176427  0.64327548  1
  Se  Se57  1  0.46176427  0.07916030  0.64327548  1
  Se  Se58  1  0.05834593  0.44165407  0.75000000  1
  Se  Se59  1  0.44165407  0.75000000  0.75000000  1
  Se  Se60  1  0.75000000  0.05834593  0.75000000  1
  Se  Se61  1  0.55834593  0.25000000  0.25000000  1
  Se  Se62  1  0.25000000  0.94165407  0.25000000  1
  Se  Se63  1  0.94165407  0.55834593  0.25000000  1
  Se  Se64  1  0.55440543  0.55440543  0.33678370  1
  Se  Se65  1  0.05440543  0.05440543  0.83678370  1
  Se  Se66  1  0.44559457  0.44559457  0.66321630  1
  Se  Se67  1  0.94559457  0.94559457  0.16321630  1
  Se  Se68  1  0.67629567  0.67629567  0.97111300  1
  Se  Se69  1  0.17629567  0.17629567  0.47111300  1
  Se  Se70  1  0.32370433  0.32370433  0.02888700  1
  Se  Se71  1  0.82370433  0.82370433  0.52888700  1
