# generated using pymatgen
data_Mg(BiO2)2
_symmetry_space_group_name_H-M   'P 1'
_cell_length_a   6.77592813
_cell_length_b   6.93269813
_cell_length_c   20.38530823
_cell_angle_alpha   59.33179665
_cell_angle_beta   58.50714785
_cell_angle_gamma   59.22690147
_symmetry_Int_Tables_number   1
_chemical_formula_structural   Mg(BiO2)2
_chemical_formula_sum   'Mg6 Bi12 O24'
_cell_volume   661.94396740
_cell_formula_units_Z   6
loop_
 _symmetry_equiv_pos_site_id
 _symmetry_equiv_pos_as_xyz
  1  'x, y, z'
loop_
 _atom_site_type_symbol
 _atom_site_label
 _atom_site_symmetry_multiplicity
 _atom_site_fract_x
 _atom_site_fract_y
 _atom_site_fract_z
 _atom_site_occupancy
  Mg  Mg0  1  0.13417626  0.12324048  0.03982807  1
  Mg  Mg1  1  0.48986364  0.49703102  0.33870925  1
  Mg  Mg2  1  0.98271520  0.48767602  0.18059539  1
  Mg  Mg3  1  0.50959418  0.50058106  0.66308867  1
  Mg  Mg4  1  0.99805301  0.50019816  0.50053196  1
  Mg  Mg5  1  0.00567872  0.51676044  0.82021780  1
  Bi  Bi6  1  0.51466383  0.98648570  0.16892614  1
  Bi  Bi7  1  0.13392559  0.11585589  0.37807695  1
  Bi  Bi8  1  0.48659950  0.50230417  0.00291532  1
  Bi  Bi9  1  0.51453709  0.49221717  0.16895574  1
  Bi  Bi10  1  0.49913429  0.99838294  0.50155360  1
  Bi  Bi11  1  0.11665415  0.11736857  0.71616377  1
  Bi  Bi12  1  0.49922497  0.49773500  0.50154440  1
  Bi  Bi13  1  0.48042431  0.01424194  0.83209609  1
  Bi  Bi14  1  0.88050512  0.87805724  0.28785249  1
  Bi  Bi15  1  0.48044317  0.50904631  0.83209556  1
  Bi  Bi16  1  0.87138581  0.88685939  0.61831305  1
  Bi  Bi17  1  0.81833430  0.89663088  0.96277915  1
  O  O18  1  0.25274728  0.24606993  0.08487829  1
  O  O19  1  0.22519612  0.27226110  0.24346899  1
  O  O20  1  0.25293531  0.74665411  0.08481645  1
  O  O21  1  0.76010581  0.25570270  0.07614391  1
  O  O22  1  0.24511555  0.28798106  0.42194564  1
  O  O23  1  0.29039502  0.71954906  0.25691662  1
  O  O24  1  0.23336433  0.26022981  0.58211300  1
  O  O25  1  0.73565939  0.28817267  0.25593821  1
  O  O26  1  0.24519307  0.70084738  0.42192615  1
  O  O27  1  0.77987537  0.70521105  0.10320170  1
  O  O28  1  0.73063007  0.26665462  0.41198453  1
  O  O29  1  0.73560511  0.70848771  0.25593139  1
  O  O30  1  0.26675977  0.29274403  0.74507933  1
  O  O31  1  0.27681017  0.72938205  0.58815892  1
  O  O32  1  0.74824283  0.30193612  0.58042062  1
  O  O33  1  0.26683937  0.70509002  0.74509028  1
  O  O34  1  0.26542395  0.24697484  0.91358112  1
  O  O35  1  0.75976868  0.73649643  0.42244508  1
  O  O36  1  0.70326149  0.27598267  0.74819156  1
  O  O37  1  0.74832302  0.70862935  0.58044964  1
  O  O38  1  0.21084582  0.76545676  0.91933226  1
  O  O39  1  0.78785413  0.28733451  0.89704534  1
  O  O40  1  0.77539977  0.73778466  0.74966385  1
  O  O41  1  0.78773446  0.73369298  0.89703474  1
