# generated using pymatgen
data_MnAs3(PbO3)3
_symmetry_space_group_name_H-M   'P 1'
_cell_length_a   6.71128393
_cell_length_b   7.42096678
_cell_length_c   10.99188529
_cell_angle_alpha   95.02711991
_cell_angle_beta   90.00000000
_cell_angle_gamma   90.00000000
_symmetry_Int_Tables_number   1
_chemical_formula_structural   MnAs3(PbO3)3
_chemical_formula_sum   'Mn2 As6 Pb6 O18'
_cell_volume   545.33639133
_cell_formula_units_Z   2
loop_
 _symmetry_equiv_pos_site_id
 _symmetry_equiv_pos_as_xyz
  1  'x, y, z'
loop_
 _atom_site_type_symbol
 _atom_site_label
 _atom_site_symmetry_multiplicity
 _atom_site_fract_x
 _atom_site_fract_y
 _atom_site_fract_z
 _atom_site_occupancy
  Mn  Mn0  1  0.01821264  0.00648432  0.54689675  1
  Mn  Mn1  1  0.98178736  0.50648432  0.04689675  1
  As  As2  1  0.79095510  0.29102774  0.77899069  1
  As  As3  1  0.20904490  0.79102774  0.27899069  1
  As  As4  1  0.87925845  0.24382850  0.30738348  1
  As  As5  1  0.12074155  0.74382850  0.80738348  1
  As  As6  1  0.48395299  0.10607132  0.48737079  1
  As  As7  1  0.51604701  0.60607132  0.98737079  1
  Pb  Pb8  1  0.14832346  0.50228865  0.50739395  1
  Pb  Pb9  1  0.85167654  0.00228865  0.00739395  1
  Pb  Pb10  1  0.36034921  0.30422358  0.19798316  1
  Pb  Pb11  1  0.63965079  0.80422358  0.69798316  1
  Pb  Pb12  1  0.28869742  0.21815418  0.79327268  1
  Pb  Pb13  1  0.71130258  0.71815418  0.29327268  1
  O  O14  1  0.98954640  0.21528761  0.67221965  1
  O  O15  1  0.01045360  0.71528761  0.17221965  1
  O  O16  1  0.67933229  0.07857655  0.81923132  1
  O  O17  1  0.32066771  0.57857655  0.31923132  1
  O  O18  1  0.95603049  0.31202906  0.91150820  1
  O  O19  1  0.04396951  0.81202906  0.41150820  1
  O  O20  1  0.02230581  0.27820608  0.17044586  1
  O  O21  1  0.97769419  0.77820608  0.67044586  1
  O  O22  1  0.84656257  0.47117475  0.37325843  1
  O  O23  1  0.15343743  0.97117475  0.87325843  1
  O  O24  1  0.08456512  0.19984878  0.40607367  1
  O  O25  1  0.91543488  0.69984878  0.90607367  1
  O  O26  1  0.31034744  0.00186313  0.59341183  1
  O  O27  1  0.68965256  0.50186313  0.09341183  1
  O  O28  1  0.28503539  0.48323365  0.03882592  1
  O  O29  1  0.71496461  0.98323365  0.53882592  1
  O  O30  1  0.49009223  0.32200209  0.56213361  1
  O  O31  1  0.50990777  0.82200209  0.06213361  1
