# generated using pymatgen
data_Si4Ge(H3C)11
_symmetry_space_group_name_H-M   'P 1'
_cell_length_a   9.62343604
_cell_length_b   9.64947418
_cell_length_c   14.31151790
_cell_angle_alpha   103.08828134
_cell_angle_beta   92.01836143
_cell_angle_gamma   114.35425229
_symmetry_Int_Tables_number   1
_chemical_formula_structural   Si4Ge(H3C)11
_chemical_formula_sum   'Si8 Ge2 H66 C22'
_cell_volume   1166.81868512
_cell_formula_units_Z   2
loop_
 _symmetry_equiv_pos_site_id
 _symmetry_equiv_pos_as_xyz
  1  'x, y, z'
loop_
 _atom_site_type_symbol
 _atom_site_label
 _atom_site_symmetry_multiplicity
 _atom_site_fract_x
 _atom_site_fract_y
 _atom_site_fract_z
 _atom_site_occupancy
  Si  Si0  1  0.47295046  0.04214723  0.93092748  1
  Si  Si1  1  0.52704954  0.95785277  0.06907252  1
  Si  Si2  1  0.08026052  0.63027042  0.81172198  1
  Si  Si3  1  0.91973948  0.36972958  0.18827802  1
  Si  Si4  1  0.20665284  0.98045695  0.68990663  1
  Si  Si5  1  0.79334716  0.01954305  0.31009337  1
  Si  Si6  1  0.44521818  0.73507162  0.67495177  1
  Si  Si7  1  0.55478182  0.26492838  0.32504823  1
  Ge  Ge8  1  0.30354107  0.84543434  0.78213985  1
  Ge  Ge9  1  0.69645893  0.15456566  0.21786015  1
  H  H10  1  0.74008186  0.25744579  0.94765445  1
  H  H11  1  0.25991814  0.74255421  0.05234555  1
  H  H12  1  0.72265041  0.08261622  0.86335004  1
  H  H13  1  0.27734959  0.91738378  0.13664996  1
  H  H14  1  0.64085654  0.20153775  0.82854401  1
  H  H15  1  0.35914346  0.79846225  0.17145599  1
  H  H16  1  0.36975717  0.23761457  0.91521436  1
  H  H17  1  0.63024283  0.76238543  0.08478564  1
  H  H18  1  0.27769615  0.13426607  0.00014513  1
  H  H19  1  0.72230385  0.86573393  0.99985487  1
  H  H20  1  0.46840570  0.28686159  0.03363991  1
  H  H21  1  0.53159430  0.71313841  0.96636009  1
  H  H22  1  0.03781985  0.39590767  0.87252138  1
  H  H23  1  0.96218015  0.60409233  0.12747862  1
  H  H24  1  0.18036999  0.42566068  0.79409543  1
  H  H25  1  0.81963001  0.57433932  0.20590457  1
  H  H26  1  0.22932113  0.54403340  0.91558146  1
  H  H27  1  0.77067887  0.45596660  0.08441854  1
  H  H28  1  0.88757927  0.58509831  0.67193355  1
  H  H29  1  0.11242073  0.41490169  0.32806645  1
  H  H30  1  0.98094029  0.45891890  0.64084309  1
  H  H31  1  0.01905971  0.54108110  0.35915691  1
  H  H32  1  0.83537082  0.41613555  0.71709534  1
  H  H33  1  0.16462918  0.58386445  0.28290466  1
  H  H34  1  0.05232506  0.77505585  0.97490322  1
  H  H35  1  0.94767494  0.22494415  0.02509678  1
  H  H36  1  0.93101687  0.77919925  0.88012605  1
  H  H37  1  0.06898313  0.22080075  0.11987395  1
  H  H38  1  0.87895139  0.60501698  0.91971308  1
  H  H39  1  0.12104861  0.39498302  0.08028692  1
  H  H40  1  0.07672136  0.91851724  0.52274756  1
  H  H41  1  0.92327864  0.08148276  0.47725244  1
  H  H42  1  0.22059172  0.84849921  0.51927107  1
  H  H43  1  0.77940828  0.15150079  0.48072893  1
  H  H44  1  0.04021687  0.74037956  0.55479607  1
  H  H45  1  0.95978313  0.25962044  0.44520393  1
  H  H46  1  0.94000935  0.90572487  0.73399122  1
  H  H47  1  0.05999065  0.09427513  0.26600878  1
  H  H48  1  0.07495169  0.07958699  0.81976718  1
  H  H49  1  0.92504831  0.92041301  0.18023282  1
  H  H50  1  0.01189217  0.08943531  0.70438162  1
  H  H51  1  0.98810783  0.91056469  0.29561838  1
  H  H52  1  0.40821084  0.25909321  0.75829167  1
  H  H53  1  0.59178916  0.74090679  0.24170833  1
  H  H54  1  0.45962512  0.16462071  0.65276149  1
  H  H55  1  0.54037488  0.83537929  0.34723851  1
  H  H56  1  0.31599913  0.23284819  0.64189691  1
  H  H57  1  0.68400087  0.76715181  0.35810309  1
  H  H58  1  0.64492655  0.83099079  0.56959999  1
  H  H59  1  0.35507345  0.16900921  0.43040001  1
  H  H60  1  0.50874867  0.90940037  0.56136051  1
  H  H61  1  0.49125133  0.09059963  0.43863949  1
  H  H62  1  0.65540949  0.99230704  0.66360321  1
  H  H63  1  0.34459051  0.00769296  0.33639679  1
  H  H64  1  0.66218132  0.77062390  0.79406247  1
  H  H65  1  0.33781868  0.22937610  0.20593753  1
  H  H66  1  0.50351030  0.58342056  0.77928334  1
  H  H67  1  0.49648970  0.41657944  0.22071666  1
  H  H68  1  0.62602788  0.61464937  0.68872287  1
  H  H69  1  0.37397212  0.38535063  0.31127713  1
  H  H70  1  0.23801694  0.45884758  0.60741845  1
  H  H71  1  0.76198306  0.54115242  0.39258155  1
  H  H72  1  0.23156163  0.58286410  0.53393573  1
  H  H73  1  0.76843837  0.41713590  0.46606427  1
  H  H74  1  0.37584165  0.51253173  0.52729785  1
  H  H75  1  0.62415835  0.48746827  0.47270215  1
  C  C76  1  0.66225317  0.15585601  0.88858747  1
  C  C77  1  0.33774683  0.84414399  0.11141253  1
  C  C78  1  0.38832973  0.18801814  0.97388693  1
  C  C79  1  0.61167027  0.81198186  0.02611307  1
  C  C80  1  0.13820897  0.48639463  0.85262419  1
  C  C81  1  0.86179103  0.51360537  0.14737581  1
  C  C82  1  0.93306770  0.51234579  0.69933053  1
  C  C83  1  0.06693230  0.48765421  0.30066947  1
  C  C84  1  0.97689728  0.70520665  0.90567526  1
  C  C85  1  0.02310272  0.29479335  0.09432474  1
  C  C86  1  0.12924688  0.85955949  0.55976311  1
  C  C87  1  0.87075312  0.14044051  0.44023689  1
  C  C88  1  0.04336234  0.01686607  0.74237189  1
  C  C89  1  0.95663766  0.98313393  0.25762811  1
  C  C90  1  0.36266850  0.17725152  0.68559460  1
  C  C91  1  0.63733150  0.82274848  0.31440540  1
  C  C92  1  0.57537761  0.88135253  0.61182758  1
  C  C93  1  0.42462239  0.11864747  0.38817242  1
  C  C94  1  0.57063760  0.67013395  0.74101422  1
  C  C95  1  0.42936240  0.32986605  0.25898578  1
  C  C96  1  0.30892840  0.55568716  0.57701660  1
  C  C97  1  0.69107160  0.44431284  0.42298340  1
