# generated using pymatgen
data_WN2(OF4)2
_symmetry_space_group_name_H-M   'P 1'
_cell_length_a   5.88046135
_cell_length_b   9.29458533
_cell_length_c   12.59617408
_cell_angle_alpha   90.00000000
_cell_angle_beta   90.00000000
_cell_angle_gamma   90.00000000
_symmetry_Int_Tables_number   1
_chemical_formula_structural   WN2(OF4)2
_chemical_formula_sum   'W4 N8 O8 F32'
_cell_volume   688.46215624
_cell_formula_units_Z   4
loop_
 _symmetry_equiv_pos_site_id
 _symmetry_equiv_pos_as_xyz
  1  'x, y, z'
loop_
 _atom_site_type_symbol
 _atom_site_label
 _atom_site_symmetry_multiplicity
 _atom_site_fract_x
 _atom_site_fract_y
 _atom_site_fract_z
 _atom_site_occupancy
  W  W0  1  0.75000000  0.27239838  0.37090422  1
  W  W1  1  0.75000000  0.77239838  0.12909578  1
  W  W2  1  0.25000000  0.72760162  0.62909578  1
  W  W3  1  0.25000000  0.22760162  0.87090422  1
  N  N4  1  0.75000000  0.00431637  0.72854367  1
  N  N5  1  0.75000000  0.50431637  0.77145633  1
  N  N6  1  0.25000000  0.99568363  0.27145633  1
  N  N7  1  0.25000000  0.49568363  0.22854367  1
  N  N8  1  0.75000000  0.25360082  0.06498262  1
  N  N9  1  0.75000000  0.75360082  0.43501738  1
  N  N10  1  0.25000000  0.74639918  0.93501738  1
  N  N11  1  0.25000000  0.24639918  0.56498262  1
  O  O12  1  0.75000000  0.95099415  0.80667961  1
  O  O13  1  0.75000000  0.45099415  0.69332039  1
  O  O14  1  0.25000000  0.04900585  0.19332039  1
  O  O15  1  0.25000000  0.54900585  0.30667961  1
  O  O16  1  0.75000000  0.36810423  0.04262008  1
  O  O17  1  0.75000000  0.86810423  0.45737992  1
  O  O18  1  0.25000000  0.63189577  0.95737992  1
  O  O19  1  0.25000000  0.13189577  0.54262008  1
  F  F20  1  0.75000000  0.22495897  0.52267533  1
  F  F21  1  0.75000000  0.72495897  0.97732467  1
  F  F22  1  0.25000000  0.77504103  0.47732467  1
  F  F23  1  0.25000000  0.27504103  0.02267533  1
  F  F24  1  0.75000000  0.47498957  0.32966660  1
  F  F25  1  0.75000000  0.97498957  0.17033340  1
  F  F26  1  0.25000000  0.52501043  0.67033340  1
  F  F27  1  0.25000000  0.02501043  0.82966660  1
  F  F28  1  0.02744704  0.35905592  0.43204162  1
  F  F29  1  0.47255296  0.85905592  0.06795838  1
  F  F30  1  0.52744704  0.64094408  0.56795838  1
  F  F31  1  0.97255296  0.14094408  0.93204162  1
  F  F32  1  0.97255296  0.64094408  0.56795838  1
  F  F33  1  0.52744704  0.14094408  0.93204162  1
  F  F34  1  0.47255296  0.35905592  0.43204162  1
  F  F35  1  0.02744704  0.85905592  0.06795838  1
  F  F36  1  0.54442107  0.09990280  0.37867987  1
  F  F37  1  0.95557893  0.59990280  0.12132013  1
  F  F38  1  0.04442107  0.90009720  0.62132013  1
  F  F39  1  0.45557893  0.40009720  0.87867987  1
  F  F40  1  0.45557893  0.90009720  0.62132013  1
  F  F41  1  0.04442107  0.40009720  0.87867987  1
  F  F42  1  0.95557893  0.09990280  0.37867987  1
  F  F43  1  0.54442107  0.59990280  0.12132013  1
  F  F44  1  0.54504082  0.27485913  0.24380420  1
  F  F45  1  0.95495918  0.77485913  0.25619580  1
  F  F46  1  0.04504082  0.72514087  0.75619580  1
  F  F47  1  0.45495918  0.22514087  0.74380420  1
  F  F48  1  0.45495918  0.72514087  0.75619580  1
  F  F49  1  0.04504082  0.22514087  0.74380420  1
  F  F50  1  0.95495918  0.27485913  0.24380420  1
  F  F51  1  0.54504082  0.77485913  0.25619580  1
