# generated using pymatgen
data_CrSi(Ag3O4)2
_symmetry_space_group_name_H-M   'P 1'
_cell_length_a   7.07494680
_cell_length_b   7.07494680
_cell_length_c   10.51205074
_cell_angle_alpha   109.66475228
_cell_angle_beta   109.66475228
_cell_angle_gamma   90.00000000
_symmetry_Int_Tables_number   1
_chemical_formula_structural   CrSi(Ag3O4)2
_chemical_formula_sum   'Cr2 Si2 Ag12 O16'
_cell_volume   462.77285876
_cell_formula_units_Z   2
loop_
 _symmetry_equiv_pos_site_id
 _symmetry_equiv_pos_as_xyz
  1  'x, y, z'
loop_
 _atom_site_type_symbol
 _atom_site_label
 _atom_site_symmetry_multiplicity
 _atom_site_fract_x
 _atom_site_fract_y
 _atom_site_fract_z
 _atom_site_occupancy
  Cr  Cr0  1  0.12500000  0.87500000  0.25000000  1
  Cr  Cr1  1  0.87500000  0.12500000  0.75000000  1
  Si  Si2  1  0.62500000  0.37500000  0.25000000  1
  Si  Si3  1  0.37500000  0.62500000  0.75000000  1
  Ag  Ag4  1  0.50000000  0.29539471  0.50000000  1
  Ag  Ag5  1  0.50000000  0.70460529  0.50000000  1
  Ag  Ag6  1  0.29539471  0.50000000  0.00000000  1
  Ag  Ag7  1  0.29539471  0.00000000  0.00000000  1
  Ag  Ag8  1  -0.00000000  0.29539471  0.50000000  1
  Ag  Ag9  1  -0.00000000  0.70460529  0.50000000  1
  Ag  Ag10  1  0.70460529  0.50000000  -0.00000000  1
  Ag  Ag11  1  0.70460529  0.00000000  0.00000000  1
  Ag  Ag12  1  0.61509312  0.86509312  0.23018624  1
  Ag  Ag13  1  0.86509312  0.61509312  0.73018624  1
  Ag  Ag14  1  0.38490688  0.13490688  0.76981376  1
  Ag  Ag15  1  0.13490688  0.38490688  0.26981376  1
  O  O16  1  0.67679989  0.23437281  0.35359977  1
  O  O17  1  0.67679989  0.61922696  0.35359977  1
  O  O18  1  0.23437281  0.67679989  0.85359977  1
  O  O19  1  0.61922696  0.67679989  0.85359977  1
  O  O20  1  0.32320011  0.76562719  0.64640023  1
  O  O21  1  0.32320011  0.38077304  0.64640023  1
  O  O22  1  0.76562719  0.32320011  0.14640023  1
  O  O23  1  0.38077304  0.32320011  0.14640023  1
  O  O24  1  0.98117614  0.92639417  0.35278833  1
  O  O25  1  0.92639417  0.98117614  0.85278833  1
  O  O26  1  0.92639417  0.37161220  0.85278833  1
  O  O27  1  0.37161220  0.92639417  0.35278833  1
  O  O28  1  0.01882386  0.07360583  0.64721167  1
  O  O29  1  0.07360583  0.01882386  0.14721167  1
  O  O30  1  0.07360583  0.62838780  0.14721167  1
  O  O31  1  0.62838780  0.07360583  0.64721167  1
