# generated using pymatgen
data_B3H4
_symmetry_space_group_name_H-M   'P 1'
_cell_length_a   9.73328516
_cell_length_b   11.41012744
_cell_length_c   12.32265103
_cell_angle_alpha   90.00000000
_cell_angle_beta   90.00000000
_cell_angle_gamma   90.00000000
_symmetry_Int_Tables_number   1
_chemical_formula_structural   B3H4
_chemical_formula_sum   'B48 H64'
_cell_volume   1368.52927489
_cell_formula_units_Z   16
loop_
 _symmetry_equiv_pos_site_id
 _symmetry_equiv_pos_as_xyz
  1  'x, y, z'
loop_
 _atom_site_type_symbol
 _atom_site_label
 _atom_site_symmetry_multiplicity
 _atom_site_fract_x
 _atom_site_fract_y
 _atom_site_fract_z
 _atom_site_occupancy
  B  B0  1  0.11745509  0.15345862  0.32520373  1
  B  B1  1  0.88254491  0.84654138  0.82520373  1
  B  B2  1  0.61745509  0.34654138  0.82520373  1
  B  B3  1  0.38254491  0.65345862  0.32520373  1
  B  B4  1  0.97229951  0.23701528  0.36172378  1
  B  B5  1  0.02770049  0.76298472  0.86172378  1
  B  B6  1  0.47229951  0.26298472  0.86172378  1
  B  B7  1  0.52770049  0.73701528  0.36172378  1
  B  B8  1  0.96107848  0.13623937  0.25858297  1
  B  B9  1  0.03892152  0.86376063  0.75858297  1
  B  B10  1  0.46107848  0.36376063  0.75858297  1
  B  B11  1  0.53892152  0.63623937  0.25858297  1
  B  B12  1  0.05137973  0.01249060  0.30251045  1
  B  B13  1  0.94862027  0.98750940  0.80251045  1
  B  B14  1  0.55137973  0.48750940  0.80251045  1
  B  B15  1  0.44862027  0.51249060  0.30251045  1
  B  B16  1  0.12115918  0.04877281  0.42919360  1
  B  B17  1  0.87884082  0.95122719  0.92919360  1
  B  B18  1  0.62115918  0.45122719  0.92919360  1
  B  B19  1  0.37884082  0.54877281  0.42919360  1
  B  B20  1  0.06951626  0.18343401  0.46506420  1
  B  B21  1  0.93048374  0.81656599  0.96506420  1
  B  B22  1  0.56951626  0.31656599  0.96506420  1
  B  B23  1  0.43048374  0.68343401  0.46506420  1
  B  B24  1  0.83837303  0.24245982  0.27233411  1
  B  B25  1  0.16162697  0.75754018  0.77233411  1
  B  B26  1  0.33837303  0.25754018  0.77233411  1
  B  B27  1  0.66162697  0.74245982  0.27233411  1
  B  B28  1  0.90292682  0.20345785  0.13811547  1
  B  B29  1  0.09707318  0.79654215  0.63811547  1
  B  B30  1  0.40292682  0.29654215  0.63811547  1
  B  B31  1  0.59707318  0.70345785  0.13811547  1
  B  B32  1  0.99264808  0.32830861  0.08543231  1
  B  B33  1  0.00735192  0.67169139  0.58543231  1
  B  B34  1  0.49264808  0.17169139  0.58543231  1
  B  B35  1  0.50735192  0.82830861  0.08543231  1
  B  B36  1  0.00715506  0.43180217  0.18909446  1
  B  B37  1  0.99284494  0.56819783  0.68909446  1
  B  B38  1  0.50715506  0.06819783  0.68909446  1
  B  B39  1  0.49284494  0.93180217  0.18909446  1
  B  B40  1  0.92282871  0.37792177  0.30809259  1
  B  B41  1  0.07717129  0.62207823  0.80809259  1
  B  B42  1  0.42282871  0.12207823  0.80809259  1
  B  B43  1  0.57717129  0.87792177  0.30809259  1
  B  B44  1  0.85531073  0.35477428  0.17211022  1
  B  B45  1  0.14468927  0.64522572  0.67211022  1
  B  B46  1  0.35531073  0.14522572  0.67211022  1
  B  B47  1  0.64468927  0.85477428  0.17211022  1
  H  H48  1  0.21905201  0.19211772  0.28348755  1
  H  H49  1  0.78094799  0.80788228  0.78348755  1
  H  H50  1  0.71905201  0.30788228  0.78348755  1
  H  H51  1  0.28094799  0.69211772  0.28348755  1
  H  H52  1  0.08238154  0.93234790  0.24547502  1
  H  H53  1  0.91761846  0.06765210  0.74547502  1
  H  H54  1  0.58238154  0.56765210  0.74547502  1
  H  H55  1  0.41761846  0.43234790  0.24547502  1
  H  H56  1  0.21500455  0.98984641  0.45950857  1
  H  H57  1  0.78499545  0.01015359  0.95950857  1
  H  H58  1  0.71500455  0.51015359  0.95950857  1
  H  H59  1  0.28499545  0.48984641  0.45950857  1
  H  H60  1  0.11011746  0.25037341  0.53246386  1
  H  H61  1  0.88988254  0.74962659  0.03246386  1
  H  H62  1  0.61011746  0.24962659  0.03246386  1
  H  H63  1  0.38988254  0.75037341  0.53246386  1
  H  H64  1  0.72363413  0.22160948  0.30201176  1
  H  H65  1  0.27636587  0.77839052  0.80201176  1
  H  H66  1  0.22363413  0.27839052  0.80201176  1
  H  H67  1  0.77636587  0.72160948  0.30201176  1
  H  H68  1  0.84055642  0.14967783  0.07204764  1
  H  H69  1  0.15944358  0.85032217  0.57204764  1
  H  H70  1  0.34055642  0.35032217  0.57204764  1
  H  H71  1  0.65944358  0.64967783  0.07204764  1
  H  H72  1  0.00488569  0.35206535  0.99167482  1
  H  H73  1  0.99511431  0.64793465  0.49167482  1
  H  H74  1  0.50488569  0.14793465  0.49167482  1
  H  H75  1  0.49511431  0.85206535  0.99167482  1
  H  H76  1  0.03304544  0.53229369  0.17241310  1
  H  H77  1  0.96695456  0.46770631  0.67241310  1
  H  H78  1  0.53304544  0.96770631  0.67241310  1
  H  H79  1  0.46695456  0.03229369  0.17241310  1
  H  H80  1  0.87839964  0.45231480  0.36621582  1
  H  H81  1  0.12160036  0.54768520  0.86621582  1
  H  H82  1  0.37839964  0.04768520  0.86621582  1
  H  H83  1  0.62160036  0.95231480  0.36621582  1
  H  H84  1  0.75352020  0.40104280  0.13998162  1
  H  H85  1  0.24647980  0.59895720  0.63998162  1
  H  H86  1  0.25352020  0.09895720  0.63998162  1
  H  H87  1  0.74647980  0.90104280  0.13998162  1
  H  H88  1  0.93241893  0.19176181  0.45652814  1
  H  H89  1  0.06758107  0.80823819  0.95652814  1
  H  H90  1  0.43241893  0.30823819  0.95652814  1
  H  H91  1  0.56758107  0.69176181  0.45652814  1
  H  H92  1  0.91368456  0.03231428  0.28178915  1
  H  H93  1  0.08631544  0.96768572  0.78178915  1
  H  H94  1  0.41368456  0.46768572  0.78178915  1
  H  H95  1  0.58631544  0.53231428  0.28178915  1
  H  H96  1  0.01343934  0.98234778  0.40653309  1
  H  H97  1  0.98656066  0.01765222  0.90653309  1
  H  H98  1  0.51343934  0.51765222  0.90653309  1
  H  H99  1  0.48656066  0.48234778  0.40653309  1
  H  H100  1  0.03119260  0.21660580  0.10448085  1
  H  H101  1  0.96880740  0.78339420  0.60448085  1
  H  H102  1  0.53119260  0.28339420  0.60448085  1
  H  H103  1  0.46880740  0.71660580  0.10448085  1
  H  H104  1  0.10497701  0.36820242  0.13770507  1
  H  H105  1  0.89502299  0.63179758  0.63770507  1
  H  H106  1  0.60497701  0.13179758  0.63770507  1
  H  H107  1  0.39502299  0.86820242  0.13770507  1
  H  H108  1  0.05427666  0.39804698  0.28912605  1
  H  H109  1  0.94572334  0.60195302  0.78912605  1
  H  H110  1  0.55427666  0.10195302  0.78912605  1
  H  H111  1  0.44572334  0.89804698  0.28912605  1
