# generated using pymatgen
data_Ni3Ag2P3HO12
_symmetry_space_group_name_H-M   'P 1'
_cell_length_a   6.57714096
_cell_length_b   9.21497814
_cell_length_c   9.21497814
_cell_angle_alpha   71.05104857
_cell_angle_beta   69.09176273
_cell_angle_gamma   69.09176273
_symmetry_Int_Tables_number   1
_chemical_formula_structural   Ni3Ag2P3HO12
_chemical_formula_sum   'Ni6 Ag4 P6 H2 O24'
_cell_volume   474.74435858
_cell_formula_units_Z   2
loop_
 _symmetry_equiv_pos_site_id
 _symmetry_equiv_pos_as_xyz
  1  'x, y, z'
loop_
 _atom_site_type_symbol
 _atom_site_label
 _atom_site_symmetry_multiplicity
 _atom_site_fract_x
 _atom_site_fract_y
 _atom_site_fract_z
 _atom_site_occupancy
  Ni  Ni0  1  0.62696141  0.41245664  0.84293853  1
  Ni  Ni1  1  0.37303859  0.15706147  0.58754336  1
  Ni  Ni2  1  0.38235658  0.65706147  0.08754336  1
  Ni  Ni3  1  0.61764342  0.91245664  0.34293853  1
  Ni  Ni4  1  -0.00000000  0.04200099  0.95799901  1
  Ni  Ni5  1  0.50000000  0.54200099  0.45799901  1
  Ag  Ag6  1  0.85409448  0.76520573  0.73479427  1
  Ag  Ag7  1  0.14590552  0.26520573  0.23479427  1
  Ag  Ag8  1  0.00000000  0.54054340  0.45945660  1
  Ag  Ag9  1  0.50000000  0.04054340  0.95945660  1
  P  P10  1  0.82373161  0.21907317  0.63310260  1
  P  P11  1  0.17626839  0.36689740  0.78092683  1
  P  P12  1  0.17590738  0.86689740  0.28092683  1
  P  P13  1  0.82409262  0.71907317  0.13310260  1
  P  P14  1  0.68409442  0.30308081  0.19691919  1
  P  P15  1  0.31590558  0.80308081  0.69691919  1
  H  H16  1  0.70499202  0.10539900  0.39460100  1
  H  H17  1  0.29500798  0.60539900  0.89460100  1
  O  O18  1  0.07483873  0.18947724  0.53816601  1
  O  O19  1  0.92516127  0.46183399  0.81052276  1
  O  O20  1  0.30248197  0.96183399  0.31052276  1
  O  O21  1  0.69751803  0.68947724  0.03816601  1
  O  O22  1  0.70870502  0.40683612  0.60278102  1
  O  O23  1  0.29129498  0.39721898  0.59316388  1
  O  O24  1  0.21832216  0.89721898  0.09316388  1
  O  O25  1  0.78167784  0.90683612  0.10278102  1
  O  O26  1  0.78393538  0.18286572  0.82145884  1
  O  O27  1  0.21606462  0.17854116  0.81713428  1
  O  O28  1  0.28825994  0.67854116  0.31713428  1
  O  O29  1  0.71174006  0.68286572  0.32145884  1
  O  O30  1  0.69940802  0.12623509  0.59925243  1
  O  O31  1  0.30059198  0.40074757  0.87376491  1
  O  O32  1  0.92489554  0.90074757  0.37376491  1
  O  O33  1  0.07510446  0.62623509  0.09925243  1
  O  O34  1  0.90233411  0.20686525  0.10338222  1
  O  O35  1  0.09766589  0.89661778  0.79313475  1
  O  O36  1  0.71258158  0.39661778  0.29313475  1
  O  O37  1  0.28741842  0.70686525  0.60338222  1
  O  O38  1  0.50847203  0.39977021  0.10022979  1
  O  O39  1  0.49152797  0.89977021  0.60022979  1
  O  O40  1  0.57601134  0.15775227  0.34224773  1
  O  O41  1  0.42398866  0.65775227  0.84224773  1
