# generated using pymatgen
data_ZrCdH10C6O17
_symmetry_space_group_name_H-M   'P 1'
_cell_length_a   9.04145924
_cell_length_b   10.08891254
_cell_length_c   17.12553919
_cell_angle_alpha   90.00000000
_cell_angle_beta   90.00000000
_cell_angle_gamma   105.82656628
_symmetry_Int_Tables_number   1
_chemical_formula_structural   ZrCdH10C6O17
_chemical_formula_sum   'Zr4 Cd4 H40 C24 O68'
_cell_volume   1502.94670873
_cell_formula_units_Z   4
loop_
 _symmetry_equiv_pos_site_id
 _symmetry_equiv_pos_as_xyz
  1  'x, y, z'
loop_
 _atom_site_type_symbol
 _atom_site_label
 _atom_site_symmetry_multiplicity
 _atom_site_fract_x
 _atom_site_fract_y
 _atom_site_fract_z
 _atom_site_occupancy
  Zr  Zr0  1  0.80775557  0.61289273  0.90460097  1
  Zr  Zr1  1  0.19224443  0.88710727  0.40460097  1
  Zr  Zr2  1  0.19224443  0.38710727  0.09539903  1
  Zr  Zr3  1  0.80775557  0.11289273  0.59539903  1
  Cd  Cd4  1  0.44383767  0.02134502  0.88167964  1
  Cd  Cd5  1  0.55616233  0.47865498  0.38167964  1
  Cd  Cd6  1  0.55616233  0.97865498  0.11832036  1
  Cd  Cd7  1  0.44383767  0.52134502  0.61832036  1
  H  H8  1  0.11372716  0.48443201  0.94713773  1
  H  H9  1  0.88627284  0.01556799  0.44713773  1
  H  H10  1  0.88627284  0.51556799  0.05286227  1
  H  H11  1  0.11372716  0.98443201  0.55286227  1
  H  H12  1  0.11146272  0.32431215  0.93567920  1
  H  H13  1  0.88853728  0.17568785  0.43567920  1
  H  H14  1  0.88853728  0.67568785  0.06432080  1
  H  H15  1  0.11146272  0.82431215  0.56432080  1
  H  H16  1  0.42394281  0.00295987  0.70157969  1
  H  H17  1  0.57605719  0.49704013  0.20157969  1
  H  H18  1  0.57605719  0.99704013  0.29842031  1
  H  H19  1  0.42394281  0.50295987  0.79842031  1
  H  H20  1  0.35626863  0.12340756  0.72588090  1
  H  H21  1  0.64373137  0.37659244  0.22588090  1
  H  H22  1  0.64373137  0.87659244  0.27411910  1
  H  H23  1  0.35626863  0.62340756  0.77411910  1
  H  H24  1  0.76433261  0.51476911  0.74820510  1
  H  H25  1  0.23566739  0.98523089  0.24820510  1
  H  H26  1  0.23566739  0.48523089  0.25179490  1
  H  H27  1  0.76433261  0.01476911  0.75179490  1
  H  H28  1  0.92690630  0.49133286  0.77527510  1
  H  H29  1  0.07309370  0.00866714  0.27527510  1
  H  H30  1  0.07309370  0.50866714  0.22472490  1
  H  H31  1  0.92690630  0.99133286  0.72472490  1
  H  H32  1  0.02033303  0.30682671  0.79348595  1
  H  H33  1  0.97966697  0.19317329  0.29348595  1
  H  H34  1  0.97966697  0.69317329  0.20651405  1
  H  H35  1  0.02033303  0.80682671  0.70651405  1
  H  H36  1  0.15012117  0.43620829  0.76685865  1
  H  H37  1  0.84987883  0.06379171  0.26685865  1
  H  H38  1  0.84987883  0.56379171  0.23314135  1
  H  H39  1  0.15012117  0.93620829  0.73314135  1
  H  H40  1  0.92124131  0.88496847  0.10347070  1
  H  H41  1  0.07875869  0.61503153  0.60347070  1
  H  H42  1  0.07875869  0.11503153  0.89652930  1
  H  H43  1  0.92124131  0.38496847  0.39652930  1
  H  H44  1  0.08105064  0.84616104  0.10227589  1
  H  H45  1  0.91894936  0.65383896  0.60227589  1
  H  H46  1  0.91894936  0.15383896  0.89772411  1
  H  H47  1  0.08105064  0.34616104  0.39772411  1
  C  C48  1  0.38578288  0.19077715  0.06180783  1
  C  C49  1  0.61421712  0.30922285  0.56180783  1
  C  C50  1  0.61421712  0.80922285  0.93819217  1
  C  C51  1  0.38578288  0.69077715  0.43819217  1
  C  C52  1  0.35262327  0.17634823  0.15055635  1
  C  C53  1  0.64737673  0.32365177  0.65055635  1
  C  C54  1  0.64737673  0.82365177  0.84944365  1
  C  C55  1  0.35262327  0.67634823  0.34944365  1
  C  C56  1  0.69995331  0.29859893  0.90413513  1
  C  C57  1  0.30004669  0.20140107  0.40413513  1
  C  C58  1  0.30004669  0.70140107  0.09586487  1
  C  C59  1  0.69995331  0.79859893  0.59586487  1
  C  C60  1  0.55577730  0.34096967  0.87724145  1
  C  C61  1  0.44422270  0.15903033  0.37724145  1
  C  C62  1  0.44422270  0.65903033  0.12275855  1
  C  C63  1  0.55577730  0.84096967  0.62275855  1
  C  C64  1  0.84185989  0.75830131  0.38818430  1
  C  C65  1  0.15814011  0.74169869  0.88818430  1
  C  C66  1  0.15814011  0.24169869  0.61181570  1
  C  C67  1  0.84185989  0.25830131  0.11181570  1
  C  C68  1  0.09336046  0.86421550  0.90812460  1
  C  C69  1  0.90663954  0.63578450  0.40812460  1
  C  C70  1  0.90663954  0.13578450  0.09187540  1
  C  C71  1  0.09336046  0.36421550  0.59187540  1
  O  O72  1  0.44934285  0.11045463  0.02852378  1
  O  O73  1  0.55065715  0.38954537  0.52852378  1
  O  O74  1  0.55065715  0.88954537  0.97147622  1
  O  O75  1  0.44934285  0.61045463  0.47147622  1
  O  O76  1  0.65886694  0.71308710  0.97081106  1
  O  O77  1  0.34113306  0.78691290  0.47081106  1
  O  O78  1  0.34113306  0.28691290  0.02918894  1
  O  O79  1  0.65886694  0.21308710  0.52918894  1
  O  O80  1  0.71289629  0.73741695  0.82121606  1
  O  O81  1  0.28710371  0.76258305  0.32121606  1
  O  O82  1  0.28710371  0.26258305  0.17878394  1
  O  O83  1  0.71289629  0.23741695  0.67878394  1
  O  O84  1  0.61268880  0.91768558  0.81131770  1
  O  O85  1  0.38731120  0.58231442  0.31131770  1
  O  O86  1  0.38731120  0.08231442  0.18868230  1
  O  O87  1  0.61268880  0.41768558  0.68868230  1
  O  O88  1  0.18567858  0.10071248  0.42412939  1
  O  O89  1  0.81432142  0.39928752  0.92412939  1
  O  O90  1  0.81432142  0.89928752  0.57587061  1
  O  O91  1  0.18567858  0.60071248  0.07587061  1
  O  O92  1  0.29999866  0.32515964  0.40318198  1
  O  O93  1  0.70000134  0.17484036  0.90318198  1
  O  O94  1  0.70000134  0.67484036  0.59681802  1
  O  O95  1  0.29999866  0.82515964  0.09681802  1
  O  O96  1  0.57447697  0.47254488  0.87553061  1
  O  O97  1  0.42552303  0.02745512  0.37553061  1
  O  O98  1  0.42552303  0.52745512  0.12446939  1
  O  O99  1  0.57447697  0.97254488  0.62446939  1
  O  O100  1  0.56250652  0.24831721  0.35720087  1
  O  O101  1  0.43749348  0.25168279  0.85720087  1
  O  O102  1  0.43749348  0.75168279  0.64279913  1
  O  O103  1  0.56250652  0.74831721  0.14279913  1
  O  O104  1  0.94177550  0.87697993  0.39617605  1
  O  O105  1  0.05822450  0.62302007  0.89617605  1
  O  O106  1  0.05822450  0.12302007  0.60382395  1
  O  O107  1  0.94177550  0.37697993  0.10382395  1
  O  O108  1  0.29372418  0.76241939  0.86663200  1
  O  O109  1  0.70627582  0.73758061  0.36663200  1
  O  O110  1  0.70627582  0.23758061  0.13336800  1
  O  O111  1  0.29372418  0.26241939  0.63336800  1
  O  O112  1  0.18096512  0.98486629  0.91013021  1
  O  O113  1  0.81903488  0.51513371  0.41013021  1
  O  O114  1  0.81903488  0.01513371  0.08986979  1
  O  O115  1  0.18096512  0.48486629  0.58986979  1
  O  O116  1  0.05057729  0.16875874  0.07787648  1
  O  O117  1  0.94942271  0.33124126  0.57787648  1
  O  O118  1  0.94942271  0.83124126  0.92212352  1
  O  O119  1  0.05057729  0.66875874  0.42212352  1
  O  O120  1  0.15291005  0.40981107  0.96905871  1
  O  O121  1  0.84708995  0.09018893  0.46905871  1
  O  O122  1  0.84708995  0.59018893  0.03094129  1
  O  O123  1  0.15291005  0.90981107  0.53094129  1
  O  O124  1  0.35812091  0.03022046  0.74109198  1
  O  O125  1  0.64187909  0.46977954  0.24109198  1
  O  O126  1  0.64187909  0.96977954  0.25890802  1
  O  O127  1  0.35812091  0.53022046  0.75890802  1
  O  O128  1  0.85425682  0.55150244  0.78287643  1
  O  O129  1  0.14574318  0.94849756  0.28287643  1
  O  O130  1  0.14574318  0.44849756  0.21712357  1
  O  O131  1  0.85425682  0.05150244  0.71712357  1
  O  O132  1  0.03946807  0.38953049  0.76042771  1
  O  O133  1  0.96053193  0.11046951  0.26042771  1
  O  O134  1  0.96053193  0.61046951  0.23957229  1
  O  O135  1  0.03946807  0.88953049  0.73957229  1
  O  O136  1  0.97134485  0.81099387  0.11516934  1
  O  O137  1  0.02865515  0.68900613  0.61516934  1
  O  O138  1  0.02865515  0.18900613  0.88483066  1
  O  O139  1  0.97134485  0.31099387  0.38483066  1
