# generated using pymatgen
data_Mg3Si4(MoO7)2
_symmetry_space_group_name_H-M   'P 1'
_cell_length_a   7.72981551
_cell_length_b   9.63587661
_cell_length_c   9.49239524
_cell_angle_alpha   62.96269200
_cell_angle_beta   65.97354955
_cell_angle_gamma   66.35331025
_symmetry_Int_Tables_number   1
_chemical_formula_structural   Mg3Si4(MoO7)2
_chemical_formula_sum   'Mg6 Si8 Mo4 O28'
_cell_volume   554.54619877
_cell_formula_units_Z   2
loop_
 _symmetry_equiv_pos_site_id
 _symmetry_equiv_pos_as_xyz
  1  'x, y, z'
loop_
 _atom_site_type_symbol
 _atom_site_label
 _atom_site_symmetry_multiplicity
 _atom_site_fract_x
 _atom_site_fract_y
 _atom_site_fract_z
 _atom_site_occupancy
  Mg  Mg0  1  0.92595434  0.90351771  0.45313696  1
  Mg  Mg1  1  0.28260902  0.59648229  0.04686304  1
  Mg  Mg2  1  0.71739098  0.40351771  0.95313696  1
  Mg  Mg3  1  0.62280273  0.25000000  0.75000000  1
  Mg  Mg4  1  0.07404566  0.09648229  0.54686304  1
  Mg  Mg5  1  0.37719727  0.75000000  0.25000000  1
  Si  Si6  1  0.47088080  0.28449662  0.33739742  1
  Si  Si7  1  0.90722416  0.78449662  0.83739742  1
  Si  Si8  1  0.48856260  0.89546847  0.86072898  1
  Si  Si9  1  0.75524095  0.39546847  0.36072898  1
  Si  Si10  1  0.09277584  0.21550338  0.16260258  1
  Si  Si11  1  0.51143740  0.10453153  0.13927102  1
  Si  Si12  1  0.24475905  0.60453153  0.63927102  1
  Si  Si13  1  0.52911920  0.71550338  0.66260258  1
  Mo  Mo14  1  0.20094333  0.25000000  0.75000000  1
  Mo  Mo15  1  0.79905667  0.75000000  0.25000000  1
  Mo  Mo16  1  0.00000000  0.00000000  0.00000000  1
  Mo  Mo17  1  0.00000000  0.50000000  0.50000000  1
  O  O18  1  0.15838889  0.67063257  0.47814264  1
  O  O19  1  0.07556306  0.58849926  0.24797376  1
  O  O20  1  0.51992762  0.91786059  0.18396752  1
  O  O21  1  0.08796391  0.08849926  0.74797376  1
  O  O22  1  0.73813006  0.69704861  0.51999726  1
  O  O23  1  0.93216569  0.38209276  0.19163419  1
  O  O24  1  0.37824327  0.41786059  0.68396752  1
  O  O25  1  0.95517594  0.80295139  0.98000274  1
  O  O26  1  0.06783431  0.61790724  0.80836581  1
  O  O27  1  0.35926474  0.74262784  0.58268635  1
  O  O28  1  0.92443694  0.41150074  0.75202624  1
  O  O29  1  0.26186994  0.30295139  0.48000274  1
  O  O30  1  0.50589364  0.11790724  0.30836581  1
  O  O31  1  0.69283491  0.17063257  0.97814264  1
  O  O32  1  0.31542107  0.24262784  0.08268635  1
  O  O33  1  0.04482406  0.19704861  0.01999726  1
  O  O34  1  0.08576339  0.06989092  0.34048172  1
  O  O35  1  0.64073526  0.25737216  0.41731365  1
  O  O36  1  0.49613503  0.43010908  0.15951828  1
  O  O37  1  0.68457893  0.75737216  0.91731365  1
  O  O38  1  0.49410636  0.88209276  0.69163419  1
  O  O39  1  0.91203609  0.91150074  0.25202624  1
  O  O40  1  0.50386497  0.56989092  0.84048172  1
  O  O41  1  0.48007238  0.08213941  0.81603248  1
  O  O42  1  0.91423661  0.93010908  0.65951828  1
  O  O43  1  0.62175673  0.58213941  0.31603248  1
  O  O44  1  0.30716509  0.82936743  0.02185736  1
  O  O45  1  0.84161111  0.32936743  0.52185736  1
