# generated using pymatgen
data_Cs10Ge2O9
_symmetry_space_group_name_H-M   'P 1'
_cell_length_a   11.79010992
_cell_length_b   13.07187036
_cell_length_c   15.37867045
_cell_angle_alpha   85.28207159
_cell_angle_beta   90.00000000
_cell_angle_gamma   90.00000000
_symmetry_Int_Tables_number   1
_chemical_formula_structural   Cs10Ge2O9
_chemical_formula_sum   'Cs40 Ge8 O36'
_cell_volume   2362.11130116
_cell_formula_units_Z   4
loop_
 _symmetry_equiv_pos_site_id
 _symmetry_equiv_pos_as_xyz
  1  'x, y, z'
loop_
 _atom_site_type_symbol
 _atom_site_label
 _atom_site_symmetry_multiplicity
 _atom_site_fract_x
 _atom_site_fract_y
 _atom_site_fract_z
 _atom_site_occupancy
  Cs  Cs0  1  0.91602857  0.62010711  0.17659696  1
  Cs  Cs1  1  0.41602857  0.87989289  0.32340304  1
  Cs  Cs2  1  0.08397143  0.37989289  0.82340304  1
  Cs  Cs3  1  0.58397143  0.12010711  0.67659696  1
  Cs  Cs4  1  0.89084513  0.37735115  0.00315771  1
  Cs  Cs5  1  0.39084513  0.12264885  0.49684229  1
  Cs  Cs6  1  0.10915487  0.62264885  0.99684229  1
  Cs  Cs7  1  0.60915487  0.87735115  0.50315771  1
  Cs  Cs8  1  0.82828294  0.14099709  0.16228545  1
  Cs  Cs9  1  0.32828294  0.35900291  0.33771455  1
  Cs  Cs10  1  0.17171706  0.85900291  0.83771455  1
  Cs  Cs11  1  0.67171706  0.64099709  0.66228545  1
  Cs  Cs12  1  0.21252115  0.63938686  0.28829695  1
  Cs  Cs13  1  0.71252115  0.86061314  0.21170305  1
  Cs  Cs14  1  0.78747885  0.36061314  0.71170305  1
  Cs  Cs15  1  0.28747885  0.13938686  0.78829695  1
  Cs  Cs16  1  0.63759568  0.71503127  0.03611697  1
  Cs  Cs17  1  0.13759568  0.78496873  0.46388303  1
  Cs  Cs18  1  0.36240432  0.28496873  0.96388303  1
  Cs  Cs19  1  0.86240432  0.21503127  0.53611697  1
  Cs  Cs20  1  0.88899119  0.98017284  0.37267257  1
  Cs  Cs21  1  0.38899119  0.51982716  0.12732743  1
  Cs  Cs22  1  0.11100881  0.01982716  0.62732743  1
  Cs  Cs23  1  0.61100881  0.48017284  0.87267257  1
  Cs  Cs24  1  0.65878485  0.38649987  0.24660319  1
  Cs  Cs25  1  0.15878485  0.11350013  0.25339681  1
  Cs  Cs26  1  0.34121515  0.61350013  0.75339681  1
  Cs  Cs27  1  0.84121515  0.88649987  0.74660319  1
  Cs  Cs28  1  0.96834209  0.37053651  0.33795947  1
  Cs  Cs29  1  0.46834209  0.12946349  0.16204053  1
  Cs  Cs30  1  0.03165791  0.62946349  0.66204053  1
  Cs  Cs31  1  0.53165791  0.87053651  0.83795947  1
  Cs  Cs32  1  0.31940156  0.87949013  0.08230177  1
  Cs  Cs33  1  0.81940156  0.62050987  0.41769823  1
  Cs  Cs34  1  0.68059844  0.12050987  0.91769823  1
  Cs  Cs35  1  0.18059844  0.37949013  0.58230177  1
  Cs  Cs36  1  0.59538541  0.38556757  0.49345990  1
  Cs  Cs37  1  0.09538541  0.11443243  0.00654010  1
  Cs  Cs38  1  0.40461459  0.61443243  0.50654010  1
  Cs  Cs39  1  0.90461459  0.88556757  0.99345990  1
  Ge  Ge40  1  0.64801403  0.14094547  0.36950780  1
  Ge  Ge41  1  0.14801403  0.35905453  0.13049220  1
  Ge  Ge42  1  0.35198597  0.85905453  0.63049220  1
  Ge  Ge43  1  0.85198597  0.64094547  0.86950780  1
  Ge  Ge44  1  0.55466129  0.63837368  0.28583381  1
  Ge  Ge45  1  0.05466129  0.86162632  0.21416619  1
  Ge  Ge46  1  0.44533871  0.36162632  0.71416619  1
  Ge  Ge47  1  0.94533871  0.13837368  0.78583381  1
  O  O48  1  0.65194058  0.02605944  0.31219966  1
  O  O49  1  0.15194058  0.47394056  0.18780034  1
  O  O50  1  0.34805942  0.97394056  0.68780034  1
  O  O51  1  0.84805942  0.52605944  0.81219966  1
  O  O52  1  0.77927117  0.21056293  0.34378378  1
  O  O53  1  0.27927117  0.28943707  0.15621622  1
  O  O54  1  0.22072883  0.78943707  0.65621622  1
  O  O55  1  0.72072883  0.71056293  0.84378378  1
  O  O56  1  0.52521849  0.21642323  0.33393620  1
  O  O57  1  0.02521849  0.28357677  0.16606380  1
  O  O58  1  0.47478151  0.78357677  0.66606380  1
  O  O59  1  0.97478151  0.71642323  0.83393620  1
  O  O60  1  0.63917003  0.10837127  0.48556031  1
  O  O61  1  0.13917003  0.39162873  0.01443969  1
  O  O62  1  0.36082997  0.89162873  0.51443969  1
  O  O63  1  0.86082997  0.60837127  0.98556031  1
  O  O64  1  0.02024123  0.01809960  0.81258897  1
  O  O65  1  0.52024123  0.48190040  0.68741103  1
  O  O66  1  0.97975877  0.98190040  0.18741103  1
  O  O67  1  0.47975877  0.51809960  0.31258897  1
  O  O68  1  0.69197421  0.60701967  0.24284330  1
  O  O69  1  0.19197421  0.89298033  0.25715670  1
  O  O70  1  0.30802579  0.39298033  0.75715670  1
  O  O71  1  0.80802579  0.10701967  0.74284330  1
  O  O72  1  0.07568443  0.79025647  0.12044279  1
  O  O73  1  0.57568443  0.70974353  0.37955721  1
  O  O74  1  0.92431557  0.20974353  0.87955721  1
  O  O75  1  0.42431557  0.29025647  0.62044279  1
  O  O76  1  0.02762388  0.21130806  0.70321379  1
  O  O77  1  0.52762388  0.28869194  0.79678621  1
  O  O78  1  0.97237612  0.78869194  0.29678621  1
  O  O79  1  0.47237612  0.71130806  0.20321379  1
  O  O80  1  0.82166140  0.42471178  0.52287875  1
  O  O81  1  0.32166140  0.07528822  0.97712125  1
  O  O82  1  0.17833860  0.57528822  0.47712125  1
  O  O83  1  0.67833860  0.92471178  0.02287875  1
