# generated using pymatgen
data_H8S(NO2)2
_symmetry_space_group_name_H-M   'P 1'
_cell_length_a   5.95267524
_cell_length_b   8.17087281
_cell_length_c   10.54497712
_cell_angle_alpha   90.00000000
_cell_angle_beta   90.00000000
_cell_angle_gamma   90.00000000
_symmetry_Int_Tables_number   1
_chemical_formula_structural   H8S(NO2)2
_chemical_formula_sum   'H32 S4 N8 O16'
_cell_volume   512.89242079
_cell_formula_units_Z   4
loop_
 _symmetry_equiv_pos_site_id
 _symmetry_equiv_pos_as_xyz
  1  'x, y, z'
loop_
 _atom_site_type_symbol
 _atom_site_label
 _atom_site_symmetry_multiplicity
 _atom_site_fract_x
 _atom_site_fract_y
 _atom_site_fract_z
 _atom_site_occupancy
  H  H0  1  0.75000000  0.44239461  0.55117715  1
  H  H1  1  0.75000000  0.94239461  0.94882285  1
  H  H2  1  0.25000000  0.55760539  0.44882285  1
  H  H3  1  0.25000000  0.05760539  0.05117715  1
  H  H4  1  0.75000000  0.33844259  0.69015020  1
  H  H5  1  0.75000000  0.83844259  0.80984980  1
  H  H6  1  0.25000000  0.66155741  0.30984980  1
  H  H7  1  0.25000000  0.16155741  0.19015020  1
  H  H8  1  0.75000000  0.06984940  0.21218612  1
  H  H9  1  0.75000000  0.56984940  0.28781388  1
  H  H10  1  0.25000000  0.93015060  0.78781388  1
  H  H11  1  0.25000000  0.43015060  0.71218612  1
  H  H12  1  0.75000000  0.39212905  0.20781779  1
  H  H13  1  0.75000000  0.89212905  0.29218221  1
  H  H14  1  0.25000000  0.60787095  0.79218221  1
  H  H15  1  0.25000000  0.10787095  0.70781779  1
  H  H16  1  0.89427639  0.26876594  0.56537831  1
  H  H17  1  0.60572361  0.76876594  0.93462169  1
  H  H18  1  0.39427639  0.73123406  0.43462169  1
  H  H19  1  0.10572361  0.23123406  0.06537831  1
  H  H20  1  0.10572361  0.73123406  0.43462169  1
  H  H21  1  0.39427639  0.23123406  0.06537831  1
  H  H22  1  0.60572361  0.26876594  0.56537831  1
  H  H23  1  0.89427639  0.76876594  0.93462169  1
  H  H24  1  0.89121010  0.05415418  0.35033587  1
  H  H25  1  0.60878990  0.55415418  0.14966413  1
  H  H26  1  0.39121010  0.94584582  0.64966413  1
  H  H27  1  0.10878990  0.44584582  0.85033587  1
  H  H28  1  0.10878990  0.94584582  0.64966413  1
  H  H29  1  0.39121010  0.44584582  0.85033587  1
  H  H30  1  0.60878990  0.05415418  0.35033587  1
  H  H31  1  0.89121010  0.55415418  0.14966413  1
  S  S32  1  0.75000000  0.26226396  0.91966058  1
  S  S33  1  0.75000000  0.76226396  0.58033942  1
  S  S34  1  0.25000000  0.73773604  0.08033942  1
  S  S35  1  0.25000000  0.23773604  0.41966058  1
  N  N36  1  0.75000000  0.32854472  0.59272043  1
  N  N37  1  0.75000000  0.82854472  0.90727957  1
  N  N38  1  0.25000000  0.67145528  0.40727957  1
  N  N39  1  0.25000000  0.17145528  0.09272043  1
  N  N40  1  0.75000000  0.01703971  0.30139140  1
  N  N41  1  0.75000000  0.51703971  0.19860860  1
  N  N42  1  0.25000000  0.98296029  0.69860860  1
  N  N43  1  0.25000000  0.48296029  0.80139140  1
  O  O44  1  0.75000000  0.44481889  0.91381741  1
  O  O45  1  0.75000000  0.94481889  0.58618259  1
  O  O46  1  0.25000000  0.55518111  0.08618259  1
  O  O47  1  0.25000000  0.05518111  0.41381741  1
  O  O48  1  0.75000000  0.20640644  0.05713182  1
  O  O49  1  0.75000000  0.70640644  0.44286818  1
  O  O50  1  0.25000000  0.79359356  0.94286818  1
  O  O51  1  0.25000000  0.29359356  0.55713182  1
  O  O52  1  0.95579315  0.19763138  0.85729688  1
  O  O53  1  0.54420685  0.69763138  0.64270312  1
  O  O54  1  0.45579315  0.80236862  0.14270312  1
  O  O55  1  0.04420685  0.30236862  0.35729688  1
  O  O56  1  0.04420685  0.80236862  0.14270312  1
  O  O57  1  0.45579315  0.30236862  0.35729688  1
  O  O58  1  0.54420685  0.19763138  0.85729688  1
  O  O59  1  0.95579315  0.69763138  0.64270312  1
