# generated using pymatgen
data_CeSbMo2O9
_symmetry_space_group_name_H-M   'P 1'
_cell_length_a   9.90141736
_cell_length_b   9.90141736
_cell_length_c   11.06958350
_cell_angle_alpha   111.68087528
_cell_angle_beta   111.68087528
_cell_angle_gamma   95.85266783
_symmetry_Int_Tables_number   1
_chemical_formula_structural   CeSbMo2O9
_chemical_formula_sum   'Ce4 Sb4 Mo8 O36'
_cell_volume   900.68462073
_cell_formula_units_Z   4
loop_
 _symmetry_equiv_pos_site_id
 _symmetry_equiv_pos_as_xyz
  1  'x, y, z'
loop_
 _atom_site_type_symbol
 _atom_site_label
 _atom_site_symmetry_multiplicity
 _atom_site_fract_x
 _atom_site_fract_y
 _atom_site_fract_z
 _atom_site_occupancy
  Ce  Ce0  1  0.67574082  0.32425918  0.25000000  1
  Ce  Ce1  1  0.32425918  0.67574082  0.75000000  1
  Ce  Ce2  1  0.12351274  0.87648726  0.25000000  1
  Ce  Ce3  1  0.87648726  0.12351274  0.75000000  1
  Sb  Sb4  1  0.64733651  0.62074634  0.03730059  1
  Sb  Sb5  1  0.37925366  0.35266349  0.46269941  1
  Sb  Sb6  1  0.35266349  0.37925366  0.96269941  1
  Sb  Sb7  1  0.62074634  0.64733651  0.53730059  1
  Mo  Mo8  1  0.04874030  0.26007632  0.52781562  1
  Mo  Mo9  1  0.73992368  0.95125970  0.97218438  1
  Mo  Mo10  1  0.95125970  0.73992368  0.47218438  1
  Mo  Mo11  1  0.26007632  0.04874030  0.02781562  1
  Mo  Mo12  1  0.06218551  0.43491064  0.19651596  1
  Mo  Mo13  1  0.56508936  0.93781449  0.30348404  1
  Mo  Mo14  1  0.93781449  0.56508936  0.80348404  1
  Mo  Mo15  1  0.43491064  0.06218551  0.69651596  1
  O  O16  1  0.06166728  0.09499976  0.40113156  1
  O  O17  1  0.90500024  0.93833272  0.09886844  1
  O  O18  1  0.93833272  0.90500024  0.59886844  1
  O  O19  1  0.09499976  0.06166728  0.90113156  1
  O  O20  1  0.87439614  0.29753220  0.43936734  1
  O  O21  1  0.70246780  0.12560386  0.06063266  1
  O  O22  1  0.12560386  0.70246780  0.56063266  1
  O  O23  1  0.29753220  0.87439614  0.93936734  1
  O  O24  1  0.05237810  0.22831530  0.67898883  1
  O  O25  1  0.77168470  0.94762190  0.82101117  1
  O  O26  1  0.94762190  0.77168470  0.32101117  1
  O  O27  1  0.22831530  0.05237810  0.17898883  1
  O  O28  1  0.78125392  0.59624770  0.42453264  1
  O  O29  1  0.40375230  0.21874608  0.07546736  1
  O  O30  1  0.21874608  0.40375230  0.57546736  1
  O  O31  1  0.59624770  0.78125392  0.92453264  1
  O  O32  1  0.98588580  0.30470119  0.01056340  1
  O  O33  1  0.69529881  0.01411420  0.48943660  1
  O  O34  1  0.01411420  0.69529881  0.98943660  1
  O  O35  1  0.30470119  0.98588580  0.51056340  1
  O  O36  1  0.14142452  0.61783297  0.22223017  1
  O  O37  1  0.38216703  0.85857548  0.27776983  1
  O  O38  1  0.85857548  0.38216703  0.77776983  1
  O  O39  1  0.61783297  0.14142452  0.72223017  1
  O  O40  1  0.91415226  0.44161916  0.25264298  1
  O  O41  1  0.55838084  0.08584774  0.24735702  1
  O  O42  1  0.08584774  0.55838084  0.74735702  1
  O  O43  1  0.44161916  0.91415226  0.75264298  1
  O  O44  1  0.21541073  0.37444438  0.30304547  1
  O  O45  1  0.62555562  0.78458927  0.19695453  1
  O  O46  1  0.78458927  0.62555562  0.69695453  1
  O  O47  1  0.37444438  0.21541073  0.80304547  1
  O  O48  1  0.57560969  0.45989397  0.09929707  1
  O  O49  1  0.54010603  0.42439031  0.40070293  1
  O  O50  1  0.42439031  0.54010603  0.90070293  1
  O  O51  1  0.45989397  0.57560969  0.59929707  1
