# generated using pymatgen
data_V(AgO)4
_symmetry_space_group_name_H-M   'P 1'
_cell_length_a   4.61103515
_cell_length_b   6.00026477
_cell_length_c   6.00026476
_cell_angle_alpha   81.50996847
_cell_angle_beta   67.40367888
_cell_angle_gamma   67.40367890
_symmetry_Int_Tables_number   1
_chemical_formula_structural   V(AgO)4
_chemical_formula_sum   'V1 Ag4 O4'
_cell_volume   141.50235861
_cell_formula_units_Z   1
loop_
 _symmetry_equiv_pos_site_id
 _symmetry_equiv_pos_as_xyz
  1  'x, y, z'
loop_
 _atom_site_type_symbol
 _atom_site_label
 _atom_site_symmetry_multiplicity
 _atom_site_fract_x
 _atom_site_fract_y
 _atom_site_fract_z
 _atom_site_occupancy
  V  V0  1  0.00000000  -0.00000000  -0.00000000  1
  Ag  Ag1  1  0.55578100  0.25999789  0.58962327  1
  Ag  Ag2  1  0.40540217  0.74000211  0.41037673  1
  Ag  Ag3  1  0.85459573  0.58962327  0.74000211  1
  Ag  Ag4  1  0.18422111  0.41037673  0.25999789  1
  O  O5  1  0.37355987  0.93303492  0.74499616  1
  O  O6  1  0.05159094  0.06696508  0.25500384  1
  O  O7  1  0.88144398  0.74499616  0.06696508  1
  O  O8  1  0.69340522  0.25500384  0.93303492  1
