# generated using pymatgen
data_MgCuAsO5
_symmetry_space_group_name_H-M   'P 1'
_cell_length_a   7.47722524
_cell_length_b   5.71022352
_cell_length_c   9.04314454
_cell_angle_alpha   90.00075309
_cell_angle_beta   90.01052677
_cell_angle_gamma   89.93709999
_symmetry_Int_Tables_number   1
_chemical_formula_structural   MgCuAsO5
_chemical_formula_sum   'Mg4 Cu4 As4 O20'
_cell_volume   386.11153352
_cell_formula_units_Z   4
loop_
 _symmetry_equiv_pos_site_id
 _symmetry_equiv_pos_as_xyz
  1  'x, y, z'
loop_
 _atom_site_type_symbol
 _atom_site_label
 _atom_site_symmetry_multiplicity
 _atom_site_fract_x
 _atom_site_fract_y
 _atom_site_fract_z
 _atom_site_occupancy
  Mg  Mg0  1  0.92963872  0.71207873  0.06412241  1
  Mg  Mg1  1  0.57020362  0.28798410  0.56409123  1
  Mg  Mg2  1  0.43029950  0.78854595  0.93593760  1
  Mg  Mg3  1  0.06983992  0.21153301  0.43604249  1
  Cu  Cu4  1  0.99862073  0.49918024  0.74897681  1
  Cu  Cu5  1  0.50137704  0.50084193  0.24893389  1
  Cu  Cu6  1  0.49858519  0.00085409  0.25108494  1
  Cu  Cu7  1  0.00141659  0.99916284  0.75116111  1
  As  As8  1  0.64752285  0.27772421  0.90805922  1
  As  As9  1  0.85255894  0.72226022  0.40811551  1
  As  As10  1  0.14746062  0.22251902  0.09192291  1
  As  As11  1  0.35242445  0.77745279  0.59196204  1
  O  O12  1  0.83676397  0.24604688  0.78773267  1
  O  O13  1  0.66326015  0.75399148  0.28781186  1
  O  O14  1  0.33678163  0.25426683  0.21216942  1
  O  O15  1  0.16326396  0.74569747  0.71231623  1
  O  O16  1  0.48851084  0.34561322  0.78181488  1
  O  O17  1  0.01145532  0.65426128  0.28183069  1
  O  O18  1  0.98869864  0.15427175  0.21821863  1
  O  O19  1  0.51136598  0.84558971  0.71812916  1
  O  O20  1  0.62272206  0.02165492  0.00234967  1
  O  O21  1  0.87746372  0.97835936  0.50237230  1
  O  O22  1  0.12196591  0.47848573  0.99768240  1
  O  O23  1  0.37777390  0.52149238  0.49762105  1
  O  O24  1  0.68071938  0.51134228  0.02360172  1
  O  O25  1  0.81931093  0.48871157  0.52367861  1
  O  O26  1  0.18113309  0.98918815  0.97614481  1
  O  O27  1  0.31880734  0.01087525  0.47622013  1
  O  O28  1  0.88263509  0.75293698  0.83798584  1
  O  O29  1  0.61734675  0.24706070  0.33803947  1
  O  O30  1  0.38274942  0.74762700  0.16183480  1
  O  O31  1  0.11732172  0.25239194  0.66203550  1
