# generated using pymatgen
data_Zr3Zn2
_symmetry_space_group_name_H-M   'P 1'
_cell_length_a   6.73403124
_cell_length_b   7.68310321
_cell_length_c   7.68310321
_cell_angle_alpha   90.00000000
_cell_angle_beta   90.00000000
_cell_angle_gamma   90.00000000
_symmetry_Int_Tables_number   1
_chemical_formula_structural   Zr3Zn2
_chemical_formula_sum   'Zr12 Zn8'
_cell_volume   397.51036872
_cell_formula_units_Z   4
loop_
 _symmetry_equiv_pos_site_id
 _symmetry_equiv_pos_as_xyz
  1  'x, y, z'
loop_
 _atom_site_type_symbol
 _atom_site_label
 _atom_site_symmetry_multiplicity
 _atom_site_fract_x
 _atom_site_fract_y
 _atom_site_fract_z
 _atom_site_occupancy
  Zr  Zr0  1  0.25000000  -0.00000000  0.50000000  1
  Zr  Zr1  1  0.75000000  -0.00000000  0.50000000  1
  Zr  Zr2  1  0.25000000  0.50000000  -0.00000000  1
  Zr  Zr3  1  0.75000000  0.50000000  -0.00000000  1
  Zr  Zr4  1  0.00000000  0.29904855  0.70095145  1
  Zr  Zr5  1  0.00000000  0.70095145  0.29904855  1
  Zr  Zr6  1  0.50000000  0.79904855  0.79904855  1
  Zr  Zr7  1  0.50000000  0.20095145  0.20095145  1
  Zr  Zr8  1  0.00000000  0.15572501  0.15572501  1
  Zr  Zr9  1  0.00000000  0.84427499  0.84427499  1
  Zr  Zr10  1  0.50000000  0.34427499  0.65572501  1
  Zr  Zr11  1  0.50000000  0.65572501  0.34427499  1
  Zn  Zn12  1  0.20191724  0.38005265  0.38005265  1
  Zn  Zn13  1  0.79808276  0.61994735  0.61994735  1
  Zn  Zn14  1  0.20191724  0.61994735  0.61994735  1
  Zn  Zn15  1  0.70191724  0.11994735  0.88005265  1
  Zn  Zn16  1  0.29808276  0.11994735  0.88005265  1
  Zn  Zn17  1  0.79808276  0.38005265  0.38005265  1
  Zn  Zn18  1  0.29808276  0.88005265  0.11994735  1
  Zn  Zn19  1  0.70191724  0.88005265  0.11994735  1
