# generated using pymatgen
data_Ta4CrSe8
_symmetry_space_group_name_H-M   'P 1'
_cell_length_a   6.89655298
_cell_length_b   6.89655298
_cell_length_c   12.67474538
_cell_angle_alpha   90.00000000
_cell_angle_beta   90.00000000
_cell_angle_gamma   119.99999479
_symmetry_Int_Tables_number   1
_chemical_formula_structural   Ta4CrSe8
_chemical_formula_sum   'Ta8 Cr2 Se16'
_cell_volume   522.07638764
_cell_formula_units_Z   2
loop_
 _symmetry_equiv_pos_site_id
 _symmetry_equiv_pos_as_xyz
  1  'x, y, z'
loop_
 _atom_site_type_symbol
 _atom_site_label
 _atom_site_symmetry_multiplicity
 _atom_site_fract_x
 _atom_site_fract_y
 _atom_site_fract_z
 _atom_site_occupancy
  Ta  Ta0  1  -0.00000000  -0.00000000  0.75000000  1
  Ta  Ta1  1  -0.00000000  -0.00000000  0.25000000  1
  Ta  Ta2  1  0.49529319  0.50470681  0.75000000  1
  Ta  Ta3  1  0.50470681  0.49529319  0.25000000  1
  Ta  Ta4  1  0.00941363  0.50470681  0.75000000  1
  Ta  Ta5  1  0.99058637  0.49529319  0.25000000  1
  Ta  Ta6  1  0.49529319  0.99058637  0.75000000  1
  Ta  Ta7  1  0.50470681  0.00941363  0.25000000  1
  Cr  Cr8  1  -0.00000000  -0.00000000  -0.00000000  1
  Cr  Cr9  1  -0.00000000  -0.00000000  0.50000000  1
  Se  Se10  1  0.66666700  0.33333300  0.38488538  1
  Se  Se11  1  0.33333300  0.66666700  0.61511462  1
  Se  Se12  1  0.33333300  0.66666700  0.88488538  1
  Se  Se13  1  0.66666700  0.33333300  0.11511462  1
  Se  Se14  1  0.83382598  0.16617402  0.88307620  1
  Se  Se15  1  0.16617402  0.83382598  0.11692380  1
  Se  Se16  1  0.33234805  0.16617402  0.88307620  1
  Se  Se17  1  0.16617402  0.83382598  0.38307620  1
  Se  Se18  1  0.66765195  0.83382598  0.11692380  1
  Se  Se19  1  0.83382598  0.16617402  0.61692380  1
  Se  Se20  1  0.83382598  0.66765195  0.88307620  1
  Se  Se21  1  0.66765195  0.83382598  0.38307620  1
  Se  Se22  1  0.16617402  0.33234805  0.11692380  1
  Se  Se23  1  0.33234805  0.16617402  0.61692380  1
  Se  Se24  1  0.16617402  0.33234805  0.38307620  1
  Se  Se25  1  0.83382598  0.66765195  0.61692380  1
