# generated using pymatgen
data_V4CuO11
_symmetry_space_group_name_H-M   'P 1'
_cell_length_a   3.60292546
_cell_length_b   7.37867401
_cell_length_c   7.80042602
_cell_angle_alpha   105.23407976
_cell_angle_beta   103.35266396
_cell_angle_gamma   90.00000000
_symmetry_Int_Tables_number   1
_chemical_formula_structural   V4CuO11
_chemical_formula_sum   'V4 Cu1 O11'
_cell_volume   194.26978673
_cell_formula_units_Z   1
loop_
 _symmetry_equiv_pos_site_id
 _symmetry_equiv_pos_as_xyz
  1  'x, y, z'
loop_
 _atom_site_type_symbol
 _atom_site_label
 _atom_site_symmetry_multiplicity
 _atom_site_fract_x
 _atom_site_fract_y
 _atom_site_fract_z
 _atom_site_occupancy
  V  V0  1  0.08892668  0.13724738  0.17785335  1
  V  V1  1  0.53198677  0.45409559  0.06397355  1
  V  V2  1  0.75129391  0.46533419  0.50258783  1
  V  V3  1  0.30154057  0.13482143  0.60308113  1
  Cu  Cu4  1  0.41775973  0.79108763  0.83551945  1
  O  O5  1  0.50871019  0.66464314  0.01742038  1
  O  O6  1  0.42054594  0.30146145  0.84109187  1
  O  O7  1  0.05196152  0.39249043  0.10392304  1
  O  O8  1  0.17219487  0.01434123  0.34438974  1
  O  O9  1  0.67018059  0.58472569  0.34036118  1
  O  O10  1  0.60233668  0.21621935  0.20467337  1
  O  O11  1  0.24205781  0.38363072  0.48411561  1
  O  O12  1  0.85333588  0.63412087  0.70667177  1
  O  O13  1  0.79129079  0.20310966  0.58258158  1
  O  O14  1  0.98927455  0.96906008  0.97854910  1
  O  O15  1  0.33350353  0.93531116  0.66700706  1
