# generated using pymatgen
data_Te(RhO3)2
_symmetry_space_group_name_H-M   'P 1'
_cell_length_a   4.68100044
_cell_length_b   4.68100044
_cell_length_c   9.55336040
_cell_angle_alpha   90.00000000
_cell_angle_beta   90.00000000
_cell_angle_gamma   90.00000000
_symmetry_Int_Tables_number   1
_chemical_formula_structural   Te(RhO3)2
_chemical_formula_sum   'Te2 Rh4 O12'
_cell_volume   209.33098918
_cell_formula_units_Z   2
loop_
 _symmetry_equiv_pos_site_id
 _symmetry_equiv_pos_as_xyz
  1  'x, y, z'
loop_
 _atom_site_type_symbol
 _atom_site_label
 _atom_site_symmetry_multiplicity
 _atom_site_fract_x
 _atom_site_fract_y
 _atom_site_fract_z
 _atom_site_occupancy
  Te  Te0  1  -0.00000000  0.00000000  0.00000000  1
  Te  Te1  1  0.50000000  0.50000000  0.50000000  1
  Rh  Rh2  1  0.00000000  -0.00000000  0.33246271  1
  Rh  Rh3  1  0.00000000  0.00000000  0.66753729  1
  Rh  Rh4  1  0.50000000  0.50000000  0.83246271  1
  Rh  Rh5  1  0.50000000  0.50000000  0.16753729  1
  O  O6  1  0.30968828  0.30968828  0.00000000  1
  O  O7  1  0.69031172  0.69031172  0.00000000  1
  O  O8  1  0.19031172  0.80968828  0.50000000  1
  O  O9  1  0.80968828  0.19031172  0.50000000  1
  O  O10  1  0.30521552  0.30521552  0.33273749  1
  O  O11  1  0.69478448  0.69478448  0.66726251  1
  O  O12  1  0.69478448  0.69478448  0.33273749  1
  O  O13  1  0.19478448  0.80521552  0.83273749  1
  O  O14  1  0.19478448  0.80521552  0.16726251  1
  O  O15  1  0.30521552  0.30521552  0.66726251  1
  O  O16  1  0.80521552  0.19478448  0.16726251  1
  O  O17  1  0.80521552  0.19478448  0.83273749  1
