# generated using pymatgen
data_Re3Se4Br3
_symmetry_space_group_name_H-M   'P 1'
_cell_length_a   9.43300066
_cell_length_b   9.29462090
_cell_length_c   13.22661274
_cell_angle_alpha   83.59480891
_cell_angle_beta   83.62482570
_cell_angle_gamma   82.58849457
_symmetry_Int_Tables_number   1
_chemical_formula_structural   Re3Se4Br3
_chemical_formula_sum   'Re12 Se16 Br12'
_cell_volume   1137.28244484
_cell_formula_units_Z   4
loop_
 _symmetry_equiv_pos_site_id
 _symmetry_equiv_pos_as_xyz
  1  'x, y, z'
loop_
 _atom_site_type_symbol
 _atom_site_label
 _atom_site_symmetry_multiplicity
 _atom_site_fract_x
 _atom_site_fract_y
 _atom_site_fract_z
 _atom_site_occupancy
  Re  Re0  1  0.52572523  0.30904582  0.05387330  1
  Re  Re1  1  0.47427477  0.69095418  0.94612670  1
  Re  Re2  1  0.31417115  0.52117293  0.06674099  1
  Re  Re3  1  0.68582885  0.47882707  0.93325901  1
  Re  Re4  1  0.57690941  0.55691208  0.11869551  1
  Re  Re5  1  0.42309059  0.44308792  0.88130449  1
  Re  Re6  1  0.81053819  0.11197916  0.49848481  1
  Re  Re7  1  0.18946181  0.88802084  0.50151519  1
  Re  Re8  1  0.08240902  0.16745945  0.49226379  1
  Re  Re9  1  0.91759098  0.83254055  0.50773621  1
  Re  Re10  1  0.01440085  0.00995444  0.35673390  1
  Re  Re11  1  0.98559915  0.99004556  0.64326610  1
  Se  Se12  1  0.41624308  0.39812039  0.22910605  1
  Se  Se13  1  0.58375692  0.60187961  0.77089395  1
  Se  Se14  1  0.24791282  0.04504780  0.62847694  1
  Se  Se15  1  0.75208718  0.95495220  0.37152306  1
  Se  Se16  1  0.77894864  0.35806088  0.09833527  1
  Se  Se17  1  0.22105136  0.64193912  0.90166473  1
  Se  Se18  1  0.08349031  0.71714436  0.64163255  1
  Se  Se19  1  0.91650969  0.28285564  0.35836745  1
  Se  Se20  1  0.11334261  0.74193068  0.37030397  1
  Se  Se21  1  0.88665739  0.25806932  0.62969603  1
  Se  Se22  1  0.37140457  0.76307705  0.12065441  1
  Se  Se23  1  0.62859543  0.23692295  0.87934559  1
  Se  Se24  1  0.27184889  0.06522863  0.35402521  1
  Se  Se25  1  0.72815111  0.93477137  0.64597479  1
  Se  Se26  1  0.28049068  0.27475496  0.00942252  1
  Se  Se27  1  0.71950932  0.72524504  0.99057748  1
  Br  Br28  1  0.32056146  0.35972941  0.73355233  1
  Br  Br29  1  0.67943854  0.64027059  0.26644767  1
  Br  Br30  1  0.03050539  0.02308997  0.16278220  1
  Br  Br31  1  0.96949461  0.97691003  0.83721780  1
  Br  Br32  1  0.20320815  0.39951802  0.48471358  1
  Br  Br33  1  0.79679185  0.60048198  0.51528642  1
  Br  Br34  1  0.57604204  0.04871412  0.13545747  1
  Br  Br35  1  0.42395796  0.95128588  0.86454253  1
  Br  Br36  1  0.05930161  0.55078300  0.15417962  1
  Br  Br37  1  0.94069839  0.44921700  0.84582038  1
  Br  Br38  1  0.56693641  0.26164293  0.49613949  1
  Br  Br39  1  0.43306359  0.73835707  0.50386051  1
