# generated using pymatgen
data_NaNb2Bi2O9
_symmetry_space_group_name_H-M   'P 1'
_cell_length_a   5.58522964
_cell_length_b   5.67599438
_cell_length_c   12.54198124
_cell_angle_alpha   90.00000000
_cell_angle_beta   102.86539499
_cell_angle_gamma   90.00000000
_symmetry_Int_Tables_number   1
_chemical_formula_structural   NaNb2Bi2O9
_chemical_formula_sum   'Na2 Nb4 Bi4 O18'
_cell_volume   387.62105631
_cell_formula_units_Z   2
loop_
 _symmetry_equiv_pos_site_id
 _symmetry_equiv_pos_as_xyz
  1  'x, y, z'
loop_
 _atom_site_type_symbol
 _atom_site_label
 _atom_site_symmetry_multiplicity
 _atom_site_fract_x
 _atom_site_fract_y
 _atom_site_fract_z
 _atom_site_occupancy
  Na  Na0  1  0.23647527  0.55449716  0.00000000  1
  Na  Na1  1  0.76352473  0.05449716  1.00000000  1
  Nb  Nb2  1  0.33731714  0.04218934  0.15845044  1
  Nb  Nb3  1  0.66268286  0.54218934  0.84154956  1
  Nb  Nb4  1  0.82113330  0.54218934  0.15845044  1
  Nb  Nb5  1  0.17886670  0.04218934  0.84154956  1
  Bi  Bi6  1  0.59337810  0.12511517  0.60634632  1
  Bi  Bi7  1  0.40662190  0.62511517  0.39365368  1
  Bi  Bi8  1  0.01296821  0.62511517  0.60634632  1
  Bi  Bi9  1  0.98703179  0.12511517  0.39365368  1
  O  O10  1  0.33337409  0.97898879  1.00000000  1
  O  O11  1  0.66662591  0.47898879  0.00000000  1
  O  O12  1  0.30691605  0.99072305  0.31363180  1
  O  O13  1  0.69308395  0.49072305  0.68636820  1
  O  O14  1  0.00671576  0.49072305  0.31363180  1
  O  O15  1  0.99328424  0.99072305  0.68636820  1
  O  O16  1  0.44139408  0.22237079  0.80914728  1
  O  O17  1  0.55860592  0.72237079  0.19085272  1
  O  O18  1  0.36775320  0.72237079  0.80914728  1
  O  O19  1  0.63224680  0.22237079  0.19085272  1
  O  O20  1  0.27531029  0.33108782  0.50562900  1
  O  O21  1  0.72468971  0.83108782  0.49437100  1
  O  O22  1  0.23031870  0.83108782  0.50562900  1
  O  O23  1  0.76968130  0.33108782  0.49437100  1
  O  O24  1  0.10055867  0.28227086  0.12925526  1
  O  O25  1  0.89944133  0.78227086  0.87074474  1
  O  O26  1  0.02869659  0.78227086  0.12925526  1
  O  O27  1  0.97130341  0.28227086  0.87074474  1
