# generated using pymatgen
data_Sc5Si4
_symmetry_space_group_name_H-M   'P 1'
_cell_length_a   7.02952390
_cell_length_b   7.14176545
_cell_length_c   13.64316608
_cell_angle_alpha   90.00000000
_cell_angle_beta   90.00000000
_cell_angle_gamma   90.00000000
_symmetry_Int_Tables_number   1
_chemical_formula_structural   Sc5Si4
_chemical_formula_sum   'Sc20 Si16'
_cell_volume   684.93074432
_cell_formula_units_Z   4
loop_
 _symmetry_equiv_pos_site_id
 _symmetry_equiv_pos_as_xyz
  1  'x, y, z'
loop_
 _atom_site_type_symbol
 _atom_site_label
 _atom_site_symmetry_multiplicity
 _atom_site_fract_x
 _atom_site_fract_y
 _atom_site_fract_z
 _atom_site_occupancy
  Sc  Sc0  1  0.79202924  0.99857785  0.75000000  1
  Sc  Sc1  1  0.20797076  0.00142215  0.25000000  1
  Sc  Sc2  1  0.70797076  0.49857785  0.25000000  1
  Sc  Sc3  1  0.29202924  0.50142215  0.75000000  1
  Sc  Sc4  1  0.97641617  0.32090774  0.90065177  1
  Sc  Sc5  1  0.02358383  0.67909226  0.09934823  1
  Sc  Sc6  1  0.52358383  0.82090774  0.09934823  1
  Sc  Sc7  1  0.02358383  0.67909226  0.40065177  1
  Sc  Sc8  1  0.47641617  0.17909226  0.90065177  1
  Sc  Sc9  1  0.97641617  0.32090774  0.59934823  1
  Sc  Sc10  1  0.47641617  0.17909226  0.59934823  1
  Sc  Sc11  1  0.52358383  0.82090774  0.40065177  1
  Sc  Sc12  1  0.62396818  0.66862484  0.87891923  1
  Sc  Sc13  1  0.37603182  0.33137516  0.12108077  1
  Sc  Sc14  1  0.87603182  0.16862484  0.12108077  1
  Sc  Sc15  1  0.37603182  0.33137516  0.37891923  1
  Sc  Sc16  1  0.12396818  0.83137516  0.87891923  1
  Sc  Sc17  1  0.62396818  0.66862484  0.62108077  1
  Sc  Sc18  1  0.12396818  0.83137516  0.62108077  1
  Sc  Sc19  1  0.87603182  0.16862484  0.37891923  1
  Si  Si20  1  0.91923076  0.61039778  0.75000000  1
  Si  Si21  1  0.08076924  0.38960222  0.25000000  1
  Si  Si22  1  0.58076924  0.11039778  0.25000000  1
  Si  Si23  1  0.41923076  0.88960222  0.75000000  1
  Si  Si24  1  0.67397791  0.36596931  0.75000000  1
  Si  Si25  1  0.32602209  0.63403069  0.25000000  1
  Si  Si26  1  0.82602209  0.86596931  0.25000000  1
  Si  Si27  1  0.17397791  0.13403069  0.75000000  1
  Si  Si28  1  0.79104913  0.96704903  0.95880273  1
  Si  Si29  1  0.20895087  0.03295097  0.04119727  1
  Si  Si30  1  0.70895087  0.46704903  0.04119727  1
  Si  Si31  1  0.20895087  0.03295097  0.45880273  1
  Si  Si32  1  0.29104913  0.53295097  0.95880273  1
  Si  Si33  1  0.79104913  0.96704903  0.54119727  1
  Si  Si34  1  0.29104913  0.53295097  0.54119727  1
  Si  Si35  1  0.70895087  0.46704903  0.45880273  1
