# generated using pymatgen
data_MgSbAsO5
_symmetry_space_group_name_H-M   'P 1'
_cell_length_a   7.29106638
_cell_length_b   7.26701338
_cell_length_c   8.83199139
_cell_angle_alpha   90.02089802
_cell_angle_beta   89.99366225
_cell_angle_gamma   90.00234975
_symmetry_Int_Tables_number   1
_chemical_formula_structural   MgSbAsO5
_chemical_formula_sum   'Mg4 Sb4 As4 O20'
_cell_volume   467.95664371
_cell_formula_units_Z   4
loop_
 _symmetry_equiv_pos_site_id
 _symmetry_equiv_pos_as_xyz
  1  'x, y, z'
loop_
 _atom_site_type_symbol
 _atom_site_label
 _atom_site_symmetry_multiplicity
 _atom_site_fract_x
 _atom_site_fract_y
 _atom_site_fract_z
 _atom_site_occupancy
  Mg  Mg0  1  0.12883131  0.76932583  0.05645677  1
  Mg  Mg1  1  0.37106967  0.23063009  0.55649844  1
  Mg  Mg2  1  0.62882054  0.73069520  0.94349072  1
  Mg  Mg3  1  0.87120473  0.26931498  0.44347509  1
  Sb  Sb4  1  0.02076262  0.49885842  0.78790138  1
  Sb  Sb5  1  0.47925775  0.50122859  0.28786629  1
  Sb  Sb6  1  0.52067031  0.00114554  0.21206674  1
  Sb  Sb7  1  0.97930978  -0.00122500  0.71220252  1
  As  As8  1  0.60313968  0.28064248  0.89324432  1
  As  As9  1  0.89700713  0.71994408  0.39297580  1
  As  As10  1  0.10290356  0.21941308  0.10694868  1
  As  As11  1  0.39689128  0.78002147  0.60689207  1
  O  O12  1  0.80475778  0.30775237  0.78489095  1
  O  O13  1  0.69524041  0.69242216  0.28490457  1
  O  O14  1  0.30468162  0.19220989  0.21521941  1
  O  O15  1  0.19544635  0.80766056  0.71530117  1
  O  O16  1  0.42501921  0.26865789  0.77183878  1
  O  O17  1  0.07479726  0.73146738  0.27192545  1
  O  O18  1  0.92502860  0.23155049  0.22798908  1
  O  O19  1  0.57500881  0.76830376  0.72799053  1
  O  O20  1  0.62879464  0.07377506  0.99023843  1
  O  O21  1  0.87135351  0.92606620  0.49028754  1
  O  O22  1  0.12881542  0.42624962  0.00962168  1
  O  O23  1  0.37107233  0.57398599  0.50971567  1
  O  O24  1  0.59368494  0.46249442  0.01486290  1
  O  O25  1  0.90637037  0.53715297  0.51512792  1
  O  O26  1  0.09365369  0.03748162  0.98507555  1
  O  O27  1  0.40624656  0.96278809  0.48496533  1
  O  O28  1  0.90880521  0.69981999  0.91105187  1
  O  O29  1  0.59131872  0.30015394  0.41124034  1
  O  O30  1  0.40869985  0.80018256  0.08891207  1
  O  O31  1  0.09133436  0.19983229  0.58882195  1
