# generated using pymatgen
data_Sr2LuTaO6
_symmetry_space_group_name_H-M   'P 1'
_cell_length_a   5.86271845
_cell_length_b   5.89095636
_cell_length_c   8.29842820
_cell_angle_alpha   90.00000000
_cell_angle_beta   90.00000000
_cell_angle_gamma   90.00000000
_symmetry_Int_Tables_number   1
_chemical_formula_structural   Sr2LuTaO6
_chemical_formula_sum   'Sr4 Lu2 Ta2 O12'
_cell_volume   286.60296860
_cell_formula_units_Z   2
loop_
 _symmetry_equiv_pos_site_id
 _symmetry_equiv_pos_as_xyz
  1  'x, y, z'
loop_
 _atom_site_type_symbol
 _atom_site_label
 _atom_site_symmetry_multiplicity
 _atom_site_fract_x
 _atom_site_fract_y
 _atom_site_fract_z
 _atom_site_occupancy
  Sr  Sr0  1  0.00202309  0.48370666  0.25192206  1
  Sr  Sr1  1  0.00202309  0.51629334  0.74807794  1
  Sr  Sr2  1  0.50202309  0.98370666  0.24807794  1
  Sr  Sr3  1  0.50202309  0.01629334  0.75192206  1
  Lu  Lu4  1  0.00295312  -0.00000000  0.00000000  1
  Lu  Lu5  1  0.50295312  0.50000000  0.50000000  1
  Ta  Ta6  1  0.00327041  0.00000000  0.50000000  1
  Ta  Ta7  1  0.50327041  0.50000000  -0.00000000  1
  O  O8  1  0.48636927  0.51044620  0.23990734  1
  O  O9  1  0.48636927  0.48955380  0.76009266  1
  O  O10  1  0.98636927  0.01044620  0.26009266  1
  O  O11  1  0.98636927  0.98955380  0.73990734  1
  O  O12  1  0.25139721  0.23166933  0.49733904  1
  O  O13  1  0.25139721  0.76833067  0.50266096  1
  O  O14  1  0.75139721  0.73166933  0.00266096  1
  O  O15  1  0.75139721  0.26833067  0.99733904  1
  O  O16  1  0.27319866  0.25039241  0.00698179  1
  O  O17  1  0.27319866  0.74960759  0.99301821  1
  O  O18  1  0.77319866  0.75039241  0.49301821  1
  O  O19  1  0.77319866  0.24960759  0.50698179  1
