# generated using pymatgen
data_Tm3Cu20Sb11
_symmetry_space_group_name_H-M   'P 1'
_cell_length_a   11.90819911
_cell_length_b   11.90819911
_cell_length_c   11.90819911
_cell_angle_alpha   60.00000000
_cell_angle_beta   60.00000000
_cell_angle_gamma   60.00000000
_symmetry_Int_Tables_number   1
_chemical_formula_structural   Tm3Cu20Sb11
_chemical_formula_sum   'Tm6 Cu40 Sb22'
_cell_volume   1194.05206673
_cell_formula_units_Z   2
loop_
 _symmetry_equiv_pos_site_id
 _symmetry_equiv_pos_as_xyz
  1  'x, y, z'
loop_
 _atom_site_type_symbol
 _atom_site_label
 _atom_site_symmetry_multiplicity
 _atom_site_fract_x
 _atom_site_fract_y
 _atom_site_fract_z
 _atom_site_occupancy
  Tm  Tm0  1  0.99307705  0.99307705  0.50692295  1
  Tm  Tm1  1  0.50692295  0.50692295  0.99307705  1
  Tm  Tm2  1  0.99307705  0.50692295  0.99307705  1
  Tm  Tm3  1  0.50692295  0.99307705  0.50692295  1
  Tm  Tm4  1  0.50692295  0.99307705  0.99307705  1
  Tm  Tm5  1  0.99307705  0.50692295  0.50692295  1
  Cu  Cu6  1  0.30126499  0.30126499  0.30126499  1
  Cu  Cu7  1  0.09620504  0.30126499  0.30126499  1
  Cu  Cu8  1  0.30126499  0.09620504  0.30126499  1
  Cu  Cu9  1  0.30126499  0.30126499  0.09620504  1
  Cu  Cu10  1  0.27431093  0.49719589  0.49719589  1
  Cu  Cu11  1  0.73129729  0.49719589  0.49719589  1
  Cu  Cu12  1  0.49719589  0.73129729  0.27431093  1
  Cu  Cu13  1  0.49719589  0.49719589  0.27431093  1
  Cu  Cu14  1  0.49719589  0.27431093  0.73129729  1
  Cu  Cu15  1  0.49719589  0.49719589  0.73129729  1
  Cu  Cu16  1  0.73129729  0.27431093  0.49719589  1
  Cu  Cu17  1  0.27431093  0.73129729  0.49719589  1
  Cu  Cu18  1  0.49719589  0.27431093  0.49719589  1
  Cu  Cu19  1  0.27431093  0.49719589  0.73129729  1
  Cu  Cu20  1  0.73129729  0.49719589  0.27431093  1
  Cu  Cu21  1  0.49719589  0.73129729  0.49719589  1
  Cu  Cu22  1  0.12990386  0.74955700  0.74955700  1
  Cu  Cu23  1  0.37098213  0.74955700  0.74955700  1
  Cu  Cu24  1  0.74955700  0.37098213  0.12990386  1
  Cu  Cu25  1  0.74955700  0.74955700  0.12990386  1
  Cu  Cu26  1  0.74955700  0.12990386  0.37098213  1
  Cu  Cu27  1  0.74955700  0.74955700  0.37098213  1
  Cu  Cu28  1  0.37098213  0.12990386  0.74955700  1
  Cu  Cu29  1  0.12990386  0.37098213  0.74955700  1
  Cu  Cu30  1  0.74955700  0.12990386  0.74955700  1
  Cu  Cu31  1  0.12990386  0.74955700  0.37098213  1
  Cu  Cu32  1  0.37098213  0.74955700  0.12990386  1
  Cu  Cu33  1  0.74955700  0.37098213  0.74955700  1
  Cu  Cu34  1  0.76734665  0.00267239  0.00267239  1
  Cu  Cu35  1  0.22730857  0.00267239  0.00267239  1
  Cu  Cu36  1  0.00267239  0.22730857  0.76734665  1
  Cu  Cu37  1  0.00267239  0.00267239  0.76734665  1
  Cu  Cu38  1  0.00267239  0.76734665  0.22730857  1
  Cu  Cu39  1  0.00267239  0.00267239  0.22730857  1
  Cu  Cu40  1  0.22730857  0.76734665  0.00267239  1
  Cu  Cu41  1  0.76734665  0.22730857  0.00267239  1
  Cu  Cu42  1  0.00267239  0.76734665  0.00267239  1
  Cu  Cu43  1  0.76734665  0.00267239  0.22730857  1
  Cu  Cu44  1  0.22730857  0.00267239  0.76734665  1
  Cu  Cu45  1  0.00267239  0.22730857  0.00267239  1
  Sb  Sb46  1  0.64851020  0.64851020  0.64851020  1
  Sb  Sb47  1  0.05446940  0.64851020  0.64851020  1
  Sb  Sb48  1  0.64851020  0.05446940  0.64851020  1
  Sb  Sb49  1  0.64851020  0.64851020  0.05446940  1
  Sb  Sb50  1  0.56357239  0.24957407  0.24957407  1
  Sb  Sb51  1  0.93727947  0.24957407  0.24957407  1
  Sb  Sb52  1  0.24957407  0.93727947  0.56357239  1
  Sb  Sb53  1  0.24957407  0.24957407  0.56357239  1
  Sb  Sb54  1  0.24957407  0.56357239  0.93727947  1
  Sb  Sb55  1  0.24957407  0.24957407  0.93727947  1
  Sb  Sb56  1  0.93727947  0.56357239  0.24957407  1
  Sb  Sb57  1  0.56357239  0.93727947  0.24957407  1
  Sb  Sb58  1  0.24957407  0.56357239  0.24957407  1
  Sb  Sb59  1  0.56357239  0.24957407  0.93727947  1
  Sb  Sb60  1  0.93727947  0.24957407  0.56357239  1
  Sb  Sb61  1  0.24957407  0.93727947  0.24957407  1
  Sb  Sb62  1  -0.00000000  -0.00000000  0.00000000  1
  Sb  Sb63  1  0.85062088  0.85062088  0.85062088  1
  Sb  Sb64  1  0.44813735  0.85062088  0.85062088  1
  Sb  Sb65  1  0.85062088  0.44813735  0.85062088  1
  Sb  Sb66  1  0.85062088  0.85062088  0.44813735  1
  Sb  Sb67  1  0.50000000  0.50000000  0.50000000  1
