# generated using pymatgen
data_Na3Sr2Ti3(Si2O9)2
_symmetry_space_group_name_H-M   'P 1'
_cell_length_a   5.43256371
_cell_length_b   7.16290920
_cell_length_c   10.55960287
_cell_angle_alpha   109.82604696
_cell_angle_beta   96.47060370
_cell_angle_gamma   90.00000000
_symmetry_Int_Tables_number   1
_chemical_formula_structural   Na3Sr2Ti3(Si2O9)2
_chemical_formula_sum   'Na3 Sr2 Ti3 Si4 O18'
_cell_volume   383.76604786
_cell_formula_units_Z   1
loop_
 _symmetry_equiv_pos_site_id
 _symmetry_equiv_pos_as_xyz
  1  'x, y, z'
loop_
 _atom_site_type_symbol
 _atom_site_label
 _atom_site_symmetry_multiplicity
 _atom_site_fract_x
 _atom_site_fract_y
 _atom_site_fract_z
 _atom_site_occupancy
  Na  Na0  1  0.50000000  0.75810808  1.00000000  1
  Na  Na1  1  0.50000000  0.24189192  0.00000000  1
  Na  Na2  1  -0.00000000  0.50000000  0.00000000  1
  Sr  Sr3  1  0.26084893  0.78358994  0.56717988  1
  Sr  Sr4  1  0.73915107  0.21641006  0.43282012  1
  Ti  Ti5  1  0.70557190  0.64905890  0.29811781  1
  Ti  Ti6  1  0.29442810  0.35094110  0.70188219  1
  Ti  Ti7  1  -0.00000000  -0.00000000  0.00000000  1
  Si  Si8  1  0.79876035  0.64159019  0.71557686  1
  Si  Si9  1  0.20123965  0.35840981  0.28442314  1
  Si  Si10  1  0.20123965  0.92601334  0.28442314  1
  Si  Si11  1  0.79876035  0.07398666  0.71557686  1
  O  O12  1  0.53448755  0.51578199  0.64975470  1
  O  O13  1  0.46551245  0.48421801  0.35024530  1
  O  O14  1  0.46551245  0.86602728  0.35024530  1
  O  O15  1  0.53448755  0.13397272  0.64975470  1
  O  O16  1  0.82978494  0.73044126  0.87918082  1
  O  O17  1  0.17021506  0.26955874  0.12081918  1
  O  O18  1  0.17021506  0.85126044  0.12081918  1
  O  O19  1  0.82978494  0.14873956  0.87918082  1
  O  O20  1  0.97142226  0.48759463  0.35337074  1
  O  O21  1  0.02857774  0.51240537  0.64662926  1
  O  O22  1  0.02857774  0.13422388  0.64662926  1
  O  O23  1  0.97142226  0.86577612  0.35337074  1
  O  O24  1  0.67327316  0.56373595  0.12747190  1
  O  O25  1  0.32672684  0.43626405  0.87252810  1
  O  O26  1  0.24793252  0.94400034  0.88800068  1
  O  O27  1  0.75206748  0.05599966  0.11199932  1
  O  O28  1  0.78124546  0.82423645  0.64847289  1
  O  O29  1  0.21875454  0.17576355  0.35152711  1
