# generated using pymatgen
data_Rb2Be3Co2F12
_symmetry_space_group_name_H-M   'P 1'
_cell_length_a   10.21838866
_cell_length_b   10.21838866
_cell_length_c   10.21838866
_cell_angle_alpha   90.00000000
_cell_angle_beta   90.00000000
_cell_angle_gamma   90.00000000
_symmetry_Int_Tables_number   1
_chemical_formula_structural   Rb2Be3Co2F12
_chemical_formula_sum   'Rb8 Be12 Co8 F48'
_cell_volume   1066.95782195
_cell_formula_units_Z   4
loop_
 _symmetry_equiv_pos_site_id
 _symmetry_equiv_pos_as_xyz
  1  'x, y, z'
loop_
 _atom_site_type_symbol
 _atom_site_label
 _atom_site_symmetry_multiplicity
 _atom_site_fract_x
 _atom_site_fract_y
 _atom_site_fract_z
 _atom_site_occupancy
  Rb  Rb0  1  0.04918718  0.04918718  0.04918718  1
  Rb  Rb1  1  0.45081282  0.95081282  0.54918718  1
  Rb  Rb2  1  0.95081282  0.54918718  0.45081282  1
  Rb  Rb3  1  0.54918718  0.45081282  0.95081282  1
  Rb  Rb4  1  0.81500682  0.81500682  0.81500682  1
  Rb  Rb5  1  0.68499318  0.18499318  0.31500682  1
  Rb  Rb6  1  0.18499318  0.31500682  0.68499318  1
  Rb  Rb7  1  0.31500682  0.68499318  0.18499318  1
  Be  Be8  1  0.02025550  0.21410472  0.37571078  1
  Be  Be9  1  0.47974450  0.78589528  0.87571078  1
  Be  Be10  1  0.97974450  0.71410472  0.12428922  1
  Be  Be11  1  0.37571078  0.02025550  0.21410472  1
  Be  Be12  1  0.52025550  0.28589528  0.62428922  1
  Be  Be13  1  0.87571078  0.47974450  0.78589528  1
  Be  Be14  1  0.12428922  0.97974450  0.71410472  1
  Be  Be15  1  0.62428922  0.52025550  0.28589528  1
  Be  Be16  1  0.21410472  0.37571078  0.02025550  1
  Be  Be17  1  0.71410472  0.12428922  0.97974450  1
  Be  Be18  1  0.28589528  0.62428922  0.52025550  1
  Be  Be19  1  0.78589528  0.87571078  0.47974450  1
  Co  Co20  1  0.33535777  0.33535777  0.33535777  1
  Co  Co21  1  0.16464223  0.66464223  0.83535777  1
  Co  Co22  1  0.66464223  0.83535777  0.16464223  1
  Co  Co23  1  0.83535777  0.16464223  0.66464223  1
  Co  Co24  1  0.59963067  0.59963067  0.59963067  1
  Co  Co25  1  0.90036933  0.40036933  0.09963067  1
  Co  Co26  1  0.40036933  0.09963067  0.90036933  1
  Co  Co27  1  0.09963067  0.90036933  0.40036933  1
  F  F28  1  0.01375578  0.06804024  0.33001995  1
  F  F29  1  0.48624422  0.93195976  0.83001995  1
  F  F30  1  0.98624422  0.56804024  0.16998005  1
  F  F31  1  0.33001995  0.01375578  0.06804024  1
  F  F32  1  0.51375578  0.43195976  0.66998005  1
  F  F33  1  0.83001995  0.48624422  0.93195976  1
  F  F34  1  0.16998005  0.98624422  0.56804024  1
  F  F35  1  0.66998005  0.51375578  0.43195976  1
  F  F36  1  0.06804024  0.33001995  0.01375578  1
  F  F37  1  0.56804024  0.16998005  0.98624422  1
  F  F38  1  0.43195976  0.66998005  0.51375578  1
  F  F39  1  0.93195976  0.83001995  0.48624422  1
  F  F40  1  0.26608714  0.49647277  0.43692457  1
  F  F41  1  0.23391286  0.50352723  0.93692457  1
  F  F42  1  0.73391286  0.99647277  0.06307543  1
  F  F43  1  0.43692457  0.26608714  0.49647277  1
  F  F44  1  0.76608714  0.00352723  0.56307543  1
  F  F45  1  0.93692457  0.23391286  0.50352723  1
  F  F46  1  0.06307543  0.73391286  0.99647277  1
  F  F47  1  0.56307543  0.76608714  0.00352723  1
  F  F48  1  0.49647277  0.43692457  0.26608714  1
  F  F49  1  0.99647277  0.06307543  0.73391286  1
  F  F50  1  0.00352723  0.56307543  0.76608714  1
  F  F51  1  0.50352723  0.93692457  0.23391286  1
  F  F52  1  0.04599584  0.80462927  0.23008511  1
  F  F53  1  0.45400416  0.19537073  0.73008511  1
  F  F54  1  0.95400416  0.30462927  0.26991489  1
  F  F55  1  0.23008511  0.04599584  0.80462927  1
  F  F56  1  0.54599584  0.69537073  0.76991489  1
  F  F57  1  0.73008511  0.45400416  0.19537073  1
  F  F58  1  0.26991489  0.95400416  0.30462927  1
  F  F59  1  0.76991489  0.54599584  0.69537073  1
  F  F60  1  0.80462927  0.23008511  0.04599584  1
  F  F61  1  0.30462927  0.26991489  0.95400416  1
  F  F62  1  0.69537073  0.76991489  0.54599584  1
  F  F63  1  0.19537073  0.73008511  0.45400416  1
  F  F64  1  0.16404694  0.25654839  0.40259474  1
  F  F65  1  0.33595306  0.74345161  0.90259474  1
  F  F66  1  0.83595306  0.75654839  0.09740526  1
  F  F67  1  0.40259474  0.16404694  0.25654839  1
  F  F68  1  0.66404694  0.24345161  0.59740526  1
  F  F69  1  0.90259474  0.33595306  0.74345161  1
  F  F70  1  0.09740526  0.83595306  0.75654839  1
  F  F71  1  0.59740526  0.66404694  0.24345161  1
  F  F72  1  0.25654839  0.40259474  0.16404694  1
  F  F73  1  0.75654839  0.09740526  0.83595306  1
  F  F74  1  0.24345161  0.59740526  0.66404694  1
  F  F75  1  0.74345161  0.90259474  0.33595306  1
