# generated using pymatgen
data_La6Mn9Al5
_symmetry_space_group_name_H-M   'P 1'
_cell_length_a   8.30043471
_cell_length_b   8.30043471
_cell_length_c   13.14734234
_cell_angle_alpha   108.40124868
_cell_angle_beta   108.40124868
_cell_angle_gamma   90.00000000
_symmetry_Int_Tables_number   1
_chemical_formula_structural   La6Mn9Al5
_chemical_formula_sum   'La12 Mn18 Al10'
_cell_volume   810.54286670
_cell_formula_units_Z   2
loop_
 _symmetry_equiv_pos_site_id
 _symmetry_equiv_pos_as_xyz
  1  'x, y, z'
loop_
 _atom_site_type_symbol
 _atom_site_label
 _atom_site_symmetry_multiplicity
 _atom_site_fract_x
 _atom_site_fract_y
 _atom_site_fract_z
 _atom_site_occupancy
  La  La0  1  0.35772828  0.85772828  0.38093444  1
  La  La1  1  0.64227172  0.14227172  0.61906556  1
  La  La2  1  0.02320616  0.52320616  0.38093444  1
  La  La3  1  0.52320616  0.35772828  0.38093444  1
  La  La4  1  0.14227172  0.97679384  0.61906556  1
  La  La5  1  0.97679384  0.47679384  0.61906556  1
  La  La6  1  0.47679384  0.64227172  0.61906556  1
  La  La7  1  0.85772828  0.02320616  0.38093444  1
  La  La8  1  0.10665895  0.10665895  0.21331790  1
  La  La9  1  0.89334105  0.89334105  0.78668210  1
  La  La10  1  0.39334105  0.39334105  0.78668210  1
  La  La11  1  0.60665895  0.60665895  0.21331790  1
  Mn  Mn12  1  0.07026560  0.21058281  -0.00000000  1
  Mn  Mn13  1  0.92973440  0.78941719  0.00000000  1
  Mn  Mn14  1  0.78941719  0.07026560  -0.00000000  1
  Mn  Mn15  1  0.42973440  0.71058281  0.00000000  1
  Mn  Mn16  1  0.21058281  0.92973440  0.00000000  1
  Mn  Mn17  1  0.57026560  0.28941719  -0.00000000  1
  Mn  Mn18  1  0.71058281  0.57026560  -0.00000000  1
  Mn  Mn19  1  0.28941719  0.42973440  0.00000000  1
  Mn  Mn20  1  0.22799482  0.72799482  0.10707468  1
  Mn  Mn21  1  0.77200518  0.27200518  0.89292532  1
  Mn  Mn22  1  0.87907986  0.37907986  0.10707468  1
  Mn  Mn23  1  0.37907986  0.22799482  0.10707468  1
  Mn  Mn24  1  0.27200518  0.12092014  0.89292532  1
  Mn  Mn25  1  0.12092014  0.62092014  0.89292532  1
  Mn  Mn26  1  0.62092014  0.77200518  0.89292532  1
  Mn  Mn27  1  0.72799482  0.87907986  0.10707468  1
  Mn  Mn28  1  -0.00000000  0.50000000  -0.00000000  1
  Mn  Mn29  1  0.50000000  -0.00000000  -0.00000000  1
  Al  Al30  1  0.71437991  0.21437991  0.18653464  1
  Al  Al31  1  0.28562009  0.78562009  0.81346536  1
  Al  Al32  1  0.47215474  0.97215474  0.18653464  1
  Al  Al33  1  0.97215474  0.71437991  0.18653464  1
  Al  Al34  1  0.78562009  0.52784526  0.81346536  1
  Al  Al35  1  0.52784526  0.02784526  0.81346536  1
  Al  Al36  1  0.02784526  0.28562009  0.81346536  1
  Al  Al37  1  0.21437991  0.47215474  0.18653464  1
  Al  Al38  1  0.25000000  0.25000000  0.50000000  1
  Al  Al39  1  0.75000000  0.75000000  0.50000000  1
