# generated using pymatgen
data_KMg3(SiO3)4
_symmetry_space_group_name_H-M   'P 1'
_cell_length_a   5.25848756
_cell_length_b   5.32881328
_cell_length_c   10.19198694
_cell_angle_alpha   85.80144941
_cell_angle_beta   81.46669968
_cell_angle_gamma   60.43560983
_symmetry_Int_Tables_number   1
_chemical_formula_structural   KMg3(SiO3)4
_chemical_formula_sum   'K1 Mg3 Si4 O12'
_cell_volume   245.66084945
_cell_formula_units_Z   1
loop_
 _symmetry_equiv_pos_site_id
 _symmetry_equiv_pos_as_xyz
  1  'x, y, z'
loop_
 _atom_site_type_symbol
 _atom_site_label
 _atom_site_symmetry_multiplicity
 _atom_site_fract_x
 _atom_site_fract_y
 _atom_site_fract_z
 _atom_site_occupancy
  K  K0  1  0.86793826  -0.00000000  0.37990610  1
  Mg  Mg1  1  0.70156755  0.33041652  0.87991832  1
  Mg  Mg2  1  0.03198407  0.66958348  0.87991832  1
  Mg  Mg3  1  0.36641248  -0.00000000  0.88001895  1
  Si  Si4  1  0.45683950  0.66639089  0.60519726  1
  Si  Si5  1  0.12323039  0.33360911  0.60519726  1
  Si  Si6  1  0.60820883  0.66642830  0.15477976  1
  Si  Si7  1  0.27463713  0.33357170  0.15477976  1
  O  O8  1  0.31572367  0.33934407  0.99566294  1
  O  O9  1  0.65506774  0.66065593  0.99566294  1
  O  O10  1  0.42296071  0.49953631  0.22013972  1
  O  O11  1  0.92249702  0.50046369  0.22013972  1
  O  O12  1  0.30859997  0.50035548  0.53988825  1
  O  O13  1  0.80895546  0.49964452  0.53988825  1
  O  O14  1  0.42271057  -0.00000000  0.21625791  1
  O  O15  1  0.99300615  -0.00000000  0.97602148  1
  O  O16  1  0.30892143  0.00000000  0.54380929  1
  O  O17  1  0.41573530  0.66040825  0.76439569  1
  O  O18  1  0.07614354  0.33959175  0.76439569  1
  O  O19  1  0.73886022  0.00000000  0.78402237  1
