# generated using pymatgen
data_MgSnAsO5
_symmetry_space_group_name_H-M   'P 1'
_cell_length_a   9.00213538
_cell_length_b   6.37064644
_cell_length_c   9.08609497
_cell_angle_alpha   89.93011485
_cell_angle_beta   110.43303139
_cell_angle_gamma   90.13981282
_symmetry_Int_Tables_number   1
_chemical_formula_structural   MgSnAsO5
_chemical_formula_sum   'Mg4 Sn4 As4 O20'
_cell_volume   488.29476174
_cell_formula_units_Z   4
loop_
 _symmetry_equiv_pos_site_id
 _symmetry_equiv_pos_as_xyz
  1  'x, y, z'
loop_
 _atom_site_type_symbol
 _atom_site_label
 _atom_site_symmetry_multiplicity
 _atom_site_fract_x
 _atom_site_fract_y
 _atom_site_fract_z
 _atom_site_occupancy
  Mg  Mg0  1  0.97042205  0.74620585  0.03301605  1
  Mg  Mg1  1  0.59714492  0.25389602  0.59191190  1
  Mg  Mg2  1  0.40351198  0.75498998  0.90413785  1
  Mg  Mg3  1  0.02349060  0.24792472  0.47089828  1
  Sn  Sn4  1  -0.00065121  0.49597337  0.75300924  1
  Sn  Sn5  1  0.49998597  0.50459364  0.24840977  1
  Sn  Sn6  1  0.50185358  0.00462960  0.24791806  1
  Sn  Sn7  1  -0.00139750  0.99551020  0.75137769  1
  As  As8  1  0.60921380  0.25687718  0.96038374  1
  As  As9  1  0.88698376  0.74570072  0.37881190  1
  As  As10  1  0.11381117  0.24552291  0.12478108  1
  As  As11  1  0.39204169  0.75498287  0.53483875  1
  O  O12  1  0.83607513  0.24597347  0.70628902  1
  O  O13  1  0.68306545  0.75287073  0.30370572  1
  O  O14  1  0.31790655  0.25169580  0.18993863  1
  O  O15  1  0.16185249  0.74681003  0.79305242  1
  O  O16  1  0.51112662  0.25868952  0.76229964  1
  O  O17  1  0.97014577  0.73691472  0.24147835  1
  O  O18  1  0.03934285  0.23615068  0.26832805  1
  O  O19  1  0.48847129  0.75893490  0.73319349  1
  O  O20  1  0.50680494  0.02895075  0.02223681  1
  O  O21  1  0.94471511  0.96357415  0.49759255  1
  O  O22  1  0.05060373  0.46284644  0.00593130  1
  O  O23  1  0.49644095  0.52833611  0.47462093  1
  O  O24  1  0.50580552  0.48186982  0.02293360  1
  O  O25  1  0.94118344  0.52854940  0.49877131  1
  O  O26  1  0.05310427  0.02850964  0.00491027  1
  O  O27  1  0.49682245  0.98060899  0.47361366  1
  O  O28  1  0.87046780  0.74512981  0.79324785  1
  O  O29  1  0.64227717  0.25545179  0.33442474  1
  O  O30  1  0.35986577  0.75492541  0.16185872  1
  O  O31  1  0.12750988  0.24640279  0.71207863  1
