# generated using pymatgen
data_Dy3Cu20Sb11
_symmetry_space_group_name_H-M   'P 1'
_cell_length_a   11.94414468
_cell_length_b   11.94414468
_cell_length_c   11.94414468
_cell_angle_alpha   60.00000000
_cell_angle_beta   60.00000000
_cell_angle_gamma   60.00000000
_symmetry_Int_Tables_number   1
_chemical_formula_structural   Dy3Cu20Sb11
_chemical_formula_sum   'Dy6 Cu40 Sb22'
_cell_volume   1204.89768096
_cell_formula_units_Z   2
loop_
 _symmetry_equiv_pos_site_id
 _symmetry_equiv_pos_as_xyz
  1  'x, y, z'
loop_
 _atom_site_type_symbol
 _atom_site_label
 _atom_site_symmetry_multiplicity
 _atom_site_fract_x
 _atom_site_fract_y
 _atom_site_fract_z
 _atom_site_occupancy
  Dy  Dy0  1  0.99123799  0.99123799  0.50876201  1
  Dy  Dy1  1  0.50876201  0.50876201  0.99123799  1
  Dy  Dy2  1  0.99123799  0.50876201  0.99123799  1
  Dy  Dy3  1  0.50876201  0.99123799  0.50876201  1
  Dy  Dy4  1  0.50876201  0.99123799  0.99123799  1
  Dy  Dy5  1  0.99123799  0.50876201  0.50876201  1
  Cu  Cu6  1  0.13304579  0.74903700  0.74903700  1
  Cu  Cu7  1  0.36888021  0.74903700  0.74903700  1
  Cu  Cu8  1  0.74903700  0.36888021  0.13304579  1
  Cu  Cu9  1  0.74903700  0.74903700  0.13304579  1
  Cu  Cu10  1  0.74903700  0.13304579  0.36888021  1
  Cu  Cu11  1  0.74903700  0.74903700  0.36888021  1
  Cu  Cu12  1  0.36888021  0.13304579  0.74903700  1
  Cu  Cu13  1  0.13304579  0.36888021  0.74903700  1
  Cu  Cu14  1  0.74903700  0.13304579  0.74903700  1
  Cu  Cu15  1  0.13304579  0.74903700  0.36888021  1
  Cu  Cu16  1  0.36888021  0.74903700  0.13304579  1
  Cu  Cu17  1  0.74903700  0.36888021  0.74903700  1
  Cu  Cu18  1  0.30138400  0.30138400  0.30138400  1
  Cu  Cu19  1  0.09584801  0.30138400  0.30138400  1
  Cu  Cu20  1  0.30138400  0.09584801  0.30138400  1
  Cu  Cu21  1  0.30138400  0.30138400  0.09584801  1
  Cu  Cu22  1  0.27476703  0.49649082  0.49649082  1
  Cu  Cu23  1  0.73225133  0.49649082  0.49649082  1
  Cu  Cu24  1  0.49649082  0.73225133  0.27476703  1
  Cu  Cu25  1  0.49649082  0.49649082  0.27476703  1
  Cu  Cu26  1  0.49649082  0.27476703  0.73225133  1
  Cu  Cu27  1  0.49649082  0.49649082  0.73225133  1
  Cu  Cu28  1  0.73225133  0.27476703  0.49649082  1
  Cu  Cu29  1  0.27476703  0.73225133  0.49649082  1
  Cu  Cu30  1  0.49649082  0.27476703  0.49649082  1
  Cu  Cu31  1  0.27476703  0.49649082  0.73225133  1
  Cu  Cu32  1  0.73225133  0.49649082  0.27476703  1
  Cu  Cu33  1  0.49649082  0.73225133  0.49649082  1
  Cu  Cu34  1  0.76742577  0.00318548  0.00318548  1
  Cu  Cu35  1  0.22620327  0.00318548  0.00318548  1
  Cu  Cu36  1  0.00318548  0.22620327  0.76742577  1
  Cu  Cu37  1  0.00318548  0.00318548  0.76742577  1
  Cu  Cu38  1  0.00318548  0.76742577  0.22620327  1
  Cu  Cu39  1  0.00318548  0.00318548  0.22620327  1
  Cu  Cu40  1  0.22620327  0.76742577  0.00318548  1
  Cu  Cu41  1  0.76742577  0.22620327  0.00318548  1
  Cu  Cu42  1  0.00318548  0.76742577  0.00318548  1
  Cu  Cu43  1  0.76742577  0.00318548  0.22620327  1
  Cu  Cu44  1  0.22620327  0.00318548  0.76742577  1
  Cu  Cu45  1  0.00318548  0.22620327  0.00318548  1
  Sb  Sb46  1  0.56361921  0.24930897  0.24930897  1
  Sb  Sb47  1  0.93776286  0.24930897  0.24930897  1
  Sb  Sb48  1  0.24930897  0.93776286  0.56361921  1
  Sb  Sb49  1  0.24930897  0.24930897  0.56361921  1
  Sb  Sb50  1  0.24930897  0.56361921  0.93776286  1
  Sb  Sb51  1  0.24930897  0.24930897  0.93776286  1
  Sb  Sb52  1  0.93776286  0.56361921  0.24930897  1
  Sb  Sb53  1  0.56361921  0.93776286  0.24930897  1
  Sb  Sb54  1  0.24930897  0.56361921  0.24930897  1
  Sb  Sb55  1  0.56361921  0.24930897  0.93776286  1
  Sb  Sb56  1  0.93776286  0.24930897  0.56361921  1
  Sb  Sb57  1  0.24930897  0.93776286  0.24930897  1
  Sb  Sb58  1  0.85191006  0.85191006  0.85191006  1
  Sb  Sb59  1  0.44426983  0.85191006  0.85191006  1
  Sb  Sb60  1  0.85191006  0.44426983  0.85191006  1
  Sb  Sb61  1  0.85191006  0.85191006  0.44426983  1
  Sb  Sb62  1  0.00000000  0.00000000  -0.00000000  1
  Sb  Sb63  1  0.64793544  0.64793544  0.64793544  1
  Sb  Sb64  1  0.05619368  0.64793544  0.64793544  1
  Sb  Sb65  1  0.64793544  0.05619368  0.64793544  1
  Sb  Sb66  1  0.64793544  0.64793544  0.05619368  1
  Sb  Sb67  1  0.50000000  0.50000000  0.50000000  1
