# generated using pymatgen
data_La3NbGa5O14
_symmetry_space_group_name_H-M   'P 1'
_cell_length_a   5.24665238
_cell_length_b   8.32263871
_cell_length_c   8.32263871
_cell_angle_alpha   120.00000611
_cell_angle_beta   90.00000000
_cell_angle_gamma   90.00000000
_symmetry_Int_Tables_number   1
_chemical_formula_structural   La3NbGa5O14
_chemical_formula_sum   'La3 Nb1 Ga5 O14'
_cell_volume   314.72770851
_cell_formula_units_Z   1
loop_
 _symmetry_equiv_pos_site_id
 _symmetry_equiv_pos_as_xyz
  1  'x, y, z'
loop_
 _atom_site_type_symbol
 _atom_site_label
 _atom_site_symmetry_multiplicity
 _atom_site_fract_x
 _atom_site_fract_y
 _atom_site_fract_z
 _atom_site_occupancy
  La  La0  1  -0.00000000  0.42486330  0.42486330  1
  La  La1  1  0.00000000  0.00000000  0.57513670  1
  La  La2  1  0.00000000  0.57513670  0.00000000  1
  Nb  Nb3  1  -0.00000000  -0.00000000  -0.00000000  1
  Ga  Ga4  1  0.47063508  0.66666700  0.33333300  1
  Ga  Ga5  1  0.52936492  0.33333300  0.66666700  1
  Ga  Ga6  1  0.50000000  0.75666824  0.75666824  1
  Ga  Ga7  1  0.50000000  1.00000000  0.24333176  1
  Ga  Ga8  1  0.50000000  0.24333176  1.00000000  1
  O  O9  1  0.75804165  0.85373336  0.07798040  1
  O  O10  1  0.75804165  0.22424704  0.14626664  1
  O  O11  1  0.24195835  0.77575296  0.92201960  1
  O  O12  1  0.75804165  0.92201960  0.77575296  1
  O  O13  1  0.24195835  0.07798040  0.85373336  1
  O  O14  1  0.24195835  0.14626664  0.22424704  1
  O  O15  1  0.81815359  0.66666700  0.33333300  1
  O  O16  1  0.18184641  0.33333300  0.66666700  1
  O  O17  1  0.69804681  0.54238999  0.68869192  1
  O  O18  1  0.69804681  0.14630193  0.45761001  1
  O  O19  1  0.30195319  0.85369807  0.31130808  1
  O  O20  1  0.69804681  0.31130808  0.85369807  1
  O  O21  1  0.30195319  0.68869192  0.54238999  1
  O  O22  1  0.30195319  0.45761001  0.14630193  1
