# generated using pymatgen
data_K3CrF6
_symmetry_space_group_name_H-M   'P 1'
_cell_length_a   6.70658777
_cell_length_b   8.33986254
_cell_length_c   6.71563908
_cell_angle_alpha   128.43122377
_cell_angle_beta   77.16089826
_cell_angle_gamma   110.94040065
_symmetry_Int_Tables_number   1
_chemical_formula_structural   K3CrF6
_chemical_formula_sum   'K3 Cr1 F6'
_cell_volume   274.80919757
_cell_formula_units_Z   1
loop_
 _symmetry_equiv_pos_site_id
 _symmetry_equiv_pos_as_xyz
  1  'x, y, z'
loop_
 _atom_site_type_symbol
 _atom_site_label
 _atom_site_symmetry_multiplicity
 _atom_site_fract_x
 _atom_site_fract_y
 _atom_site_fract_z
 _atom_site_occupancy
  K  K0  1  0.50000000  0.00000000  -0.00000000  1
  K  K1  1  0.00000000  0.50000000  0.50000000  1
  K  K2  1  0.00000000  0.00000000  0.50000000  1
  Cr  Cr3  1  0.00000000  0.00000000  -0.00000000  1
  F  F4  1  0.78341187  0.04574722  0.26658804  1
  F  F5  1  0.21658813  0.95425278  0.73341196  1
  F  F6  1  0.78825531  0.78021812  0.72673052  1
  F  F7  1  0.21174469  0.21978188  0.27326948  1
  F  F8  1  0.07136626  0.78938659  0.99767935  1
  F  F9  1  0.92863374  0.21061341  0.00232065  1
