# generated using pymatgen
data_KMg3(SiO3)4
_symmetry_space_group_name_H-M   'P 1'
_cell_length_a   5.31699159
_cell_length_b   5.29427076
_cell_length_c   20.79198215
_cell_angle_alpha   87.50933376
_cell_angle_beta   85.03530572
_cell_angle_gamma   59.85793654
_symmetry_Int_Tables_number   1
_chemical_formula_structural   KMg3(SiO3)4
_chemical_formula_sum   'K2 Mg6 Si8 O24'
_cell_volume   504.24629721
_cell_formula_units_Z   2
loop_
 _symmetry_equiv_pos_site_id
 _symmetry_equiv_pos_as_xyz
  1  'x, y, z'
loop_
 _atom_site_type_symbol
 _atom_site_label
 _atom_site_symmetry_multiplicity
 _atom_site_fract_x
 _atom_site_fract_y
 _atom_site_fract_z
 _atom_site_occupancy
  K  K0  1  0.41406460  0.17187081  0.75000000  1
  K  K1  1  0.58593540  0.82812919  0.25000000  1
  Mg  Mg2  1  0.33624361  0.83469237  0.00004724  1
  Mg  Mg3  1  0.66375639  0.16530763  -0.00004724  1
  Mg  Mg4  1  0.82906402  0.83469237  0.49995276  1
  Mg  Mg5  1  0.17093598  0.16530763  0.50004724  1
  Mg  Mg6  1  0.50000000  0.50000000  0.50000000  1
  Mg  Mg7  1  0.00000000  0.50000000  0.00000000  1
  Si  Si8  1  0.71214187  0.50667104  0.86687636  1
  Si  Si9  1  0.28785813  0.49332896  0.13312364  1
  Si  Si10  1  0.78118710  0.50667104  0.63312364  1
  Si  Si11  1  0.21881290  0.49332896  0.36687636  1
  Si  Si12  1  0.11165806  0.84069127  0.63323738  1
  Si  Si13  1  0.88834194  0.15930873  0.36676262  1
  Si  Si14  1  0.04765068  0.84069127  0.86676262  1
  Si  Si15  1  0.95234932  0.15930873  0.13323738  1
  O  O16  1  0.13896443  0.83063241  0.55566651  1
  O  O17  1  0.86103557  0.16936759  0.44433349  1
  O  O18  1  0.03040316  0.83063241  0.94433349  1
  O  O19  1  0.96959684  0.16936759  0.05566651  1
  O  O20  1  0.43633440  0.67550538  0.66336361  1
  O  O21  1  0.56366560  0.32449462  0.33663639  1
  O  O22  1  0.88816022  0.67550538  0.83663639  1
  O  O23  1  0.11183978  0.32449462  0.16336361  1
  O  O24  1  0.69028917  0.49086009  0.94450649  1
  O  O25  1  0.30971083  0.50913991  0.05549351  1
  O  O26  1  0.81885074  0.49086009  0.55549351  1
  O  O27  1  0.18114926  0.50913991  0.44450649  1
  O  O28  1  0.39102596  0.67668835  0.83525859  1
  O  O29  1  0.60897404  0.32331165  0.16474141  1
  O  O30  1  0.93228569  0.67668835  0.66474141  1
  O  O31  1  0.06771431  0.32331165  0.33525859  1
  O  O32  1  0.48478874  0.15730111  0.54738128  1
  O  O33  1  0.51521126  0.84269889  0.45261872  1
  O  O34  1  0.35791015  0.15730111  0.95261872  1
  O  O35  1  0.64208985  0.84269889  0.04738128  1
  O  O36  1  0.89067979  0.17347035  0.83497715  1
  O  O37  1  0.10932021  0.82652965  0.16502285  1
  O  O38  1  0.93584987  0.17347035  0.66502285  1
  O  O39  1  0.06415013  0.82652965  0.33497715  1
