# generated using pymatgen
data_KSm(WO4)2
_symmetry_space_group_name_H-M   'P 1'
_cell_length_a   5.26166296
_cell_length_b   8.26662001
_cell_length_c   18.67189389
_cell_angle_alpha   90.00000000
_cell_angle_beta   90.00000000
_cell_angle_gamma   90.00000000
_symmetry_Int_Tables_number   1
_chemical_formula_structural   KSm(WO4)2
_chemical_formula_sum   'K4 Sm4 W8 O32'
_cell_volume   812.15583932
_cell_formula_units_Z   4
loop_
 _symmetry_equiv_pos_site_id
 _symmetry_equiv_pos_as_xyz
  1  'x, y, z'
loop_
 _atom_site_type_symbol
 _atom_site_label
 _atom_site_symmetry_multiplicity
 _atom_site_fract_x
 _atom_site_fract_y
 _atom_site_fract_z
 _atom_site_occupancy
  K  K0  1  -0.00000000  0.75000000  0.23002177  1
  K  K1  1  0.00000000  0.25000000  0.76997823  1
  K  K2  1  0.50000000  0.25000000  0.26997823  1
  K  K3  1  0.50000000  0.75000000  0.73002177  1
  Sm  Sm4  1  -0.00000000  0.75000000  0.99326181  1
  Sm  Sm5  1  -0.00000000  0.25000000  0.00673819  1
  Sm  Sm6  1  0.50000000  0.25000000  0.50673819  1
  Sm  Sm7  1  0.50000000  0.75000000  0.49326181  1
  W  W8  1  0.97750037  0.98288990  0.60073997  1
  W  W9  1  0.02249963  0.01711010  0.39926003  1
  W  W10  1  0.52249963  0.48288990  0.89926003  1
  W  W11  1  0.02249963  0.51711010  0.60073997  1
  W  W12  1  0.47750037  0.51711010  0.10073997  1
  W  W13  1  0.97750037  0.48288990  0.39926003  1
  W  W14  1  0.47750037  0.01711010  0.89926003  1
  W  W15  1  0.52249963  0.98288990  0.10073997  1
  O  O16  1  0.89855529  0.52432056  0.68902828  1
  O  O17  1  0.10144471  0.47567944  0.31097172  1
  O  O18  1  0.60144471  0.02432056  0.81097172  1
  O  O19  1  0.10144471  0.97567944  0.68902828  1
  O  O20  1  0.39855529  0.97567944  0.18902828  1
  O  O21  1  0.89855529  0.02432056  0.31097172  1
  O  O22  1  0.39855529  0.47567944  0.81097172  1
  O  O23  1  0.60144471  0.52432056  0.18902828  1
  O  O24  1  0.72720832  0.66005453  0.90098980  1
  O  O25  1  0.27279168  0.33994547  0.09901020  1
  O  O26  1  0.77279168  0.16005453  0.59901020  1
  O  O27  1  0.27279168  0.83994547  0.90098980  1
  O  O28  1  0.22720832  0.83994547  0.40098980  1
  O  O29  1  0.72720832  0.16005453  0.09901020  1
  O  O30  1  0.22720832  0.33994547  0.59901020  1
  O  O31  1  0.77279168  0.66005453  0.40098980  1
  O  O32  1  0.74648532  0.99596605  0.96530038  1
  O  O33  1  0.25351468  0.00403395  0.03469962  1
  O  O34  1  0.75351468  0.49596605  0.53469962  1
  O  O35  1  0.25351468  0.50403395  0.96530038  1
  O  O36  1  0.24648532  0.50403395  0.46530038  1
  O  O37  1  0.74648532  0.49596605  0.03469962  1
  O  O38  1  0.24648532  0.00403395  0.53469962  1
  O  O39  1  0.75351468  0.99596605  0.46530038  1
  O  O40  1  0.75816609  0.81011536  0.59265570  1
  O  O41  1  0.24183391  0.18988464  0.40734430  1
  O  O42  1  0.74183391  0.31011536  0.90734430  1
  O  O43  1  0.24183391  0.68988464  0.59265570  1
  O  O44  1  0.25816609  0.68988464  0.09265570  1
  O  O45  1  0.75816609  0.31011536  0.40734430  1
  O  O46  1  0.25816609  0.18988464  0.90734430  1
  O  O47  1  0.74183391  0.81011536  0.09265570  1
