# generated using pymatgen
data_K3RhF6
_symmetry_space_group_name_H-M   'P 1'
_cell_length_a   6.72933111
_cell_length_b   8.07979678
_cell_length_c   6.64513249
_cell_angle_alpha   127.63617042
_cell_angle_beta   77.43924843
_cell_angle_gamma   111.50046112
_symmetry_Int_Tables_number   1
_chemical_formula_structural   K3RhF6
_chemical_formula_sum   'K3 Rh1 F6'
_cell_volume   266.20068626
_cell_formula_units_Z   1
loop_
 _symmetry_equiv_pos_site_id
 _symmetry_equiv_pos_as_xyz
  1  'x, y, z'
loop_
 _atom_site_type_symbol
 _atom_site_label
 _atom_site_symmetry_multiplicity
 _atom_site_fract_x
 _atom_site_fract_y
 _atom_site_fract_z
 _atom_site_occupancy
  K  K0  1  0.50000000  0.00000000  0.00000000  1
  K  K1  1  0.00000000  0.50000000  0.50000000  1
  K  K2  1  0.00000000  0.00000000  0.50000000  1
  Rh  Rh3  1  0.00000000  0.00000000  0.00000000  1
  F  F4  1  0.77702410  0.05357779  0.27716918  1
  F  F5  1  0.22297590  0.94642221  0.72283082  1
  F  F6  1  0.77860728  0.77862489  0.71522340  1
  F  F7  1  0.22139272  0.22137511  0.28477660  1
  F  F8  1  0.06169003  0.77071161  0.99764253  1
  F  F9  1  0.93830997  0.22928839  0.00235747  1
