# generated using pymatgen
data_KMg2(PO4)2
_symmetry_space_group_name_H-M   'P 1'
_cell_length_a   5.56826067
_cell_length_b   9.62901958
_cell_length_c   9.90423091
_cell_angle_alpha   119.05820531
_cell_angle_beta   106.32617198
_cell_angle_gamma   90.00000000
_symmetry_Int_Tables_number   1
_chemical_formula_structural   KMg2(PO4)2
_chemical_formula_sum   'K2 Mg4 P4 O16'
_cell_volume   439.53375708
_cell_formula_units_Z   2
loop_
 _symmetry_equiv_pos_site_id
 _symmetry_equiv_pos_as_xyz
  1  'x, y, z'
loop_
 _atom_site_type_symbol
 _atom_site_label
 _atom_site_symmetry_multiplicity
 _atom_site_fract_x
 _atom_site_fract_y
 _atom_site_fract_z
 _atom_site_occupancy
  K  K0  1  0.24565140  0.25000000  0.00000000  1
  K  K1  1  0.75434860  0.75000000  1.00000000  1
  Mg  Mg2  1  0.44542534  0.06586963  0.30239662  1
  Mg  Mg3  1  0.55457466  0.93413037  0.69760338  1
  Mg  Mg4  1  0.14302872  0.43413037  0.69760338  1
  Mg  Mg5  1  0.85697128  0.56586963  0.30239662  1
  P  P6  1  0.65604220  0.27927474  0.72345415  1
  P  P7  1  0.34395780  0.72072526  0.27654585  1
  P  P8  1  0.93258805  0.22072526  0.27654585  1
  P  P9  1  0.06741195  0.77927474  0.72345415  1
  O  O10  1  0.63910106  0.16634607  0.79161473  1
  O  O11  1  0.36089894  0.83365393  0.20838527  1
  O  O12  1  0.84748633  0.33365393  0.20838527  1
  O  O13  1  0.15251367  0.66634607  0.79161473  1
  O  O14  1  0.14981029  0.14140984  0.21461193  1
  O  O15  1  0.85018971  0.85859016  0.78538807  1
  O  O16  1  0.93519836  0.35859016  0.78538807  1
  O  O17  1  0.06480164  0.64140984  0.21461193  1
  O  O18  1  0.49281915  0.41220141  0.78723108  1
  O  O19  1  0.50718085  0.58779859  0.21276892  1
  O  O20  1  0.70558807  0.08779859  0.21276892  1
  O  O21  1  0.29441193  0.91220141  0.78723108  1
  O  O22  1  0.55616965  0.18229418  0.53618618  1
  O  O23  1  0.44383035  0.81770582  0.46381382  1
  O  O24  1  0.01998347  0.31770582  0.46381382  1
  O  O25  1  0.98001653  0.68229418  0.53618618  1
