# generated using pymatgen
data_Ca(CoS2)4
_symmetry_space_group_name_H-M   'P 1'
_cell_length_a   6.82221637
_cell_length_b   6.94503419
_cell_length_c   6.94503492
_cell_angle_alpha   60.00000091
_cell_angle_beta   59.40266610
_cell_angle_gamma   59.40266090
_symmetry_Int_Tables_number   1
_chemical_formula_structural   Ca(CoS2)4
_chemical_formula_sum   'Ca1 Co4 S8'
_cell_volume   230.55715438
_cell_formula_units_Z   1
loop_
 _symmetry_equiv_pos_site_id
 _symmetry_equiv_pos_as_xyz
  1  'x, y, z'
loop_
 _atom_site_type_symbol
 _atom_site_label
 _atom_site_symmetry_multiplicity
 _atom_site_fract_x
 _atom_site_fract_y
 _atom_site_fract_z
 _atom_site_occupancy
  Ca  Ca0  1  0.50000000  0.00000000  0.00000000  1
  Co  Co1  1  0.00000000  0.50000000  0.50000000  1
  Co  Co2  1  0.50000000  0.50000000  0.00000000  1
  Co  Co3  1  0.50000000  0.50000000  0.50000000  1
  Co  Co4  1  0.50000000  0.00000000  0.50000000  1
  S  S5  1  0.26194360  0.27159771  0.27159771  1
  S  S6  1  0.26194360  0.27159771  0.69486099  1
  S  S7  1  0.26194360  0.69486098  0.27159771  1
  S  S8  1  0.69981746  0.26672718  0.26672718  1
  S  S9  1  0.30018254  0.73327282  0.73327282  1
  S  S10  1  0.73805640  0.72840229  0.30513901  1
  S  S11  1  0.73805640  0.30513902  0.72840229  1
  S  S12  1  0.73805640  0.72840229  0.72840229  1
