# generated using pymatgen
data_YZr2Co9
_symmetry_space_group_name_H-M   'P 1'
_cell_length_a   4.84793560
_cell_length_b   4.84793579
_cell_length_c   8.47427335
_cell_angle_alpha   90.00000000
_cell_angle_beta   73.37907027
_cell_angle_gamma   120.00000125
_symmetry_Int_Tables_number   1
_chemical_formula_structural   YZr2Co9
_chemical_formula_sum   'Y1 Zr2 Co9'
_cell_volume   162.80343256
_cell_formula_units_Z   1
loop_
 _symmetry_equiv_pos_site_id
 _symmetry_equiv_pos_as_xyz
  1  'x, y, z'
loop_
 _atom_site_type_symbol
 _atom_site_label
 _atom_site_symmetry_multiplicity
 _atom_site_fract_x
 _atom_site_fract_y
 _atom_site_fract_z
 _atom_site_occupancy
  Y  Y0  1  0.27905178  0.13952589  0.58142232  1
  Zr  Zr1  1  0.72580977  0.86290489  0.41128534  1
  Zr  Zr2  1  0.99951429  0.99975715  0.00072856  1
  Co  Co3  1  0.66148073  0.58016796  0.75835131  1
  Co  Co4  1  0.16033592  0.58016796  0.75835131  1
  Co  Co5  1  0.66148073  0.08131277  0.75835131  1
  Co  Co6  1  0.33658461  0.41973502  0.24368037  1
  Co  Co7  1  0.83947005  0.41973502  0.24368037  1
  Co  Co8  1  0.33658461  0.91684958  0.24368037  1
  Co  Co9  1  0.66641267  0.33320634  0.00038099  1
  Co  Co10  1  0.33275019  0.66637510  0.00087471  1
  Co  Co11  1  0.00052465  0.50026232  0.49921303  1
