# generated using pymatgen
data_ZrMoWO8
_symmetry_space_group_name_H-M   'P 1'
_cell_length_a   5.96163123
_cell_length_b   5.96161432
_cell_length_c   6.47292934
_cell_angle_alpha   90.00003769
_cell_angle_beta   90.00028841
_cell_angle_gamma   119.99995999
_symmetry_Int_Tables_number   1
_chemical_formula_structural   ZrMoWO8
_chemical_formula_sum   'Zr1 Mo1 W1 O8'
_cell_volume   199.23271700
_cell_formula_units_Z   1
loop_
 _symmetry_equiv_pos_site_id
 _symmetry_equiv_pos_as_xyz
  1  'x, y, z'
loop_
 _atom_site_type_symbol
 _atom_site_label
 _atom_site_symmetry_multiplicity
 _atom_site_fract_x
 _atom_site_fract_y
 _atom_site_fract_z
 _atom_site_occupancy
  Zr  Zr0  1  0.99999992  -0.00000002  0.00224645  1
  Mo  Mo1  1  0.33333723  0.66666843  0.28159222  1
  W  W2  1  0.66666225  0.33333132  0.71817090  1
  O  O3  1  0.33333949  0.66666955  0.54872083  1
  O  O4  1  0.66666055  0.33333025  0.44709853  1
  O  O5  1  0.66472774  0.83236398  0.18648354  1
  O  O6  1  0.16763905  0.83236343  0.18648454  1
  O  O7  1  0.16763897  0.33527575  0.18648456  1
  O  O8  1  0.33239786  0.16619884  0.81423967  1
  O  O9  1  0.83379850  0.16619942  0.81423928  1
  O  O10  1  0.83379844  0.66759906  0.81423950  1
