# generated using pymatgen
data_ZrTaTe4
_symmetry_space_group_name_H-M   'P 1'
_cell_length_a   3.83564301
_cell_length_b   3.83564197
_cell_length_c   14.50820696
_cell_angle_alpha   89.95704380
_cell_angle_beta   89.95704380
_cell_angle_gamma   59.89251065
_symmetry_Int_Tables_number   1
_chemical_formula_structural   ZrTaTe4
_chemical_formula_sum   'Zr1 Ta1 Te4'
_cell_volume   184.64988202
_cell_formula_units_Z   1
loop_
 _symmetry_equiv_pos_site_id
 _symmetry_equiv_pos_as_xyz
  1  'x, y, z'
loop_
 _atom_site_type_symbol
 _atom_site_label
 _atom_site_symmetry_multiplicity
 _atom_site_fract_x
 _atom_site_fract_y
 _atom_site_fract_z
 _atom_site_occupancy
  Zr  Zr0  1  0.00000000  -0.00000000  0.50000000  1
  Ta  Ta1  1  0.00000000  -0.00000000  -0.00000000  1
  Te  Te2  1  0.66679259  0.66679259  0.12197049  1
  Te  Te3  1  0.66667463  0.66667463  0.62868037  1
  Te  Te4  1  0.33332537  0.33332537  0.37131963  1
  Te  Te5  1  0.33320741  0.33320741  0.87802951  1
