# generated using pymatgen
data_Ca2PrGaCu2O7
_symmetry_space_group_name_H-M   'P 1'
_cell_length_a   5.44085822
_cell_length_b   5.61109001
_cell_length_c   11.76488943
_cell_angle_alpha   103.79611719
_cell_angle_beta   103.36966898
_cell_angle_gamma   90.00000000
_symmetry_Int_Tables_number   1
_chemical_formula_structural   Ca2PrGaCu2O7
_chemical_formula_sum   'Ca4 Pr2 Ga2 Cu4 O14'
_cell_volume   338.77833654
_cell_formula_units_Z   2
loop_
 _symmetry_equiv_pos_site_id
 _symmetry_equiv_pos_as_xyz
  1  'x, y, z'
loop_
 _atom_site_type_symbol
 _atom_site_label
 _atom_site_symmetry_multiplicity
 _atom_site_fract_x
 _atom_site_fract_y
 _atom_site_fract_z
 _atom_site_occupancy
  Ca  Ca0  1  0.37906866  0.30279637  0.69105926  1
  Ca  Ca1  1  0.68800940  0.69720363  0.30894074  1
  Ca  Ca2  1  0.87906866  0.88826289  0.69105926  1
  Ca  Ca3  1  0.18800940  0.11173711  0.30894074  1
  Pr  Pr4  1  0.00561276  0.00000000  0.00000000  1
  Pr  Pr5  1  0.50561276  0.50000000  0.00000000  1
  Ga  Ga6  1  0.30466658  0.67713363  0.50000000  1
  Ga  Ga7  1  0.80466658  0.32286637  0.50000000  1
  Cu  Cu8  1  0.92770374  0.42387924  0.83967713  1
  Cu  Cu9  1  0.08802660  0.57612076  0.16032287  1
  Cu  Cu10  1  0.42770374  0.91579789  0.83967713  1
  Cu  Cu11  1  0.58802660  0.08420211  0.16032287  1
  O  O12  1  0.65784274  0.63549979  0.50000000  1
  O  O13  1  0.15784274  0.36450021  0.50000000  1
  O  O14  1  0.78032047  0.25225025  0.64121258  1
  O  O15  1  0.13910788  0.74774975  0.35878742  1
  O  O16  1  0.28032047  0.88896234  0.64121258  1
  O  O17  1  0.63910788  0.11103766  0.35878742  1
  O  O18  1  0.18789194  0.18294229  0.86099592  1
  O  O19  1  0.32689602  0.81705771  0.13900408  1
  O  O20  1  0.68789194  0.17805364  0.86099592  1
  O  O21  1  0.82689602  0.82194636  0.13900408  1
  O  O22  1  0.68219567  0.67515310  0.85353813  1
  O  O23  1  0.82865754  0.32484690  0.14646187  1
  O  O24  1  0.18219567  0.67838503  0.85353813  1
  O  O25  1  0.32865754  0.32161497  0.14646187  1
