# generated using pymatgen
data_Zr3Fe8Mo
_symmetry_space_group_name_H-M   'P 1'
_cell_length_a   4.92158155
_cell_length_b   4.92158155
_cell_length_c   8.53488299
_cell_angle_alpha   73.24250309
_cell_angle_beta   90.00000000
_cell_angle_gamma   120.00000000
_symmetry_Int_Tables_number   1
_chemical_formula_structural   Zr3Fe8Mo
_chemical_formula_sum   'Zr3 Fe8 Mo1'
_cell_volume   168.82149990
_cell_formula_units_Z   1
loop_
 _symmetry_equiv_pos_site_id
 _symmetry_equiv_pos_as_xyz
  1  'x, y, z'
loop_
 _atom_site_type_symbol
 _atom_site_label
 _atom_site_symmetry_multiplicity
 _atom_site_fract_x
 _atom_site_fract_y
 _atom_site_fract_z
 _atom_site_occupancy
  Zr  Zr0  1  0.37541598  0.75083196  0.87375206  1
  Zr  Zr1  1  0.99709312  0.99418624  0.00872063  1
  Zr  Zr2  1  0.50256045  0.00512090  0.49231865  1
  Fe  Fe3  1  0.43576286  0.37226888  0.19196825  1
  Fe  Fe4  1  0.93833593  0.37832958  0.68333449  1
  Fe  Fe5  1  0.43576286  0.87152573  0.19196825  1
  Fe  Fe6  1  0.93833593  0.87667186  0.68333449  1
  Fe  Fe7  1  0.18795404  0.37590808  0.43613788  1
  Fe  Fe8  1  0.68725778  0.37451557  0.93822665  1
  Fe  Fe9  1  0.93650602  0.37226888  0.19196825  1
  Fe  Fe10  1  0.43999365  0.37832958  0.68333449  1
  Mo  Mo11  1  0.87502137  0.75004274  0.37493590  1
