# generated using pymatgen
data_V2MoS4
_symmetry_space_group_name_H-M   'P 1'
_cell_length_a   3.24475089
_cell_length_b   5.94336636
_cell_length_c   6.58242433
_cell_angle_alpha   114.20113277
_cell_angle_beta   75.73122945
_cell_angle_gamma   90.00000000
_symmetry_Int_Tables_number   1
_chemical_formula_structural   V2MoS4
_chemical_formula_sum   'V2 Mo1 S4'
_cell_volume   111.47651375
_cell_formula_units_Z   1
loop_
 _symmetry_equiv_pos_site_id
 _symmetry_equiv_pos_as_xyz
  1  'x, y, z'
loop_
 _atom_site_type_symbol
 _atom_site_label
 _atom_site_symmetry_multiplicity
 _atom_site_fract_x
 _atom_site_fract_y
 _atom_site_fract_z
 _atom_site_occupancy
  V  V0  1  0.00082771  0.99522446  0.99834457  1
  V  V1  1  0.74258035  0.31974467  0.51483929  1
  Mo  Mo2  1  0.25806978  0.68683937  0.48386044  1
  S  S3  1  0.89372419  0.43905754  0.21255161  1
  S  S4  1  0.10821070  0.54773173  0.78357861  1
  S  S5  1  0.36024299  0.98216461  0.27951402  1
  S  S6  1  0.63634427  0.02923763  0.72731145  1
