# generated using pymatgen
data_LaZnFeCoO6
_symmetry_space_group_name_H-M   'P 1'
_cell_length_a   5.53659796
_cell_length_b   5.31773727
_cell_length_c   7.62014640
_cell_angle_alpha   90.76293802
_cell_angle_beta   90.00000000
_cell_angle_gamma   90.00000000
_symmetry_Int_Tables_number   1
_chemical_formula_structural   LaZnFeCoO6
_chemical_formula_sum   'La2 Zn2 Fe2 Co2 O12'
_cell_volume   224.33378134
_cell_formula_units_Z   2
loop_
 _symmetry_equiv_pos_site_id
 _symmetry_equiv_pos_as_xyz
  1  'x, y, z'
loop_
 _atom_site_type_symbol
 _atom_site_label
 _atom_site_symmetry_multiplicity
 _atom_site_fract_x
 _atom_site_fract_y
 _atom_site_fract_z
 _atom_site_occupancy
  La  La0  1  0.02764781  0.98983917  0.25029215  1
  La  La1  1  0.47235219  0.48983917  0.75029215  1
  Zn  Zn2  1  0.53456308  0.52807809  0.25105536  1
  Zn  Zn3  1  0.96543692  0.02807809  0.75105536  1
  Fe  Fe4  1  0.50302650  0.00002991  0.00218736  1
  Fe  Fe5  1  0.99697350  0.50002991  0.50218736  1
  Co  Co6  1  0.50183311  -0.00140637  0.49860269  1
  Co  Co7  1  0.99816689  0.49859363  -0.00139731  1
  O  O8  1  0.01361430  0.64030246  0.75356412  1
  O  O9  1  0.20460722  0.20301593  0.94327079  1
  O  O10  1  0.20437429  0.19890677  0.55686167  1
  O  O11  1  0.29562571  0.69890677  0.05686167  1
  O  O12  1  0.29539278  0.70301593  0.44327079  1
  O  O13  1  0.48638570  0.14030246  0.25356312  1
  O  O14  1  0.52816747  0.92380784  0.74661833  1
  O  O15  1  0.74160304  0.25754970  0.55567282  1
  O  O16  1  0.74488353  0.25987549  0.94187472  1
  O  O17  1  0.75511647  0.75987549  0.44187472  1
  O  O18  1  0.75839696  0.75754970  0.05567282  1
  O  O19  1  0.97183253  0.42380784  0.24661833  1
