# generated using pymatgen
data_Y2Cu3Si
_symmetry_space_group_name_H-M   'P 1'
_cell_length_a   3.65166188
_cell_length_b   4.15981793
_cell_length_c   7.38202013
_cell_angle_alpha   89.92705120
_cell_angle_beta   90.00000000
_cell_angle_gamma   90.00000000
_symmetry_Int_Tables_number   1
_chemical_formula_structural   Y2Cu3Si
_chemical_formula_sum   'Y2 Cu3 Si1'
_cell_volume   112.13462981
_cell_formula_units_Z   1
loop_
 _symmetry_equiv_pos_site_id
 _symmetry_equiv_pos_as_xyz
  1  'x, y, z'
loop_
 _atom_site_type_symbol
 _atom_site_label
 _atom_site_symmetry_multiplicity
 _atom_site_fract_x
 _atom_site_fract_y
 _atom_site_fract_z
 _atom_site_occupancy
  Y  Y0  1  0.00000000  0.00010166  0.99810358  1
  Y  Y1  1  0.00000000  0.49975431  0.50085645  1
  Cu  Cu2  1  0.50000000  0.49981127  0.83778522  1
  Cu  Cu3  1  0.50000000  0.50008662  0.17441642  1
  Cu  Cu4  1  0.50000000  0.00028245  0.65802192  1
  Si  Si5  1  0.50000000  0.99976368  0.33081641  1
