# generated using pymatgen
data_Zn8P18(N12Cl)3
_symmetry_space_group_name_H-M   'P 1'
_cell_length_a   8.33857276
_cell_length_b   8.28283684
_cell_length_c   13.77484802
_cell_angle_alpha   72.24193155
_cell_angle_beta   72.38284634
_cell_angle_gamma   90.00027466
_symmetry_Int_Tables_number   1
_chemical_formula_structural   Zn8P18(N12Cl)3
_chemical_formula_sum   'Zn8 P18 N36 Cl3'
_cell_volume   859.08534198
_cell_formula_units_Z   1
loop_
 _symmetry_equiv_pos_site_id
 _symmetry_equiv_pos_as_xyz
  1  'x, y, z'
loop_
 _atom_site_type_symbol
 _atom_site_label
 _atom_site_symmetry_multiplicity
 _atom_site_fract_x
 _atom_site_fract_y
 _atom_site_fract_z
 _atom_site_occupancy
  Zn  Zn0  1  0.23716773  0.88058328  0.88163689  1
  Zn  Zn1  1  0.55088332  0.89292810  0.55281901  1
  Zn  Zn2  1  0.87868576  0.24045810  0.87931380  1
  Zn  Zn3  1  0.21406951  0.57123216  0.21518084  1
  Zn  Zn4  1  0.45218253  0.45280416  0.45169040  1
  Zn  Zn5  1  0.43706054  0.44028372  0.78050540  1
  Zn  Zn6  1  0.76254850  0.76247165  0.11812308  1
  Zn  Zn7  1  0.09144987  0.09289223  0.45398596  1
  P  P8  1  0.16719694  0.41774543  0.66540203  1
  P  P9  1  0.50380038  0.75034164  0.99912810  1
  P  P10  1  0.83365691  0.08446439  0.33140543  1
  P  P11  1  0.41636266  0.16667443  0.66667471  1
  P  P12  1  0.75014884  0.50200650  0.99914946  1
  P  P13  1  0.08271562  0.83121591  0.33414465  1
  P  P14  1  0.08458709  0.58502268  0.83211538  1
  P  P15  1  0.41880834  0.92245323  0.16624263  1
  P  P16  1  0.75090042  0.25002026  0.50065175  1
  P  P17  1  0.25004360  0.49714640  0.00128229  1
  P  P18  1  0.58436741  0.83620060  0.33188983  1
  P  P19  1  0.91613735  0.16669907  0.66669313  1
  P  P20  1  0.49827529  0.24853079  0.00205337  1
  P  P21  1  0.83626638  0.58308263  0.33427213  1
  P  P22  1  0.16590680  0.91561201  0.66789503  1
  P  P23  1  0.58483006  0.08323687  0.83280692  1
  P  P24  1  0.91839226  0.41112782  0.16716650  1
  P  P25  1  0.25008143  0.74830150  0.50108459  1
  N  N26  1  0.27889732  0.99787380  0.72473081  1
  N  N27  1  0.60818545  0.34197065  0.05156915  1
  N  N28  1  0.94642074  0.66603991  0.38779411  1
  N  N29  1  0.18861159  0.63144113  0.90667270  1
  N  N30  1  0.51802622  0.95945372  0.24198804  1
  N  N31  1  0.84842090  0.29184851  0.57565346  1
  N  N32  1  0.45879834  0.90753063  0.90754167  1
  N  N33  1  0.80021724  0.23867690  0.23932365  1
  N  N34  1  0.13472142  0.57474121  0.57425736  1
  N  N35  1  0.33372313  0.61091698  0.05704944  1
  N  N36  1  0.66447716  0.94433906  0.39164021  1
  N  N37  1  0.00115693  0.27549527  0.72437030  1
  N  N38  1  0.91032831  0.45946091  0.90873933  1
  N  N39  1  0.24310280  0.79427363  0.24067003  1
  N  N40  1  0.57221027  0.12668295  0.57293703  1
  N  N41  1  0.63201258  0.18691179  0.90662300  1
  N  N42  1  0.96694542  0.51903264  0.24014109  1
  N  N43  1  0.30087708  0.85851526  0.57119610  1
  N  N44  1  0.33703528  0.33549454  0.60860172  1
  N  N45  1  0.66752510  0.66730751  0.94569305  1
  N  N46  1  0.99288113  0.99108894  0.28186379  1
  N  N47  1  0.75728872  0.04160311  0.75763771  1
  N  N48  1  0.09306233  0.37426421  0.09096524  1
  N  N49  1  0.42871632  0.70170357  0.42676076  1
  N  N50  1  0.04241101  0.75860071  0.75905422  1
  N  N51  1  0.37219395  0.09465355  0.09402318  1
  N  N52  1  0.69976315  0.42566723  0.42576518  1
  N  N53  1  0.38974278  0.38910465  0.94162229  1
  N  N54  1  0.72408570  0.72233081  0.27632895  1
  N  N55  1  0.05860912  0.05766065  0.60902155  1
  N  N56  1  0.47843641  0.20659524  0.76046225  1
  N  N57  1  0.81732407  0.53907501  0.09260847  1
  N  N58  1  0.15236342  0.87399736  0.42458927  1
  N  N59  1  0.20555261  0.47489768  0.76206676  1
  N  N60  1  0.54026768  0.81422590  0.09331288  1
  N  N61  1  0.87189534  0.14643761  0.42670701  1
  Cl  Cl62  1  0.99161834  0.98957735  0.99081877  1
  Cl  Cl63  1  0.31571884  0.34364223  0.34253667  1
  Cl  Cl64  1  0.63798327  0.66666463  0.66668249  1
