# generated using pymatgen
data_YCo3Ni2
_symmetry_space_group_name_H-M   'P 1'
_cell_length_a   4.00754511
_cell_length_b   4.86023214
_cell_length_c   4.86358984
_cell_angle_alpha   119.97715586
_cell_angle_beta   90.00000000
_cell_angle_gamma   90.00000000
_symmetry_Int_Tables_number   1
_chemical_formula_structural   YCo3Ni2
_chemical_formula_sum   'Y1 Co3 Ni2'
_cell_volume   82.05837872
_cell_formula_units_Z   1
loop_
 _symmetry_equiv_pos_site_id
 _symmetry_equiv_pos_as_xyz
  1  'x, y, z'
loop_
 _atom_site_type_symbol
 _atom_site_label
 _atom_site_symmetry_multiplicity
 _atom_site_fract_x
 _atom_site_fract_y
 _atom_site_fract_z
 _atom_site_occupancy
  Y  Y0  1  0.00000000  0.99998064  1.00000000  1
  Co  Co1  1  0.50000000  0.49999876  0.00000000  1
  Co  Co2  1  0.50000000  0.49999313  0.50000565  1
  Co  Co3  1  0.50000000  0.99998748  0.49999435  1
  Ni  Ni4  1  -0.00000000  0.33325066  0.66656134  1
  Ni  Ni5  1  -0.00000000  0.66668932  0.33343866  1
