# generated using pymatgen
data_YCr5Fe7
_symmetry_space_group_name_H-M   'P 1'
_cell_length_a   4.73735706
_cell_length_b   6.32729107
_cell_length_c   6.32729107
_cell_angle_alpha   97.75389933
_cell_angle_beta   111.98470658
_cell_angle_gamma   68.01529342
_symmetry_Int_Tables_number   1
_chemical_formula_structural   YCr5Fe7
_chemical_formula_sum   'Y1 Cr5 Fe7'
_cell_volume   163.07563568
_cell_formula_units_Z   1
loop_
 _symmetry_equiv_pos_site_id
 _symmetry_equiv_pos_as_xyz
  1  'x, y, z'
loop_
 _atom_site_type_symbol
 _atom_site_label
 _atom_site_symmetry_multiplicity
 _atom_site_fract_x
 _atom_site_fract_y
 _atom_site_fract_z
 _atom_site_occupancy
  Y  Y0  1  -0.00000000  0.00389720  0.00389720  1
  Cr  Cr1  1  0.63212821  0.36592376  0.63018018  1
  Cr  Cr2  1  0.36787179  0.63018018  0.36592376  1
  Cr  Cr3  1  -0.00000000  0.36759439  0.36759439  1
  Cr  Cr4  1  0.00000000  0.63234506  0.63234506  1
  Cr  Cr5  1  0.50000000  0.77701543  0.77701543  1
  Fe  Fe6  1  0.50256060  0.99780608  0.50171542  1
  Fe  Fe7  1  0.00134875  0.99780608  0.50171542  1
  Fe  Fe8  1  0.49743940  0.50171542  0.99780608  1
  Fe  Fe9  1  0.99865125  0.50171542  0.99780608  1
  Fe  Fe10  1  0.50000000  0.22303806  0.22303806  1
  Fe  Fe11  1  0.27475450  0.22572696  0.77523595  1
  Fe  Fe12  1  0.72524550  0.77523595  0.22572696  1
