# generated using pymatgen
data_Zr3Fe2Sb3
_symmetry_space_group_name_H-M   'P 1'
_cell_length_a   4.30977194
_cell_length_b   6.84761330
_cell_length_c   22.07035511
_cell_angle_alpha   90.22032933
_cell_angle_beta   90.00000000
_cell_angle_gamma   90.00000000
_symmetry_Int_Tables_number   1
_chemical_formula_structural   Zr3Fe2Sb3
_chemical_formula_sum   'Zr12 Fe8 Sb12'
_cell_volume   651.32781605
_cell_formula_units_Z   4
loop_
 _symmetry_equiv_pos_site_id
 _symmetry_equiv_pos_as_xyz
  1  'x, y, z'
loop_
 _atom_site_type_symbol
 _atom_site_label
 _atom_site_symmetry_multiplicity
 _atom_site_fract_x
 _atom_site_fract_y
 _atom_site_fract_z
 _atom_site_occupancy
  Zr  Zr0  1  0.75000000  0.50090775  0.09211786  1
  Zr  Zr1  1  0.75000000  0.50634579  0.42378703  1
  Zr  Zr2  1  0.75000000  0.50192076  0.75907851  1
  Zr  Zr3  1  0.75000000  0.00563871  0.07806740  1
  Zr  Zr4  1  0.75000000  0.00626565  0.40666388  1
  Zr  Zr5  1  0.75000000  0.00865676  0.74183942  1
  Zr  Zr6  1  0.25000000  0.49883170  0.24087615  1
  Zr  Zr7  1  0.25000000  0.50509694  0.57267545  1
  Zr  Zr8  1  0.25000000  0.50738363  0.90757545  1
  Zr  Zr9  1  0.25000000  0.99800801  0.25750489  1
  Zr  Zr10  1  0.25000000  0.99055426  0.59268965  1
  Zr  Zr11  1  0.25000000  0.99055804  0.92685446  1
  Fe  Fe12  1  0.75000000  0.84803869  0.52598447  1
  Fe  Fe13  1  0.75000000  0.84966131  0.85936968  1
  Fe  Fe14  1  0.25000000  0.64610651  0.02403309  1
  Fe  Fe15  1  0.25000000  0.64465459  0.35735371  1
  Fe  Fe16  1  0.25000000  0.64402068  0.68993465  1
  Fe  Fe17  1  0.25000000  0.14628571  0.14161063  1
  Fe  Fe18  1  0.25000000  0.14917347  0.47568882  1
  Fe  Fe19  1  0.25000000  0.14815025  0.80871012  1
  Sb  Sb20  1  0.75000000  0.23519096  0.19981124  1
  Sb  Sb21  1  0.75000000  0.23565999  0.53394409  1
  Sb  Sb22  1  0.75000000  0.23655361  0.86842634  1
  Sb  Sb23  1  0.75000000  0.73447789  0.29993754  1
  Sb  Sb24  1  0.75000000  0.72977758  0.63746574  1
  Sb  Sb25  1  0.75000000  0.73170668  0.97175022  1
  Sb  Sb26  1  0.25000000  0.76700938  0.13844727  1
  Sb  Sb27  1  0.25000000  0.77138130  0.46723436  1
  Sb  Sb28  1  0.25000000  0.76938476  0.80054977  1
  Sb  Sb29  1  0.25000000  0.27194388  0.02809205  1
  Sb  Sb30  1  0.25000000  0.26988619  0.36066314  1
  Sb  Sb31  1  0.25000000  0.27236858  0.69406292  1
