# generated using pymatgen
data_V6AgO15
_symmetry_space_group_name_H-M   'P 1'
_cell_length_a   3.66399281
_cell_length_b   8.06628382
_cell_length_c   10.23897802
_cell_angle_alpha   109.16211092
_cell_angle_beta   90.00000000
_cell_angle_gamma   76.87255797
_symmetry_Int_Tables_number   1
_chemical_formula_structural   V6AgO15
_chemical_formula_sum   'V6 Ag1 O15'
_cell_volume   277.45892623
_cell_formula_units_Z   1
loop_
 _symmetry_equiv_pos_site_id
 _symmetry_equiv_pos_as_xyz
  1  'x, y, z'
loop_
 _atom_site_type_symbol
 _atom_site_label
 _atom_site_symmetry_multiplicity
 _atom_site_fract_x
 _atom_site_fract_y
 _atom_site_fract_z
 _atom_site_occupancy
  V  V0  1  0.88283939  0.23432122  0.11724110  1
  V  V1  1  0.11441518  0.77116964  0.88506070  1
  V  V2  1  0.66307053  0.67385895  0.09941010  1
  V  V3  1  0.33651609  0.32696783  0.89816858  1
  V  V4  1  0.71240942  0.57518117  0.40895517  1
  V  V5  1  0.28683043  0.42633914  0.59112646  1
  Ag  Ag6  1  0.00348109  0.99303783  0.40155717  1
  O  O7  1  0.24199719  0.51600563  0.42945775  1
  O  O8  1  0.75916895  0.48166210  0.57239139  1
  O  O9  1  0.60217602  0.79564796  0.46924347  1
  O  O10  1  0.39756525  0.20486951  0.52486788  1
  O  O11  1  0.36655668  0.26688663  0.07297778  1
  O  O12  1  0.63365120  0.73269760  0.92409619  1
  O  O13  1  0.73770697  0.52458606  0.22367700  1
  O  O14  1  0.26403375  0.47193250  0.77799774  1
  O  O15  1  0.00002672  0.99994655  0.99925690  1
  O  O16  1  0.89312575  0.21374850  0.27218527  1
  O  O17  1  0.10926887  0.78146225  0.72873552  1
  O  O18  1  0.56301286  0.87397427  0.22354713  1
  O  O19  1  0.43521755  0.12956490  0.78305140  1
  O  O20  1  0.18660431  0.62679138  0.05299112  1
  O  O21  1  0.81422580  0.37154839  0.94750417  1
