# generated using pymatgen
data_V2Cu3H6O11
_symmetry_space_group_name_H-M   'P 1'
_cell_length_a   5.87383503
_cell_length_b   6.18082332
_cell_length_c   7.32842752
_cell_angle_alpha   94.99454262
_cell_angle_beta   90.00000000
_cell_angle_gamma   61.62983667
_symmetry_Int_Tables_number   1
_chemical_formula_structural   V2Cu3H6O11
_chemical_formula_sum   'V2 Cu3 H6 O11'
_cell_volume   232.95601718
_cell_formula_units_Z   1
loop_
 _symmetry_equiv_pos_site_id
 _symmetry_equiv_pos_as_xyz
  1  'x, y, z'
loop_
 _atom_site_type_symbol
 _atom_site_label
 _atom_site_symmetry_multiplicity
 _atom_site_fract_x
 _atom_site_fract_y
 _atom_site_fract_z
 _atom_site_occupancy
  V  V0  1  0.50044415  0.98808864  0.25240627  1
  V  V1  1  0.48853279  0.01191136  0.74759373  1
  Cu  Cu2  1  0.99767653  0.00000000  -0.00000000  1
  Cu  Cu3  1  0.50036542  0.49949802  0.99991538  1
  Cu  Cu4  1  0.99986344  0.50050198  0.00008462  1
  H  H5  1  0.75456451  0.50413844  0.49743825  1
  H  H6  1  0.25870295  0.49586156  0.50256175  1
  H  H7  1  0.84437071  0.30512216  0.74781350  1
  H  H8  1  0.14949287  0.69487784  0.25218650  1
  H  H9  1  0.88894550  0.22683645  0.42734855  1
  H  H10  1  0.11578196  0.77316355  0.57265145  1
  O  O11  1  0.84610985  0.30840111  0.88691752  1
  O  O12  1  0.15451096  0.69159889  0.11308248  1
  O  O13  1  0.66210235  0.67372620  0.14864310  1
  O  O14  1  0.33582855  0.32627380  0.85135690  1
  O  O15  1  0.66425284  0.13715944  0.18949625  1
  O  O16  1  0.18959730  0.14223299  0.18372862  1
  O  O17  1  0.33183030  0.85776701  0.81627138  1
  O  O18  1  0.80141228  0.86284056  0.81050375  1
  O  O19  1  0.79289446  0.34295228  0.53423290  1
  O  O20  1  0.13584674  0.65704772  0.46576710  1
  O  O21  1  0.47737355  -0.00000000  0.50000000  1
