# generated using pymatgen
data_TiMn(Ni2Sn)2
_symmetry_space_group_name_H-M   'P 1'
_cell_length_a   4.30891878
_cell_length_b   4.30891877
_cell_length_c   7.42571688
_cell_angle_alpha   73.13396347
_cell_angle_beta   90.00000000
_cell_angle_gamma   119.99999995
_symmetry_Int_Tables_number   1
_chemical_formula_structural   TiMn(Ni2Sn)2
_chemical_formula_sum   'Ti1 Mn1 Ni4 Sn2'
_cell_volume   112.50037641
_cell_formula_units_Z   1
loop_
 _symmetry_equiv_pos_site_id
 _symmetry_equiv_pos_as_xyz
  1  'x, y, z'
loop_
 _atom_site_type_symbol
 _atom_site_label
 _atom_site_symmetry_multiplicity
 _atom_site_fract_x
 _atom_site_fract_y
 _atom_site_fract_z
 _atom_site_occupancy
  Ti  Ti0  1  0.50000000  0.00000000  0.50000000  1
  Mn  Mn1  1  0.00000000  0.00000000  -0.00000000  1
  Ni  Ni2  1  0.62296458  0.24592915  0.13110627  1
  Ni  Ni3  1  0.12699989  0.25399978  0.61900034  1
  Ni  Ni4  1  0.87300011  0.74600022  0.38099966  1
  Ni  Ni5  1  0.37703542  0.75407085  0.86889373  1
  Sn  Sn6  1  0.25170237  0.50340473  0.24489290  1
  Sn  Sn7  1  0.74829763  0.49659527  0.75510710  1
