# generated using pymatgen
data_U3Ni3(SnSb)2
_symmetry_space_group_name_H-M   'P 1'
_cell_length_a   8.05611699
_cell_length_b   8.05611699
_cell_length_c   8.05611699
_cell_angle_alpha   70.52877937
_cell_angle_beta   70.52877937
_cell_angle_gamma   109.47122063
_symmetry_Int_Tables_number   1
_chemical_formula_structural   U3Ni3(SnSb)2
_chemical_formula_sum   'U6 Ni6 Sn4 Sb4'
_cell_volume   402.49028444
_cell_formula_units_Z   2
loop_
 _symmetry_equiv_pos_site_id
 _symmetry_equiv_pos_as_xyz
  1  'x, y, z'
loop_
 _atom_site_type_symbol
 _atom_site_label
 _atom_site_symmetry_multiplicity
 _atom_site_fract_x
 _atom_site_fract_y
 _atom_site_fract_z
 _atom_site_occupancy
  U  U0  1  0.37489012  0.25000000  0.37510988  1
  U  U1  1  0.12510988  0.75000000  0.12489012  1
  U  U2  1  0.87510988  0.62510988  0.75000000  1
  U  U3  1  0.62489012  0.87489012  0.25000000  1
  U  U4  1  0.75000000  0.12489012  0.62510988  1
  U  U5  1  0.25000000  0.37510988  0.87489012  1
  Ni  Ni6  1  0.87376314  0.25000000  0.87623686  1
  Ni  Ni7  1  0.62623686  0.75000000  0.62376314  1
  Ni  Ni8  1  0.37623686  0.12623686  0.75000000  1
  Ni  Ni9  1  0.12376314  0.37376314  0.25000000  1
  Ni  Ni10  1  0.75000000  0.62376314  0.12623686  1
  Ni  Ni11  1  0.25000000  0.87623686  0.37376314  1
  Sn  Sn12  1  0.50000000  0.67096765  -0.00000000  1
  Sn  Sn13  1  0.32903235  0.82903235  0.67096765  1
  Sn  Sn14  1  0.17096765  0.50000000  0.50000000  1
  Sn  Sn15  1  0.00000000  -0.00000000  0.82903235  1
  Sb  Sb16  1  0.83257951  0.33257951  0.16742049  1
  Sb  Sb17  1  0.50000000  0.16742049  -0.00000000  1
  Sb  Sb18  1  0.66742049  0.50000000  0.50000000  1
  Sb  Sb19  1  0.00000000  -0.00000000  0.33257951  1
