# generated using pymatgen
data_Ti3Cr9Si4
_symmetry_space_group_name_H-M   'P 1'
_cell_length_a   4.63771018
_cell_length_b   4.62146307
_cell_length_c   9.20516631
_cell_angle_alpha   89.99004249
_cell_angle_beta   90.00000000
_cell_angle_gamma   90.00000000
_symmetry_Int_Tables_number   1
_chemical_formula_structural   Ti3Cr9Si4
_chemical_formula_sum   'Ti3 Cr9 Si4'
_cell_volume   197.29438477
_cell_formula_units_Z   1
loop_
 _symmetry_equiv_pos_site_id
 _symmetry_equiv_pos_as_xyz
  1  'x, y, z'
loop_
 _atom_site_type_symbol
 _atom_site_label
 _atom_site_symmetry_multiplicity
 _atom_site_fract_x
 _atom_site_fract_y
 _atom_site_fract_z
 _atom_site_occupancy
  Ti  Ti0  1  -0.00000000  0.49950841  0.37655062  1
  Ti  Ti1  1  -0.00000000  0.50325855  0.87217288  1
  Ti  Ti2  1  0.50000000  0.24806565  0.00108381  1
  Cr  Cr3  1  0.50000000  0.24395398  0.50048224  1
  Cr  Cr4  1  0.74659142  0.99893944  0.25229735  1
  Cr  Cr5  1  0.74714222  0.99953635  0.74673765  1
  Cr  Cr6  1  -0.00000000  0.50187073  0.12688129  1
  Cr  Cr7  1  -0.00000000  0.49877924  0.62313771  1
  Cr  Cr8  1  0.50000000  0.75198771  0.00061013  1
  Cr  Cr9  1  0.50000000  0.75523543  0.50014673  1
  Cr  Cr10  1  0.25340858  0.99893944  0.25229735  1
  Cr  Cr11  1  0.25285778  0.99953635  0.74673765  1
  Si  Si12  1  0.50000000  0.50236319  0.25152730  1
  Si  Si13  1  0.50000000  0.50123779  0.74464193  1
  Si  Si14  1  -0.00000000  0.99645082  0.00237036  1
  Si  Si15  1  -0.00000000  0.00033691  0.50232499  1
