# generated using pymatgen
data_TiMoC2
_symmetry_space_group_name_H-M   'P 1'
_cell_length_a   3.06419275
_cell_length_b   3.06419275
_cell_length_c   5.35723567
_cell_angle_alpha   73.38218251
_cell_angle_beta   90.00000000
_cell_angle_gamma   120.00000000
_symmetry_Int_Tables_number   1
_chemical_formula_structural   TiMoC2
_chemical_formula_sum   'Ti1 Mo1 C2'
_cell_volume   41.11781063
_cell_formula_units_Z   1
loop_
 _symmetry_equiv_pos_site_id
 _symmetry_equiv_pos_as_xyz
  1  'x, y, z'
loop_
 _atom_site_type_symbol
 _atom_site_label
 _atom_site_symmetry_multiplicity
 _atom_site_fract_x
 _atom_site_fract_y
 _atom_site_fract_z
 _atom_site_occupancy
  Ti  Ti0  1  0.75000000  0.50000000  0.75000000  1
  Mo  Mo1  1  0.25000000  0.50000000  0.25000000  1
  C  C2  1  0.00146977  0.00293955  0.99559068  1
  C  C3  1  0.49853023  0.99706045  0.50440932  1
