# generated using pymatgen
data_SrLa2Fe2O7
_symmetry_space_group_name_H-M   'P 1'
_cell_length_a   3.95341364
_cell_length_b   3.95341364
_cell_length_c   10.60990859
_cell_angle_alpha   79.26261778
_cell_angle_beta   79.26261778
_cell_angle_gamma   90.00000000
_symmetry_Int_Tables_number   1
_chemical_formula_structural   SrLa2Fe2O7
_chemical_formula_sum   'Sr1 La2 Fe2 O7'
_cell_volume   159.96786757
_cell_formula_units_Z   1
loop_
 _symmetry_equiv_pos_site_id
 _symmetry_equiv_pos_as_xyz
  1  'x, y, z'
loop_
 _atom_site_type_symbol
 _atom_site_label
 _atom_site_symmetry_multiplicity
 _atom_site_fract_x
 _atom_site_fract_y
 _atom_site_fract_z
 _atom_site_occupancy
  Sr  Sr0  1  0.31727450  0.31727450  0.36545100  1
  La  La1  1  0.68246402  0.68246402  0.63507196  1
  La  La2  1  0.49466595  0.49466595  0.01066809  1
  Fe  Fe3  1  0.09718460  0.09718460  0.80563081  1
  Fe  Fe4  1  0.89934278  0.89934278  0.20131444  1
  O  O5  1  0.59897794  0.09897794  0.80204411  1
  O  O6  1  0.09897794  0.59897794  0.80204411  1
  O  O7  1  0.40726699  0.90726699  0.18546602  1
  O  O8  1  0.90726699  0.40726699  0.18546602  1
  O  O9  1  0.19928295  0.19928295  0.60143409  1
  O  O10  1  0.79684625  0.79684625  0.40630751  1
  O  O11  1  0.00044908  0.00044908  0.99910184  1
