# generated using pymatgen
data_Ta13Al23
_symmetry_space_group_name_H-M   'P 1'
_cell_length_a   13.56085492
_cell_length_b   13.56085492
_cell_length_c   13.63450619
_cell_angle_alpha   90.00000000
_cell_angle_beta   60.17853080
_cell_angle_gamma   120.00000000
_symmetry_Int_Tables_number   1
_chemical_formula_structural   Ta13Al23
_chemical_formula_sum   'Ta39 Al69'
_cell_volume   1777.72769859
_cell_formula_units_Z   3
loop_
 _symmetry_equiv_pos_site_id
 _symmetry_equiv_pos_as_xyz
  1  'x, y, z'
loop_
 _atom_site_type_symbol
 _atom_site_label
 _atom_site_symmetry_multiplicity
 _atom_site_fract_x
 _atom_site_fract_y
 _atom_site_fract_z
 _atom_site_occupancy
  Ta  Ta0  1  0.69149031  0.47227668  0.83623302  1
  Ta  Ta1  1  0.94455336  0.47227668  0.83623302  1
  Ta  Ta2  1  0.69149031  0.21921363  0.83623302  1
  Ta  Ta3  1  0.31407711  0.47704067  0.20888222  1
  Ta  Ta4  1  0.05334809  0.21384858  0.47542511  1
  Ta  Ta5  1  0.31072631  0.47122679  0.47542511  1
  Ta  Ta6  1  0.31072631  0.83949952  0.47542511  1
  Ta  Ta7  1  0.05334809  0.83949952  0.47542511  1
  Ta  Ta8  1  0.31407711  0.83703644  0.20888222  1
  Ta  Ta9  1  0.68507537  0.21384858  0.47542511  1
  Ta  Ta10  1  0.95408133  0.47704067  0.20888222  1
  Ta  Ta11  1  0.68507537  0.47122679  0.47542511  1
  Ta  Ta12  1  0.17308503  0.08654252  0.74037245  1
  Ta  Ta13  1  0.82142861  0.08963237  0.08893902  1
  Ta  Ta14  1  0.82142861  0.73179623  0.08893902  1
  Ta  Ta15  1  0.17926475  0.08963237  0.08893902  1
  Ta  Ta16  1  0.18637839  0.59318920  0.22043241  1
  Ta  Ta17  1  0.81441170  0.59209637  0.59349194  1
  Ta  Ta18  1  0.81441170  0.22231533  0.59349194  1
  Ta  Ta19  1  0.18419273  0.59209637  0.59349194  1
  Ta  Ta20  1  0.99859446  0.99929723  0.00210831  1
  Ta  Ta21  1  0.62924293  0.99076492  0.37999215  1
  Ta  Ta22  1  0.98152983  0.99076492  0.37999215  1
  Ta  Ta23  1  0.62924293  0.63847802  0.37999215  1
  Ta  Ta24  1  0.36782807  0.99323787  0.63893405  1
  Ta  Ta25  1  0.00787805  0.62513545  0.99763904  1
  Ta  Ta26  1  0.37722551  0.99448291  0.99763904  1
  Ta  Ta27  1  0.37722551  0.38274260  0.99763904  1
  Ta  Ta28  1  0.00787805  0.38274260  0.99763904  1
  Ta  Ta29  1  0.36782807  0.37459020  0.63893405  1
  Ta  Ta30  1  0.61961836  0.62513545  0.99763904  1
  Ta  Ta31  1  0.98647574  0.99323787  0.63893405  1
  Ta  Ta32  1  0.61961836  0.99448291  0.99763904  1
  Ta  Ta33  1  0.68488612  0.84244306  0.47267082  1
  Ta  Ta34  1  0.31298251  0.84352468  0.84349281  1
  Ta  Ta35  1  0.31298251  0.46945783  0.84349281  1
  Ta  Ta36  1  0.68704936  0.84352468  0.84349281  1
  Ta  Ta37  1  0.48988197  0.24494099  0.26517704  1
  Ta  Ta38  1  0.50014582  0.75007291  0.74978127  1
  Al  Al39  1  0.32987429  0.16493714  0.50518857  1
  Al  Al40  1  0.66592714  0.18216221  0.15191064  1
  Al  Al41  1  0.66592714  0.48376493  0.15191064  1
  Al  Al42  1  0.36432443  0.18216221  0.15191064  1
  Al  Al43  1  0.89520127  0.44760064  0.65719809  1
  Al  Al44  1  0.10490881  0.44724467  0.44784652  1
  Al  Al45  1  0.10490881  0.65766414  0.44784652  1
  Al  Al46  1  0.89448934  0.44724467  0.44784652  1
  Al  Al47  1  0.67600260  0.33800130  0.66061836  1
  Al  Al48  1  0.00138034  0.66337905  0.66061836  1
  Al  Al49  1  0.00138034  0.33800130  0.66061836  1
  Al  Al50  1  0.32465213  0.66232607  0.33830660  1
  Al  Al51  1  0.99936734  0.33704127  0.33830660  1
  Al  Al52  1  0.99936734  0.66232607  0.33830660  1
  Al  Al53  1  0.65007254  0.32503627  0.02489119  1
  Al  Al54  1  0.35009557  0.34019334  0.30971109  1
  Al  Al55  1  0.35009557  0.00990223  0.30971109  1
  Al  Al56  1  0.68038668  0.34019334  0.30971109  1
  Al  Al57  1  0.41002231  0.60714057  0.98283712  1
  Al  Al58  1  0.21428115  0.60714057  0.98283712  1
  Al  Al59  1  0.41002231  0.80288173  0.98283712  1
  Al  Al60  1  0.59066567  0.60549243  0.80384190  1
  Al  Al61  1  0.78774011  0.80362793  0.60626637  1
  Al  Al62  1  0.59010570  0.60599352  0.60626637  1
  Al  Al63  1  0.59010570  0.98411219  0.60626637  1
  Al  Al64  1  0.78774011  0.98411219  0.60626637  1
  Al  Al65  1  0.59066567  0.98517324  0.80384190  1
  Al  Al66  1  0.40962144  0.80362793  0.60626637  1
  Al  Al67  1  0.21098486  0.60549243  0.80384190  1
  Al  Al68  1  0.40962144  0.60599352  0.60626637  1
  Al  Al69  1  0.90755019  0.85862048  0.23382932  1
  Al  Al70  1  0.71724096  0.85862048  0.23382932  1
  Al  Al71  1  0.90755019  0.04892971  0.23382932  1
  Al  Al72  1  0.09349706  0.85818254  0.04832040  1
  Al  Al73  1  0.28097931  0.04633738  0.86315014  1
  Al  Al74  1  0.09051247  0.85587055  0.86315014  1
  Al  Al75  1  0.09051247  0.23464193  0.86315014  1
  Al  Al76  1  0.28097931  0.23464193  0.86315014  1
  Al  Al77  1  0.09349706  0.23531452  0.04832040  1
  Al  Al78  1  0.90220793  0.04633738  0.86315014  1
  Al  Al79  1  0.71636508  0.85818254  0.04832040  1
  Al  Al80  1  0.90220793  0.85587055  0.86315014  1
  Al  Al81  1  0.15295965  0.23339057  0.61364978  1
  Al  Al82  1  0.46678114  0.23339057  0.61364978  1
  Al  Al83  1  0.15295965  0.91956908  0.61364978  1
  Al  Al84  1  0.84814468  0.23426643  0.91758889  1
  Al  Al85  1  0.53310226  0.92581294  0.23514768  1
  Al  Al86  1  0.83903938  0.23175006  0.23514768  1
  Al  Al87  1  0.83903938  0.60728932  0.23514768  1
  Al  Al88  1  0.53310226  0.60728932  0.23514768  1
  Al  Al89  1  0.84814468  0.61387824  0.91758889  1
  Al  Al90  1  0.15756300  0.92581294  0.23514768  1
  Al  Al91  1  0.46853286  0.23426643  0.91758889  1
  Al  Al92  1  0.15756300  0.23175006  0.23514768  1
  Al  Al93  1  0.19693481  0.09846740  0.39962143  1
  Al  Al94  1  0.50191116  0.40344376  0.39962143  1
  Al  Al95  1  0.50191116  0.09846740  0.39962143  1
  Al  Al96  1  0.15653838  0.73641052  0.10705110  1
  Al  Al97  1  0.47282104  0.73641052  0.10705110  1
  Al  Al98  1  0.15653838  0.42012786  0.10705110  1
  Al  Al99  1  0.84405656  0.73557806  0.42036538  1
  Al  Al100  1  0.52869811  0.41987502  0.73616976  1
  Al  Al101  1  0.84395522  0.73513213  0.73616976  1
  Al  Al102  1  0.84395522  0.10882309  0.73616976  1
  Al  Al103  1  0.52869811  0.10882309  0.73616976  1
  Al  Al104  1  0.84405656  0.10847850  0.42036538  1
  Al  Al105  1  0.15500715  0.41987502  0.73616976  1
  Al  Al106  1  0.47115612  0.73557806  0.42036538  1
  Al  Al107  1  0.15500715  0.73513213  0.73616976  1
