# generated using pymatgen
data_Tb(MnAl)6
_symmetry_space_group_name_H-M   'P 1'
_cell_length_a   4.92201082
_cell_length_b   6.63075655
_cell_length_c   6.63075655
_cell_angle_alpha   99.11356275
_cell_angle_beta   111.78655459
_cell_angle_gamma   68.21344541
_symmetry_Int_Tables_number   1
_chemical_formula_structural   Tb(MnAl)6
_chemical_formula_sum   'Tb1 Mn6 Al6'
_cell_volume   186.54187193
_cell_formula_units_Z   1
loop_
 _symmetry_equiv_pos_site_id
 _symmetry_equiv_pos_as_xyz
  1  'x, y, z'
loop_
 _atom_site_type_symbol
 _atom_site_label
 _atom_site_symmetry_multiplicity
 _atom_site_fract_x
 _atom_site_fract_y
 _atom_site_fract_z
 _atom_site_occupancy
  Tb  Tb0  1  0.00000000  0.00000000  0.00000000  1
  Mn  Mn1  1  0.50000000  0.00000000  0.50000000  1
  Mn  Mn2  1  0.00000000  0.00000000  0.50000000  1
  Mn  Mn3  1  0.50000000  0.50000000  0.00000000  1
  Mn  Mn4  1  0.00000000  0.50000000  0.00000000  1
  Mn  Mn5  1  0.50000000  0.76373928  0.76373928  1
  Mn  Mn6  1  0.50000000  0.23626072  0.23626072  1
  Al  Al7  1  0.65296983  0.34703017  0.65296983  1
  Al  Al8  1  0.34703017  0.65296983  0.34703017  1
  Al  Al9  1  -0.00000000  0.33882083  0.33882083  1
  Al  Al10  1  0.00000000  0.66117917  0.66117917  1
  Al  Al11  1  0.69696697  0.80303303  0.19696697  1
  Al  Al12  1  0.30303303  0.19696697  0.80303303  1
