# generated using pymatgen
data_SrNdScO4
_symmetry_space_group_name_H-M   'P 1'
_cell_length_a   5.71337872
_cell_length_b   5.87691570
_cell_length_c   6.80719371
_cell_angle_alpha   90.00000000
_cell_angle_beta   65.18703902
_cell_angle_gamma   90.00000000
_symmetry_Int_Tables_number   1
_chemical_formula_structural   SrNdScO4
_chemical_formula_sum   'Sr2 Nd2 Sc2 O8'
_cell_volume   207.46487521
_cell_formula_units_Z   2
loop_
 _symmetry_equiv_pos_site_id
 _symmetry_equiv_pos_as_xyz
  1  'x, y, z'
loop_
 _atom_site_type_symbol
 _atom_site_label
 _atom_site_symmetry_multiplicity
 _atom_site_fract_x
 _atom_site_fract_y
 _atom_site_fract_z
 _atom_site_occupancy
  Sr  Sr0  1  0.14561019  0.51337134  0.70877962  1
  Sr  Sr1  1  0.35438981  0.01337134  0.29122038  1
  Nd  Nd2  1  0.85827461  0.48577351  0.28345079  1
  Nd  Nd3  1  0.64172539  0.98577351  0.71654921  1
  Sc  Sc4  1  0.49632489  0.49520192  0.00735023  1
  Sc  Sc5  1  0.00367511  0.99520192  0.99264977  1
  O  O6  1  0.16648028  0.93444041  0.66703945  1
  O  O7  1  0.81905239  0.09260697  0.36189521  1
  O  O8  1  0.33351972  0.43444041  0.33296055  1
  O  O9  1  0.68094761  0.59260697  0.63810479  1
  O  O10  1  0.22001492  0.73930293  0.04693039  1
  O  O11  1  0.27998508  0.23930293  0.95306961  1
  O  O12  1  0.76694531  0.23930293  0.95306961  1
  O  O13  1  0.73305469  0.73930293  0.04693039  1
