# generated using pymatgen
data_Tb4Ni3Bi8
_symmetry_space_group_name_H-M   'P 1'
_cell_length_a   4.54063234
_cell_length_b   4.54063234
_cell_length_c   18.71378319
_cell_angle_alpha   90.00000000
_cell_angle_beta   90.00000000
_cell_angle_gamma   90.00000000
_symmetry_Int_Tables_number   1
_chemical_formula_structural   Tb4Ni3Bi8
_chemical_formula_sum   'Tb4 Ni3 Bi8'
_cell_volume   385.82846902
_cell_formula_units_Z   1
loop_
 _symmetry_equiv_pos_site_id
 _symmetry_equiv_pos_as_xyz
  1  'x, y, z'
loop_
 _atom_site_type_symbol
 _atom_site_label
 _atom_site_symmetry_multiplicity
 _atom_site_fract_x
 _atom_site_fract_y
 _atom_site_fract_z
 _atom_site_occupancy
  Tb  Tb0  1  0.75000000  0.75000000  0.38664276  1
  Tb  Tb1  1  0.75000000  0.75000000  0.88703695  1
  Tb  Tb2  1  0.25000000  0.25000000  0.11296305  1
  Tb  Tb3  1  0.25000000  0.25000000  0.61335724  1
  Ni  Ni4  1  0.75000000  0.25000000  0.50000000  1
  Ni  Ni5  1  0.25000000  0.75000000  0.00000000  1
  Ni  Ni6  1  0.25000000  0.75000000  0.50000000  1
  Bi  Bi7  1  0.75000000  0.75000000  0.06948627  1
  Bi  Bi8  1  0.75000000  0.75000000  0.57500125  1
  Bi  Bi9  1  0.25000000  0.25000000  0.42499875  1
  Bi  Bi10  1  0.25000000  0.25000000  0.93051373  1
  Bi  Bi11  1  0.75000000  0.25000000  0.24898129  1
  Bi  Bi12  1  0.75000000  0.25000000  0.75101871  1
  Bi  Bi13  1  0.25000000  0.75000000  0.24907683  1
  Bi  Bi14  1  0.25000000  0.75000000  0.75092317  1
