# generated using pymatgen
data_Ta2SiNi3
_symmetry_space_group_name_H-M   'P 1'
_cell_length_a   4.85210408
_cell_length_b   4.85380714
_cell_length_c   7.66934993
_cell_angle_alpha   90.00000000
_cell_angle_beta   90.00000000
_cell_angle_gamma   59.98838067
_symmetry_Int_Tables_number   1
_chemical_formula_structural   Ta2SiNi3
_chemical_formula_sum   'Ta4 Si2 Ni6'
_cell_volume   156.40511389
_cell_formula_units_Z   2
loop_
 _symmetry_equiv_pos_site_id
 _symmetry_equiv_pos_as_xyz
  1  'x, y, z'
loop_
 _atom_site_type_symbol
 _atom_site_label
 _atom_site_symmetry_multiplicity
 _atom_site_fract_x
 _atom_site_fract_y
 _atom_site_fract_z
 _atom_site_occupancy
  Ta  Ta0  1  0.33332715  0.33333643  0.55761692  1
  Ta  Ta1  1  0.66667285  0.66666357  0.44238308  1
  Ta  Ta2  1  0.66667285  0.66666357  0.05761692  1
  Ta  Ta3  1  0.33332715  0.33333643  0.94238308  1
  Si  Si4  1  0.00000000  -0.00000000  0.50000000  1
  Si  Si5  1  0.00000000  -0.00000000  -0.00000000  1
  Ni  Ni6  1  0.83151610  0.33694878  0.75000000  1
  Ni  Ni7  1  0.33699236  0.83150382  0.75000000  1
  Ni  Ni8  1  0.83151610  0.83153512  0.75000000  1
  Ni  Ni9  1  0.16848390  0.66305122  0.25000000  1
  Ni  Ni10  1  0.66300764  0.16849618  0.25000000  1
  Ni  Ni11  1  0.16848390  0.16846488  0.25000000  1
