# generated using pymatgen
data_Ta36B4C35
_symmetry_space_group_name_H-M   'P 1'
_cell_length_a   3.16513417
_cell_length_b   3.16518903
_cell_length_c   123.18877292
_cell_angle_alpha   59.92067603
_cell_angle_beta   59.92098169
_cell_angle_gamma   60.00121626
_symmetry_Int_Tables_number   1
_chemical_formula_structural   Ta36B4C35
_chemical_formula_sum   'Ta36 B4 C35'
_cell_volume   871.62794323
_cell_formula_units_Z   1
loop_
 _symmetry_equiv_pos_site_id
 _symmetry_equiv_pos_as_xyz
  1  'x, y, z'
loop_
 _atom_site_type_symbol
 _atom_site_label
 _atom_site_symmetry_multiplicity
 _atom_site_fract_x
 _atom_site_fract_y
 _atom_site_fract_z
 _atom_site_occupancy
  Ta  Ta0  1  0.00681614  0.00695431  0.07643893  1
  Ta  Ta1  1  0.01979375  0.01986925  0.12666893  1
  Ta  Ta2  1  0.02311134  0.02316579  0.10078305  1
  Ta  Ta3  1  0.01741963  0.01749257  0.15249396  1
  Ta  Ta4  1  0.00973676  0.00983710  0.17871098  1
  Ta  Ta5  1  0.00850048  0.00858732  0.20445467  1
  Ta  Ta6  1  0.00269031  0.00278951  0.25618263  1
  Ta  Ta7  1  0.00408888  0.00412939  0.23043000  1
  Ta  Ta8  1  0.00065724  0.00079667  0.28198083  1
  Ta  Ta9  1  0.00028242  0.00049813  0.30764765  1
  Ta  Ta10  1  0.99966574  0.99980414  0.33335093  1
  Ta  Ta11  1  0.99932669  0.99943861  0.38466456  1
  Ta  Ta12  1  0.00000903  0.00018830  0.35897171  1
  Ta  Ta13  1  0.99924870  0.99940360  0.43594821  1
  Ta  Ta14  1  0.99957220  0.99972785  0.41028525  1
  Ta  Ta15  1  0.99977344  0.99988050  0.46154531  1
  Ta  Ta16  1  0.00084903  0.00093318  0.51274413  1
  Ta  Ta17  1  0.00002115  0.00011013  0.48717218  1
  Ta  Ta18  1  0.00189862  0.00208423  0.56393743  1
  Ta  Ta19  1  0.00158486  0.00168325  0.53833527  1
  Ta  Ta20  1  0.00205891  0.00216686  0.58955849  1
  Ta  Ta21  1  0.00464799  0.00481696  0.64064689  1
  Ta  Ta22  1  0.00190866  0.00202837  0.61521710  1
  Ta  Ta23  1  0.00709591  0.00722185  0.69175077  1
  Ta  Ta24  1  0.00655576  0.00671257  0.66614115  1
  Ta  Ta25  1  0.99674052  0.99683613  0.74384810  1
  Ta  Ta26  1  0.00472913  0.00484653  0.71756867  1
  Ta  Ta27  1  0.99410983  0.99418495  0.76968725  1
  Ta  Ta28  1  0.99283963  0.99296466  0.79544361  1
  Ta  Ta29  1  0.99202559  0.99212526  0.82111059  1
  Ta  Ta30  1  0.98842986  0.98863186  0.87261820  1
  Ta  Ta31  1  0.99058964  0.99072740  0.84690479  1
  Ta  Ta32  1  0.98692270  0.98711306  0.89848340  1
  Ta  Ta33  1  0.97793428  0.97846180  0.92455230  1
  Ta  Ta34  1  0.96485711  0.96462788  0.97675393  1
  Ta  Ta35  1  0.97417890  0.97375732  0.95053891  1
  B  B36  1  0.30088684  0.30091934  0.05371987  1
  B  B37  1  0.50072326  0.50082883  0.73070912  1
  B  B38  1  0.46178850  0.46165438  0.96413277  1
  B  B39  1  0.38150154  0.37837496  0.99711743  1
  C  C40  1  0.71591848  0.71072618  0.99747612  1
  C  C41  1  0.61807225  0.61812452  0.05496467  1
  C  C42  1  0.52787487  0.52797894  0.08762575  1
  C  C43  1  0.51917600  0.51920494  0.11389946  1
  C  C44  1  0.52035131  0.52039674  0.13944779  1
  C  C45  1  0.51498093  0.51499887  0.16550001  1
  C  C46  1  0.50933603  0.50943136  0.19157065  1
  C  C47  1  0.50588240  0.50594589  0.21746909  1
  C  C48  1  0.50330871  0.50349800  0.24330434  1
  C  C49  1  0.50144934  0.50159021  0.26909879  1
  C  C50  1  0.50041411  0.50055918  0.29482381  1
  C  C51  1  0.49982838  0.49990996  0.32051043  1
  C  C52  1  0.49982490  0.50001226  0.34616593  1
  C  C53  1  0.49950551  0.49962093  0.37182690  1
  C  C54  1  0.49960933  0.49977195  0.39746538  1
  C  C55  1  0.49935181  0.49941908  0.42312350  1
  C  C56  1  0.49965982  0.49974128  0.44873689  1
  C  C57  1  0.49991161  0.50003657  0.47435379  1
  C  C58  1  0.50038972  0.50052325  0.49996002  1
  C  C59  1  0.50104558  0.50124083  0.52554657  1
  C  C60  1  0.50160308  0.50177750  0.55114932  1
  C  C61  1  0.50187969  0.50202299  0.57675569  1
  C  C62  1  0.50224061  0.50242263  0.60236107  1
  C  C63  1  0.50349175  0.50368176  0.62791301  1
  C  C64  1  0.50506323  0.50521709  0.65343552  1
  C  C65  1  0.50680426  0.50690903  0.67894917  1
  C  C66  1  0.50840441  0.50859811  0.70446345  1
  C  C67  1  0.49309583  0.49321408  0.75695012  1
  C  C68  1  0.49390645  0.49396486  0.78253688  1
  C  C69  1  0.49283938  0.49296627  0.80824495  1
  C  C70  1  0.49163315  0.49177464  0.83397569  1
  C  C71  1  0.48911347  0.48926966  0.85978940  1
  C  C72  1  0.48697737  0.48719991  0.88560293  1
  C  C73  1  0.48251175  0.48280300  0.91151642  1
  C  C74  1  0.47897351  0.47907272  0.93731353  1
