# generated using pymatgen
data_Ta2CuO6
_symmetry_space_group_name_H-M   'P 1'
_cell_length_a   6.57551418
_cell_length_b   6.57551418
_cell_length_c   6.57551418
_cell_angle_alpha   71.02540872
_cell_angle_beta   70.93893160
_cell_angle_gamma   110.38186939
_symmetry_Int_Tables_number   1
_chemical_formula_structural   Ta2CuO6
_chemical_formula_sum   'Ta4 Cu2 O12'
_cell_volume   218.81877447
_cell_formula_units_Z   2
loop_
 _symmetry_equiv_pos_site_id
 _symmetry_equiv_pos_as_xyz
  1  'x, y, z'
loop_
 _atom_site_type_symbol
 _atom_site_label
 _atom_site_symmetry_multiplicity
 _atom_site_fract_x
 _atom_site_fract_y
 _atom_site_fract_z
 _atom_site_occupancy
  Ta  Ta0  1  -0.00000000  0.50000000  0.00000000  1
  Ta  Ta1  1  0.50000000  0.50000000  0.50000000  1
  Ta  Ta2  1  0.50000000  0.00000000  0.00000000  1
  Ta  Ta3  1  -0.00000000  0.00000000  0.50000000  1
  Cu  Cu4  1  0.50000000  0.00000000  0.50000000  1
  Cu  Cu5  1  0.50000000  0.50000000  0.00000000  1
  O  O6  1  0.30672107  0.48516338  0.82155769  1
  O  O7  1  0.69327893  0.51483662  0.17844231  1
  O  O8  1  0.30672107  0.12827876  0.17844231  1
  O  O9  1  0.69327893  0.87172124  0.82155769  1
  O  O10  1  0.19565344  0.70476034  0.09958622  1
  O  O11  1  0.80434656  0.29523966  0.90041378  1
  O  O12  1  0.80434656  0.70476034  0.49089311  1
  O  O13  1  0.19565344  0.29523966  0.50910689  1
  O  O14  1  0.49881808  0.81322179  0.31440371  1
  O  O15  1  0.50118192  0.18677821  0.68559629  1
  O  O16  1  0.87237449  0.18677821  0.31440371  1
  O  O17  1  0.12762551  0.81322179  0.68559629  1
