# generated using pymatgen
data_SmZnAgAs2
_symmetry_space_group_name_H-M   'P 1'
_cell_length_a   4.29840696
_cell_length_b   4.29852718
_cell_length_c   6.92413804
_cell_angle_alpha   90.00000004
_cell_angle_beta   90.00031226
_cell_angle_gamma   120.00091686
_symmetry_Int_Tables_number   1
_chemical_formula_structural   SmZnAgAs2
_chemical_formula_sum   'Sm1 Zn1 Ag1 As2'
_cell_volume   110.79484248
_cell_formula_units_Z   1
loop_
 _symmetry_equiv_pos_site_id
 _symmetry_equiv_pos_as_xyz
  1  'x, y, z'
loop_
 _atom_site_type_symbol
 _atom_site_label
 _atom_site_symmetry_multiplicity
 _atom_site_fract_x
 _atom_site_fract_y
 _atom_site_fract_z
 _atom_site_occupancy
  Sm  Sm0  1  0.00000292  0.00000146  0.98524242  1
  Zn  Zn1  1  0.66666818  0.33333409  0.37509628  1
  Ag  Ag2  1  0.33331399  0.66665699  0.63636894  1
  As  As3  1  0.33334468  0.66667234  0.24436153  1
  As  As4  1  0.66667024  0.33333512  0.75893083  1
