# generated using pymatgen
data_Ta4NiS8
_symmetry_space_group_name_H-M   'P 1'
_cell_length_a   3.36906813
_cell_length_b   3.36906711
_cell_length_c   24.42597678
_cell_angle_alpha   90.00013003
_cell_angle_beta   89.99989786
_cell_angle_gamma   119.99990962
_symmetry_Int_Tables_number   1
_chemical_formula_structural   Ta4NiS8
_chemical_formula_sum   'Ta4 Ni1 S8'
_cell_volume   240.10567334
_cell_formula_units_Z   1
loop_
 _symmetry_equiv_pos_site_id
 _symmetry_equiv_pos_as_xyz
  1  'x, y, z'
loop_
 _atom_site_type_symbol
 _atom_site_label
 _atom_site_symmetry_multiplicity
 _atom_site_fract_x
 _atom_site_fract_y
 _atom_site_fract_z
 _atom_site_occupancy
  Ta  Ta0  1  0.99997816  0.00002125  0.37399859  1
  Ta  Ta1  1  0.99998102  0.00001908  0.87487101  1
  Ta  Ta2  1  0.00002184  0.99997875  0.12600141  1
  Ta  Ta3  1  0.00001898  0.99998092  0.62512899  1
  Ni  Ni4  1  0.00000000  -0.00000000  0.25000000  1
  S  S5  1  0.66668942  0.33331057  0.06248615  1
  S  S6  1  0.66668544  0.33331436  0.56152947  1
  S  S7  1  0.33331058  0.66668943  0.43751385  1
  S  S8  1  0.33331456  0.66668564  0.93847053  1
  S  S9  1  0.33331446  0.66668496  0.30910286  1
  S  S10  1  0.33331579  0.66668490  0.81152588  1
  S  S11  1  0.66668554  0.33331504  0.19089714  1
  S  S12  1  0.66668421  0.33331510  0.68847412  1
