# generated using pymatgen
data_SmThCN
_symmetry_space_group_name_H-M   'P 1'
_cell_length_a   3.71714981
_cell_length_b   3.71714981
_cell_length_c   6.38429800
_cell_angle_alpha   73.07518500
_cell_angle_beta   90.00000000
_cell_angle_gamma   120.00000000
_symmetry_Int_Tables_number   1
_chemical_formula_structural   SmThCN
_chemical_formula_sum   'Sm1 Th1 C1 N1'
_cell_volume   71.94922094
_cell_formula_units_Z   1
loop_
 _symmetry_equiv_pos_site_id
 _symmetry_equiv_pos_as_xyz
  1  'x, y, z'
loop_
 _atom_site_type_symbol
 _atom_site_label
 _atom_site_symmetry_multiplicity
 _atom_site_fract_x
 _atom_site_fract_y
 _atom_site_fract_z
 _atom_site_occupancy
  Sm  Sm0  1  0.24948121  0.49896242  0.25155637  1
  Th  Th1  1  0.75026293  0.50052586  0.74921121  1
  C  C2  1  0.00340994  0.00681989  0.98977017  1
  N  N3  1  0.49684592  0.99369183  0.50946225  1
