# generated using pymatgen
data_SrBi3Br3O4
_symmetry_space_group_name_H-M   'P 1'
_cell_length_a   4.00210421
_cell_length_b   4.00210421
_cell_length_c   15.22430557
_cell_angle_alpha   82.44730199
_cell_angle_beta   82.44730199
_cell_angle_gamma   90.00000000
_symmetry_Int_Tables_number   1
_chemical_formula_structural   SrBi3Br3O4
_chemical_formula_sum   'Sr1 Bi3 Br3 O4'
_cell_volume   239.59554714
_cell_formula_units_Z   1
loop_
 _symmetry_equiv_pos_site_id
 _symmetry_equiv_pos_as_xyz
  1  'x, y, z'
loop_
 _atom_site_type_symbol
 _atom_site_label
 _atom_site_symmetry_multiplicity
 _atom_site_fract_x
 _atom_site_fract_y
 _atom_site_fract_z
 _atom_site_occupancy
  Sr  Sr0  1  0.34155926  0.34155926  0.31688149  1
  Bi  Bi1  1  0.07088465  0.07088465  0.85823071  1
  Bi  Bi2  1  0.92424512  0.92424512  0.15150976  1
  Bi  Bi3  1  0.65441193  0.65441193  0.69117613  1
  Br  Br4  1  0.20205859  0.20205859  0.59588281  1
  Br  Br5  1  0.78768197  0.78768197  0.42463606  1
  Br  Br6  1  0.51369046  0.51369046  0.97261907  1
  O  O7  1  0.61096475  0.11096475  0.77807049  1
  O  O8  1  0.11096475  0.61096475  0.77807049  1
  O  O9  1  0.39176925  0.89176925  0.21646149  1
  O  O10  1  0.89176925  0.39176925  0.21646149  1
