# generated using pymatgen
data_SnMo12PbS16
_symmetry_space_group_name_H-M   'P 1'
_cell_length_a   6.56966335
_cell_length_b   6.56395487
_cell_length_c   13.21246468
_cell_angle_alpha   89.16540879
_cell_angle_beta   89.27719192
_cell_angle_gamma   89.23926585
_symmetry_Int_Tables_number   1
_chemical_formula_structural   SnMo12PbS16
_chemical_formula_sum   'Sn1 Mo12 Pb1 S16'
_cell_volume   569.60614209
_cell_formula_units_Z   1
loop_
 _symmetry_equiv_pos_site_id
 _symmetry_equiv_pos_as_xyz
  1  'x, y, z'
loop_
 _atom_site_type_symbol
 _atom_site_label
 _atom_site_symmetry_multiplicity
 _atom_site_fract_x
 _atom_site_fract_y
 _atom_site_fract_z
 _atom_site_occupancy
  Sn  Sn0  1  -0.00000000  0.00000000  0.50000000  1
  Mo  Mo1  1  0.58567955  0.77400890  0.21953240  1
  Mo  Mo2  1  0.58480901  0.77328736  0.71863025  1
  Mo  Mo3  1  0.77323558  0.43829959  0.29251959  1
  Mo  Mo4  1  0.77256751  0.43709314  0.79178226  1
  Mo  Mo5  1  0.43815522  0.58644548  0.38845267  1
  Mo  Mo6  1  0.43757125  0.58625507  0.88804540  1
  Mo  Mo7  1  0.41519099  0.22671264  0.28136975  1
  Mo  Mo8  1  0.41432045  0.22599110  0.78046760  1
  Mo  Mo9  1  0.22743249  0.56290686  0.20821774  1
  Mo  Mo10  1  0.22676442  0.56170041  0.70748041  1
  Mo  Mo11  1  0.56242875  0.41374493  0.11195460  1
  Mo  Mo12  1  0.56184478  0.41355452  0.61154733  1
  Pb  Pb13  1  -0.00000000  0.00000000  0.00000000  1
  S  S14  1  0.61831977  0.25974416  0.43683494  1
  S  S15  1  0.61579184  0.26037913  0.93640849  1
  S  S16  1  0.25774289  0.87351896  0.30983701  1
  S  S17  1  0.25891468  0.87294856  0.80843514  1
  S  S18  1  0.87260744  0.61661433  0.12951973  1
  S  S19  1  0.87216364  0.61882923  0.62860946  1
  S  S20  1  0.38420816  0.73962087  0.06359151  1
  S  S21  1  0.38168023  0.74025584  0.56316506  1
  S  S22  1  0.74108532  0.12705144  0.19156486  1
  S  S23  1  0.74225711  0.12648104  0.69016299  1
  S  S24  1  0.12783636  0.38117077  0.37139054  1
  S  S25  1  0.12739256  0.38338567  0.87048027  1
  S  S26  1  0.75695193  0.75863138  0.37912672  1
  S  S27  1  0.75541490  0.75679470  0.87777316  1
  S  S28  1  0.24458510  0.24320530  0.12222684  1
  S  S29  1  0.24304807  0.24136862  0.62087328  1
