# generated using pymatgen
data_SrEuAlO4
_symmetry_space_group_name_H-M   'P 1'
_cell_length_a   3.76390407
_cell_length_b   3.76390407
_cell_length_c   6.74313284
_cell_angle_alpha   73.79399689
_cell_angle_beta   73.79399689
_cell_angle_gamma   90.00000000
_symmetry_Int_Tables_number   1
_chemical_formula_structural   SrEuAlO4
_chemical_formula_sum   'Sr1 Eu1 Al1 O4'
_cell_volume   87.77392121
_cell_formula_units_Z   1
loop_
 _symmetry_equiv_pos_site_id
 _symmetry_equiv_pos_as_xyz
  1  'x, y, z'
loop_
 _atom_site_type_symbol
 _atom_site_label
 _atom_site_symmetry_multiplicity
 _atom_site_fract_x
 _atom_site_fract_y
 _atom_site_fract_z
 _atom_site_occupancy
  Sr  Sr0  1  0.35529967  0.35529967  0.28940065  1
  Eu  Eu1  1  0.64033686  0.64033686  0.71932628  1
  Al  Al2  1  0.99871333  0.99871333  0.00257334  1
  O  O3  1  0.15919598  0.15919598  0.68160804  1
  O  O4  1  0.83589335  0.83589335  0.32821331  1
  O  O5  1  0.50528041  0.00528041  0.98943919  1
  O  O6  1  0.00528041  0.50528041  0.98943919  1
