# generated using pymatgen
data_Sr4LaMn5O13
_symmetry_space_group_name_H-M   'P 1'
_cell_length_a   3.85969403
_cell_length_b   8.86519227
_cell_length_c   8.92653349
_cell_angle_alpha   90.91921491
_cell_angle_beta   90.00000000
_cell_angle_gamma   90.00000000
_symmetry_Int_Tables_number   1
_chemical_formula_structural   Sr4LaMn5O13
_chemical_formula_sum   'Sr4 La1 Mn5 O13'
_cell_volume   305.39926126
_cell_formula_units_Z   1
loop_
 _symmetry_equiv_pos_site_id
 _symmetry_equiv_pos_as_xyz
  1  'x, y, z'
loop_
 _atom_site_type_symbol
 _atom_site_label
 _atom_site_symmetry_multiplicity
 _atom_site_fract_x
 _atom_site_fract_y
 _atom_site_fract_z
 _atom_site_occupancy
  Sr  Sr0  1  0.50000000  0.89722538  0.32013127  1
  Sr  Sr1  1  0.50000000  0.10277462  0.67986873  1
  Sr  Sr2  1  0.50000000  0.70398122  0.88192508  1
  Sr  Sr3  1  0.50000000  0.29601878  0.11807492  1
  La  La4  1  0.50000000  0.50000000  0.50000000  1
  Mn  Mn5  1  0.00000000  0.80237260  0.60258435  1
  Mn  Mn6  1  0.00000000  0.19762740  0.39741565  1
  Mn  Mn7  1  -0.00000000  0.60475880  0.19782675  1
  Mn  Mn8  1  0.00000000  0.39524120  0.80217325  1
  Mn  Mn9  1  0.00000000  0.00000000  -0.00000000  1
  O  O10  1  -0.00000000  0.69373795  0.40856238  1
  O  O11  1  0.00000000  0.30626205  0.59143762  1
  O  O12  1  0.50000000  0.58152864  0.16722525  1
  O  O13  1  0.50000000  0.41847136  0.83277475  1
  O  O14  1  0.00000000  0.00000000  0.50000000  1
  O  O15  1  -0.00000000  0.79286234  0.07678649  1
  O  O16  1  -0.00000000  0.20713766  0.92321351  1
  O  O17  1  -0.00000000  0.91529360  0.80004586  1
  O  O18  1  0.00000000  0.08470640  0.19995414  1
  O  O19  1  0.00000000  0.59450412  0.70125885  1
  O  O20  1  0.00000000  0.40549588  0.29874115  1
  O  O21  1  0.50000000  0.79240944  0.60008488  1
  O  O22  1  0.50000000  0.20759056  0.39991512  1
