# generated using pymatgen
data_Pt4SeS3
_symmetry_space_group_name_H-M   'P 1'
_cell_length_a   3.58131961
_cell_length_b   3.58131961
_cell_length_c   12.41331164
_cell_angle_alpha   90.00000000
_cell_angle_beta   90.00000000
_cell_angle_gamma   90.00000000
_symmetry_Int_Tables_number   1
_chemical_formula_structural   Pt4SeS3
_chemical_formula_sum   'Pt4 Se1 S3'
_cell_volume   159.21127495
_cell_formula_units_Z   1
loop_
 _symmetry_equiv_pos_site_id
 _symmetry_equiv_pos_as_xyz
  1  'x, y, z'
loop_
 _atom_site_type_symbol
 _atom_site_label
 _atom_site_symmetry_multiplicity
 _atom_site_fract_x
 _atom_site_fract_y
 _atom_site_fract_z
 _atom_site_occupancy
  Pt  Pt0  1  0.50000000  0.00000000  0.24147964  1
  Pt  Pt1  1  0.50000000  -0.00000000  0.75319690  1
  Pt  Pt2  1  0.00000000  0.50000000  0.99680310  1
  Pt  Pt3  1  0.00000000  0.50000000  0.50852036  1
  Se  Se4  1  -0.00000000  0.00000000  0.37500000  1
  S  S5  1  0.00000000  -0.00000000  0.87500000  1
  S  S6  1  -0.00000000  -0.00000000  0.11881098  1
  S  S7  1  0.00000000  0.00000000  0.63118902  1
