# generated using pymatgen
data_Sc4Ti3O12
_symmetry_space_group_name_H-M   'P 1'
_cell_length_a   6.07967151
_cell_length_b   6.05648353
_cell_length_c   5.92917342
_cell_angle_alpha   98.93023946
_cell_angle_beta   99.49197738
_cell_angle_gamma   98.97940584
_symmetry_Int_Tables_number   1
_chemical_formula_structural   Sc4Ti3O12
_chemical_formula_sum   'Sc4 Ti3 O12'
_cell_volume   208.99069705
_cell_formula_units_Z   1
loop_
 _symmetry_equiv_pos_site_id
 _symmetry_equiv_pos_as_xyz
  1  'x, y, z'
loop_
 _atom_site_type_symbol
 _atom_site_label
 _atom_site_symmetry_multiplicity
 _atom_site_fract_x
 _atom_site_fract_y
 _atom_site_fract_z
 _atom_site_occupancy
  Sc  Sc0  1  0.86565267  0.38459326  0.69763801  1
  Sc  Sc1  1  0.60861163  0.31972553  0.14304386  1
  Sc  Sc2  1  0.31530420  0.13934349  0.60657002  1
  Sc  Sc3  1  0.13158925  0.61231581  0.30610088  1
  Ti  Ti4  1  0.00995932  0.00407992  0.99756494  1
  Ti  Ti5  1  0.39098883  0.67498805  0.85649495  1
  Ti  Ti6  1  0.68287153  0.85706629  0.38515051  1
  O  O7  1  0.67997425  0.89335643  0.06008616  1
  O  O8  1  0.89511937  0.02883520  0.67705825  1
  O  O9  1  0.07786130  0.68864163  0.91032795  1
  O  O10  1  0.30815793  0.10313671  0.95244093  1
  O  O11  1  0.08812775  0.95066765  0.31190629  1
  O  O12  1  0.93928040  0.31118474  0.07510843  1
  O  O13  1  0.17765469  0.42452943  0.58382192  1
  O  O14  1  0.42436220  0.59601212  0.18102666  1
  O  O15  1  0.58686363  0.16568887  0.42304938  1
  O  O16  1  0.81199604  0.59138699  0.42077278  1
  O  O17  1  0.57107116  0.43863412  0.81831007  1
  O  O18  1  0.43455384  0.81581375  0.59352801  1
