# generated using pymatgen
data_Pr3DyFe34
_symmetry_space_group_name_H-M   'P 1'
_cell_length_a   6.46181226
_cell_length_b   6.46181226
_cell_length_c   12.89306674
_cell_angle_alpha   82.89839193
_cell_angle_beta   82.89839193
_cell_angle_gamma   82.73402142
_symmetry_Int_Tables_number   1
_chemical_formula_structural   Pr3DyFe34
_chemical_formula_sum   'Pr3 Dy1 Fe34'
_cell_volume   526.73152047
_cell_formula_units_Z   1
loop_
 _symmetry_equiv_pos_site_id
 _symmetry_equiv_pos_as_xyz
  1  'x, y, z'
loop_
 _atom_site_type_symbol
 _atom_site_label
 _atom_site_symmetry_multiplicity
 _atom_site_fract_x
 _atom_site_fract_y
 _atom_site_fract_z
 _atom_site_occupancy
  Pr  Pr0  1  0.65956007  0.65956007  0.82940952  1
  Pr  Pr1  1  0.34167899  0.34167899  0.17093765  1
  Pr  Pr2  1  0.34021533  0.34021533  0.67045430  1
  Dy  Dy3  1  0.66085229  0.66085229  0.33032914  1
  Fe  Fe4  1  0.28854613  0.71127398  0.00079462  1
  Fe  Fe5  1  0.29312527  0.70832141  0.49849954  1
  Fe  Fe6  1  0.70888259  0.99888496  0.14695233  1
  Fe  Fe7  1  0.71069066  0.00099563  0.64388510  1
  Fe  Fe8  1  0.99797189  0.29228176  0.35423594  1
  Fe  Fe9  1  0.99912210  0.28921537  0.85545615  1
  Fe  Fe10  1  0.29228176  0.99797189  0.35423594  1
  Fe  Fe11  1  0.28921537  0.99912210  0.85545615  1
  Fe  Fe12  1  0.99888496  0.70888259  0.14695233  1
  Fe  Fe13  1  0.00099563  0.71069066  0.64388510  1
  Fe  Fe14  1  0.71127398  0.28854613  0.00079462  1
  Fe  Fe15  1  0.70832141  0.29312527  0.49849954  1
  Fe  Fe16  1  0.90308705  0.90308705  0.45086784  1
  Fe  Fe17  1  0.90405973  0.90405973  0.95211911  1
  Fe  Fe18  1  0.09541652  0.09541652  0.04887276  1
  Fe  Fe19  1  0.09571472  0.09571472  0.54721474  1
  Fe  Fe20  1  0.99892417  0.99892417  0.25068323  1
  Fe  Fe21  1  0.99994989  0.99994989  0.74972533  1
  Fe  Fe22  1  0.99924133  0.50084210  0.49883548  1
  Fe  Fe23  1  0.99980765  0.50001974  0.00070520  1
  Fe  Fe24  1  0.50001974  0.99980765  0.00070520  1
  Fe  Fe25  1  0.50084210  0.99924133  0.49883548  1
  Fe  Fe26  1  0.34362827  0.34362827  0.42180872  1
  Fe  Fe27  1  0.34103011  0.34103011  0.92276357  1
  Fe  Fe28  1  0.34358698  0.84396257  0.17205329  1
  Fe  Fe29  1  0.34128457  0.84537649  0.66973637  1
  Fe  Fe30  1  0.84396257  0.34358698  0.17205329  1
  Fe  Fe31  1  0.84537649  0.34128457  0.66973637  1
  Fe  Fe32  1  0.65865546  0.65865546  0.07922497  1
  Fe  Fe33  1  0.65806177  0.65806177  0.57543759  1
  Fe  Fe34  1  0.65811899  0.15447124  0.32916290  1
  Fe  Fe35  1  0.65844715  0.15469507  0.82975883  1
  Fe  Fe36  1  0.15447124  0.65811899  0.32916290  1
  Fe  Fe37  1  0.15469507  0.65844715  0.82975883  1
