# generated using pymatgen
data_SmCo4Cu
_symmetry_space_group_name_H-M   'P 1'
_cell_length_a   3.97217972
_cell_length_b   4.97776178
_cell_length_c   4.97735486
_cell_angle_alpha   119.97933422
_cell_angle_beta   90.00000000
_cell_angle_gamma   90.00000000
_symmetry_Int_Tables_number   1
_chemical_formula_structural   SmCo4Cu
_chemical_formula_sum   'Sm1 Co4 Cu1'
_cell_volume   85.24769314
_cell_formula_units_Z   1
loop_
 _symmetry_equiv_pos_site_id
 _symmetry_equiv_pos_as_xyz
  1  'x, y, z'
loop_
 _atom_site_type_symbol
 _atom_site_label
 _atom_site_symmetry_multiplicity
 _atom_site_fract_x
 _atom_site_fract_y
 _atom_site_fract_z
 _atom_site_occupancy
  Sm  Sm0  1  0.00000000  0.99998093  0.00001068  1
  Co  Co1  1  0.00000000  0.66661707  0.33328557  1
  Co  Co2  1  0.50000000  0.50111684  0.00225073  1
  Co  Co3  1  0.50000000  0.50111597  0.49889123  1
  Co  Co4  1  0.50000000  0.99773335  0.49887877  1
  Cu  Cu5  1  -0.00000000  0.33333584  0.66668303  1
