# generated using pymatgen
data_Rb6Na2U2C6O23
_symmetry_space_group_name_H-M   'P 1'
_cell_length_a   8.56086665
_cell_length_b   9.63076966
_cell_length_c   9.63355533
_cell_angle_alpha   120.00425012
_cell_angle_beta   90.01085442
_cell_angle_gamma   89.99607133
_symmetry_Int_Tables_number   1
_chemical_formula_structural   Rb6Na2U2C6O23
_chemical_formula_sum   'Rb6 Na2 U2 C6 O23'
_cell_volume   687.82403331
_cell_formula_units_Z   1
loop_
 _symmetry_equiv_pos_site_id
 _symmetry_equiv_pos_as_xyz
  1  'x, y, z'
loop_
 _atom_site_type_symbol
 _atom_site_label
 _atom_site_symmetry_multiplicity
 _atom_site_fract_x
 _atom_site_fract_y
 _atom_site_fract_z
 _atom_site_occupancy
  Rb  Rb0  1  0.99914707  0.28104258  0.00035637  1
  Rb  Rb1  1  0.99898982  0.71929244  0.71884636  1
  Rb  Rb2  1  0.99900424  0.99954282  0.28082682  1
  Rb  Rb3  1  0.49979743  0.28273998  0.00040584  1
  Rb  Rb4  1  0.49993178  0.71764386  0.71710536  1
  Rb  Rb5  1  0.49984016  0.99953541  0.28246473  1
  Na  Na6  1  0.75017959  0.33296195  0.66639646  1
  Na  Na7  1  0.24976754  0.66676395  0.33333845  1
  U  U8  1  0.75001870  0.66678071  0.33348478  1
  U  U9  1  0.24996343  0.33331821  0.66665714  1
  C  C10  1  0.74964837  0.98655414  0.61564807  1
  C  C11  1  0.74964481  0.62919414  0.01346917  1
  C  C12  1  0.74966011  0.38429721  0.37087499  1
  C  C13  1  0.25002028  0.37051808  0.38454901  1
  C  C14  1  0.25004915  0.61558127  0.98600456  1
  C  C15  1  0.25004867  0.01375972  0.62933740  1
  O  O16  1  0.74949718  0.85387789  0.62382193  1
  O  O17  1  0.74946402  0.77016555  0.14610868  1
  O  O18  1  0.74952113  0.37595964  0.23001018  1
  O  O19  1  0.25001087  0.23031492  0.37688142  1
  O  O20  1  0.25012674  0.62326958  0.85354121  1
  O  O21  1  0.25010792  0.14642457  0.76948626  1
  O  O22  1  0.74947425  0.12517876  0.73762256  1
  O  O23  1  0.74949214  0.61241489  0.87493564  1
  O  O24  1  0.74944893  0.26236137  0.38757096  1
  O  O25  1  0.24995226  0.38698432  0.26216368  1
  O  O26  1  0.24991924  0.73802464  0.12487913  1
  O  O27  1  0.24993131  0.87496420  0.61298828  1
  O  O28  1  0.96575688  0.66673226  0.33327870  1
  O  O29  1  0.53421788  0.66674253  0.33322727  1
  O  O30  1  0.46505859  0.33332750  0.66656673  1
  O  O31  1  0.03488625  0.33336994  0.66654932  1
  O  O32  1  0.74989054  0.96035312  0.46759869  1
  O  O33  1  0.74988774  0.50735090  0.03981829  1
  O  O34  1  0.74991223  0.53246832  0.49273169  1
  O  O35  1  0.25028196  0.49290891  0.53188479  1
  O  O36  1  0.25028342  0.46819963  0.96104699  1
  O  O37  1  0.25027979  0.03868530  0.50693967  1
  O  O38  1  0.20488758  0.00059477  0.00058241  1
