# generated using pymatgen
data_RbNaCa2Nb4O13
_symmetry_space_group_name_H-M   'P 1'
_cell_length_a   3.97914262
_cell_length_b   3.97914262
_cell_length_c   19.25434699
_cell_angle_alpha   90.00000000
_cell_angle_beta   90.00000000
_cell_angle_gamma   90.00000000
_symmetry_Int_Tables_number   1
_chemical_formula_structural   RbNaCa2Nb4O13
_chemical_formula_sum   'Rb1 Na1 Ca2 Nb4 O13'
_cell_volume   304.86516621
_cell_formula_units_Z   1
loop_
 _symmetry_equiv_pos_site_id
 _symmetry_equiv_pos_as_xyz
  1  'x, y, z'
loop_
 _atom_site_type_symbol
 _atom_site_label
 _atom_site_symmetry_multiplicity
 _atom_site_fract_x
 _atom_site_fract_y
 _atom_site_fract_z
 _atom_site_occupancy
  Rb  Rb0  1  0.50000000  0.50000000  0.50000000  1
  Na  Na1  1  0.50000000  0.50000000  0.00000000  1
  Ca  Ca2  1  0.50000000  0.50000000  0.77752781  1
  Ca  Ca3  1  0.50000000  0.50000000  0.22247219  1
  Nb  Nb4  1  -0.00000000  0.00000000  0.67272517  1
  Nb  Nb5  1  0.00000000  -0.00000000  0.32727483  1
  Nb  Nb6  1  0.00000000  0.00000000  0.89483106  1
  Nb  Nb7  1  0.00000000  -0.00000000  0.10516894  1
  O  O8  1  0.50000000  -0.00000000  0.69468250  1
  O  O9  1  -0.00000000  0.50000000  0.69468250  1
  O  O10  1  0.50000000  0.00000000  0.30531750  1
  O  O11  1  0.00000000  0.50000000  0.30531750  1
  O  O12  1  0.50000000  0.00000000  0.89458859  1
  O  O13  1  -0.00000000  0.50000000  0.89458859  1
  O  O14  1  0.50000000  -0.00000000  0.10541141  1
  O  O15  1  0.00000000  0.50000000  0.10541141  1
  O  O16  1  0.00000000  -0.00000000  0.79307070  1
  O  O17  1  -0.00000000  0.00000000  0.20692930  1
  O  O18  1  -0.00000000  -0.00000000  0.57933095  1
  O  O19  1  -0.00000000  0.00000000  0.42066905  1
  O  O20  1  0.00000000  0.00000000  0.00000000  1
