# generated using pymatgen
data_Na6Sm4Ge4Se17
_symmetry_space_group_name_H-M   'P 1'
_cell_length_a   6.99168927
_cell_length_b   11.13953790
_cell_length_c   12.81247076
_cell_angle_alpha   64.23286096
_cell_angle_beta   101.79652293
_cell_angle_gamma   90.00000000
_symmetry_Int_Tables_number   1
_chemical_formula_structural   Na6Sm4Ge4Se17
_chemical_formula_sum   'Na6 Sm4 Ge4 Se17'
_cell_volume   875.20533071
_cell_formula_units_Z   1
loop_
 _symmetry_equiv_pos_site_id
 _symmetry_equiv_pos_as_xyz
  1  'x, y, z'
loop_
 _atom_site_type_symbol
 _atom_site_label
 _atom_site_symmetry_multiplicity
 _atom_site_fract_x
 _atom_site_fract_y
 _atom_site_fract_z
 _atom_site_occupancy
  Na  Na0  1  0.90723140  0.59662768  0.81297453  1
  Na  Na1  1  0.59276860  0.40960221  0.18702547  1
  Na  Na2  1  0.04475492  0.41136887  0.19045950  1
  Na  Na3  1  0.45524508  0.60182837  0.80954050  1
  Na  Na4  1  0.50730529  0.83561199  0.98654283  1
  Na  Na5  1  0.99269471  0.82215482  0.01345717  1
  Sm  Sm6  1  0.32633075  0.05428662  0.61646563  1
  Sm  Sm7  1  0.17366925  0.67075225  0.38353437  1
  Sm  Sm8  1  0.66564805  0.95651068  0.37118673  1
  Sm  Sm9  1  0.83435195  0.32769741  0.62881327  1
  Ge  Ge10  1  0.13091846  0.05060674  0.29663699  1
  Ge  Ge11  1  0.36908154  0.34724374  0.70336301  1
  Ge  Ge12  1  0.86062911  0.94761730  0.69801063  1
  Ge  Ge13  1  0.63937089  0.64562794  0.30198937  1
  Se  Se14  1  0.17060685  0.81694320  0.80688829  1
  Se  Se15  1  0.32939315  0.62383149  0.19311171  1
  Se  Se16  1  0.82693592  0.17616222  0.18627034  1
  Se  Se17  1  0.67306408  0.36243256  0.81372966  1
  Se  Se18  1  0.40077474  0.34745230  0.52000284  1
  Se  Se19  1  0.09922526  0.86745514  0.47999716  1
  Se  Se20  1  0.60507753  0.65494676  0.47990807  1
  Se  Se21  1  0.89492247  0.13485484  0.52009193  1
  Se  Se22  1  0.37473885  0.17562893  0.35327524  1
  Se  Se23  1  0.12526115  0.52890417  0.64672476  1
  Se  Se24  1  0.60965476  0.83840708  0.62744096  1
  Se  Se25  1  0.89034524  0.46584804  0.37255904  1
  Se  Se26  1  0.70874376  0.04798807  0.79424749  1
  Se  Se27  1  0.79125624  0.84223556  0.20575251  1
  Se  Se28  1  0.29120310  0.94314397  0.20963107  1
  Se  Se29  1  0.20879690  0.15277504  0.79036893  1
  Se  Se30  1  0.75000000  0.61175399  0.00000000  1
