# generated using pymatgen
data_NbReMo
_symmetry_space_group_name_H-M   'P 1'
_cell_length_a   2.77304432
_cell_length_b   2.77304432
_cell_length_c   6.96588959
_cell_angle_alpha   82.41632713
_cell_angle_beta   82.41632713
_cell_angle_gamma   109.69193796
_symmetry_Int_Tables_number   1
_chemical_formula_structural   NbReMo
_chemical_formula_sum   'Nb1 Re1 Mo1'
_cell_volume   49.09077241
_cell_formula_units_Z   1
loop_
 _symmetry_equiv_pos_site_id
 _symmetry_equiv_pos_as_xyz
  1  'x, y, z'
loop_
 _atom_site_type_symbol
 _atom_site_label
 _atom_site_symmetry_multiplicity
 _atom_site_fract_x
 _atom_site_fract_y
 _atom_site_fract_z
 _atom_site_occupancy
  Nb  Nb0  1  0.33215133  0.33215133  0.33569634  1
  Re  Re1  1  0.66429732  0.66429732  0.67140636  1
  Mo  Mo2  1  0.00355135  0.00355135  0.99289731  1
