# generated using pymatgen
data_NaYIrO4
_symmetry_space_group_name_H-M   'P 1'
_cell_length_a   3.25717647
_cell_length_b   9.39692382
_cell_length_c   9.39692328
_cell_angle_alpha   61.61478288
_cell_angle_beta   90.00000000
_cell_angle_gamma   90.00000000
_symmetry_Int_Tables_number   1
_chemical_formula_structural   NaYIrO4
_chemical_formula_sum   'Na3 Y3 Ir3 O12'
_cell_volume   253.03607713
_cell_formula_units_Z   3
loop_
 _symmetry_equiv_pos_site_id
 _symmetry_equiv_pos_as_xyz
  1  'x, y, z'
loop_
 _atom_site_type_symbol
 _atom_site_label
 _atom_site_symmetry_multiplicity
 _atom_site_fract_x
 _atom_site_fract_y
 _atom_site_fract_z
 _atom_site_occupancy
  Na  Na0  1  0.00000000  0.01847610  0.98152390  1
  Na  Na1  1  0.50000000  0.30178674  0.00012137  1
  Na  Na2  1  0.50000000  0.99987863  0.69821326  1
  Y  Y3  1  0.50000000  0.31454000  0.34177869  1
  Y  Y4  1  0.50000000  0.65822131  0.68546000  1
  Y  Y5  1  0.50000000  0.70144574  0.29855426  1
  Ir  Ir6  1  0.00000000  0.33202345  0.66797655  1
  Ir  Ir7  1  0.00000000  0.67369561  0.00248060  1
  Ir  Ir8  1  0.00000000  0.99751940  0.32630439  1
  O  O9  1  -0.00000000  0.46438027  0.78490207  1
  O  O10  1  -0.00000000  0.78430351  0.75850882  1
  O  O11  1  0.00000000  0.74387899  0.45074279  1
  O  O12  1  -0.00000000  0.21509793  0.53561973  1
  O  O13  1  -0.00000000  0.24149118  0.21569649  1
  O  O14  1  -0.00000000  0.54925721  0.25612101  1
  O  O15  1  0.50000000  0.46106562  0.53893438  1
  O  O16  1  0.50000000  0.54694872  0.99895782  1
  O  O17  1  0.50000000  0.00104218  0.45305128  1
  O  O18  1  0.50000000  0.20165430  0.79834570  1
  O  O19  1  0.50000000  0.80663638  0.01344327  1
  O  O20  1  0.50000000  0.98655673  0.19336362  1
