# generated using pymatgen
data_Nb2CuCS2
_symmetry_space_group_name_H-M   'P 1'
_cell_length_a   3.37073111
_cell_length_b   3.37066247
_cell_length_c   9.07378099
_cell_angle_alpha   89.99999997
_cell_angle_beta   89.99848152
_cell_angle_gamma   119.99932962
_symmetry_Int_Tables_number   1
_chemical_formula_structural   Nb2CuCS2
_chemical_formula_sum   'Nb2 Cu1 C1 S2'
_cell_volume   89.28144932
_cell_formula_units_Z   1
loop_
 _symmetry_equiv_pos_site_id
 _symmetry_equiv_pos_as_xyz
  1  'x, y, z'
loop_
 _atom_site_type_symbol
 _atom_site_label
 _atom_site_symmetry_multiplicity
 _atom_site_fract_x
 _atom_site_fract_y
 _atom_site_fract_z
 _atom_site_occupancy
  Nb  Nb0  1  0.33336568  0.66668284  0.11834051  1
  Nb  Nb1  1  0.66665242  0.33332621  0.87165335  1
  Cu  Cu2  1  0.33337847  0.66668923  0.44996461  1
  C  C3  1  0.00001105  0.00000552  0.99739896  1
  S  S4  1  0.33332532  0.66666266  0.69194217  1
  S  S5  1  0.66666707  0.33333354  0.31070041  1
