# generated using pymatgen
data_NdAlNi4
_symmetry_space_group_name_H-M   'P 1'
_cell_length_a   3.87767764
_cell_length_b   5.14142705
_cell_length_c   5.13996779
_cell_angle_alpha   119.98107234
_cell_angle_beta   90.00000000
_cell_angle_gamma   90.00000000
_symmetry_Int_Tables_number   1
_chemical_formula_structural   NdAlNi4
_chemical_formula_sum   'Nd1 Al1 Ni4'
_cell_volume   88.76243564
_cell_formula_units_Z   1
loop_
 _symmetry_equiv_pos_site_id
 _symmetry_equiv_pos_as_xyz
  1  'x, y, z'
loop_
 _atom_site_type_symbol
 _atom_site_label
 _atom_site_symmetry_multiplicity
 _atom_site_fract_x
 _atom_site_fract_y
 _atom_site_fract_z
 _atom_site_occupancy
  Nd  Nd0  1  0.00000000  0.99986486  0.00005045  1
  Al  Al1  1  0.00000000  0.33322206  0.66663714  1
  Ni  Ni2  1  0.00000000  0.66664982  0.33334247  1
  Ni  Ni3  1  0.50000000  0.50237786  0.00464367  1
  Ni  Ni4  1  0.50000000  0.50243454  0.49765602  1
  Ni  Ni5  1  0.50000000  0.99535086  0.49767024  1
