# generated using pymatgen
data_NdFe5Bi4O15
_symmetry_space_group_name_H-M   'P 1'
_cell_length_a   3.75528878
_cell_length_b   22.07687878
_cell_length_c   4.89426169
_cell_angle_alpha   88.00458994
_cell_angle_beta   91.01804837
_cell_angle_gamma   120.78335948
_symmetry_Int_Tables_number   1
_chemical_formula_structural   NdFe5Bi4O15
_chemical_formula_sum   'Nd1 Fe5 Bi4 O15'
_cell_volume   348.37968707
_cell_formula_units_Z   1
loop_
 _symmetry_equiv_pos_site_id
 _symmetry_equiv_pos_as_xyz
  1  'x, y, z'
loop_
 _atom_site_type_symbol
 _atom_site_label
 _atom_site_symmetry_multiplicity
 _atom_site_fract_x
 _atom_site_fract_y
 _atom_site_fract_z
 _atom_site_occupancy
  Nd  Nd0  1  0.60405228  0.19577673  0.02663921  1
  Fe  Fe1  1  0.80693108  0.09485250  0.48342644  1
  Fe  Fe2  1  0.38987397  0.28934868  0.47504378  1
  Fe  Fe3  1  0.00016496  0.49217413  0.48712210  1
  Fe  Fe4  1  0.59645050  0.69139304  0.48234808  1
  Fe  Fe5  1  0.19458179  0.89066260  0.48319958  1
  Bi  Bi6  1  0.00003580  0.99733253  0.06917692  1
  Bi  Bi7  1  0.20633135  0.39929845  0.06716617  1
  Bi  Bi8  1  0.78334511  0.59822168  0.05383541  1
  Bi  Bi9  1  0.37816867  0.79769619  0.05159276  1
  O  O10  1  0.28607848  0.08847186  0.33987765  1
  O  O11  1  0.90593966  0.29525016  0.33119520  1
  O  O12  1  0.49934115  0.49250145  0.33756610  1
  O  O13  1  0.09667035  0.69197240  0.33346231  1
  O  O14  1  0.69840413  0.89255147  0.33179691  1
  O  O15  1  0.09743911  0.19159071  0.34399532  1
  O  O16  1  0.70172376  0.39313389  0.33869606  1
  O  O17  1  0.30039695  0.59258806  0.33791083  1
  O  O18  1  0.89891994  0.79229747  0.33843906  1
  O  O19  1  0.49567846  0.99168412  0.33550834  1
  O  O20  1  0.82982410  0.10103009  0.86402676  1
  O  O21  1  0.34232292  0.27343083  0.85290935  1
  O  O22  1  0.00862843  0.48881825  0.86454784  1
  O  O23  1  0.61359215  0.68704244  0.86132148  1
  O  O24  1  0.19510487  0.88388026  0.86069636  1
