# generated using pymatgen
data_Pr2AlFe16
_symmetry_space_group_name_H-M   'P 1'
_cell_length_a   6.47215949
_cell_length_b   6.47215949
_cell_length_c   6.47215995
_cell_angle_alpha   82.75117175
_cell_angle_beta   82.75117175
_cell_angle_gamma   82.75117327
_symmetry_Int_Tables_number   1
_chemical_formula_structural   Pr2AlFe16
_chemical_formula_sum   'Pr2 Al1 Fe16'
_cell_volume   265.11508330
_cell_formula_units_Z   1
loop_
 _symmetry_equiv_pos_site_id
 _symmetry_equiv_pos_as_xyz
  1  'x, y, z'
loop_
 _atom_site_type_symbol
 _atom_site_label
 _atom_site_symmetry_multiplicity
 _atom_site_fract_x
 _atom_site_fract_y
 _atom_site_fract_z
 _atom_site_occupancy
  Pr  Pr0  1  0.65736935  0.65736935  0.65736935  1
  Pr  Pr1  1  0.34480277  0.34480277  0.34480277  1
  Al  Al2  1  0.09504719  0.09504719  0.09504719  1
  Fe  Fe3  1  0.28481757  0.71499259  0.00050598  1
  Fe  Fe4  1  0.71499259  0.00050598  0.28481757  1
  Fe  Fe5  1  0.00050598  0.28481757  0.71499259  1
  Fe  Fe6  1  0.28481757  0.00050598  0.71499259  1
  Fe  Fe7  1  0.00050598  0.71499259  0.28481757  1
  Fe  Fe8  1  0.71499259  0.28481757  0.00050598  1
  Fe  Fe9  1  -0.00009402  -0.00009402  0.50047601  1
  Fe  Fe10  1  -0.00009402  0.50047601  -0.00009402  1
  Fe  Fe11  1  0.50047601  -0.00009402  -0.00009402  1
  Fe  Fe12  1  0.34137108  0.34137108  0.84513473  1
  Fe  Fe13  1  0.34137108  0.84513473  0.34137108  1
  Fe  Fe14  1  0.84513473  0.34137108  0.34137108  1
  Fe  Fe15  1  0.65869028  0.65869028  0.15548430  1
  Fe  Fe16  1  0.65869028  0.15548430  0.65869028  1
  Fe  Fe17  1  0.15548430  0.65869028  0.65869028  1
  Fe  Fe18  1  0.90111871  0.90111871  0.90111871  1
