# generated using pymatgen
data_Nb6V2(CS2)3
_symmetry_space_group_name_H-M   'P 1'
_cell_length_a   5.72833758
_cell_length_b   5.72655384
_cell_length_c   8.84223960
_cell_angle_alpha   77.49630819
_cell_angle_beta   96.21257437
_cell_angle_gamma   119.98968874
_symmetry_Int_Tables_number   1
_chemical_formula_structural   Nb6V2(CS2)3
_chemical_formula_sum   'Nb6 V2 C3 S6'
_cell_volume   245.26483542
_cell_formula_units_Z   1
loop_
 _symmetry_equiv_pos_site_id
 _symmetry_equiv_pos_as_xyz
  1  'x, y, z'
loop_
 _atom_site_type_symbol
 _atom_site_label
 _atom_site_symmetry_multiplicity
 _atom_site_fract_x
 _atom_site_fract_y
 _atom_site_fract_z
 _atom_site_occupancy
  Nb  Nb0  1  0.00062049  0.37767277  0.86862756  1
  Nb  Nb1  1  0.66604651  0.71038529  0.86862756  1
  Nb  Nb2  1  0.33333300  0.04366060  0.86720342  1
  Nb  Nb3  1  0.00062049  0.62294771  0.13137244  1
  Nb  Nb4  1  0.66604651  0.95566023  0.13137244  1
  Nb  Nb5  1  0.33333300  0.28967340  0.13279658  1
  V  V6  1  0.99556845  0.49778422  0.50000000  1
  V  V7  1  0.67109855  0.83554878  0.50000000  1
  C  C8  1  0.66577374  0.33288637  0.00000000  1
  C  C9  1  0.33333300  0.66666700  0.00000000  1
  C  C10  1  0.00089326  0.00044663  1.00000000  1
  S  S11  1  0.33333300  0.89514831  0.33495737  1
  S  S12  1  0.00823402  0.22126948  0.33697130  1
  S  S13  1  0.65843298  0.54636845  0.33697130  1
  S  S14  1  0.65843298  0.11206352  0.66302870  1
  S  S15  1  0.33333300  0.43818569  0.66504263  1
  S  S16  1  0.00823402  0.78696455  0.66302870  1
