# generated using pymatgen
data_Na2Ca2(SiO3)3
_symmetry_space_group_name_H-M   'P 1'
_cell_length_a   7.59475147
_cell_length_b   7.59475147
_cell_length_c   7.59475156
_cell_angle_alpha   88.78987604
_cell_angle_beta   88.78987604
_cell_angle_gamma   88.78987469
_symmetry_Int_Tables_number   1
_chemical_formula_structural   Na2Ca2(SiO3)3
_chemical_formula_sum   'Na4 Ca4 Si6 O18'
_cell_volume   437.77812176
_cell_formula_units_Z   2
loop_
 _symmetry_equiv_pos_site_id
 _symmetry_equiv_pos_as_xyz
  1  'x, y, z'
loop_
 _atom_site_type_symbol
 _atom_site_label
 _atom_site_symmetry_multiplicity
 _atom_site_fract_x
 _atom_site_fract_y
 _atom_site_fract_z
 _atom_site_occupancy
  Na  Na0  1  0.48543193  0.48543193  0.01858570  1
  Na  Na1  1  0.48543193  0.01858570  0.48543193  1
  Na  Na2  1  0.01858570  0.48543193  0.48543193  1
  Na  Na3  1  0.75458546  0.75458546  0.75458546  1
  Ca  Ca4  1  0.01169284  0.01169284  0.46657065  1
  Ca  Ca5  1  0.01169284  0.46657065  0.01169284  1
  Ca  Ca6  1  0.46657065  0.01169284  0.01169284  1
  Ca  Ca7  1  0.99776170  0.99776170  0.99776170  1
  Si  Si8  1  0.71940284  0.71940284  0.25938578  1
  Si  Si9  1  0.71940284  0.25938578  0.71940284  1
  Si  Si10  1  0.25938578  0.71940284  0.71940284  1
  Si  Si11  1  0.28406341  0.28406341  0.73834210  1
  Si  Si12  1  0.28406341  0.73834210  0.28406341  1
  Si  Si13  1  0.73834210  0.28406341  0.28406341  1
  O  O14  1  0.79663277  0.79663277  0.43699278  1
  O  O15  1  0.79663277  0.43699278  0.79663277  1
  O  O16  1  0.43699278  0.79663277  0.79663277  1
  O  O17  1  0.20663740  0.20663740  0.56261222  1
  O  O18  1  0.20663740  0.56261222  0.20663740  1
  O  O19  1  0.56261222  0.20663740  0.20663740  1
  O  O20  1  0.79185930  0.79185930  0.07242797  1
  O  O21  1  0.79185930  0.07242797  0.79185930  1
  O  O22  1  0.07242797  0.79185930  0.79185930  1
  O  O23  1  0.20953777  0.20953777  0.92609573  1
  O  O24  1  0.20953777  0.92609573  0.20953777  1
  O  O25  1  0.92609573  0.20953777  0.20953777  1
  O  O26  1  0.75189777  0.25010400  0.50085993  1
  O  O27  1  0.25010400  0.50085993  0.75189777  1
  O  O28  1  0.50085993  0.75189777  0.25010400  1
  O  O29  1  0.75189777  0.50085993  0.25010400  1
  O  O30  1  0.50085993  0.25010400  0.75189777  1
  O  O31  1  0.25010400  0.75189777  0.50085993  1
