# generated using pymatgen
data_Lu4MnS7
_symmetry_space_group_name_H-M   'P 1'
_cell_length_a   3.72300327
_cell_length_b   6.44553034
_cell_length_c   11.31814428
_cell_angle_alpha   103.97285239
_cell_angle_beta   90.00000000
_cell_angle_gamma   73.21357105
_symmetry_Int_Tables_number   1
_chemical_formula_structural   Lu4MnS7
_chemical_formula_sum   'Lu4 Mn1 S7'
_cell_volume   251.61918013
_cell_formula_units_Z   1
loop_
 _symmetry_equiv_pos_site_id
 _symmetry_equiv_pos_as_xyz
  1  'x, y, z'
loop_
 _atom_site_type_symbol
 _atom_site_label
 _atom_site_symmetry_multiplicity
 _atom_site_fract_x
 _atom_site_fract_y
 _atom_site_fract_z
 _atom_site_occupancy
  Lu  Lu0  1  0.69304641  0.61390718  0.20081579  1
  Lu  Lu1  1  0.30622597  0.38754806  0.80350835  1
  Lu  Lu2  1  0.00001784  -0.00003568  0.00363005  1
  Lu  Lu3  1  0.11457995  0.77084011  0.56988719  1
  Mn  Mn4  1  0.88593155  0.22813689  0.42120744  1
  S  S5  1  0.74369580  0.51260840  0.64291608  1
  S  S6  1  0.26308842  0.47382316  0.35388156  1
  S  S7  1  0.33988094  0.32023812  0.05062157  1
  S  S8  1  0.65992822  0.68014356  0.94839384  1
  S  S9  1  0.03532229  0.92935542  0.22122278  1
  S  S10  1  0.96234470  0.07531061  0.78495469  1
  S  S11  1  0.49593792  0.00812417  0.49896065  1
