# generated using pymatgen
data_Li3V8ZnO16
_symmetry_space_group_name_H-M   'P 1'
_cell_length_a   5.95966382
_cell_length_b   8.42180438
_cell_length_c   5.95966382
_cell_angle_alpha   90.00000000
_cell_angle_beta   90.00000000
_cell_angle_gamma   90.00000000
_symmetry_Int_Tables_number   1
_chemical_formula_structural   Li3V8ZnO16
_chemical_formula_sum   'Li3 V8 Zn1 O16'
_cell_volume   299.12221891
_cell_formula_units_Z   1
loop_
 _symmetry_equiv_pos_site_id
 _symmetry_equiv_pos_as_xyz
  1  'x, y, z'
loop_
 _atom_site_type_symbol
 _atom_site_label
 _atom_site_symmetry_multiplicity
 _atom_site_fract_x
 _atom_site_fract_y
 _atom_site_fract_z
 _atom_site_occupancy
  Li  Li0  1  0.75000000  0.62500000  0.50000000  1
  Li  Li1  1  0.75000000  0.87354420  -0.00000000  1
  Li  Li2  1  0.25000000  0.37645580  0.50000000  1
  V  V3  1  0.75000000  0.25077963  0.74271060  1
  V  V4  1  0.25000000  0.74621751  0.25379511  1
  V  V5  1  0.75000000  0.25077963  0.25728940  1
  V  V6  1  0.25000000  0.74621751  0.74620489  1
  V  V7  1  0.50379511  0.50378249  0.00000000  1
  V  V8  1  0.99271060  0.99922037  0.50000000  1
  V  V9  1  0.99620489  0.50378249  0.00000000  1
  V  V10  1  0.50728940  0.99922037  0.50000000  1
  Zn  Zn11  1  0.25000000  0.12500000  -0.00000000  1
  O  O12  1  0.75000000  0.48733427  0.23087307  1
  O  O13  1  0.25000000  0.99015104  0.72713036  1
  O  O14  1  0.75000000  0.48733427  0.76912693  1
  O  O15  1  0.25000000  0.99015104  0.27286964  1
  O  O16  1  0.97713036  0.25984896  -0.00000000  1
  O  O17  1  0.48087307  0.76266573  0.50000000  1
  O  O18  1  0.52286964  0.25984896  -0.00000000  1
  O  O19  1  0.01912693  0.76266573  0.50000000  1
  O  O20  1  0.25000000  0.50986110  0.77240649  1
  O  O21  1  0.75000000  0.01143752  0.26948083  1
  O  O22  1  0.25000000  0.50986110  0.22759351  1
  O  O23  1  0.75000000  0.01143752  0.73051917  1
  O  O24  1  0.02240649  0.74013890  -0.00000000  1
  O  O25  1  0.51948083  0.23856248  0.50000000  1
  O  O26  1  0.47759351  0.74013890  0.00000000  1
  O  O27  1  0.98051917  0.23856248  0.50000000  1
