# generated using pymatgen
data_Mn2TeSe
_symmetry_space_group_name_H-M   'P 1'
_cell_length_a   3.91807364
_cell_length_b   3.91807363
_cell_length_c   6.86250641
_cell_angle_alpha   73.41308765
_cell_angle_beta   90.00000000
_cell_angle_gamma   119.99999994
_symmetry_Int_Tables_number   1
_chemical_formula_structural   Mn2TeSe
_chemical_formula_sum   'Mn2 Te1 Se1'
_cell_volume   86.13526456
_cell_formula_units_Z   1
loop_
 _symmetry_equiv_pos_site_id
 _symmetry_equiv_pos_as_xyz
  1  'x, y, z'
loop_
 _atom_site_type_symbol
 _atom_site_label
 _atom_site_symmetry_multiplicity
 _atom_site_fract_x
 _atom_site_fract_y
 _atom_site_fract_z
 _atom_site_occupancy
  Mn  Mn0  1  0.99270830  0.98541660  0.02187510  1
  Mn  Mn1  1  0.50729170  0.01458340  0.47812490  1
  Te  Te2  1  0.75000000  0.50000000  0.75000000  1
  Se  Se3  1  0.25000000  0.50000000  0.25000000  1
