# generated using pymatgen
data_LiLa8Cu3O16
_symmetry_space_group_name_H-M   'P 1'
_cell_length_a   7.09366116
_cell_length_b   7.59218019
_cell_length_c   7.59210673
_cell_angle_alpha   90.16252929
_cell_angle_beta   105.37636461
_cell_angle_gamma   105.57225671
_symmetry_Int_Tables_number   1
_chemical_formula_structural   LiLa8Cu3O16
_chemical_formula_sum   'Li1 La8 Cu3 O16'
_cell_volume   378.56751828
_cell_formula_units_Z   1
loop_
 _symmetry_equiv_pos_site_id
 _symmetry_equiv_pos_as_xyz
  1  'x, y, z'
loop_
 _atom_site_type_symbol
 _atom_site_label
 _atom_site_symmetry_multiplicity
 _atom_site_fract_x
 _atom_site_fract_y
 _atom_site_fract_z
 _atom_site_occupancy
  Li  Li0  1  0.00000000  -0.00000000  0.50000000  1
  La  La1  1  0.72190744  0.68091961  0.18595974  1
  La  La2  1  0.72353200  0.17552910  0.68034589  1
  La  La3  1  0.27646800  0.82447090  0.31965411  1
  La  La4  1  0.27809256  0.31908039  0.81404026  1
  La  La5  1  0.27637938  0.81959676  0.81855035  1
  La  La6  1  0.27644629  0.31415393  0.32412302  1
  La  La7  1  0.72355371  0.68584607  0.67587698  1
  La  La8  1  0.72362062  0.18040324  0.18144965  1
  Cu  Cu9  1  0.00000000  0.50000000  0.00000000  1
  Cu  Cu10  1  0.00000000  -0.00000000  0.00000000  1
  Cu  Cu11  1  0.00000000  0.50000000  0.50000000  1
  O  O12  1  0.99410417  0.25337185  0.49922816  1
  O  O13  1  0.99357221  0.75087936  0.99904836  1
  O  O14  1  0.00593143  0.50214072  0.25386596  1
  O  O15  1  0.00648874  0.00232200  0.75655424  1
  O  O16  1  0.00642779  0.24912064  0.00095164  1
  O  O17  1  0.00589583  0.74662815  0.50077184  1
  O  O18  1  0.99351126  0.99767800  0.24344576  1
  O  O19  1  0.99406857  0.49785928  0.74613404  1
  O  O20  1  0.36290525  0.09914117  0.58179974  1
  O  O21  1  0.36228208  0.59958190  0.08194248  1
  O  O22  1  0.63771792  0.40041810  0.91805752  1
  O  O23  1  0.63709475  0.90085883  0.41820026  1
  O  O24  1  0.62786484  0.91686458  0.89694750  1
  O  O25  1  0.62797227  0.41669858  0.39756981  1
  O  O26  1  0.37202773  0.58330142  0.60243019  1
  O  O27  1  0.37213516  0.08313542  0.10305250  1
