# generated using pymatgen
data_Lu4Ge8Pd
_symmetry_space_group_name_H-M   'P 1'
_cell_length_a   3.92974982
_cell_length_b   4.05003483
_cell_length_c   16.42156545
_cell_angle_alpha   90.00000000
_cell_angle_beta   90.00000000
_cell_angle_gamma   90.00000000
_symmetry_Int_Tables_number   1
_chemical_formula_structural   Lu4Ge8Pd
_chemical_formula_sum   'Lu4 Ge8 Pd1'
_cell_volume   261.35945535
_cell_formula_units_Z   1
loop_
 _symmetry_equiv_pos_site_id
 _symmetry_equiv_pos_as_xyz
  1  'x, y, z'
loop_
 _atom_site_type_symbol
 _atom_site_label
 _atom_site_symmetry_multiplicity
 _atom_site_fract_x
 _atom_site_fract_y
 _atom_site_fract_z
 _atom_site_occupancy
  Lu  Lu0  1  0.25000000  -0.00000000  0.09244662  1
  Lu  Lu1  1  0.25000000  0.50000000  0.61034565  1
  Lu  Lu2  1  0.75000000  0.50000000  0.39892081  1
  Lu  Lu3  1  0.75000000  0.00000000  0.89328815  1
  Ge  Ge4  1  0.25000000  0.00000000  0.47004544  1
  Ge  Ge5  1  0.25000000  0.50000000  0.94107838  1
  Ge  Ge6  1  0.75000000  0.50000000  0.04526207  1
  Ge  Ge7  1  0.75000000  -0.00000000  0.57014999  1
  Ge  Ge8  1  0.25000000  0.50000000  0.22619107  1
  Ge  Ge9  1  0.25000000  -0.00000000  0.74866855  1
  Ge  Ge10  1  0.75000000  0.00000000  0.22550517  1
  Ge  Ge11  1  0.75000000  0.50000000  0.75560185  1
  Pd  Pd12  1  0.25000000  0.00000000  0.32249626  1
