# generated using pymatgen
data_MgFe(CO3)2
_symmetry_space_group_name_H-M   'P 1'
_cell_length_a   4.72625802
_cell_length_b   4.72625918
_cell_length_c   5.77958975
_cell_angle_alpha   65.86582531
_cell_angle_beta   114.13417902
_cell_angle_gamma   119.99999877
_symmetry_Int_Tables_number   1
_chemical_formula_structural   MgFe(CO3)2
_chemical_formula_sum   'Mg1 Fe1 C2 O6'
_cell_volume   98.55977283
_cell_formula_units_Z   1
loop_
 _symmetry_equiv_pos_site_id
 _symmetry_equiv_pos_as_xyz
  1  'x, y, z'
loop_
 _atom_site_type_symbol
 _atom_site_label
 _atom_site_symmetry_multiplicity
 _atom_site_fract_x
 _atom_site_fract_y
 _atom_site_fract_z
 _atom_site_occupancy
  Mg  Mg0  1  -0.00000000  -0.00000000  0.00000000  1
  Fe  Fe1  1  0.50000000  0.50000000  0.50000000  1
  C  C2  1  0.25129247  0.74870753  0.75387740  1
  C  C3  1  0.74870753  0.25129247  0.24612260  1
  O  O4  1  0.24330419  0.01939342  0.75335629  1
  O  O5  1  0.52944551  0.75669581  0.75335629  1
  O  O6  1  0.98060659  0.47055449  0.75335629  1
  O  O7  1  0.47055449  0.24330419  0.24664371  1
  O  O8  1  0.01939341  0.52944551  0.24664371  1
  O  O9  1  0.75669581  0.98060658  0.24664371  1
