# generated using pymatgen
data_LaCe4
_symmetry_space_group_name_H-M   'P 1'
_cell_length_a   3.39810248
_cell_length_b   3.39810248
_cell_length_c   13.97259214
_cell_angle_alpha   83.01561382
_cell_angle_beta   90.00000000
_cell_angle_gamma   120.00000000
_symmetry_Int_Tables_number   1
_chemical_formula_structural   LaCe4
_chemical_formula_sum   'La1 Ce4'
_cell_volume   138.34285325
_cell_formula_units_Z   1
loop_
 _symmetry_equiv_pos_site_id
 _symmetry_equiv_pos_as_xyz
  1  'x, y, z'
loop_
 _atom_site_type_symbol
 _atom_site_label
 _atom_site_symmetry_multiplicity
 _atom_site_fract_x
 _atom_site_fract_y
 _atom_site_fract_z
 _atom_site_occupancy
  La  La0  1  -0.00000000  -0.00000000  0.00000000  1
  Ce  Ce1  1  0.59805264  0.19610527  0.20584209  1
  Ce  Ce2  1  0.19946906  0.39893812  0.40159281  1
  Ce  Ce3  1  0.80053094  0.60106188  0.59840719  1
  Ce  Ce4  1  0.40194736  0.80389473  0.79415791  1
