# generated using pymatgen
data_Mn3Cu(SeO3)4
_symmetry_space_group_name_H-M   'P 1'
_cell_length_a   5.24118744
_cell_length_b   6.13905708
_cell_length_c   7.87858407
_cell_angle_alpha   89.70075956
_cell_angle_beta   90.83364078
_cell_angle_gamma   91.62477554
_symmetry_Int_Tables_number   1
_chemical_formula_structural   Mn3Cu(SeO3)4
_chemical_formula_sum   'Mn3 Cu1 Se4 O12'
_cell_volume   253.36924196
_cell_formula_units_Z   1
loop_
 _symmetry_equiv_pos_site_id
 _symmetry_equiv_pos_as_xyz
  1  'x, y, z'
loop_
 _atom_site_type_symbol
 _atom_site_label
 _atom_site_symmetry_multiplicity
 _atom_site_fract_x
 _atom_site_fract_y
 _atom_site_fract_z
 _atom_site_occupancy
  Mn  Mn0  1  0.50000000  -0.00000000  0.50000000  1
  Mn  Mn1  1  -0.00000000  0.50000000  0.50000000  1
  Mn  Mn2  1  0.50000000  -0.00000000  0.00000000  1
  Cu  Cu3  1  -0.00000000  0.50000000  0.00000000  1
  Se  Se4  1  0.50915758  0.52974945  0.24376107  1
  Se  Se5  1  0.98418715  0.03427621  0.24479382  1
  Se  Se6  1  0.49084242  0.47025055  0.75623893  1
  Se  Se7  1  0.01581285  0.96572379  0.75520618  1
  O  O8  1  0.61748384  0.69499239  0.07979278  1
  O  O9  1  0.86900291  0.18235399  0.41624376  1
  O  O10  1  0.37116910  0.31733494  0.58278891  1
  O  O11  1  0.12139012  0.80121171  0.92569971  1
  O  O12  1  0.38251616  0.30500761  0.92020722  1
  O  O13  1  0.13099709  0.81764601  0.58375624  1
  O  O14  1  0.62883090  0.68266506  0.41721109  1
  O  O15  1  0.87860988  0.19878829  0.07430029  1
  O  O16  1  0.17652192  0.57500503  0.24453499  1
  O  O17  1  0.31320870  0.08019696  0.25172047  1
  O  O18  1  0.82347808  0.42499497  0.75546501  1
  O  O19  1  0.68679130  0.91980304  0.74827953  1
