# generated using pymatgen
data_LiAlNi3O5
_symmetry_space_group_name_H-M   'P 1'
_cell_length_a   5.15493472
_cell_length_b   7.74177169
_cell_length_c   5.07928348
_cell_angle_alpha   70.84989496
_cell_angle_beta   110.32650768
_cell_angle_gamma   96.54321447
_symmetry_Int_Tables_number   1
_chemical_formula_structural   LiAlNi3O5
_chemical_formula_sum   'Li2 Al2 Ni6 O10'
_cell_volume   179.56415461
_cell_formula_units_Z   2
loop_
 _symmetry_equiv_pos_site_id
 _symmetry_equiv_pos_as_xyz
  1  'x, y, z'
loop_
 _atom_site_type_symbol
 _atom_site_label
 _atom_site_symmetry_multiplicity
 _atom_site_fract_x
 _atom_site_fract_y
 _atom_site_fract_z
 _atom_site_occupancy
  Li  Li0  1  0.50000000  0.60056777  0.69971611  1
  Li  Li1  1  0.50000000  0.79943223  0.10028389  1
  Al  Al2  1  0.00000000  0.60299489  0.19850255  1
  Al  Al3  1  1.00000000  0.79700511  0.60149745  1
  Ni  Ni4  1  0.00000000  0.99640932  0.00179534  1
  Ni  Ni5  1  0.00000000  0.20000000  0.40000000  1
  Ni  Ni6  1  1.00000000  0.40359068  0.79820466  1
  Ni  Ni7  1  0.50000000  0.41105166  0.29447417  1
  Ni  Ni8  1  0.50000000  0.98894834  0.50552583  1
  Ni  Ni9  1  0.50000000  0.20000000  0.90000000  1
  O  O10  1  0.25687608  0.20000000  0.14666695  1
  O  O11  1  0.23759590  0.41101050  0.52781433  1
  O  O12  1  0.21744753  0.61021964  0.95498935  1
  O  O13  1  0.21744753  0.78978036  0.36520899  1
  O  O14  1  0.23759590  0.98898950  0.73882483  1
  O  O15  1  0.78255247  0.61021964  0.43479101  1
  O  O16  1  0.78255247  0.78978036  0.84501065  1
  O  O17  1  0.76240410  0.98898950  0.27218567  1
  O  O18  1  0.74312392  0.20000000  0.65333305  1
  O  O19  1  0.76240410  0.41101050  0.06117517  1
