# generated using pymatgen
data_InMo12PbS16
_symmetry_space_group_name_H-M   'P 1'
_cell_length_a   9.37207025
_cell_length_b   9.37207012
_cell_length_c   9.37207025
_cell_angle_alpha   120.74729777
_cell_angle_beta   120.74729547
_cell_angle_gamma   59.25270218
_symmetry_Int_Tables_number   1
_chemical_formula_structural   InMo12PbS16
_chemical_formula_sum   'In1 Mo12 Pb1 S16'
_cell_volume   572.18428062
_cell_formula_units_Z   1
loop_
 _symmetry_equiv_pos_site_id
 _symmetry_equiv_pos_as_xyz
  1  'x, y, z'
loop_
 _atom_site_type_symbol
 _atom_site_label
 _atom_site_symmetry_multiplicity
 _atom_site_fract_x
 _atom_site_fract_y
 _atom_site_fract_z
 _atom_site_occupancy
  In  In0  1  0.50000000  0.50000000  0.50000000  1
  Mo  Mo1  1  0.81413184  0.96169811  0.37631105  1
  Mo  Mo2  1  0.31502228  0.46022836  0.87590594  1
  Mo  Mo3  1  0.62368895  0.81413184  0.03830189  1
  Mo  Mo4  1  0.12409406  0.31502228  0.53977164  1
  Mo  Mo5  1  0.96169811  0.62368895  0.18586816  1
  Mo  Mo6  1  0.46022836  0.12409406  0.68497772  1
  Mo  Mo7  1  0.68497772  0.53977164  0.12409406  1
  Mo  Mo8  1  0.18586816  0.03830189  0.62368895  1
  Mo  Mo9  1  0.87590594  0.68497772  0.46022836  1
  Mo  Mo10  1  0.37631105  0.18586816  0.96169811  1
  Mo  Mo11  1  0.53977164  0.87590594  0.31502228  1
  Mo  Mo12  1  0.03830189  0.37631105  0.81413184  1
  Pb  Pb13  1  0.00000000  -0.00000000  -0.00000000  1
  S  S14  1  0.87831496  0.87831496  0.12168504  1
  S  S15  1  0.37879388  0.37879388  0.62120612  1
  S  S16  1  0.62120612  0.62120612  0.37879388  1
  S  S17  1  0.12168504  0.12168504  0.87831496  1
  S  S18  1  0.75831094  0.50287734  0.88564890  1
  S  S19  1  0.25857687  0.00179394  0.38484851  1
  S  S20  1  0.11435110  0.75831094  0.49712266  1
  S  S21  1  0.61515149  0.25857687  0.99820606  1
  S  S22  1  0.50287734  0.11435110  0.24168906  1
  S  S23  1  0.00179394  0.61515149  0.74142313  1
  S  S24  1  0.74142313  0.99820606  0.61515149  1
  S  S25  1  0.24168906  0.49712266  0.11435110  1
  S  S26  1  0.38484851  0.74142313  0.00179394  1
  S  S27  1  0.88564890  0.24168906  0.50287734  1
  S  S28  1  0.99820606  0.38484851  0.25857687  1
  S  S29  1  0.49712266  0.88564890  0.75831094  1
