# generated using pymatgen
data_Ho4Cu5P7
_symmetry_space_group_name_H-M   'P 1'
_cell_length_a   5.27198642
_cell_length_b   5.27198642
_cell_length_c   10.26611241
_cell_angle_alpha   75.12171929
_cell_angle_beta   75.12171929
_cell_angle_gamma   90.00000000
_symmetry_Int_Tables_number   1
_chemical_formula_structural   Ho4Cu5P7
_chemical_formula_sum   'Ho4 Cu5 P7'
_cell_volume   265.85813931
_cell_formula_units_Z   1
loop_
 _symmetry_equiv_pos_site_id
 _symmetry_equiv_pos_as_xyz
  1  'x, y, z'
loop_
 _atom_site_type_symbol
 _atom_site_label
 _atom_site_symmetry_multiplicity
 _atom_site_fract_x
 _atom_site_fract_y
 _atom_site_fract_z
 _atom_site_occupancy
  Ho  Ho0  1  0.10573851  0.35573851  0.76888632  1
  Ho  Ho1  1  0.62537517  0.87537517  0.76888632  1
  Ho  Ho2  1  0.39426149  0.12462483  0.23111368  1
  Ho  Ho3  1  0.87462483  0.64426149  0.23111368  1
  Cu  Cu4  1  0.50027041  0.75027041  0.49945917  1
  Cu  Cu5  1  0.99972959  0.24972959  0.50054083  1
  Cu  Cu6  1  0.00000000  0.75000000  0.50000000  1
  Cu  Cu7  1  0.50000000  0.25000000  0.50000000  1
  Cu  Cu8  1  0.25000000  0.50000000  -0.00000000  1
  P  P9  1  0.32499295  0.57499295  0.34118909  1
  P  P10  1  0.83381796  0.08381796  0.34118909  1
  P  P11  1  0.17500705  0.91618204  0.65881091  1
  P  P12  1  0.66618204  0.42500705  0.65881091  1
  P  P13  1  0.75000000  -0.00000000  -0.00000000  1
  P  P14  1  0.75000000  0.50000000  0.00000000  1
  P  P15  1  0.25000000  -0.00000000  -0.00000000  1
