# generated using pymatgen
data_KNaTi4(BiO6)2
_symmetry_space_group_name_H-M   'P 1'
_cell_length_a   5.57918284
_cell_length_b   5.67150758
_cell_length_c   9.66100268
_cell_angle_alpha   106.54118067
_cell_angle_beta   90.00000000
_cell_angle_gamma   119.46295043
_symmetry_Int_Tables_number   1
_chemical_formula_structural   KNaTi4(BiO6)2
_chemical_formula_sum   'K1 Na1 Ti4 Bi2 O12'
_cell_volume   251.53066488
_cell_formula_units_Z   1
loop_
 _symmetry_equiv_pos_site_id
 _symmetry_equiv_pos_as_xyz
  1  'x, y, z'
loop_
 _atom_site_type_symbol
 _atom_site_label
 _atom_site_symmetry_multiplicity
 _atom_site_fract_x
 _atom_site_fract_y
 _atom_site_fract_z
 _atom_site_occupancy
  K  K0  1  0.13477271  0.26954542  0.37807415  1
  Na  Na1  1  0.63896632  0.27793264  0.87979735  1
  Ti  Ti2  1  0.50553732  0.01107464  0.50213633  1
  Ti  Ti3  1  0.77163545  0.54327089  0.25647333  1
  Ti  Ti4  1  0.27189515  0.54379029  0.75828727  1
  Ti  Ti5  1  0.00437971  0.00875942  0.00073150  1
  Bi  Bi6  1  0.43246230  0.86492460  0.14227912  1
  Bi  Bi7  1  0.93315526  0.86631053  0.64564391  1
  O  O8  1  0.86628842  0.73257684  0.12068032  1
  O  O9  1  0.60513431  0.21026862  0.36227756  1
  O  O10  1  0.36960584  0.73921169  0.62457607  1
  O  O11  1  0.10535546  0.21071093  0.86299384  1
  O  O12  1  0.61733229  0.73251763  0.87292999  1
  O  O13  1  0.36560424  0.21058826  0.11909897  1
  O  O14  1  0.11822815  0.73757465  0.37273516  1
  O  O15  1  0.86295424  0.21133120  0.62346052  1
  O  O16  1  0.11518534  0.73251763  0.87292999  1
  O  O17  1  0.84498402  0.21058826  0.11909897  1
  O  O18  1  0.61934649  0.73757465  0.37273516  1
  O  O19  1  0.34837696  0.21133120  0.62346052  1
