# generated using pymatgen
data_K8La(PSe4)4
_symmetry_space_group_name_H-M   'P 1'
_cell_length_a   9.28900484
_cell_length_b   10.37877591
_cell_length_c   11.83550072
_cell_angle_alpha   63.99436633
_cell_angle_beta   66.89475968
_cell_angle_gamma   90.00000000
_symmetry_Int_Tables_number   1
_chemical_formula_structural   K8La(PSe4)4
_chemical_formula_sum   'K8 La1 P4 Se16'
_cell_volume   922.59424328
_cell_formula_units_Z   1
loop_
 _symmetry_equiv_pos_site_id
 _symmetry_equiv_pos_as_xyz
  1  'x, y, z'
loop_
 _atom_site_type_symbol
 _atom_site_label
 _atom_site_symmetry_multiplicity
 _atom_site_fract_x
 _atom_site_fract_y
 _atom_site_fract_z
 _atom_site_occupancy
  K  K0  1  0.79676892  0.91402917  0.16404733  1
  K  K1  1  0.20323108  0.07807650  0.83595267  1
  K  K2  1  0.96081625  0.58597083  0.83595267  1
  K  K3  1  0.03918375  0.42192350  0.16404733  1
  K  K4  1  0.25731436  0.00731436  0.48537128  1
  K  K5  1  0.74268564  0.49268564  0.51462872  1
  K  K6  1  0.73533500  0.98533500  0.52933000  1
  K  K7  1  0.26466500  0.51466500  0.47067000  1
  La  La8  1  0.50000000  0.25000000  0.00000000  1
  P  P9  1  0.57944392  0.37184639  0.25281565  1
  P  P10  1  0.42055608  0.62466204  0.74718435  1
  P  P11  1  0.83225957  0.12815361  0.74718435  1
  P  P12  1  0.16774043  0.87533796  0.25281565  1
  Se  Se13  1  0.42268791  0.91040332  0.21276823  1
  Se  Se14  1  0.57731209  0.12317155  0.78723177  1
  Se  Se15  1  0.63545614  0.58959668  0.78723177  1
  Se  Se16  1  0.36454386  0.37682845  0.21276823  1
  Se  Se17  1  0.72408966  0.25252042  0.14373277  1
  Se  Se18  1  0.27591034  0.39625319  0.85626723  1
  Se  Se19  1  0.86782243  0.24747958  0.85626723  1
  Se  Se20  1  0.13217757  0.10374681  0.14373277  1
  Se  Se21  1  0.27053770  0.74981588  0.84207641  1
  Se  Se22  1  0.72946230  0.59189228  0.15792359  1
  Se  Se23  1  0.11261410  0.75018412  0.15792359  1
  Se  Se24  1  0.88738590  0.90810772  0.84207641  1
  Se  Se25  1  0.51670230  0.25978861  0.48080109  1
  Se  Se26  1  0.48329770  0.74058970  0.51919891  1
  Se  Se27  1  0.99750339  0.24021139  0.51919891  1
  Se  Se28  1  0.00249661  0.75941030  0.48080109  1
