# generated using pymatgen
data_KTl4(CoSe)10
_symmetry_space_group_name_H-M   'P 1'
_cell_length_a   3.86391207
_cell_length_b   3.86391207
_cell_length_c   33.57856376
_cell_angle_alpha   86.70164214
_cell_angle_beta   86.70164214
_cell_angle_gamma   90.00000000
_symmetry_Int_Tables_number   1
_chemical_formula_structural   KTl4(CoSe)10
_chemical_formula_sum   'K1 Tl4 Co10 Se10'
_cell_volume   499.65950137
_cell_formula_units_Z   1
loop_
 _symmetry_equiv_pos_site_id
 _symmetry_equiv_pos_as_xyz
  1  'x, y, z'
loop_
 _atom_site_type_symbol
 _atom_site_label
 _atom_site_symmetry_multiplicity
 _atom_site_fract_x
 _atom_site_fract_y
 _atom_site_fract_z
 _atom_site_occupancy
  K  K0  1  0.00000000  0.00000000  -0.00000000  1
  Tl  Tl1  1  0.40004779  0.40004779  0.19990441  1
  Tl  Tl2  1  0.79999463  0.79999463  0.40001075  1
  Tl  Tl3  1  0.20000537  0.20000537  0.59998925  1
  Tl  Tl4  1  0.59995221  0.59995221  0.80009559  1
  Co  Co5  1  0.95007714  0.45007714  0.09984572  1
  Co  Co6  1  0.35001285  0.85001285  0.29997429  1
  Co  Co7  1  0.75000000  0.25000000  0.50000000  1
  Co  Co8  1  0.14998715  0.64998715  0.70002571  1
  Co  Co9  1  0.54992286  0.04992286  0.90015428  1
  Co  Co10  1  0.45007714  0.95007714  0.09984572  1
  Co  Co11  1  0.85001285  0.35001285  0.29997429  1
  Co  Co12  1  0.25000000  0.75000000  0.50000000  1
  Co  Co13  1  0.64998715  0.14998715  0.70002571  1
  Co  Co14  1  0.04992286  0.54992286  0.90015428  1
  Se  Se15  1  0.46981570  0.46981570  0.06036860  1
  Se  Se16  1  0.86954033  0.86954033  0.26091934  1
  Se  Se17  1  0.26958491  0.26958491  0.46083018  1
  Se  Se18  1  0.66954350  0.66954350  0.66091300  1
  Se  Se19  1  0.06959838  0.06959838  0.86080323  1
  Se  Se20  1  0.93040162  0.93040162  0.13919677  1
  Se  Se21  1  0.33045650  0.33045650  0.33908700  1
  Se  Se22  1  0.73041509  0.73041509  0.53916982  1
  Se  Se23  1  0.13045967  0.13045967  0.73908066  1
  Se  Se24  1  0.53018430  0.53018430  0.93963140  1
