# generated using pymatgen
data_Hg2TeS
_symmetry_space_group_name_H-M   'P 1'
_cell_length_a   4.48617061
_cell_length_b   4.48617062
_cell_length_c   7.77131195
_cell_angle_alpha   73.22364481
_cell_angle_beta   90.00000000
_cell_angle_gamma   119.99999995
_symmetry_Int_Tables_number   1
_chemical_formula_structural   Hg2TeS
_chemical_formula_sum   'Hg2 Te1 S1'
_cell_volume   127.70488535
_cell_formula_units_Z   1
loop_
 _symmetry_equiv_pos_site_id
 _symmetry_equiv_pos_as_xyz
  1  'x, y, z'
loop_
 _atom_site_type_symbol
 _atom_site_label
 _atom_site_symmetry_multiplicity
 _atom_site_fract_x
 _atom_site_fract_y
 _atom_site_fract_z
 _atom_site_occupancy
  Hg  Hg0  1  0.99171705  0.98343411  0.02484884  1
  Hg  Hg1  1  0.50710671  0.01421341  0.47867988  1
  Te  Te2  1  0.37672232  0.75344463  0.86983305  1
  S  S3  1  0.87445392  0.74890785  0.37663823  1
