# generated using pymatgen
data_BeB2
_symmetry_space_group_name_H-M   'P 1'
_cell_length_a   2.87733472
_cell_length_b   2.92912370
_cell_length_c   2.92969056
_cell_angle_alpha   119.99358686
_cell_angle_beta   90.00000000
_cell_angle_gamma   90.00000000
_symmetry_Int_Tables_number   1
_chemical_formula_structural   BeB2
_chemical_formula_sum   'Be1 B2'
_cell_volume   21.38496503
_cell_formula_units_Z   1
loop_
 _symmetry_equiv_pos_site_id
 _symmetry_equiv_pos_as_xyz
  1  'x, y, z'
loop_
 _atom_site_type_symbol
 _atom_site_label
 _atom_site_symmetry_multiplicity
 _atom_site_fract_x
 _atom_site_fract_y
 _atom_site_fract_z
 _atom_site_occupancy
  Be  Be0  1  0.00000000  0.99998733  1.00000000  1
  B  B1  1  0.50000000  0.33322224  0.66653181  1
  B  B2  1  0.50000000  0.66669043  0.33346819  1
