# generated using pymatgen
data_GaAsRh4
_symmetry_space_group_name_H-M   'P 1'
_cell_length_a   4.08342886
_cell_length_b   5.55027180
_cell_length_c   7.68790741
_cell_angle_alpha   90.00000000
_cell_angle_beta   90.00000000
_cell_angle_gamma   90.00000000
_symmetry_Int_Tables_number   1
_chemical_formula_structural   GaAsRh4
_chemical_formula_sum   'Ga2 As2 Rh8'
_cell_volume   174.23981022
_cell_formula_units_Z   2
loop_
 _symmetry_equiv_pos_site_id
 _symmetry_equiv_pos_as_xyz
  1  'x, y, z'
loop_
 _atom_site_type_symbol
 _atom_site_label
 _atom_site_symmetry_multiplicity
 _atom_site_fract_x
 _atom_site_fract_y
 _atom_site_fract_z
 _atom_site_occupancy
  Ga  Ga0  1  0.25000000  0.71553511  0.11241992  1
  Ga  Ga1  1  0.25000000  0.21553511  0.38758008  1
  As  As2  1  0.75000000  0.29379511  0.90521372  1
  As  As3  1  0.75000000  0.79379511  0.59478628  1
  Rh  Rh4  1  0.75000000  0.46272903  0.20905563  1
  Rh  Rh5  1  0.75000000  0.96272903  0.29094437  1
  Rh  Rh6  1  0.25000000  0.52262974  0.80187274  1
  Rh  Rh7  1  0.25000000  0.02262974  0.69812726  1
  Rh  Rh8  1  0.75000000  0.34318516  0.57951709  1
  Rh  Rh9  1  0.75000000  0.84318516  0.92048291  1
  Rh  Rh10  1  0.25000000  0.66212585  0.43947197  1
  Rh  Rh11  1  0.25000000  0.16212585  0.06052803  1
