# generated using pymatgen
data_Mo15Pb3Se19
_symmetry_space_group_name_H-M   'P 1'
_cell_length_a   10.08728192
_cell_length_b   9.91630032
_cell_length_c   19.72418599
_cell_angle_alpha   90.00000000
_cell_angle_beta   90.00000000
_cell_angle_gamma   120.53972619
_symmetry_Int_Tables_number   1
_chemical_formula_structural   Mo15Pb3Se19
_chemical_formula_sum   'Mo30 Pb6 Se38'
_cell_volume   1699.28331953
_cell_formula_units_Z   2
loop_
 _symmetry_equiv_pos_site_id
 _symmetry_equiv_pos_as_xyz
  1  'x, y, z'
loop_
 _atom_site_type_symbol
 _atom_site_label
 _atom_site_symmetry_multiplicity
 _atom_site_fract_x
 _atom_site_fract_y
 _atom_site_fract_z
 _atom_site_occupancy
  Mo  Mo0  1  0.34693843  0.83099051  0.75000000  1
  Mo  Mo1  1  0.16979524  0.50866827  0.75000000  1
  Mo  Mo2  1  0.48128103  0.65177523  0.75000000  1
  Mo  Mo3  1  0.65306157  0.16900949  0.25000000  1
  Mo  Mo4  1  0.83020476  0.49133173  0.25000000  1
  Mo  Mo5  1  0.51871897  0.34822477  0.25000000  1
  Mo  Mo6  1  0.18771239  0.68193924  0.63519373  1
  Mo  Mo7  1  0.31145192  0.50143488  0.63516825  1
  Mo  Mo8  1  0.49129473  0.81256692  0.63533105  1
  Mo  Mo9  1  0.81228761  0.31806076  0.13519373  1
  Mo  Mo10  1  0.68854808  0.49856512  0.13516825  1
  Mo  Mo11  1  0.50870527  0.18743308  0.13533105  1
  Mo  Mo12  1  0.81228761  0.31806076  0.36480627  1
  Mo  Mo13  1  0.68854808  0.49856512  0.36483175  1
  Mo  Mo14  1  0.50870527  0.18743308  0.36466895  1
  Mo  Mo15  1  0.18771239  0.68193924  0.86480627  1
  Mo  Mo16  1  0.31145192  0.50143488  0.86483175  1
  Mo  Mo17  1  0.49129473  0.81256692  0.86466895  1
  Mo  Mo18  1  0.15138854  0.98583885  0.55721156  1
  Mo  Mo19  1  0.01678852  0.16918983  0.55548806  1
  Mo  Mo20  1  0.84532929  0.85837018  0.55714165  1
  Mo  Mo21  1  0.84861146  0.01416115  0.05721156  1
  Mo  Mo22  1  0.98321148  0.83081017  0.05548806  1
  Mo  Mo23  1  0.15467071  0.14162982  0.05714165  1
  Mo  Mo24  1  0.84861146  0.01416115  0.44278844  1
  Mo  Mo25  1  0.98321148  0.83081017  0.44451194  1
  Mo  Mo26  1  0.15467071  0.14162982  0.44285835  1
  Mo  Mo27  1  0.15138854  0.98583885  0.94278844  1
  Mo  Mo28  1  0.01678852  0.16918983  0.94451194  1
  Mo  Mo29  1  0.84532929  0.85837018  0.94285835  1
  Pb  Pb30  1  0.66614917  0.32112072  0.61053756  1
  Pb  Pb31  1  0.33385083  0.67887928  0.11053756  1
  Pb  Pb32  1  0.33385083  0.67887928  0.38946244  1
  Pb  Pb33  1  0.66614917  0.32112072  0.88946244  1
  Pb  Pb34  1  0.82611139  0.78245828  0.75000000  1
  Pb  Pb35  1  0.17388861  0.21754172  0.25000000  1
  Se  Se36  1  0.05000659  0.68158984  0.75000000  1
  Se  Se37  1  0.31035769  0.35135539  0.75000000  1
  Se  Se38  1  0.64314252  0.96140980  0.75000000  1
  Se  Se39  1  0.94999341  0.31841016  0.25000000  1
  Se  Se40  1  0.68964231  0.64864461  0.25000000  1
  Se  Se41  1  0.35685748  0.03859020  0.25000000  1
  Se  Se42  1  0.02819024  0.02893479  0.65915750  1
  Se  Se43  1  0.97180976  0.97106521  0.15915750  1
  Se  Se44  1  0.97180976  0.97106521  0.34084250  1
  Se  Se45  1  0.02819024  0.02893479  0.84084250  1
  Se  Se46  1  0.96876116  0.68099595  0.55466196  1
  Se  Se47  1  0.31704015  0.28573691  0.55034967  1
  Se  Se48  1  0.71783647  0.03611751  0.55148955  1
  Se  Se49  1  0.03123884  0.31900405  0.05466196  1
  Se  Se50  1  0.68295985  0.71426309  0.05034967  1
  Se  Se51  1  0.28216353  0.96388249  0.05148955  1
  Se  Se52  1  0.03123884  0.31900405  0.44533804  1
  Se  Se53  1  0.68295985  0.71426309  0.44965033  1
  Se  Se54  1  0.28216353  0.96388249  0.44851045  1
  Se  Se55  1  0.96876116  0.68099595  0.94533804  1
  Se  Se56  1  0.31704015  0.28573691  0.94965033  1
  Se  Se57  1  0.71783647  0.03611751  0.94851045  1
  Se  Se58  1  0.37360783  0.99519333  0.64178965  1
  Se  Se59  1  0.00643138  0.37714864  0.64177119  1
  Se  Se60  1  0.60865299  0.62234032  0.63380350  1
  Se  Se61  1  0.62639217  0.00480667  0.14178965  1
  Se  Se62  1  0.99356862  0.62285136  0.14177119  1
  Se  Se63  1  0.39134701  0.37765968  0.13380350  1
  Se  Se64  1  0.62639217  0.00480667  0.35821035  1
  Se  Se65  1  0.99356862  0.62285136  0.35822881  1
  Se  Se66  1  0.39134701  0.37765968  0.36619650  1
  Se  Se67  1  0.37360783  0.99519333  0.85821035  1
  Se  Se68  1  0.00643138  0.37714864  0.85822881  1
  Se  Se69  1  0.60865299  0.62234032  0.86619650  1
  Se  Se70  1  0.66875456  0.33341706  0.03281658  1
  Se  Se71  1  0.33124544  0.66658294  0.53281658  1
  Se  Se72  1  0.33124544  0.66658294  0.96718342  1
  Se  Se73  1  0.66875456  0.33341706  0.46718342  1
