# generated using pymatgen
data_InSnBr3
_symmetry_space_group_name_H-M   'P 1'
_cell_length_a   11.93547404
_cell_length_b   11.93547404
_cell_length_c   12.06325339
_cell_angle_alpha   63.05723867
_cell_angle_beta   63.05723867
_cell_angle_gamma   94.82416118
_symmetry_Int_Tables_number   1
_chemical_formula_structural   InSnBr3
_chemical_formula_sum   'In8 Sn8 Br24'
_cell_volume   1271.90237596
_cell_formula_units_Z   8
loop_
 _symmetry_equiv_pos_site_id
 _symmetry_equiv_pos_as_xyz
  1  'x, y, z'
loop_
 _atom_site_type_symbol
 _atom_site_label
 _atom_site_symmetry_multiplicity
 _atom_site_fract_x
 _atom_site_fract_y
 _atom_site_fract_z
 _atom_site_occupancy
  In  In0  1  0.50138296  0.50124280  0.99737424  1
  In  In1  1  0.00124280  0.00138296  0.99737424  1
  In  In2  1  0.51848047  0.01848047  0.83287742  1
  In  In3  1  0.35606605  0.52170285  0.50139340  1
  In  In4  1  0.02170285  0.85606605  0.50139340  1
  In  In5  1  0.14864211  0.64864211  0.83287742  1
  In  In6  1  0.64254055  0.47690375  0.50139340  1
  In  In7  1  0.97690375  0.14254055  0.50139340  1
  Sn  Sn8  1  0.14916034  0.64916034  0.20167932  1
  Sn  Sn9  1  0.86857355  0.36857355  0.76285289  1
  Sn  Sn10  1  0.64885803  0.84356217  0.50757980  1
  Sn  Sn11  1  0.34356217  0.14885803  0.50757980  1
  Sn  Sn12  1  0.75172657  0.75172657  0.99654685  1
  Sn  Sn13  1  0.25172657  0.25172657  0.99654685  1
  Sn  Sn14  1  0.83334289  0.33334289  0.17713821  1
  Sn  Sn15  1  0.48951890  0.98951890  0.17713821  1
  Br  Br16  1  0.64041028  0.14041028  0.48231975  1
  Br  Br17  1  0.11336846  0.61336846  0.50400863  1
  Br  Br18  1  0.37726997  0.87726997  0.48231975  1
  Br  Br19  1  0.88262291  0.38262291  0.50400863  1
  Br  Br20  1  0.68696271  0.18696271  0.12607457  1
  Br  Br21  1  0.31198695  0.81198695  0.87602610  1
  Br  Br22  1  0.19224079  0.31279549  0.49496372  1
  Br  Br23  1  0.81279549  0.69224079  0.49496372  1
  Br  Br24  1  0.69922403  0.83535917  0.73782986  1
  Br  Br25  1  0.58409298  0.43274710  0.25931443  1
  Br  Br26  1  0.21071369  0.93857562  0.14143954  1
  Br  Br27  1  0.06707832  0.33724925  0.87196024  1
  Br  Br28  1  0.43857562  0.71071369  0.14143954  1
  Br  Br29  1  0.83724925  0.56707832  0.87196024  1
  Br  Br30  1  0.33535917  0.19922403  0.73782986  1
  Br  Br31  1  0.93274710  0.08409298  0.25931443  1
  Br  Br32  1  0.30793847  0.15659259  0.25931443  1
  Br  Br33  1  0.42681097  0.56294611  0.73782986  1
  Br  Br34  1  0.79079051  0.06096144  0.87196024  1
  Br  Br35  1  0.91998484  0.64784677  0.14143954  1
  Br  Br36  1  0.56096144  0.29079051  0.87196024  1
  Br  Br37  1  0.14784677  0.41998484  0.14143954  1
  Br  Br38  1  0.65659259  0.80793847  0.25931443  1
  Br  Br39  1  0.06294611  0.92681097  0.73782986  1
