# generated using pymatgen
data_Hf4CuSi3
_symmetry_space_group_name_H-M   'P 1'
_cell_length_a   3.72560665
_cell_length_b   3.73052958
_cell_length_c   9.94181884
_cell_angle_alpha   90.00000000
_cell_angle_beta   90.00000000
_cell_angle_gamma   90.00000000
_symmetry_Int_Tables_number   1
_chemical_formula_structural   Hf4CuSi3
_chemical_formula_sum   'Hf4 Cu1 Si3'
_cell_volume   138.17622809
_cell_formula_units_Z   1
loop_
 _symmetry_equiv_pos_site_id
 _symmetry_equiv_pos_as_xyz
  1  'x, y, z'
loop_
 _atom_site_type_symbol
 _atom_site_label
 _atom_site_symmetry_multiplicity
 _atom_site_fract_x
 _atom_site_fract_y
 _atom_site_fract_z
 _atom_site_occupancy
  Hf  Hf0  1  0.50000000  0.75000000  0.35445099  1
  Hf  Hf1  1  -0.00000000  0.75000000  0.85171204  1
  Hf  Hf2  1  -0.00000000  0.25000000  0.14744312  1
  Hf  Hf3  1  0.50000000  0.25000000  0.64675030  1
  Cu  Cu4  1  0.50000000  0.75000000  0.07382901  1
  Si  Si5  1  -0.00000000  0.75000000  0.58037454  1
  Si  Si6  1  -0.00000000  0.25000000  0.41968319  1
  Si  Si7  1  0.50000000  0.25000000  0.92575681  1
