# generated using pymatgen
data_HoUTe6
_symmetry_space_group_name_H-M   'P 1'
_cell_length_a   4.36060992
_cell_length_b   4.37693614
_cell_length_c   12.84693173
_cell_angle_alpha   90.00000000
_cell_angle_beta   80.22880560
_cell_angle_gamma   90.00000000
_symmetry_Int_Tables_number   1
_chemical_formula_structural   HoUTe6
_chemical_formula_sum   'Ho1 U1 Te6'
_cell_volume   241.64096514
_cell_formula_units_Z   1
loop_
 _symmetry_equiv_pos_site_id
 _symmetry_equiv_pos_as_xyz
  1  'x, y, z'
loop_
 _atom_site_type_symbol
 _atom_site_label
 _atom_site_symmetry_multiplicity
 _atom_site_fract_x
 _atom_site_fract_y
 _atom_site_fract_z
 _atom_site_occupancy
  Ho  Ho0  1  0.16722761  0.25000000  0.66554478  1
  U  U1  1  0.83490448  0.75000000  0.33019104  1
  Te  Te2  1  0.42529269  0.75000000  0.14941462  1
  Te  Te3  1  0.57201042  0.25000000  0.85597916  1
  Te  Te4  1  0.70746391  0.75000000  0.58507218  1
  Te  Te5  1  0.29638980  0.25000000  0.40722040  1
  Te  Te6  1  0.07140142  0.75000000  0.85719716  1
  Te  Te7  1  0.92530967  0.25000000  0.14938066  1
