# generated using pymatgen
data_Fe2Pb3WO9
_symmetry_space_group_name_H-M   'P 1'
_cell_length_a   5.68889087
_cell_length_b   5.68889087
_cell_length_c   6.97563736
_cell_angle_alpha   90.00000000
_cell_angle_beta   90.00000000
_cell_angle_gamma   120.00000000
_symmetry_Int_Tables_number   1
_chemical_formula_structural   Fe2Pb3WO9
_chemical_formula_sum   'Fe2 Pb3 W1 O9'
_cell_volume   195.51034054
_cell_formula_units_Z   1
loop_
 _symmetry_equiv_pos_site_id
 _symmetry_equiv_pos_as_xyz
  1  'x, y, z'
loop_
 _atom_site_type_symbol
 _atom_site_label
 _atom_site_symmetry_multiplicity
 _atom_site_fract_x
 _atom_site_fract_y
 _atom_site_fract_z
 _atom_site_occupancy
  Fe  Fe0  1  0.33333300  0.66666700  0.16608253  1
  Fe  Fe1  1  0.00000000  0.00000000  0.50058447  1
  Pb  Pb2  1  0.33333300  0.66666700  0.62532334  1
  Pb  Pb3  1  0.00000000  -0.00000000  0.04134366  1
  Pb  Pb4  1  0.66666700  0.33333300  0.33333300  1
  W  W5  1  0.66666700  0.33333300  0.83333300  1
  O  O6  1  0.82791350  0.17208650  0.67094308  1
  O  O7  1  0.50541950  0.49458050  0.99572392  1
  O  O8  1  0.16666700  0.83333300  0.33333300  1
  O  O9  1  0.66666700  0.83333300  0.33333300  1
  O  O10  1  0.34417200  0.17208650  0.67094308  1
  O  O11  1  0.98916100  0.49458050  0.99572392  1
  O  O12  1  0.82791350  0.65582800  0.67094308  1
  O  O13  1  0.50541950  0.01083900  0.99572392  1
  O  O14  1  0.16666700  0.33333300  0.33333300  1
