# generated using pymatgen
data_DyBeCu4
_symmetry_space_group_name_H-M   'P 1'
_cell_length_a   3.85787824
_cell_length_b   5.06353765
_cell_length_c   5.06422866
_cell_angle_alpha   60.00883198
_cell_angle_beta   90.00000000
_cell_angle_gamma   90.00000000
_symmetry_Int_Tables_number   1
_chemical_formula_structural   DyBeCu4
_chemical_formula_sum   'Dy1 Be1 Cu4'
_cell_volume   85.68112156
_cell_formula_units_Z   1
loop_
 _symmetry_equiv_pos_site_id
 _symmetry_equiv_pos_as_xyz
  1  'x, y, z'
loop_
 _atom_site_type_symbol
 _atom_site_label
 _atom_site_symmetry_multiplicity
 _atom_site_fract_x
 _atom_site_fract_y
 _atom_site_fract_z
 _atom_site_occupancy
  Dy  Dy0  1  -0.00000000  0.99997312  0.00002661  1
  Be  Be1  1  -0.00000000  0.33332109  0.33338682  1
  Cu  Cu2  1  -0.00000000  0.66664954  0.66666854  1
  Cu  Cu3  1  0.50000000  0.49494351  0.49494429  1
  Cu  Cu4  1  0.50000000  0.49492860  0.01012398  1
  Cu  Cu5  1  0.50000000  0.01008414  0.49494977  1
