# generated using pymatgen
data_Cr3N4
_symmetry_space_group_name_H-M   'P 1'
_cell_length_a   6.02958012
_cell_length_b   8.17243463
_cell_length_c   8.18048398
_cell_angle_alpha   119.96745590
_cell_angle_beta   89.94967278
_cell_angle_gamma   90.10075405
_symmetry_Int_Tables_number   1
_chemical_formula_structural   Cr3N4
_chemical_formula_sum   'Cr12 N16'
_cell_volume   349.21252522
_cell_formula_units_Z   4
loop_
 _symmetry_equiv_pos_site_id
 _symmetry_equiv_pos_as_xyz
  1  'x, y, z'
loop_
 _atom_site_type_symbol
 _atom_site_label
 _atom_site_symmetry_multiplicity
 _atom_site_fract_x
 _atom_site_fract_y
 _atom_site_fract_z
 _atom_site_occupancy
  Cr  Cr0  1  0.79269127  0.51381816  0.43197101  1
  Cr  Cr1  1  0.79245200  0.91911802  0.48755053  1
  Cr  Cr2  1  0.79401828  0.56805944  0.08170850  1
  Cr  Cr3  1  0.29269127  0.08184614  0.56802899  1
  Cr  Cr4  1  0.29245200  0.43156749  0.51244947  1
  Cr  Cr5  1  0.29401828  0.48635094  0.91829150  1
  Cr  Cr6  1  0.02267678  0.16742468  0.91316258  1
  Cr  Cr7  1  0.02104656  0.74479664  0.83172643  1
  Cr  Cr8  1  0.02053357  0.08703106  0.25494071  1
  Cr  Cr9  1  0.52267678  0.25426111  0.08683742  1
  Cr  Cr10  1  0.52104656  0.91307021  0.16827357  1
  Cr  Cr11  1  0.52053357  0.83209035  0.74505929  1
  N  N12  1  0.02461334  0.60792210  0.95488379  1
  N  N13  1  0.02310388  0.34706479  0.39062150  1
  N  N14  1  0.02371209  0.04448671  0.65335441  1
  N  N15  1  0.52461334  0.65303831  0.04511621  1
  N  N16  1  0.52310388  0.95644328  0.60937850  1
  N  N17  1  0.52371209  0.39113230  0.34664559  1
  N  N18  1  0.77205587  0.31319205  0.99766218  1
  N  N19  1  0.76974777  0.68423267  0.68645030  1
  N  N20  1  0.76935072  0.00352105  0.31731915  1
  N  N21  1  0.27205587  0.31552987  0.00233782  1
  N  N22  1  0.26974777  0.99778236  0.31354970  1
  N  N23  1  0.26935072  0.68620090  0.68268085  1
  N  N24  1  0.02027514  0.99943893  0.00014533  1
  N  N25  1  0.52027514  0.99929360  0.99985467  1
  N  N26  1  0.35802274  0.33374050  0.66629317  1
  N  N27  1  0.85802274  0.66744733  0.33370683  1
