# generated using pymatgen
data_Fe4Co(BiO3)5
_symmetry_space_group_name_H-M   'P 1'
_cell_length_a   5.60431204
_cell_length_b   12.52785099
_cell_length_c   9.85545316
_cell_angle_alpha   81.83021906
_cell_angle_beta   73.76327775
_cell_angle_gamma   102.74796235
_symmetry_Int_Tables_number   1
_chemical_formula_structural   Fe4Co(BiO3)5
_chemical_formula_sum   'Fe8 Co2 Bi10 O30'
_cell_volume   632.44423542
_cell_formula_units_Z   2
loop_
 _symmetry_equiv_pos_site_id
 _symmetry_equiv_pos_as_xyz
  1  'x, y, z'
loop_
 _atom_site_type_symbol
 _atom_site_label
 _atom_site_symmetry_multiplicity
 _atom_site_fract_x
 _atom_site_fract_y
 _atom_site_fract_z
 _atom_site_occupancy
  Fe  Fe0  1  0.36740189  0.54371375  0.81082680  1
  Fe  Fe1  1  0.76332330  0.74400816  0.21239340  1
  Fe  Fe2  1  0.16513499  0.94544417  0.61139084  1
  Fe  Fe3  1  0.66281056  0.44251434  0.11376241  1
  Fe  Fe4  1  0.06361483  0.64261074  0.51085457  1
  Fe  Fe5  1  0.46595356  0.84526516  0.91214429  1
  Fe  Fe6  1  0.86622981  0.04642849  0.31152436  1
  Fe  Fe7  1  0.27099499  0.24484917  0.70959030  1
  Co  Co8  1  0.56805580  0.14486828  0.00421003  1
  Co  Co9  1  0.97148146  0.34265327  0.40065785  1
  Bi  Bi10  1  0.09486647  0.29688502  0.09987963  1
  Bi  Bi11  1  0.49955797  0.49681003  0.49753070  1
  Bi  Bi12  1  0.90073700  0.69995890  0.90082824  1
  Bi  Bi13  1  0.29913389  0.90304923  0.29816872  1
  Bi  Bi14  1  0.70869918  0.10403965  0.69708160  1
  Bi  Bi15  1  0.00154951  0.00406382  0.99943253  1
  Bi  Bi16  1  0.40132005  0.20315882  0.39901267  1
  Bi  Bi17  1  0.80127361  0.39942860  0.80044831  1
  Bi  Bi18  1  0.19734307  0.59607112  0.20243017  1
  Bi  Bi19  1  0.59944238  0.79939730  0.60000724  1
  O  O20  1  0.39222966  0.71584515  0.32362585  1
  O  O21  1  0.79452955  0.91993028  0.72242851  1
  O  O22  1  0.18775891  0.11767381  0.12555598  1
  O  O23  1  0.60961057  0.31835810  0.52260468  1
  O  O24  1  -0.00307087  0.51523274  0.92786299  1
  O  O25  1  0.90259461  0.89871125  0.23531791  1
  O  O26  1  0.30827486  0.10042437  0.63423347  1
  O  O27  1  0.70410281  0.29421506  0.03764714  1
  O  O28  1  0.10585104  0.49278192  0.43244956  1
  O  O29  1  0.50970734  0.69825679  0.83310848  1
  O  O30  1  0.67369507  0.06201832  0.15268500  1
  O  O31  1  0.08052858  0.26093649  0.54900614  1
  O  O32  1  0.47805146  0.45490362  0.95567068  1
  O  O33  1  0.87400785  0.65485697  0.35451567  1
  O  O34  1  0.27704504  0.85769382  0.75435722  1
  O  O35  1  0.05487241  0.79817246  0.53241303  1
  O  O36  1  0.46142422  0.00085698  0.93539885  1
  O  O37  1  0.86106593  0.20130494  0.33843530  1
  O  O38  1  0.26053054  0.39737241  0.73357307  1
  O  O39  1  0.65598049  0.59678656  0.13432075  1
  O  O40  1  0.09797354  0.01932621  0.42372822  1
  O  O41  1  0.49802889  0.21744532  0.82989116  1
  O  O42  1  0.89068437  0.41442041  0.23182874  1
  O  O43  1  0.29644900  0.61638651  0.62357442  1
  O  O44  1  0.69909960  0.81766449  0.02283124  1
  O  O45  1  0.52601610  0.95861368  0.45339391  1
  O  O46  1  0.93464211  0.15849237  0.85071686  1
  O  O47  1  0.31730625  0.35880176  0.25903568  1
  O  O48  1  0.72659526  0.55548339  0.65516876  1
  O  O49  1  0.12749048  0.75781580  0.05444609  1
