# generated using pymatgen
data_ErCo3Ni2
_symmetry_space_group_name_H-M   'P 1'
_cell_length_a   4.02729042
_cell_length_b   4.81456189
_cell_length_c   4.81288761
_cell_angle_alpha   120.01151006
_cell_angle_beta   90.00000000
_cell_angle_gamma   90.00000000
_symmetry_Int_Tables_number   1
_chemical_formula_structural   ErCo3Ni2
_chemical_formula_sum   'Er1 Co3 Ni2'
_cell_volume   80.80824819
_cell_formula_units_Z   1
loop_
 _symmetry_equiv_pos_site_id
 _symmetry_equiv_pos_as_xyz
  1  'x, y, z'
loop_
 _atom_site_type_symbol
 _atom_site_label
 _atom_site_symmetry_multiplicity
 _atom_site_fract_x
 _atom_site_fract_y
 _atom_site_fract_z
 _atom_site_occupancy
  Er  Er0  1  0.00000000  0.99997132  -0.00000000  1
  Co  Co1  1  0.50000000  0.50000646  0.00000000  1
  Co  Co2  1  0.50000000  0.49999743  0.50000976  1
  Co  Co3  1  0.50000000  0.99998767  0.49999024  1
  Ni  Ni4  1  0.00000000  0.33334367  0.66675022  1
  Ni  Ni5  1  0.00000000  0.66659345  0.33324978  1
