# generated using pymatgen
data_ErAlCo
_symmetry_space_group_name_H-M   'P 1'
_cell_length_a   5.37240192
_cell_length_b   5.23626400
_cell_length_c   8.54281798
_cell_angle_alpha   90.00000000
_cell_angle_beta   90.00000000
_cell_angle_gamma   59.13616853
_symmetry_Int_Tables_number   1
_chemical_formula_structural   ErAlCo
_chemical_formula_sum   'Er4 Al4 Co4'
_cell_volume   206.28862555
_cell_formula_units_Z   4
loop_
 _symmetry_equiv_pos_site_id
 _symmetry_equiv_pos_as_xyz
  1  'x, y, z'
loop_
 _atom_site_type_symbol
 _atom_site_label
 _atom_site_symmetry_multiplicity
 _atom_site_fract_x
 _atom_site_fract_y
 _atom_site_fract_z
 _atom_site_occupancy
  Er  Er0  1  0.32982193  0.34035615  0.56887309  1
  Er  Er1  1  0.66452694  0.67094612  0.45411618  1
  Er  Er2  1  0.66452694  0.67094612  0.04588382  1
  Er  Er3  1  0.32982193  0.34035615  0.93112691  1
  Al  Al4  1  0.16457481  0.67085038  0.25000000  1
  Al  Al5  1  0.67235448  0.16537315  0.25000000  1
  Al  Al6  1  0.16227237  0.16537315  0.25000000  1
  Al  Al7  1  0.84015318  0.31969364  0.75000000  1
  Co  Co8  1  0.32977993  0.82886726  0.75000000  1
  Co  Co9  1  0.84135281  0.82886726  0.75000000  1
  Co  Co10  1  0.00040735  0.99918531  0.50043554  1
  Co  Co11  1  0.00040735  0.99918531  -0.00043554  1
