# generated using pymatgen
data_Gd(CrFe5)2
_symmetry_space_group_name_H-M   'P 1'
_cell_length_a   4.68781614
_cell_length_b   6.39801673
_cell_length_c   6.41888087
_cell_angle_alpha   97.50537300
_cell_angle_beta   111.33216213
_cell_angle_gamma   68.62993237
_symmetry_Int_Tables_number   1
_chemical_formula_structural   Gd(CrFe5)2
_chemical_formula_sum   'Gd1 Cr2 Fe10'
_cell_volume   166.99967174
_cell_formula_units_Z   1
loop_
 _symmetry_equiv_pos_site_id
 _symmetry_equiv_pos_as_xyz
  1  'x, y, z'
loop_
 _atom_site_type_symbol
 _atom_site_label
 _atom_site_symmetry_multiplicity
 _atom_site_fract_x
 _atom_site_fract_y
 _atom_site_fract_z
 _atom_site_occupancy
  Gd  Gd0  1  -0.00005626  0.00005869  -0.00005265  1
  Cr  Cr1  1  0.00001211  0.36673438  0.36671632  1
  Cr  Cr2  1  0.00000746  0.63321997  0.63327817  1
  Fe  Fe3  1  0.72611424  0.77399769  0.22612183  1
  Fe  Fe4  1  0.27392336  0.22595576  0.77390574  1
  Fe  Fe5  1  0.49986984  0.77110762  0.77101784  1
  Fe  Fe6  1  0.50012013  0.22891461  0.22898200  1
  Fe  Fe7  1  0.49996931  0.00002877  0.50002274  1
  Fe  Fe8  1  0.00002515  0.00002969  0.50002421  1
  Fe  Fe9  1  0.49999931  0.49997692  -0.00002596  1
  Fe  Fe10  1  -0.00000541  0.49997831  -0.00002658  1
  Fe  Fe11  1  0.64204770  0.35831020  0.64177455  1
  Fe  Fe12  1  0.35797307  0.64168740  0.35826177  1
