# generated using pymatgen
data_Fe6Bi(P3O13)2
_symmetry_space_group_name_H-M   'P 1'
_cell_length_a   6.41183860
_cell_length_b   7.66383096
_cell_length_c   10.34964243
_cell_angle_alpha   100.04192767
_cell_angle_beta   90.00000000
_cell_angle_gamma   90.00000000
_symmetry_Int_Tables_number   1
_chemical_formula_structural   Fe6Bi(P3O13)2
_chemical_formula_sum   'Fe6 Bi1 P6 O26'
_cell_volume   500.78250205
_cell_formula_units_Z   1
loop_
 _symmetry_equiv_pos_site_id
 _symmetry_equiv_pos_as_xyz
  1  'x, y, z'
loop_
 _atom_site_type_symbol
 _atom_site_label
 _atom_site_symmetry_multiplicity
 _atom_site_fract_x
 _atom_site_fract_y
 _atom_site_fract_z
 _atom_site_occupancy
  Fe  Fe0  1  0.75000000  0.78280154  0.43312851  1
  Fe  Fe1  1  0.25000000  0.21165531  0.55894519  1
  Fe  Fe2  1  0.49549754  0.99474769  0.00730167  1
  Fe  Fe3  1  0.00450246  0.99474769  0.00730167  1
  Fe  Fe4  1  0.75000000  0.35644799  0.20437663  1
  Fe  Fe5  1  0.25000000  0.64656333  0.80336932  1
  Bi  Bi6  1  0.75000000  0.35057024  0.81398245  1
  P  P7  1  0.75000000  0.68736615  0.11163499  1
  P  P8  1  0.25000000  0.31902652  0.88442006  1
  P  P9  1  0.75000000  0.21624165  0.48808237  1
  P  P10  1  0.25000000  0.78309803  0.51233231  1
  P  P11  1  0.75000000  0.74075136  0.76078190  1
  P  P12  1  0.25000000  0.26525974  0.23749003  1
  O  O13  1  0.55261567  0.79005645  0.08830814  1
  O  O14  1  0.04998135  0.21148526  0.90542395  1
  O  O15  1  0.45001865  0.21148526  0.90542395  1
  O  O16  1  0.94738433  0.79005645  0.08830814  1
  O  O17  1  0.75000000  0.34916025  0.39403022  1
  O  O18  1  0.25000000  0.65447284  0.61182833  1
  O  O19  1  0.75000000  0.63790451  0.25188329  1
  O  O20  1  0.25000000  0.35432382  0.73957754  1
  O  O21  1  0.75000000  0.91407984  0.86540482  1
  O  O22  1  0.25000000  0.08829683  0.13154157  1
  O  O23  1  0.75000000  0.78609524  0.62444116  1
  O  O24  1  0.25000000  0.21572039  0.37524501  1
  O  O25  1  0.75000000  0.12711132  0.09177429  1
  O  O26  1  0.25000000  0.88089839  0.90429857  1
  O  O27  1  0.75000000  0.49306386  0.02961046  1
  O  O28  1  0.25000000  0.50917530  0.95874549  1
  O  O29  1  0.93497940  0.61769056  0.78653513  1
  O  O30  1  0.44365715  0.37084848  0.21149196  1
  O  O31  1  0.05634285  0.37084848  0.21149196  1
  O  O32  1  0.56502060  0.61769056  0.78653513  1
  O  O33  1  0.75000000  0.02516044  0.41076900  1
  O  O34  1  0.25000000  0.97585065  0.58918736  1
  O  O35  1  0.56076974  0.25004493  0.58558583  1
  O  O36  1  0.05436085  0.75002887  0.42505786  1
  O  O37  1  0.44563915  0.75002887  0.42505786  1
  O  O38  1  0.93923026  0.25004493  0.58558583  1
