# generated using pymatgen
data_EuZnSn
_symmetry_space_group_name_H-M   'P 1'
_cell_length_a   4.81231793
_cell_length_b   6.15659113
_cell_length_c   6.11162544
_cell_angle_alpha   95.34241943
_cell_angle_beta   113.18504378
_cell_angle_gamma   66.99406351
_symmetry_Int_Tables_number   1
_chemical_formula_structural   EuZnSn
_chemical_formula_sum   'Eu2 Zn2 Sn2'
_cell_volume   152.81418615
_cell_formula_units_Z   2
loop_
 _symmetry_equiv_pos_site_id
 _symmetry_equiv_pos_as_xyz
  1  'x, y, z'
loop_
 _atom_site_type_symbol
 _atom_site_label
 _atom_site_symmetry_multiplicity
 _atom_site_fract_x
 _atom_site_fract_y
 _atom_site_fract_z
 _atom_site_occupancy
  Eu  Eu0  1  0.74838309  0.71405596  0.21082214  1
  Eu  Eu1  1  0.25161691  0.28594404  0.78917786  1
  Zn  Zn2  1  0.05207145  0.10080951  0.20495240  1
  Zn  Zn3  1  0.94792855  0.89919049  0.79504760  1
  Sn  Sn4  1  0.55438157  0.27422001  0.38298314  1
  Sn  Sn5  1  0.44561843  0.72577999  0.61701686  1
