# generated using pymatgen
data_Fe6Ni3S8
_symmetry_space_group_name_H-M   'P 1'
_cell_length_a   6.97773485
_cell_length_b   6.97275538
_cell_length_c   6.97773485
_cell_angle_alpha   90.00000000
_cell_angle_beta   59.95279270
_cell_angle_gamma   119.97639635
_symmetry_Int_Tables_number   1
_chemical_formula_structural   Fe6Ni3S8
_chemical_formula_sum   'Fe6 Ni3 S8'
_cell_volume   239.97343806
_cell_formula_units_Z   1
loop_
 _symmetry_equiv_pos_site_id
 _symmetry_equiv_pos_as_xyz
  1  'x, y, z'
loop_
 _atom_site_type_symbol
 _atom_site_label
 _atom_site_symmetry_multiplicity
 _atom_site_fract_x
 _atom_site_fract_y
 _atom_site_fract_z
 _atom_site_occupancy
  Fe  Fe0  1  0.24741836  0.12370918  0.12370918  1
  Fe  Fe1  1  0.74730836  0.87365418  0.37580836  1
  Fe  Fe2  1  0.24946253  0.87365418  0.87365418  1
  Fe  Fe3  1  0.24946253  0.37580836  0.87365418  1
  Fe  Fe4  1  0.75098564  0.87549282  0.87549282  1
  Fe  Fe5  1  0.00130114  0.50065057  0.50065057  1
  Ni  Ni6  1  0.25550104  0.12775052  0.61822326  1
  Ni  Ni7  1  0.74597378  0.12775052  0.12775052  1
  Ni  Ni8  1  0.74597378  0.61822326  0.12775052  1
  S  S9  1  0.52963096  0.26481548  0.74130347  1
  S  S10  1  0.00046911  0.73453704  0.73453704  1
  S  S11  1  0.00046911  0.26593207  0.73453704  1
  S  S12  1  0.46907407  0.73453704  0.26593207  1
  S  S13  1  0.00611895  0.26481548  0.26481548  1
  S  S14  1  0.00611895  0.74130347  0.26481548  1
  S  S15  1  0.49144867  0.24572434  0.24572434  1
  S  S16  1  0.50328302  0.75164151  0.75164151  1
