# generated using pymatgen
data_Cr4CoCuS8
_symmetry_space_group_name_H-M   'P 1'
_cell_length_a   6.94022565
_cell_length_b   6.94022565
_cell_length_c   6.94022565
_cell_angle_alpha   90.00000000
_cell_angle_beta   60.00000000
_cell_angle_gamma   120.00000000
_symmetry_Int_Tables_number   1
_chemical_formula_structural   Cr4CoCuS8
_chemical_formula_sum   'Cr4 Co1 Cu1 S8'
_cell_volume   236.37730417
_cell_formula_units_Z   1
loop_
 _symmetry_equiv_pos_site_id
 _symmetry_equiv_pos_as_xyz
  1  'x, y, z'
loop_
 _atom_site_type_symbol
 _atom_site_label
 _atom_site_symmetry_multiplicity
 _atom_site_fract_x
 _atom_site_fract_y
 _atom_site_fract_z
 _atom_site_occupancy
  Cr  Cr0  1  0.50219530  0.50329295  0.99890235  1
  Cr  Cr1  1  0.50219530  0.99890235  0.99890235  1
  Cr  Cr2  1  0.99780470  0.99890235  0.50329295  1
  Cr  Cr3  1  0.99780470  0.99890235  0.99890235  1
  Co  Co4  1  0.75000000  0.37500000  0.37500000  1
  Cu  Cu5  1  0.25000000  0.62500000  0.62500000  1
  S  S6  1  0.01076149  0.76614224  0.24461925  1
  S  S7  1  0.01076149  0.24461925  0.24461925  1
  S  S8  1  0.48923851  0.24461925  0.76614224  1
  S  S9  1  0.48923851  0.24461925  0.24461925  1
  S  S10  1  0.98460977  0.22691465  0.75769512  1
  S  S11  1  0.98460977  0.75769512  0.75769512  1
  S  S12  1  0.51539023  0.75769512  0.22691465  1
  S  S13  1  0.51539023  0.75769512  0.75769512  1
