# generated using pymatgen
data_Co3Ni3S8
_symmetry_space_group_name_H-M   'P 1'
_cell_length_a   6.62158457
_cell_length_b   6.62158457
_cell_length_c   6.60793656
_cell_angle_alpha   90.00000000
_cell_angle_beta   59.93165367
_cell_angle_gamma   120.00000000
_symmetry_Int_Tables_number   1
_chemical_formula_structural   Co3Ni3S8
_chemical_formula_sum   'Co3 Ni3 S8'
_cell_volume   204.65638737
_cell_formula_units_Z   1
loop_
 _symmetry_equiv_pos_site_id
 _symmetry_equiv_pos_as_xyz
  1  'x, y, z'
loop_
 _atom_site_type_symbol
 _atom_site_label
 _atom_site_symmetry_multiplicity
 _atom_site_fract_x
 _atom_site_fract_y
 _atom_site_fract_z
 _atom_site_occupancy
  Co  Co0  1  0.50060129  0.75030065  0.74909806  1
  Co  Co1  1  0.99939871  0.99969935  0.00090194  1
  Co  Co2  1  0.75000000  0.37500000  0.87500000  1
  Ni  Ni3  1  0.25000000  0.37500000  0.37500000  1
  Ni  Ni4  1  0.25000000  0.87500000  0.37500000  1
  Ni  Ni5  1  0.75000000  0.37500000  0.37500000  1
  S  S6  1  0.26166244  0.13083122  0.60750634  1
  S  S7  1  0.73882359  0.13400034  0.12717607  1
  S  S8  1  0.73882359  0.60482325  0.12717607  1
  S  S9  1  0.26800068  0.13400034  0.12717607  1
  S  S10  1  0.23833756  0.61916878  0.14249366  1
  S  S11  1  0.76117641  0.61599966  0.62282393  1
  S  S12  1  0.76117641  0.14517675  0.62282393  1
  S  S13  1  0.23199932  0.61599966  0.62282393  1
