# generated using pymatgen
data_Cr7Cd3(InS8)2
_symmetry_space_group_name_H-M   'P 1'
_cell_length_a   7.42964213
_cell_length_b   10.44049245
_cell_length_c   7.32668721
_cell_angle_alpha   90.00000000
_cell_angle_beta   90.00000000
_cell_angle_gamma   88.80985716
_symmetry_Int_Tables_number   1
_chemical_formula_structural   Cr7Cd3(InS8)2
_chemical_formula_sum   'Cr7 Cd3 In2 S16'
_cell_volume   568.20209459
_cell_formula_units_Z   1
loop_
 _symmetry_equiv_pos_site_id
 _symmetry_equiv_pos_as_xyz
  1  'x, y, z'
loop_
 _atom_site_type_symbol
 _atom_site_label
 _atom_site_symmetry_multiplicity
 _atom_site_fract_x
 _atom_site_fract_y
 _atom_site_fract_z
 _atom_site_occupancy
  Cr  Cr0  1  0.75189616  0.12543664  0.50000000  1
  Cr  Cr1  1  0.25067161  0.24778647  0.25303076  1
  Cr  Cr2  1  0.74932867  0.75285254  0.74804330  1
  Cr  Cr3  1  0.25067161  0.24778647  0.74696924  1
  Cr  Cr4  1  0.74932867  0.75285254  0.25195670  1
  Cr  Cr5  1  0.50140031  0.00159153  -0.00000000  1
  Cr  Cr6  1  0.99882960  0.49799036  0.50000000  1
  Cd  Cd7  1  0.74688952  0.37264845  -0.00000000  1
  Cd  Cd8  1  0.24650516  0.87396183  0.50000000  1
  Cd  Cd9  1  0.25310215  0.62626121  0.00000000  1
  In  In10  1  0.99780282  0.00118861  0.00000000  1
  In  In11  1  0.50157833  0.49812855  0.50000000  1
  S  S12  1  0.76703167  0.52027898  0.27147506  1
  S  S13  1  0.26667868  0.01887578  0.77278662  1
  S  S14  1  0.76703167  0.52027898  0.72852494  1
  S  S15  1  0.26667868  0.01887578  0.22721338  1
  S  S16  1  0.03992518  0.24773812  -0.00000000  1
  S  S17  1  0.53850064  0.74718177  0.50000000  1
  S  S18  1  0.46770352  0.23413521  -0.00000000  1
  S  S19  1  0.96864220  0.73396509  0.50000000  1
  S  S20  1  0.23367341  0.47864883  0.72636698  1
  S  S21  1  0.73273482  0.98816188  0.24099449  1
  S  S22  1  0.23367341  0.47864883  0.27363302  1
  S  S23  1  0.73273482  0.98816188  0.75900551  1
  S  S24  1  0.95988798  0.75469182  0.00000000  1
  S  S25  1  0.47490585  0.24468904  0.50000000  1
  S  S26  1  0.53268104  0.76790611  0.00000000  1
  S  S27  1  0.01951182  0.25927671  0.50000000  1
