# generated using pymatgen
data_Fe4Co(BiO3)5
_symmetry_space_group_name_H-M   'P 1'
_cell_length_a   5.60818230
_cell_length_b   5.66845182
_cell_length_c   23.18592501
_cell_angle_alpha   96.81063198
_cell_angle_beta   89.75411765
_cell_angle_gamma   119.56141873
_symmetry_Int_Tables_number   1
_chemical_formula_structural   Fe4Co(BiO3)5
_chemical_formula_sum   'Fe8 Co2 Bi10 O30'
_cell_volume   635.34747688
_cell_formula_units_Z   2
loop_
 _symmetry_equiv_pos_site_id
 _symmetry_equiv_pos_as_xyz
  1  'x, y, z'
loop_
 _atom_site_type_symbol
 _atom_site_label
 _atom_site_symmetry_multiplicity
 _atom_site_fract_x
 _atom_site_fract_y
 _atom_site_fract_z
 _atom_site_occupancy
  Fe  Fe0  1  0.81438338  0.62621106  0.54317324  1
  Fe  Fe1  1  0.21000147  0.41924224  0.74421881  1
  Fe  Fe2  1  0.61391318  0.22529287  0.94541671  1
  Fe  Fe3  1  0.11310174  0.22291990  0.44211035  1
  Fe  Fe4  1  0.51232845  0.02371847  0.64340690  1
  Fe  Fe5  1  0.91117074  0.82278446  0.84507884  1
  Fe  Fe6  1  0.31014375  0.62164482  0.04593125  1
  Fe  Fe7  1  0.70951867  0.42217559  0.24566848  1
  Co  Co8  1  0.00645942  0.01141657  0.14527519  1
  Co  Co9  1  0.39952965  0.80101676  0.34201072  1
  Bi  Bi10  1  0.09228744  0.18841361  0.29936405  1
  Bi  Bi11  1  0.50093075  -0.00023195  0.49615195  1
  Bi  Bi12  1  0.89658414  0.79444453  0.69915926  1
  Bi  Bi13  1  0.30032910  0.60001104  0.90089217  1
  Bi  Bi14  1  0.69563582  0.39504563  0.10150999  1
  Bi  Bi15  1  0.00042792  0.99809654  0.00230613  1
  Bi  Bi16  1  0.39933008  0.79984722  0.20131721  1
  Bi  Bi17  1  0.79845857  0.59949660  0.39694182  1
  Bi  Bi18  1  0.20108464  0.39800962  0.59872819  1
  Bi  Bi19  1  0.59784290  0.19630905  0.79964721  1
  O  O20  1  0.61047031  0.07480458  0.28987343  1
  O  O21  1  0.01317913  0.88179709  0.48513307  1
  O  O22  1  0.41464769  0.67341296  0.68657602  1
  O  O23  1  0.81667358  0.48014562  0.88847682  1
  O  O24  1  0.21368525  0.28116639  0.08917423  1
  O  O25  1  0.31580274  0.16349589  0.20883359  1
  O  O26  1  0.69960481  0.95800027  0.40440044  1
  O  O27  1  0.10414312  0.75984117  0.60751628  1
  O  O28  1  0.50000134  0.55682713  0.80899529  1
  O  O29  1  0.90472155  0.36036951  0.00977115  1
  O  O30  1  0.19570334  0.98286154  0.37507694  1
  O  O31  1  0.59102317  0.78850780  0.57634525  1
  O  O32  1  0.98940600  0.58349746  0.77769463  1
  O  O33  1  0.39392460  0.39029265  0.97955624  1
  O  O34  1  0.79902647  0.19042105  0.18008377  1
  O  O35  1  0.09866651  0.59518014  0.27944101  1
  O  O36  1  0.49438795  0.38745501  0.47599519  1
  O  O37  1  0.89731957  0.18462462  0.67712394  1
  O  O38  1  0.29562035  0.98860833  0.87888909  1
  O  O39  1  0.68963862  0.78735040  0.07948031  1
  O  O40  1  0.55336984  0.56974303  0.30768405  1
  O  O41  1  0.95486046  0.35935843  0.50578049  1
  O  O42  1  0.35593863  0.15578706  0.70866191  1
  O  O43  1  0.75491535  0.95995424  0.90962173  1
  O  O44  1  0.15315707  0.76627913  0.10869275  1
  O  O45  1  0.17341688  0.48630446  0.38558912  1
  O  O46  1  0.56347337  0.28149495  0.58671756  1
  O  O47  1  0.96044952  0.07452667  0.78715462  1
  O  O48  1  0.36387423  0.88074452  0.98935115  1
  O  O49  1  0.77183673  0.68408324  0.18920146  1
