# generated using pymatgen
data_CeHo4S7
_symmetry_space_group_name_H-M   'P 1'
_cell_length_a   3.81515371
_cell_length_b   6.79201859
_cell_length_c   11.60986312
_cell_angle_alpha   104.19345864
_cell_angle_beta   90.00000000
_cell_angle_gamma   73.68872032
_symmetry_Int_Tables_number   1
_chemical_formula_structural   CeHo4S7
_chemical_formula_sum   'Ce1 Ho4 S7'
_cell_volume   279.15103801
_cell_formula_units_Z   1
loop_
 _symmetry_equiv_pos_site_id
 _symmetry_equiv_pos_as_xyz
  1  'x, y, z'
loop_
 _atom_site_type_symbol
 _atom_site_label
 _atom_site_symmetry_multiplicity
 _atom_site_fract_x
 _atom_site_fract_y
 _atom_site_fract_z
 _atom_site_occupancy
  Ce  Ce0  1  -0.00000000  -0.00000000  0.00000000  1
  Ho  Ho1  1  0.88759716  0.22480568  0.42283516  1
  Ho  Ho2  1  0.11240284  0.77519432  0.57716484  1
  Ho  Ho3  1  0.69964601  0.60070798  0.18886749  1
  Ho  Ho4  1  0.30035399  0.39929202  0.81113251  1
  S  S5  1  0.73891378  0.52217244  0.64564600  1
  S  S6  1  0.26108622  0.47782756  0.35435400  1
  S  S7  1  0.33497762  0.33004476  0.05495028  1
  S  S8  1  0.66502238  0.66995524  0.94504972  1
  S  S9  1  0.04446667  0.91106665  0.22070221  1
  S  S10  1  0.95553333  0.08893335  0.77929779  1
  S  S11  1  0.50000000  -0.00000000  0.50000000  1
