# generated using pymatgen
data_CoCu2TeO6
_symmetry_space_group_name_H-M   'P 1'
_cell_length_a   8.38980137
_cell_length_b   8.38980137
_cell_length_c   8.38980137
_cell_angle_alpha   70.12615111
_cell_angle_beta   70.61116982
_cell_angle_gamma   109.15182032
_symmetry_Int_Tables_number   1
_chemical_formula_structural   CoCu2TeO6
_chemical_formula_sum   'Co4 Cu8 Te4 O24'
_cell_volume   454.58510761
_cell_formula_units_Z   4
loop_
 _symmetry_equiv_pos_site_id
 _symmetry_equiv_pos_as_xyz
  1  'x, y, z'
loop_
 _atom_site_type_symbol
 _atom_site_label
 _atom_site_symmetry_multiplicity
 _atom_site_fract_x
 _atom_site_fract_y
 _atom_site_fract_z
 _atom_site_occupancy
  Co  Co0  1  0.53835052  0.78835052  0.25000000  1
  Co  Co1  1  0.96164948  0.71164948  0.75000000  1
  Co  Co2  1  0.25000000  0.46233654  0.78766346  1
  Co  Co3  1  0.75000000  0.03766346  0.71233654  1
  Cu  Cu4  1  0.22330106  0.75000000  0.02669894  1
  Cu  Cu5  1  0.27669894  0.25000000  0.47330106  1
  Cu  Cu6  1  0.47069639  0.22069639  0.75000000  1
  Cu  Cu7  1  0.02930361  0.27930361  0.25000000  1
  Cu  Cu8  1  0.75000000  0.52961532  0.22038468  1
  Cu  Cu9  1  0.25000000  0.97038468  0.27961532  1
  Cu  Cu10  1  0.77991422  0.25000000  0.97008578  1
  Cu  Cu11  1  0.72008578  0.75000000  0.52991422  1
  Te  Te12  1  0.50154718  0.49677040  0.00252259  1
  Te  Te13  1  0.50070700  0.00322960  0.49522322  1
  Te  Te14  1  0.99929300  0.50406977  0.49747741  1
  Te  Te15  1  0.99845282  0.99593023  0.00477678  1
  O  O16  1  0.47148959  0.42615141  0.80808033  1
  O  O17  1  0.76576825  0.07384859  0.45466182  1
  O  O18  1  0.73423175  0.27956992  0.69191967  1
  O  O19  1  0.02851041  0.22043008  0.04533818  1
  O  O20  1  0.96297699  0.53012564  0.26943161  1
  O  O21  1  0.29955725  0.23240860  0.23056839  1
  O  O22  1  0.53702301  0.26759140  0.43285135  1
  O  O23  1  0.20044275  0.96987436  0.06714865  1
  O  O24  1  0.56847183  0.04971072  0.23033714  1
  O  O25  1  0.93152817  0.70119104  0.51876111  1
  O  O26  1  0.71995215  0.45028928  0.98123889  1
  O  O27  1  0.78004785  0.79880896  0.26966286  1
  O  O28  1  0.52981727  0.57065858  0.19250546  1
  O  O29  1  0.23683596  0.92934142  0.54084132  1
  O  O30  1  0.26316404  0.72232273  0.30749454  1
  O  O31  1  0.97018273  0.77767727  0.95915868  1
  O  O32  1  0.03537534  0.48251192  0.72571486  1
  O  O33  1  0.70822677  0.76109019  0.77428514  1
  O  O34  1  0.46462466  0.73890981  0.55286342  1
  O  O35  1  0.79177323  0.01748808  0.94713658  1
  O  O36  1  0.44067769  0.95879689  0.76534283  1
  O  O37  1  0.05932231  0.29397948  0.48188080  1
  O  O38  1  0.27586028  0.54120311  0.01811920  1
  O  O39  1  0.22413972  0.20602052  0.73465717  1
