# generated using pymatgen
data_Co5Sn(BO5)2
_symmetry_space_group_name_H-M   'P 1'
_cell_length_a   3.18324922
_cell_length_b   9.51803055
_cell_length_c   12.46535930
_cell_angle_alpha   90.00000000
_cell_angle_beta   90.00000000
_cell_angle_gamma   90.00000000
_symmetry_Int_Tables_number   1
_chemical_formula_structural   Co5Sn(BO5)2
_chemical_formula_sum   'Co10 Sn2 B4 O20'
_cell_volume   377.67873850
_cell_formula_units_Z   2
loop_
 _symmetry_equiv_pos_site_id
 _symmetry_equiv_pos_as_xyz
  1  'x, y, z'
loop_
 _atom_site_type_symbol
 _atom_site_label
 _atom_site_symmetry_multiplicity
 _atom_site_fract_x
 _atom_site_fract_y
 _atom_site_fract_z
 _atom_site_occupancy
  Co  Co0  1  -0.00000000  0.98383069  0.49461056  1
  Co  Co1  1  -0.00000000  0.51616931  0.99461056  1
  Co  Co2  1  0.50000000  0.51803282  0.21959725  1
  Co  Co3  1  0.50000000  0.51310902  0.78307060  1
  Co  Co4  1  0.50000000  0.98689098  0.28307060  1
  Co  Co5  1  0.50000000  0.98196718  0.71959725  1
  Co  Co6  1  0.50000000  0.51660403  0.49784959  1
  Co  Co7  1  0.50000000  0.98339597  0.99784959  1
  Co  Co8  1  0.00000000  0.73774807  0.38365497  1
  Co  Co9  1  -0.00000000  0.76225193  0.88365497  1
  Sn  Sn10  1  0.00000000  0.25819613  0.61528793  1
  Sn  Sn11  1  -0.00000000  0.24180387  0.11528793  1
  B  B12  1  -0.00000000  0.77562759  0.13884000  1
  B  B13  1  -0.00000000  0.23108669  0.86160555  1
  B  B14  1  -0.00000000  0.26891331  0.36160555  1
  B  B15  1  -0.00000000  0.72437241  0.63884000  1
  O  O16  1  0.50000000  0.60594465  0.35682734  1
  O  O17  1  0.50000000  0.39604798  0.64302501  1
  O  O18  1  0.50000000  0.10395202  0.14302501  1
  O  O19  1  0.50000000  0.89405535  0.85682734  1
  O  O20  1  0.00000000  0.62812489  0.13847923  1
  O  O21  1  0.00000000  0.37489185  0.85891341  1
  O  O22  1  -0.00000000  0.12510815  0.35891341  1
  O  O23  1  -0.00000000  0.87187511  0.63847923  1
  O  O24  1  0.00000000  0.84812147  0.23521500  1
  O  O25  1  -0.00000000  0.15382132  0.76543090  1
  O  O26  1  -0.00000000  0.34617868  0.26543090  1
  O  O27  1  -0.00000000  0.65187853  0.73521500  1
  O  O28  1  -0.00000000  0.64922458  0.54341536  1
  O  O29  1  -0.00000000  0.34692619  0.45791836  1
  O  O30  1  -0.00000000  0.15307381  0.95791836  1
  O  O31  1  -0.00000000  0.85077542  0.04341536  1
  O  O32  1  0.50000000  0.89116177  0.42330297  1
  O  O33  1  0.50000000  0.11716635  0.58295596  1
  O  O34  1  0.50000000  0.38283365  0.08295596  1
  O  O35  1  0.50000000  0.60883823  0.92330297  1
