# generated using pymatgen
data_SrMg6Cd
_symmetry_space_group_name_H-M   'P 1'
_cell_length_a   6.81413476
_cell_length_b   6.68283538
_cell_length_c   5.24693285
_cell_angle_alpha   90.00000000
_cell_angle_beta   90.00000000
_cell_angle_gamma   119.36462420
_symmetry_Int_Tables_number   1
_chemical_formula_structural   SrMg6Cd
_chemical_formula_sum   'Sr1 Mg6 Cd1'
_cell_volume   208.23451780
_cell_formula_units_Z   1
loop_
 _symmetry_equiv_pos_site_id
 _symmetry_equiv_pos_as_xyz
  1  'x, y, z'
loop_
 _atom_site_type_symbol
 _atom_site_label
 _atom_site_symmetry_multiplicity
 _atom_site_fract_x
 _atom_site_fract_y
 _atom_site_fract_z
 _atom_site_occupancy
  Sr  Sr0  1  0.16253284  0.33126592  0.25000000  1
  Mg  Mg1  1  0.66215597  0.32477679  0.25000000  1
  Mg  Mg2  1  0.66215597  0.83737818  0.25000000  1
  Mg  Mg3  1  0.34132971  0.15709827  0.75000000  1
  Mg  Mg4  1  0.34132971  0.68423244  0.75000000  1
  Mg  Mg5  1  0.81622041  0.15811070  0.75000000  1
  Mg  Mg6  1  0.83549695  0.66774898  0.75000000  1
  Cd  Cd7  1  0.17877844  0.83938872  0.25000000  1
