# generated using pymatgen
data_CeU3Al8
_symmetry_space_group_name_H-M   'P 1'
_cell_length_a   5.51157390
_cell_length_b   5.51157389
_cell_length_c   9.52579090
_cell_angle_alpha   73.18409514
_cell_angle_beta   90.00000000
_cell_angle_gamma   119.99999996
_symmetry_Int_Tables_number   1
_chemical_formula_structural   CeU3Al8
_chemical_formula_sum   'Ce1 U3 Al8'
_cell_volume   236.20521487
_cell_formula_units_Z   1
loop_
 _symmetry_equiv_pos_site_id
 _symmetry_equiv_pos_as_xyz
  1  'x, y, z'
loop_
 _atom_site_type_symbol
 _atom_site_label
 _atom_site_symmetry_multiplicity
 _atom_site_fract_x
 _atom_site_fract_y
 _atom_site_fract_z
 _atom_site_occupancy
  Ce  Ce0  1  0.87420607  0.74841214  0.37738179  1
  U  U1  1  0.37621937  0.75243875  0.87134188  1
  U  U2  1  0.00295910  0.00591819  0.99112271  1
  U  U3  1  0.49656733  0.99313467  0.51029800  1
  Al  Al4  1  0.43813634  0.37666920  0.18519445  1
  Al  Al5  1  0.93736605  0.37317545  0.68945850  1
  Al  Al6  1  0.43813634  0.87627269  0.18519445  1
  Al  Al7  1  0.93736605  0.87473210  0.68945850  1
  Al  Al8  1  0.18715178  0.37430357  0.43854465  1
  Al  Al9  1  0.68754929  0.37509859  0.93735212  1
  Al  Al10  1  0.93853286  0.37666920  0.18519445  1
  Al  Al11  1  0.43580940  0.37317545  0.68945850  1
