# generated using pymatgen
data_CaYGa3O7
_symmetry_space_group_name_H-M   'P 1'
_cell_length_a   5.23242577
_cell_length_b   7.92470945
_cell_length_c   7.92470945
_cell_angle_alpha   90.49286726
_cell_angle_beta   90.00000000
_cell_angle_gamma   90.00000000
_symmetry_Int_Tables_number   1
_chemical_formula_structural   CaYGa3O7
_chemical_formula_sum   'Ca2 Y2 Ga6 O14'
_cell_volume   328.58951707
_cell_formula_units_Z   2
loop_
 _symmetry_equiv_pos_site_id
 _symmetry_equiv_pos_as_xyz
  1  'x, y, z'
loop_
 _atom_site_type_symbol
 _atom_site_label
 _atom_site_symmetry_multiplicity
 _atom_site_fract_x
 _atom_site_fract_y
 _atom_site_fract_z
 _atom_site_occupancy
  Ca  Ca0  1  0.51552067  0.33893349  0.16106651  1
  Ca  Ca1  1  0.51552067  0.66106651  0.83893349  1
  Y  Y2  1  0.48415962  0.16084564  0.66084564  1
  Y  Y3  1  0.48415962  0.83915436  0.33915436  1
  Ga  Ga4  1  0.00115780  0.50000000  0.50000000  1
  Ga  Ga5  1  0.00115780  0.00000000  0.00000000  1
  Ga  Ga6  1  0.96365258  0.14357877  0.35642123  1
  Ga  Ga7  1  0.03681289  0.35347539  0.85347539  1
  Ga  Ga8  1  0.96365258  0.85642123  0.64357877  1
  Ga  Ga9  1  0.03681289  0.64652461  0.14652461  1
  O  O10  1  0.78471938  0.33892052  0.41165728  1
  O  O11  1  0.21825802  0.15384572  0.89830629  1
  O  O12  1  0.78471938  0.66107948  0.58834272  1
  O  O13  1  0.21825802  0.84615428  0.10169371  1
  O  O14  1  0.21825802  0.60169371  0.34615428  1
  O  O15  1  0.78471938  0.91165728  0.83892052  1
  O  O16  1  0.21825802  0.39830629  0.65384572  1
  O  O17  1  0.78471938  0.08834272  0.16107948  1
  O  O18  1  0.31089618  0.12922609  0.37077391  1
  O  O19  1  0.69082677  0.34784790  0.84784790  1
  O  O20  1  0.31089618  0.87077391  0.62922609  1
  O  O21  1  0.69082677  0.65215210  0.15215210  1
  O  O22  1  0.20027992  0.50000000  0.00000000  1
  O  O23  1  0.78175745  0.00000000  0.50000000  1
