# generated using pymatgen
data_CaMgZn
_symmetry_space_group_name_H-M   'P 1'
_cell_length_a   5.84838103
_cell_length_b   5.94996824
_cell_length_c   9.66685083
_cell_angle_alpha   90.00000000
_cell_angle_beta   90.00000000
_cell_angle_gamma   120.60064501
_symmetry_Int_Tables_number   1
_chemical_formula_structural   CaMgZn
_chemical_formula_sum   'Ca4 Mg4 Zn4'
_cell_volume   289.53791411
_cell_formula_units_Z   4
loop_
 _symmetry_equiv_pos_site_id
 _symmetry_equiv_pos_as_xyz
  1  'x, y, z'
loop_
 _atom_site_type_symbol
 _atom_site_label
 _atom_site_symmetry_multiplicity
 _atom_site_fract_x
 _atom_site_fract_y
 _atom_site_fract_z
 _atom_site_occupancy
  Ca  Ca0  1  0.66715616  0.33355803  0.55187285  1
  Ca  Ca1  1  0.33578111  0.66792232  0.42769096  1
  Ca  Ca2  1  0.33578111  0.66792232  0.07230904  1
  Ca  Ca3  1  0.66715616  0.33355803  0.94812715  1
  Mg  Mg4  1  0.99289144  0.99647962  0.48574456  1
  Mg  Mg5  1  0.99289144  0.99647962  0.01425544  1
  Mg  Mg6  1  0.17349261  0.34031612  0.75000000  1
  Mg  Mg7  1  0.17354054  0.83322581  0.75000000  1
  Zn  Zn8  1  0.65869505  0.82935897  0.75000000  1
  Zn  Zn9  1  0.82409544  0.64505722  0.25000000  1
  Zn  Zn10  1  0.82405370  0.17900622  0.25000000  1
  Zn  Zn11  1  0.35446526  0.17711574  0.25000000  1
