# generated using pymatgen
data_CeEr4S7
_symmetry_space_group_name_H-M   'P 1'
_cell_length_a   3.80074250
_cell_length_b   6.74242446
_cell_length_c   11.63977419
_cell_angle_alpha   104.02535369
_cell_angle_beta   90.00000005
_cell_angle_gamma   73.62918732
_symmetry_Int_Tables_number   1
_chemical_formula_structural   CeEr4S7
_chemical_formula_sum   'Ce1 Er4 S7'
_cell_volume   276.90998435
_cell_formula_units_Z   1
loop_
 _symmetry_equiv_pos_site_id
 _symmetry_equiv_pos_as_xyz
  1  'x, y, z'
loop_
 _atom_site_type_symbol
 _atom_site_label
 _atom_site_symmetry_multiplicity
 _atom_site_fract_x
 _atom_site_fract_y
 _atom_site_fract_z
 _atom_site_occupancy
  Ce  Ce0  1  0.88751483  0.22497034  0.42070963  1
  Er  Er1  1  0.69980252  0.60039497  0.18628775  1
  Er  Er2  1  0.30076617  0.39846766  0.81326921  1
  Er  Er3  1  0.11329287  0.77341427  0.58099148  1
  Er  Er4  1  0.00001462  -0.00002924  0.99822168  1
  S  S5  1  0.04585838  0.90828325  0.20872712  1
  S  S6  1  0.95709640  0.08580720  0.78534244  1
  S  S7  1  0.34211484  0.31577033  0.05033016  1
  S  S8  1  0.65907372  0.68185256  0.94914444  1
  S  S9  1  0.73671270  0.52657460  0.65356590  1
  S  S10  1  0.25231969  0.49536061  0.34933690  1
  S  S11  1  0.50543327  0.98913346  0.50407328  1
