# generated using pymatgen
data_Ce3(MgRh2)2
_symmetry_space_group_name_H-M   'P 1'
_cell_length_a   3.91331587
_cell_length_b   7.80213973
_cell_length_c   7.21625579
_cell_angle_alpha   122.72413332
_cell_angle_beta   90.00000000
_cell_angle_gamma   90.00000000
_symmetry_Int_Tables_number   1
_chemical_formula_structural   Ce3(MgRh2)2
_chemical_formula_sum   'Ce3 Mg2 Rh4'
_cell_volume   185.35859987
_cell_formula_units_Z   1
loop_
 _symmetry_equiv_pos_site_id
 _symmetry_equiv_pos_as_xyz
  1  'x, y, z'
loop_
 _atom_site_type_symbol
 _atom_site_label
 _atom_site_symmetry_multiplicity
 _atom_site_fract_x
 _atom_site_fract_y
 _atom_site_fract_z
 _atom_site_occupancy
  Ce  Ce0  1  0.00000000  0.42320637  0.00000000  1
  Ce  Ce1  1  -0.00000000  0.61450492  0.65079935  1
  Ce  Ce2  1  -0.00000000  0.96370557  0.34920065  1
  Mg  Mg3  1  0.50000000  0.25720958  0.25776885  1
  Mg  Mg4  1  0.50000000  0.99944073  0.74223115  1
  Rh  Rh5  1  0.50000000  0.30796601  0.66388505  1
  Rh  Rh6  1  0.50000000  0.64408096  0.33611495  1
  Rh  Rh7  1  0.00000000  0.02946734  0.00000000  1
  Rh  Rh8  1  0.50000000  0.76031852  1.00000000  1
