# generated using pymatgen
data_CaNdCoO4
_symmetry_space_group_name_H-M   'P 1'
_cell_length_a   3.77879570
_cell_length_b   3.77879570
_cell_length_c   6.63760178
_cell_angle_alpha   73.46203091
_cell_angle_beta   73.46203091
_cell_angle_gamma   90.00000000
_symmetry_Int_Tables_number   1
_chemical_formula_structural   CaNdCoO4
_chemical_formula_sum   'Ca1 Nd1 Co1 O4'
_cell_volume   86.76139947
_cell_formula_units_Z   1
loop_
 _symmetry_equiv_pos_site_id
 _symmetry_equiv_pos_as_xyz
  1  'x, y, z'
loop_
 _atom_site_type_symbol
 _atom_site_label
 _atom_site_symmetry_multiplicity
 _atom_site_fract_x
 _atom_site_fract_y
 _atom_site_fract_z
 _atom_site_occupancy
  Ca  Ca0  1  0.35891062  0.35891062  0.28217876  1
  Nd  Nd1  1  0.64140254  0.64140254  0.71719492  1
  Co  Co2  1  0.99510611  0.99510611  0.00978777  1
  O  O3  1  0.16929505  0.16929505  0.66140990  1
  O  O4  1  0.82870531  0.82870531  0.34258938  1
  O  O5  1  0.50329018  0.00329018  0.99341964  1
  O  O6  1  0.00329018  0.50329018  0.99341964  1
