# generated using pymatgen
data_Ce2ZrO6
_symmetry_space_group_name_H-M   'P 1'
_cell_length_a   3.80985025
_cell_length_b   3.80985506
_cell_length_c   9.21646843
_cell_angle_alpha   90.00079783
_cell_angle_beta   89.99997070
_cell_angle_gamma   59.99995906
_symmetry_Int_Tables_number   1
_chemical_formula_structural   Ce2ZrO6
_chemical_formula_sum   'Ce2 Zr1 O6'
_cell_volume   115.85408495
_cell_formula_units_Z   1
loop_
 _symmetry_equiv_pos_site_id
 _symmetry_equiv_pos_as_xyz
  1  'x, y, z'
loop_
 _atom_site_type_symbol
 _atom_site_label
 _atom_site_symmetry_multiplicity
 _atom_site_fract_x
 _atom_site_fract_y
 _atom_site_fract_z
 _atom_site_occupancy
  Ce  Ce0  1  0.33333274  0.33332998  0.32557566  1
  Ce  Ce1  1  0.66666726  0.66667002  0.67442434  1
  Zr  Zr2  1  0.00000000  -0.00000000  0.00000000  1
  O  O3  1  0.66667530  0.66665092  0.92948408  1
  O  O4  1  0.99999519  0.00000877  0.23615012  1
  O  O5  1  0.33332396  0.33334790  0.58621916  1
  O  O6  1  0.33332470  0.33334908  0.07051592  1
  O  O7  1  0.66667604  0.66665210  0.41378084  1
  O  O8  1  0.00000481  0.99999123  0.76384988  1
