# generated using pymatgen
data_Ca7Ni(IrO6)2
_symmetry_space_group_name_H-M   'P 1'
_cell_length_a   6.55987600
_cell_length_b   6.55987600
_cell_length_c   6.55987577
_cell_angle_alpha   90.98854098
_cell_angle_beta   90.98854098
_cell_angle_gamma   90.98853528
_symmetry_Int_Tables_number   1
_chemical_formula_structural   Ca7Ni(IrO6)2
_chemical_formula_sum   'Ca7 Ni1 Ir2 O12'
_cell_volume   282.15688882
_cell_formula_units_Z   1
loop_
 _symmetry_equiv_pos_site_id
 _symmetry_equiv_pos_as_xyz
  1  'x, y, z'
loop_
 _atom_site_type_symbol
 _atom_site_label
 _atom_site_symmetry_multiplicity
 _atom_site_fract_x
 _atom_site_fract_y
 _atom_site_fract_z
 _atom_site_occupancy
  Ca  Ca0  1  0.60558346  0.89441654  0.25000000  1
  Ca  Ca1  1  0.89441654  0.25000000  0.60558346  1
  Ca  Ca2  1  0.25000000  0.60558346  0.89441654  1
  Ca  Ca3  1  0.11393875  0.75000000  0.38606125  1
  Ca  Ca4  1  0.75000000  0.38606125  0.11393875  1
  Ca  Ca5  1  0.38606125  0.11393875  0.75000000  1
  Ca  Ca6  1  0.75000000  0.75000000  0.75000000  1
  Ni  Ni7  1  0.25000000  0.25000000  0.25000000  1
  Ir  Ir8  1  0.49846329  0.49846329  0.49846329  1
  Ir  Ir9  1  0.00153671  0.00153671  0.00153671  1
  O  O10  1  0.53967070  0.20146584  0.41636380  1
  O  O11  1  0.20146584  0.41636380  0.53967070  1
  O  O12  1  0.41636380  0.53967070  0.20146584  1
  O  O13  1  0.05585750  0.92700737  0.70401738  1
  O  O14  1  0.92700737  0.70401738  0.05585750  1
  O  O15  1  0.70401738  0.05585750  0.92700737  1
  O  O16  1  0.44414250  0.79598262  0.57299263  1
  O  O17  1  0.79598262  0.57299263  0.44414250  1
  O  O18  1  0.57299263  0.44414250  0.79598262  1
  O  O19  1  0.96032930  0.08363620  0.29853416  1
  O  O20  1  0.08363620  0.29853416  0.96032930  1
  O  O21  1  0.29853416  0.96032930  0.08363620  1
