# generated using pymatgen
data_HfMg6Bi
_symmetry_space_group_name_H-M   'P 1'
_cell_length_a   6.42831903
_cell_length_b   6.17285405
_cell_length_c   5.35196561
_cell_angle_alpha   90.00000000
_cell_angle_beta   90.00000000
_cell_angle_gamma   118.69388003
_symmetry_Int_Tables_number   1
_chemical_formula_structural   HfMg6Bi
_chemical_formula_sum   'Hf1 Mg6 Bi1'
_cell_volume   186.29195796
_cell_formula_units_Z   1
loop_
 _symmetry_equiv_pos_site_id
 _symmetry_equiv_pos_as_xyz
  1  'x, y, z'
loop_
 _atom_site_type_symbol
 _atom_site_label
 _atom_site_symmetry_multiplicity
 _atom_site_fract_x
 _atom_site_fract_y
 _atom_site_fract_z
 _atom_site_occupancy
  Hf  Hf0  1  0.16386313  0.83193106  0.25000000  1
  Mg  Mg1  1  0.66628456  0.33535478  0.25000000  1
  Mg  Mg2  1  0.66628456  0.83092878  0.25000000  1
  Mg  Mg3  1  0.33730922  0.15828505  0.75000000  1
  Mg  Mg4  1  0.33730922  0.67902517  0.75000000  1
  Mg  Mg5  1  0.82411035  0.16205567  0.75000000  1
  Mg  Mg6  1  0.84018144  0.67009122  0.75000000  1
  Bi  Bi7  1  0.16465752  0.33232826  0.25000000  1
