# generated using pymatgen
data_BaSrYCu3PbO7
_symmetry_space_group_name_H-M   'P 1'
_cell_length_a   3.84960300
_cell_length_b   3.86558859
_cell_length_c   14.34743081
_cell_angle_alpha   81.63533101
_cell_angle_beta   82.29014964
_cell_angle_gamma   90.00000000
_symmetry_Int_Tables_number   1
_chemical_formula_structural   BaSrYCu3PbO7
_chemical_formula_sum   'Ba1 Sr1 Y1 Cu3 Pb1 O7'
_cell_volume   209.28165860
_cell_formula_units_Z   1
loop_
 _symmetry_equiv_pos_site_id
 _symmetry_equiv_pos_as_xyz
  1  'x, y, z'
loop_
 _atom_site_type_symbol
 _atom_site_label
 _atom_site_symmetry_multiplicity
 _atom_site_fract_x
 _atom_site_fract_y
 _atom_site_fract_z
 _atom_site_occupancy
  Ba  Ba0  1  0.68867858  0.69866741  0.62264285  1
  Sr  Sr1  1  0.43144992  0.43419815  0.13710016  1
  Y  Y2  1  0.55724480  0.55630275  0.88551039  1
  Cu  Cu3  1  0.99730901  0.99585572  0.00538199  1
  Cu  Cu4  1  0.84963093  0.88382506  0.30073813  1
  Cu  Cu5  1  0.11535116  0.11717798  0.76929767  1
  Pb  Pb6  1  0.28735780  0.28986588  0.42528440  1
  O  O7  1  0.20861328  0.22514395  0.58277344  1
  O  O8  1  0.91344379  0.89091249  0.17311243  1
  O  O9  1  0.50452077  0.00202190  0.99095846  1
  O  O10  1  0.00429476  0.50311007  0.99141048  1
  O  O11  1  0.10803549  0.60912597  0.78392902  1
  O  O12  1  0.60785450  0.10936498  0.78429099  1
  O  O13  1  0.78421521  0.88542769  0.43156959  1
