# generated using pymatgen
data_BaLaInO4
_symmetry_space_group_name_H-M   'P 1'
_cell_length_a   5.99125306
_cell_length_b   5.91932743
_cell_length_c   13.42382704
_cell_angle_alpha   90.00000000
_cell_angle_beta   90.00000000
_cell_angle_gamma   90.00000000
_symmetry_Int_Tables_number   1
_chemical_formula_structural   BaLaInO4
_chemical_formula_sum   'Ba4 La4 In4 O16'
_cell_volume   476.06513359
_cell_formula_units_Z   4
loop_
 _symmetry_equiv_pos_site_id
 _symmetry_equiv_pos_as_xyz
  1  'x, y, z'
loop_
 _atom_site_type_symbol
 _atom_site_label
 _atom_site_symmetry_multiplicity
 _atom_site_fract_x
 _atom_site_fract_y
 _atom_site_fract_z
 _atom_site_occupancy
  Ba  Ba0  1  0.48338593  0.99821645  0.35424739  1
  Ba  Ba1  1  0.01661407  0.49821645  0.64575261  1
  Ba  Ba2  1  0.48338593  0.49821645  0.14575261  1
  Ba  Ba3  1  0.01661407  0.99821645  0.85424739  1
  La  La4  1  0.55083432  0.47698045  0.85312690  1
  La  La5  1  0.94916568  0.97698045  0.14687310  1
  La  La6  1  0.55083432  0.97698045  0.64687310  1
  La  La7  1  0.94916568  0.47698045  0.35312690  1
  In  In8  1  0.49471765  0.99547340  0.00092228  1
  In  In9  1  0.49471765  0.49547340  0.49907772  1
  In  In10  1  0.00528235  0.49547340  0.99907772  1
  In  In11  1  0.00528235  0.99547340  0.50092228  1
  O  O12  1  0.55662482  0.97439513  0.16440063  1
  O  O13  1  0.49502890  0.57739212  0.67787644  1
  O  O14  1  0.94337518  0.47439513  0.83559937  1
  O  O15  1  0.00497110  0.07739212  0.32212356  1
  O  O16  1  0.49502890  0.07739212  0.82212356  1
  O  O17  1  0.55662482  0.47439513  0.33559937  1
  O  O18  1  0.00497110  0.57739212  0.17787644  1
  O  O19  1  0.94337518  0.97439513  0.66440063  1
  O  O20  1  0.70518443  0.78868307  0.49675708  1
  O  O21  1  0.30952411  0.68885938  0.96899313  1
  O  O22  1  0.79481557  0.28868307  0.50324292  1
  O  O23  1  0.19047589  0.18885938  0.03100687  1
  O  O24  1  0.30952411  0.18885938  0.53100687  1
  O  O25  1  0.70518443  0.28868307  0.00324292  1
  O  O26  1  0.19047589  0.68885938  0.46899313  1
  O  O27  1  0.79481557  0.78868307  0.99675708  1
