# generated using pymatgen
data_Be46Ir7
_symmetry_space_group_name_H-M   'P 1'
_cell_length_a   4.17685831
_cell_length_b   4.17683715
_cell_length_c   33.02418005
_cell_angle_alpha   90.00000000
_cell_angle_beta   90.00017215
_cell_angle_gamma   60.00016065
_symmetry_Int_Tables_number   1
_chemical_formula_structural   Be46Ir7
_chemical_formula_sum   'Be46 Ir7'
_cell_volume   498.95417875
_cell_formula_units_Z   1
loop_
 _symmetry_equiv_pos_site_id
 _symmetry_equiv_pos_as_xyz
  1  'x, y, z'
loop_
 _atom_site_type_symbol
 _atom_site_label
 _atom_site_symmetry_multiplicity
 _atom_site_fract_x
 _atom_site_fract_y
 _atom_site_fract_z
 _atom_site_occupancy
  Be  Be0  1  0.99999656  0.00000172  0.12504901  1
  Be  Be1  1  0.99999813  0.00000094  0.45832741  1
  Be  Be2  1  0.00000213  -0.00000106  0.79163628  1
  Be  Be3  1  0.99999589  0.00000206  0.20797976  1
  Be  Be4  1  0.99999686  0.00000157  0.54134746  1
  Be  Be5  1  0.99999801  0.00000100  0.87558838  1
  Be  Be6  1  0.33334111  0.33332944  0.11407606  1
  Be  Be7  1  0.33332464  0.33333768  0.44749370  1
  Be  Be8  1  0.33332385  0.33333807  0.78139291  1
  Be  Be9  1  0.33332316  0.33333842  0.21902544  1
  Be  Be10  1  0.33332442  0.33333779  0.55214384  1
  Be  Be11  1  0.33332584  0.33333708  0.88595545  1
  Be  Be12  1  0.66941376  0.16529312  0.06111802  1
  Be  Be13  1  0.66763284  0.16618358  0.39388763  1
  Be  Be14  1  0.67248842  0.16375579  0.72971124  1
  Be  Be15  1  0.16525293  0.16529207  0.06111952  1
  Be  Be16  1  0.16617102  0.16618424  0.39388711  1
  Be  Be17  1  0.16373911  0.16375430  0.72971150  1
  Be  Be18  1  0.16525293  0.66945500  0.06111952  1
  Be  Be19  1  0.16617102  0.66764475  0.39388711  1
  Be  Be20  1  0.16373911  0.67250659  0.72971150  1
  Be  Be21  1  0.66780187  0.16609906  0.27277391  1
  Be  Be22  1  0.67200742  0.16399629  0.60372115  1
  Be  Be23  1  0.66959316  0.16520342  0.93895807  1
  Be  Be24  1  0.16609132  0.16609952  0.27277466  1
  Be  Be25  1  0.16397178  0.16399408  0.60372016  1
  Be  Be26  1  0.16518869  0.16520217  0.93895509  1
  Be  Be27  1  0.16609132  0.66780916  0.27277466  1
  Be  Be28  1  0.16397178  0.67203414  0.60372016  1
  Be  Be29  1  0.16518869  0.66960914  0.93895509  1
  Be  Be30  1  0.66662520  0.66668740  0.03285482  1
  Be  Be31  1  0.66663397  0.66668301  0.36528140  1
  Be  Be32  1  0.66664434  0.66667783  0.69852892  1
  Be  Be33  1  0.66664758  0.66667621  0.30134333  1
  Be  Be34  1  0.66664762  0.66667619  0.63486808  1
  Be  Be35  1  0.66664457  0.66667772  0.96688127  1
  Be  Be36  1  0.99342372  0.50328814  0.16661182  1
  Be  Be37  1  0.99337122  0.50331439  0.49997606  1
  Be  Be38  1  0.99348074  0.50325963  0.83336347  1
  Be  Be39  1  0.50330582  0.50328485  0.16661217  1
  Be  Be40  1  0.50331534  0.50331493  0.49997622  1
  Be  Be41  1  0.50325711  0.50325991  0.83336368  1
  Be  Be42  1  0.50330582  0.99340933  0.16661217  1
  Be  Be43  1  0.50331534  0.99336972  0.49997622  1
  Be  Be44  1  0.50325711  0.99348298  0.83336368  1
  Be  Be45  1  0.33341114  0.33329443  0.33330367  1
  Ir  Ir46  1  0.66666885  0.66666557  0.10341080  1
  Ir  Ir47  1  0.66666720  0.66666640  0.43623957  1
  Ir  Ir48  1  0.66666337  0.66666831  0.77021593  1
  Ir  Ir49  1  0.66666784  0.66666608  0.23051536  1
  Ir  Ir50  1  0.66666381  0.66666810  0.56306802  1
  Ir  Ir51  1  0.66666911  0.66666545  0.89641311  1
  Ir  Ir52  1  0.99999542  0.00000229  0.66669837  1
