# generated using pymatgen
data_Ce5Ge2Pd
_symmetry_space_group_name_H-M   'P 1'
_cell_length_a   6.23000616
_cell_length_b   8.77191846
_cell_length_c   8.82134034
_cell_angle_alpha   59.89376140
_cell_angle_beta   90.00107381
_cell_angle_gamma   90.00511021
_symmetry_Int_Tables_number   1
_chemical_formula_structural   Ce5Ge2Pd
_chemical_formula_sum   'Ce10 Ge4 Pd2'
_cell_volume   417.04445170
_cell_formula_units_Z   2
loop_
 _symmetry_equiv_pos_site_id
 _symmetry_equiv_pos_as_xyz
  1  'x, y, z'
loop_
 _atom_site_type_symbol
 _atom_site_label
 _atom_site_symmetry_multiplicity
 _atom_site_fract_x
 _atom_site_fract_y
 _atom_site_fract_z
 _atom_site_occupancy
  Ce  Ce0  1  0.46840520  0.32857337  0.33459597  1
  Ce  Ce1  1  0.46921065  0.67130611  0.66300503  1
  Ce  Ce2  1  0.03188704  0.67145782  0.66301517  1
  Ce  Ce3  1  0.03120810  0.32859373  0.33463572  1
  Ce  Ce4  1  0.74995654  0.26677031  0.74053118  1
  Ce  Ce5  1  0.74992405  0.73302000  0.00748781  1
  Ce  Ce6  1  0.74995867  0.99995917  0.26248810  1
  Ce  Ce7  1  0.24994238  0.74263159  0.25334408  1
  Ce  Ce8  1  0.24994822  0.25748592  0.99609167  1
  Ce  Ce9  1  0.24991660  0.00003332  0.74560129  1
  Ge  Ge10  1  0.74984458  0.00008399  0.61818179  1
  Ge  Ge11  1  0.24995693  0.38745754  0.61202387  1
  Ge  Ge12  1  0.25001616  0.61258028  0.99969027  1
  Ge  Ge13  1  0.25007818  0.99991676  0.37837206  1
  Pd  Pd14  1  0.74988523  0.61385466  0.38854165  1
  Pd  Pd15  1  0.74986149  0.38627545  0.00239434  1
