# generated using pymatgen
data_BaSr2In2O6
_symmetry_space_group_name_H-M   'P 1'
_cell_length_a   4.19125728
_cell_length_b   4.19125728
_cell_length_c   10.91872618
_cell_angle_alpha   78.93457195
_cell_angle_beta   78.93457195
_cell_angle_gamma   90.00000000
_symmetry_Int_Tables_number   1
_chemical_formula_structural   BaSr2In2O6
_chemical_formula_sum   'Ba1 Sr2 In2 O6'
_cell_volume   184.60459903
_cell_formula_units_Z   1
loop_
 _symmetry_equiv_pos_site_id
 _symmetry_equiv_pos_as_xyz
  1  'x, y, z'
loop_
 _atom_site_type_symbol
 _atom_site_label
 _atom_site_symmetry_multiplicity
 _atom_site_fract_x
 _atom_site_fract_y
 _atom_site_fract_z
 _atom_site_occupancy
  Ba  Ba0  1  0.68277587  0.68277587  0.63444827  1
  Sr  Sr1  1  0.49913389  0.49913389  0.00173222  1
  Sr  Sr2  1  0.31808223  0.31808223  0.36383553  1
  In  In3  1  0.09887256  0.09887256  0.80225489  1
  In  In4  1  0.90192162  0.90192162  0.19615676  1
  O  O5  1  0.57732643  0.07732643  0.84534714  1
  O  O6  1  0.07732643  0.57732643  0.84534714  1
  O  O7  1  0.42068593  0.92068593  0.15862814  1
  O  O8  1  0.92068593  0.42068593  0.15862814  1
  O  O9  1  0.20064214  0.20064214  0.59871572  1
  O  O10  1  0.80254698  0.80254698  0.39490605  1
