# generated using pymatgen
data_Eu2Mn5Al12
_symmetry_space_group_name_H-M   'P 1'
_cell_length_a   9.07667306
_cell_length_b   9.07119568
_cell_length_c   10.24707312
_cell_angle_alpha   63.77190729
_cell_angle_beta   63.73308941
_cell_angle_gamma   59.45942298
_symmetry_Int_Tables_number   1
_chemical_formula_structural   Eu2Mn5Al12
_chemical_formula_sum   'Eu4 Mn10 Al24'
_cell_volume   625.36058044
_cell_formula_units_Z   2
loop_
 _symmetry_equiv_pos_site_id
 _symmetry_equiv_pos_as_xyz
  1  'x, y, z'
loop_
 _atom_site_type_symbol
 _atom_site_label
 _atom_site_symmetry_multiplicity
 _atom_site_fract_x
 _atom_site_fract_y
 _atom_site_fract_z
 _atom_site_occupancy
  Eu  Eu0  1  0.82710657  0.82689821  0.51743552  1
  Eu  Eu1  1  0.32642645  0.32628496  0.02278120  1
  Eu  Eu2  1  0.17306501  0.17295758  0.48813762  1
  Eu  Eu3  1  0.67202631  0.67209224  0.98048354  1
  Mn  Mn4  1  0.25243266  0.25203688  0.75163495  1
  Mn  Mn5  1  0.24427333  0.75508882  0.75156339  1
  Mn  Mn6  1  0.75475575  0.24540412  0.75146528  1
  Mn  Mn7  1  0.74832663  0.25652316  0.24773695  1
  Mn  Mn8  1  0.25627661  0.74843237  0.24762222  1
  Mn  Mn9  1  0.74405483  0.74439304  0.24875099  1
  Mn  Mn10  1  0.92885199  0.92856936  0.73542734  1
  Mn  Mn11  1  0.42996952  0.42992042  0.23396237  1
  Mn  Mn12  1  0.43062467  0.90914309  0.23409236  1
  Mn  Mn13  1  0.90908784  0.43047569  0.23417728  1
  Al  Al14  1  0.49526160  0.79567130  0.49301132  1
  Al  Al15  1  0.81050455  0.19495765  0.49871865  1
  Al  Al16  1  0.21283693  0.50145156  0.49260181  1
  Al  Al17  1  0.99461605  0.70010776  0.00142569  1
  Al  Al18  1  0.69664374  0.29896457  0.00534004  1
  Al  Al19  1  0.30234642  0.99936598  0.00404131  1
  Al  Al20  1  0.50154719  0.21245086  0.49273982  1
  Al  Al21  1  0.19498671  0.81049435  0.49851745  1
  Al  Al22  1  0.79548752  0.49520456  0.49301681  1
  Al  Al23  1  0.99942053  0.30220565  0.00384226  1
  Al  Al24  1  0.29855096  0.69699008  0.00561761  1
  Al  Al25  1  0.70059373  0.99483456  0.00123400  1
  Al  Al26  1  0.07459409  0.57816408  0.27101534  1
  Al  Al27  1  0.57809291  0.07462397  0.27110015  1
  Al  Al28  1  0.07985571  0.07930127  0.26655445  1
  Al  Al29  1  0.56741214  0.56688141  0.77079313  1
  Al  Al30  1  0.57971055  0.08558818  0.76751498  1
  Al  Al31  1  0.08543650  0.57915521  0.76779644  1
  Al  Al32  1  0.93592160  0.40476521  0.72513164  1
  Al  Al33  1  0.40480173  0.93628211  0.72499717  1
  Al  Al34  1  0.55690549  0.55661474  0.32732676  1
  Al  Al35  1  0.04789039  0.04776719  0.84399247  1
  Al  Al36  1  0.44519809  0.44550144  0.66336702  1
  Al  Al37  1  0.94410672  0.94443637  0.16503267  1
