# generated using pymatgen
data_Ca(InS2)2
_symmetry_space_group_name_H-M   'P 1'
_cell_length_a   7.89061840
_cell_length_b   7.82440019
_cell_length_c   8.01865793
_cell_angle_alpha   90.00000000
_cell_angle_beta   59.46175402
_cell_angle_gamma   119.72278033
_symmetry_Int_Tables_number   1
_chemical_formula_structural   Ca(InS2)2
_chemical_formula_sum   'Ca2 In4 S8'
_cell_volume   348.66171258
_cell_formula_units_Z   2
loop_
 _symmetry_equiv_pos_site_id
 _symmetry_equiv_pos_as_xyz
  1  'x, y, z'
loop_
 _atom_site_type_symbol
 _atom_site_label
 _atom_site_symmetry_multiplicity
 _atom_site_fract_x
 _atom_site_fract_y
 _atom_site_fract_z
 _atom_site_occupancy
  Ca  Ca0  1  0.50000000  0.50000000  -0.00000000  1
  Ca  Ca1  1  0.50000000  0.00000000  -0.00000000  1
  In  In2  1  0.72804516  0.36402258  0.38597742  1
  In  In3  1  0.27195484  0.63597742  0.61402258  1
  In  In4  1  0.00000000  0.00000000  0.50000000  1
  In  In5  1  0.00000000  0.00000000  -0.00000000  1
  S  S6  1  0.99798361  0.76580765  0.25100819  1
  S  S7  1  0.99798361  0.23217596  0.25100819  1
  S  S8  1  0.47605797  0.23802899  0.76845408  1
  S  S9  1  0.47605797  0.23802899  0.25548795  1
  S  S10  1  0.00201639  0.23419235  0.74899181  1
  S  S11  1  0.00201639  0.76782404  0.74899181  1
  S  S12  1  0.52394203  0.76197101  0.23154592  1
  S  S13  1  0.52394203  0.76197101  0.74451205  1
