# generated using pymatgen
data_Ba2YCu3PbO7
_symmetry_space_group_name_H-M   'P 1'
_cell_length_a   3.88392801
_cell_length_b   3.90516755
_cell_length_c   14.53514625
_cell_angle_alpha   83.01268952
_cell_angle_beta   82.30315144
_cell_angle_gamma   89.99016427
_symmetry_Int_Tables_number   1
_chemical_formula_structural   Ba2YCu3PbO7
_chemical_formula_sum   'Ba2 Y1 Cu3 Pb1 O7'
_cell_volume   216.82229816
_cell_formula_units_Z   1
loop_
 _symmetry_equiv_pos_site_id
 _symmetry_equiv_pos_as_xyz
  1  'x, y, z'
loop_
 _atom_site_type_symbol
 _atom_site_label
 _atom_site_symmetry_multiplicity
 _atom_site_fract_x
 _atom_site_fract_y
 _atom_site_fract_z
 _atom_site_occupancy
  Ba  Ba0  1  0.42965083  0.43011919  0.14056750  1
  Ba  Ba1  1  0.68948602  0.68118225  0.62136179  1
  Y  Y2  1  0.55888258  0.55923513  0.88195207  1
  Cu  Cu3  1  0.84826357  0.81823840  0.30465949  1
  Cu  Cu4  1  0.00139312  0.00198578  0.99728813  1
  Cu  Cu5  1  0.11667493  0.11549085  0.76686754  1
  Pb  Pb6  1  0.28704846  0.28487034  0.42666292  1
  O  O7  1  0.00792743  0.50797489  0.98409339  1
  O  O8  1  0.50817464  0.00944561  0.98377244  1
  O  O9  1  0.10976534  0.60949499  0.78074322  1
  O  O10  1  0.60955668  0.10850744  0.78118663  1
  O  O11  1  0.20999518  0.19662159  0.58086439  1
  O  O12  1  0.91124108  0.92658245  0.17856658  1
  O  O13  1  0.78565013  0.66796109  0.43199390  1
