# generated using pymatgen
data_Ba2Y2Co4O9
_symmetry_space_group_name_H-M   'P 1'
_cell_length_a   3.74225255
_cell_length_b   8.30236702
_cell_length_c   8.79456157
_cell_angle_alpha   118.48310971
_cell_angle_beta   90.04533624
_cell_angle_gamma   90.00509043
_symmetry_Int_Tables_number   1
_chemical_formula_structural   Ba2Y2Co4O9
_chemical_formula_sum   'Ba2 Y2 Co4 O9'
_cell_volume   240.16903373
_cell_formula_units_Z   1
loop_
 _symmetry_equiv_pos_site_id
 _symmetry_equiv_pos_as_xyz
  1  'x, y, z'
loop_
 _atom_site_type_symbol
 _atom_site_label
 _atom_site_symmetry_multiplicity
 _atom_site_fract_x
 _atom_site_fract_y
 _atom_site_fract_z
 _atom_site_occupancy
  Ba  Ba0  1  0.99919657  0.98864045  0.49430978  1
  Ba  Ba1  1  0.00009847  0.48927971  0.48160414  1
  Y  Y2  1  0.00069571  0.23587636  0.00754078  1
  Y  Y3  1  0.99953146  0.77323246  0.01044531  1
  Co  Co4  1  0.49993330  0.12180122  0.25265089  1
  Co  Co5  1  0.49997535  0.85769123  0.74147960  1
  Co  Co6  1  0.50017718  0.60266512  0.21082703  1
  Co  Co7  1  0.50022139  0.38153602  0.75925219  1
  O  O8  1  0.49951437  0.25957702  0.51208606  1
  O  O9  1  0.49971686  0.74543265  0.48671481  1
  O  O10  1  0.50031646  0.35245961  0.19769488  1
  O  O11  1  0.49961540  0.63182153  0.81334719  1
  O  O12  1  0.49982651  0.85187987  0.19704488  1
  O  O13  1  0.50075363  0.19415509  0.81720765  1
  O  O14  1  0.00029933  0.54800157  0.09032452  1
  O  O15  1  -0.00006294  0.08951950  0.17335689  1
  O  O16  1  0.00019094  0.91143061  0.81861339  1
