# generated using pymatgen
data_BaNb6Bi6Pb2O27
_symmetry_space_group_name_H-M   'P 1'
_cell_length_a   3.95970478
_cell_length_b   3.95970478
_cell_length_c   38.32290971
_cell_angle_alpha   92.96135414
_cell_angle_beta   92.96135414
_cell_angle_gamma   90.00000000
_symmetry_Int_Tables_number   1
_chemical_formula_structural   BaNb6Bi6Pb2O27
_chemical_formula_sum   'Ba1 Nb6 Bi6 Pb2 O27'
_cell_volume   599.26905837
_cell_formula_units_Z   1
loop_
 _symmetry_equiv_pos_site_id
 _symmetry_equiv_pos_as_xyz
  1  'x, y, z'
loop_
 _atom_site_type_symbol
 _atom_site_label
 _atom_site_symmetry_multiplicity
 _atom_site_fract_x
 _atom_site_fract_y
 _atom_site_fract_z
 _atom_site_occupancy
  Ba  Ba0  1  0.16666700  0.16666700  0.33333300  1
  Nb  Nb1  1  0.63708722  0.63708722  0.27417344  1
  Nb  Nb2  1  0.30415289  0.30415289  0.60830678  1
  Nb  Nb3  1  0.97082269  0.97082269  0.94164537  1
  Nb  Nb4  1  0.02918011  0.02918011  0.05836022  1
  Nb  Nb5  1  0.69624678  0.69624678  0.39249256  1
  Nb  Nb6  1  0.36251031  0.36251031  0.72502163  1
  Bi  Bi7  1  0.09948194  0.09948194  0.19896288  1
  Bi  Bi8  1  0.76625209  0.76625209  0.53250518  1
  Bi  Bi9  1  0.43289577  0.43289577  0.86579154  1
  Bi  Bi10  1  0.56708091  0.56708091  0.13416182  1
  Bi  Bi11  1  0.23385206  0.23385206  0.46770312  1
  Bi  Bi12  1  0.90043723  0.90043723  0.80087546  1
  Pb  Pb13  1  0.83332403  0.83332403  0.66664906  1
  Pb  Pb14  1  0.50000897  0.50000897  0.00001794  1
  O  O15  1  0.61221598  0.61221598  0.22443196  1
  O  O16  1  0.27919339  0.27919339  0.55838578  1
  O  O17  1  0.94586739  0.94586739  0.89173579  1
  O  O18  1  0.05414061  0.05414061  0.10828022  1
  O  O19  1  0.72111702  0.72111702  0.44223504  1
  O  O20  1  0.38746561  0.38746561  0.77493121  1
  O  O21  1  0.08329429  0.58329429  0.16658958  1
  O  O22  1  0.75003871  0.25003871  0.50007742  1
  O  O23  1  0.41666700  0.91666700  0.83333300  1
  O  O24  1  0.58329429  0.08329429  0.16658958  1
  O  O25  1  0.25003871  0.75003871  0.50007742  1
  O  O26  1  0.91666700  0.41666700  0.83333300  1
  O  O27  1  0.14006798  0.64006798  0.28013597  1
  O  O28  1  0.80715272  0.30715272  0.61430444  1
  O  O29  1  0.47383345  0.97383345  0.94766790  1
  O  O30  1  0.64006798  0.14006798  0.28013597  1
  O  O31  1  0.30715272  0.80715272  0.61430444  1
  O  O32  1  0.97383345  0.47383345  0.94766790  1
  O  O33  1  0.52618128  0.02618128  0.05236156  1
  O  O34  1  0.19326502  0.69326502  0.38653103  1
  O  O35  1  0.85949955  0.35949955  0.71899910  1
  O  O36  1  0.02618128  0.52618128  0.05236156  1
  O  O37  1  0.69326502  0.19326502  0.38653103  1
  O  O38  1  0.35949955  0.85949955  0.71899910  1
  O  O39  1  0.00003083  0.00003083  0.00006166  1
  O  O40  1  0.66666700  0.66666700  0.33333300  1
  O  O41  1  0.33330217  0.33330217  0.66660534  1
