# generated using pymatgen
data_BaCa2Y6O12
_symmetry_space_group_name_H-M   'P 1'
_cell_length_a   3.40999665
_cell_length_b   10.32268824
_cell_length_c   10.32267523
_cell_angle_alpha   120.00007337
_cell_angle_beta   90.00000000
_cell_angle_gamma   90.00000000
_symmetry_Int_Tables_number   1
_chemical_formula_structural   BaCa2Y6O12
_chemical_formula_sum   'Ba1 Ca2 Y6 O12'
_cell_volume   314.68014259
_cell_formula_units_Z   1
loop_
 _symmetry_equiv_pos_site_id
 _symmetry_equiv_pos_as_xyz
  1  'x, y, z'
loop_
 _atom_site_type_symbol
 _atom_site_label
 _atom_site_symmetry_multiplicity
 _atom_site_fract_x
 _atom_site_fract_y
 _atom_site_fract_z
 _atom_site_occupancy
  Ba  Ba0  1  0.75000000  0.00000611  0.00000316  1
  Ca  Ca1  1  0.75000000  0.66667200  0.33333562  1
  Ca  Ca2  1  0.25000000  0.33333087  0.66666496  1
  Y  Y3  1  0.75000000  0.34953054  0.00123272  1
  Y  Y4  1  0.75000000  0.99877103  0.34829713  1
  Y  Y5  1  0.75000000  0.65169959  0.65047116  1
  Y  Y6  1  0.25000000  0.65317180  0.99898270  1
  Y  Y7  1  0.25000000  0.00101493  0.65418948  1
  Y  Y8  1  0.25000000  0.34581436  0.34682804  1
  O  O9  1  0.75000000  0.88950463  0.69637059  1
  O  O10  1  0.75000000  0.30363495  0.19313788  1
  O  O11  1  0.75000000  0.80686794  0.11049553  1
  O  O12  1  0.25000000  0.09912790  0.28118799  1
  O  O13  1  0.25000000  0.71879725  0.81793050  1
  O  O14  1  0.25000000  0.18205968  0.90087276  1
  O  O15  1  0.75000000  0.13627972  0.60777576  1
  O  O16  1  0.75000000  0.39222062  0.52850407  1
  O  O17  1  0.75000000  0.47149516  0.86372252  1
  O  O18  1  0.25000000  0.86746643  0.39510783  1
  O  O19  1  0.25000000  0.60489280  0.47235875  1
  O  O20  1  0.25000000  0.52764170  0.13253085  1
