# generated using pymatgen
data_Ba10Cu5Hg5O21
_symmetry_space_group_name_H-M   'P 1'
_cell_length_a   8.66748004
_cell_length_b   8.67736187
_cell_length_c   10.48068689
_cell_angle_alpha   99.50530626
_cell_angle_beta   109.29105586
_cell_angle_gamma   90.05707127
_symmetry_Int_Tables_number   1
_chemical_formula_structural   Ba10Cu5Hg5O21
_chemical_formula_sum   'Ba10 Cu5 Hg5 O21'
_cell_volume   732.47989322
_cell_formula_units_Z   1
loop_
 _symmetry_equiv_pos_site_id
 _symmetry_equiv_pos_as_xyz
  1  'x, y, z'
loop_
 _atom_site_type_symbol
 _atom_site_label
 _atom_site_symmetry_multiplicity
 _atom_site_fract_x
 _atom_site_fract_y
 _atom_site_fract_z
 _atom_site_occupancy
  Ba  Ba0  1  0.78826459  0.64467118  0.72197267  1
  Ba  Ba1  1  0.98060761  0.24119424  0.70428922  1
  Ba  Ba2  1  0.38098312  0.44140407  0.70443568  1
  Ba  Ba3  1  0.58391953  0.04112576  0.70433685  1
  Ba  Ba4  1  0.18163164  0.83917081  0.70312306  1
  Ba  Ba5  1  0.61836836  0.56082919  0.29687694  1
  Ba  Ba6  1  0.81939239  0.15880576  0.29571078  1
  Ba  Ba7  1  0.21608047  0.35887424  0.29566315  1
  Ba  Ba8  1  0.41901688  0.95859593  0.29556432  1
  Ba  Ba9  1  0.01173541  0.75532882  0.27802733  1
  Cu  Cu10  1  0.80206771  0.89553846  0.50023049  1
  Cu  Cu11  1  0.99793229  0.50446154  0.49976951  1
  Cu  Cu12  1  0.40000000  0.70000000  0.50000000  1
  Cu  Cu13  1  0.60160395  0.30334845  0.50170946  1
  Cu  Cu14  1  0.19839605  0.09665155  0.49829054  1
  Hg  Hg15  1  0.61081987  0.79648826  0.99996553  1
  Hg  Hg16  1  0.80322183  0.41107705  0.00000702  1
  Hg  Hg17  1  0.18918013  0.60351174  0.00003447  1
  Hg  Hg18  1  0.40000000  0.20000000  0.00000000  1
  Hg  Hg19  1  0.99677817  0.98892295  -0.00000702  1
  O  O20  1  0.91869002  0.96255747  0.79045007  1
  O  O21  1  0.12096439  0.55636750  0.79054900  1
  O  O22  1  0.51118399  0.76040645  0.79053255  1
  O  O23  1  0.71394724  0.35352274  0.79053351  1
  O  O24  1  0.31760748  0.15837945  0.79396914  1
  O  O25  1  0.67903561  0.84363250  0.20945100  1
  O  O26  1  0.88130998  0.43744253  0.20954993  1
  O  O27  1  0.28881601  0.63959355  0.20946745  1
  O  O28  1  0.48239252  0.24162055  0.20603086  1
  O  O29  1  0.08605276  0.04647726  0.20946649  1
  O  O30  1  0.59548653  0.80338664  0.49923956  1
  O  O31  1  0.80267646  0.39613327  0.49906585  1
  O  O32  1  0.20451347  0.59661336  0.50076044  1
  O  O33  1  0.40000000  0.20000000  0.50000000  1
  O  O34  1  0.99732354  0.00386673  0.50093415  1
  O  O35  1  0.90000000  0.70000000  0.50000000  1
  O  O36  1  0.10094409  0.29897621  0.50042633  1
  O  O37  1  0.49773192  0.49778584  0.49921209  1
  O  O38  1  0.69905591  0.10102379  0.49957367  1
  O  O39  1  0.30226808  0.90221416  0.50078791  1
  O  O40  1  0.90000000  0.70000000  0.00000000  1
