# generated using pymatgen
data_AlB2Pb6(OF)7
_symmetry_space_group_name_H-M   'P 1'
_cell_length_a   6.37499588
_cell_length_b   11.06595475
_cell_length_c   11.06595475
_cell_angle_alpha   114.92163554
_cell_angle_beta   90.00000000
_cell_angle_gamma   90.00000000
_symmetry_Int_Tables_number   1
_chemical_formula_structural   AlB2Pb6(OF)7
_chemical_formula_sum   'Al2 B4 Pb12 O14 F14'
_cell_volume   707.96190409
_cell_formula_units_Z   2
loop_
 _symmetry_equiv_pos_site_id
 _symmetry_equiv_pos_as_xyz
  1  'x, y, z'
loop_
 _atom_site_type_symbol
 _atom_site_label
 _atom_site_symmetry_multiplicity
 _atom_site_fract_x
 _atom_site_fract_y
 _atom_site_fract_z
 _atom_site_occupancy
  Al  Al0  1  0.97904137  0.00456221  0.99543779  1
  Al  Al1  1  0.47904137  0.49543779  0.50456221  1
  B  B2  1  0.25499939  0.99894928  0.49337745  1
  B  B3  1  0.75499939  0.50105072  0.00662255  1
  B  B4  1  0.75499939  0.99337745  0.49894928  1
  B  B5  1  0.25499939  0.50662255  0.00105072  1
  Pb  Pb6  1  0.50496294  0.69710891  0.30289109  1
  Pb  Pb7  1  0.47971076  0.31456329  0.68543671  1
  Pb  Pb8  1  0.00496294  0.80289109  0.19710891  1
  Pb  Pb9  1  0.97971076  0.18543671  0.81456329  1
  Pb  Pb10  1  0.50639643  0.06533099  0.27864410  1
  Pb  Pb11  1  0.53127103  0.25430169  0.05456067  1
  Pb  Pb12  1  0.00639643  0.77864410  0.56533099  1
  Pb  Pb13  1  0.03127103  0.55456067  0.75430169  1
  Pb  Pb14  1  0.53127103  0.94543933  0.74569831  1
  Pb  Pb15  1  0.50639643  0.72135590  0.93466901  1
  Pb  Pb16  1  0.03127103  0.24569831  0.44543933  1
  Pb  Pb17  1  0.00639643  0.43466901  0.22135590  1
  O  O18  1  0.74876961  0.07482478  0.43226317  1
  O  O19  1  0.24876961  0.42517522  0.06773683  1
  O  O20  1  0.24876961  0.93226317  0.57482478  1
  O  O21  1  0.74876961  0.56773683  0.92517522  1
  O  O22  1  0.29085940  0.92899020  0.35684019  1
  O  O23  1  0.73151777  0.36339269  0.95272406  1
  O  O24  1  0.79085940  0.85684019  0.42899020  1
  O  O25  1  0.23151777  0.45272406  0.86339269  1
  O  O26  1  0.73151777  0.04727594  0.63660731  1
  O  O27  1  0.29085940  0.64315981  0.07100980  1
  O  O28  1  0.23151777  0.13660731  0.54727594  1
  O  O29  1  0.79085940  0.57100980  0.14315981  1
  O  O30  1  0.77342877  0.07865783  0.92134217  1
  O  O31  1  0.27342877  0.42134217  0.57865783  1
  F  F32  1  0.84250450  0.06287543  0.15846497  1
  F  F33  1  0.13018117  0.16280328  0.05917294  1
  F  F34  1  0.34250450  0.65846497  0.56287543  1
  F  F35  1  0.63018117  0.55917294  0.66280328  1
  F  F36  1  0.13018117  0.94082706  0.83719672  1
  F  F37  1  0.84250450  0.84153503  0.93712457  1
  F  F38  1  0.63018117  0.33719672  0.44082706  1
  F  F39  1  0.34250450  0.43712457  0.34153503  1
  F  F40  1  0.60261256  0.83899398  0.16100602  1
  F  F41  1  0.39791667  0.16035799  0.83964201  1
  F  F42  1  0.10261256  0.66100602  0.33899398  1
  F  F43  1  0.89791667  0.33964201  0.66035799  1
  F  F44  1  0.18932835  0.93233472  0.06766528  1
  F  F45  1  0.68932835  0.56766528  0.43233472  1
