# generated using pymatgen
data_Ba10Ge7O3
_symmetry_space_group_name_H-M   'P 1'
_cell_length_a   5.04065537
_cell_length_b   12.08073723
_cell_length_c   12.08006863
_cell_angle_alpha   120.00183058
_cell_angle_beta   90.00000000
_cell_angle_gamma   90.00000000
_symmetry_Int_Tables_number   1
_chemical_formula_structural   Ba10Ge7O3
_chemical_formula_sum   'Ba10 Ge7 O3'
_cell_volume   637.04845331
_cell_formula_units_Z   1
loop_
 _symmetry_equiv_pos_site_id
 _symmetry_equiv_pos_as_xyz
  1  'x, y, z'
loop_
 _atom_site_type_symbol
 _atom_site_label
 _atom_site_symmetry_multiplicity
 _atom_site_fract_x
 _atom_site_fract_y
 _atom_site_fract_z
 _atom_site_occupancy
  Ba  Ba0  1  0.00000000  0.20727100  0.41454200  1
  Ba  Ba1  1  0.00000000  0.20727464  0.79263677  1
  Ba  Ba2  1  -0.00000000  0.58536213  0.79263677  1
  Ba  Ba3  1  0.00000000  0.79152864  0.58305728  1
  Ba  Ba4  1  0.00000000  0.41703711  0.20852092  1
  Ba  Ba5  1  -0.00000000  0.79148381  0.20852092  1
  Ba  Ba6  1  0.50000000  0.49701273  0.99402546  1
  Ba  Ba7  1  0.50000000  0.49701995  0.50295800  1
  Ba  Ba8  1  0.50000000  0.00593806  0.50295800  1
  Ba  Ba9  1  0.00000000  0.00000260  0.00000521  1
  Ge  Ge10  1  0.50000000  0.21088426  0.00074578  1
  Ge  Ge11  1  0.50000000  0.78982809  0.78909315  1
  Ge  Ge12  1  0.50000000  0.99923085  0.21016270  1
  Ge  Ge13  1  0.50000000  0.78986152  0.00074578  1
  Ge  Ge14  1  0.50000000  0.21093185  0.21016270  1
  Ge  Ge15  1  0.50000000  0.99926506  0.78909315  1
  Ge  Ge16  1  0.50000000  0.33334746  0.66669492  1
  O  O17  1  -0.00000000  0.53734513  0.07469026  1
  O  O18  1  0.00000000  0.92529387  0.46267510  1
  O  O19  1  0.00000000  0.53738124  0.46267510  1
