# generated using pymatgen
data_Ba2Pr2Co4O11
_symmetry_space_group_name_H-M   'P 1'
_cell_length_a   3.97891591
_cell_length_b   7.75471489
_cell_length_c   7.95983567
_cell_angle_alpha   90.00000000
_cell_angle_beta   90.00000000
_cell_angle_gamma   90.00000000
_symmetry_Int_Tables_number   1
_chemical_formula_structural   Ba2Pr2Co4O11
_chemical_formula_sum   'Ba2 Pr2 Co4 O11'
_cell_volume   245.60358283
_cell_formula_units_Z   1
loop_
 _symmetry_equiv_pos_site_id
 _symmetry_equiv_pos_as_xyz
  1  'x, y, z'
loop_
 _atom_site_type_symbol
 _atom_site_label
 _atom_site_symmetry_multiplicity
 _atom_site_fract_x
 _atom_site_fract_y
 _atom_site_fract_z
 _atom_site_occupancy
  Ba  Ba0  1  0.50000000  0.00000000  0.24926217  1
  Ba  Ba1  1  0.50000000  0.00000000  0.75073783  1
  Pr  Pr2  1  0.50000000  0.50000000  0.26878473  1
  Pr  Pr3  1  0.50000000  0.50000000  0.73121527  1
  Co  Co4  1  0.00000000  0.74654874  0.00000000  1
  Co  Co5  1  -0.00000000  0.25345126  0.00000000  1
  Co  Co6  1  -0.00000000  0.74885857  0.50000000  1
  Co  Co7  1  0.00000000  0.25114143  0.50000000  1
  O  O8  1  0.50000000  0.69432797  0.00000000  1
  O  O9  1  0.50000000  0.30567203  0.00000000  1
  O  O10  1  -0.00000000  0.70842310  0.22789962  1
  O  O11  1  -0.00000000  0.70842310  0.77210038  1
  O  O12  1  0.00000000  0.29157690  0.77210038  1
  O  O13  1  0.00000000  0.29157690  0.22789962  1
  O  O14  1  0.00000000  0.00000000  0.00000000  1
  O  O15  1  0.50000000  0.73059186  0.50000000  1
  O  O16  1  0.50000000  0.26940814  0.50000000  1
  O  O17  1  -0.00000000  -0.00000000  0.50000000  1
  O  O18  1  0.00000000  0.50000000  0.50000000  1
