# generated using pymatgen
data_La2CuSnO6
_symmetry_space_group_name_H-M   'P 1'
_cell_length_a   7.84485558
_cell_length_b   7.85643629
_cell_length_c   8.71626527
_cell_angle_alpha   91.90922469
_cell_angle_beta   90.00000000
_cell_angle_gamma   90.00000000
_symmetry_Int_Tables_number   1
_chemical_formula_structural   La2CuSnO6
_chemical_formula_sum   'La8 Cu4 Sn4 O24'
_cell_volume   536.90793894
_cell_formula_units_Z   4
loop_
 _symmetry_equiv_pos_site_id
 _symmetry_equiv_pos_as_xyz
  1  'x, y, z'
loop_
 _atom_site_type_symbol
 _atom_site_label
 _atom_site_symmetry_multiplicity
 _atom_site_fract_x
 _atom_site_fract_y
 _atom_site_fract_z
 _atom_site_occupancy
  O  O0  1  0.75000000  0.53032245  0.00696520  1
  O  O1  1  0.25000000  0.46967755  0.99303480  1
  O  O2  1  0.75000000  0.47754213  0.41136778  1
  O  O3  1  0.25000000  0.52245787  0.58863222  1
  O  O4  1  0.75000000  0.07976724  0.54554887  1
  O  O5  1  0.25000000  0.92023276  0.45445113  1
  O  O6  1  0.75000000  0.96449049  0.96975122  1
  O  O7  1  0.25000000  0.03550951  0.03024878  1
  O  O8  1  0.45835369  0.24770769  0.41822256  1
  O  O9  1  0.95835369  0.75229231  0.58177744  1
  O  O10  1  0.54164631  0.75229231  0.58177744  1
  O  O11  1  0.04164631  0.24770769  0.41822256  1
  O  O12  1  0.44583732  0.56190769  0.27660730  1
  O  O13  1  0.94583732  0.43809231  0.72339270  1
  O  O14  1  0.55416268  0.43809231  0.72339270  1
  O  O15  1  0.05416268  0.56190769  0.27660730  1
  O  O16  1  0.96440573  0.24874741  0.03970568  1
  O  O17  1  0.46440573  0.75125259  0.96029432  1
  O  O18  1  0.03559427  0.75125259  0.96029432  1
  O  O19  1  0.53559427  0.24874741  0.03970568  1
  O  O20  1  0.94264486  0.94388381  0.27307847  1
  O  O21  1  0.44264486  0.05611619  0.72692153  1
  O  O22  1  0.05735514  0.05611619  0.72692153  1
  O  O23  1  0.55735514  0.94388381  0.27307847  1
  Cu  Cu24  1  0.00000000  0.00000000  0.00000000  1
  Cu  Cu25  1  0.50000000  0.00000000  0.00000000  1
  Cu  Cu26  1  0.00000000  0.50000000  0.00000000  1
  Cu  Cu27  1  0.50000000  0.50000000  0.00000000  1
  Sn  Sn28  1  0.00000000  0.00000000  0.50000000  1
  Sn  Sn29  1  0.50000000  0.00000000  0.50000000  1
  Sn  Sn30  1  0.00000000  0.50000000  0.50000000  1
  Sn  Sn31  1  0.50000000  0.50000000  0.50000000  1
  La  La32  1  0.75000000  0.71534865  0.22674064  1
  La  La33  1  0.25000000  0.28465135  0.77325936  1
  La  La34  1  0.75000000  0.20304752  0.24554570  1
  La  La35  1  0.25000000  0.79695248  0.75445430  1
  La  La36  1  0.75000000  0.22926351  0.80621546  1
  La  La37  1  0.25000000  0.77073649  0.19378454  1
  La  La38  1  0.75000000  0.71447761  0.78950271  1
  La  La39  1  0.25000000  0.28552239  0.21049729  1
