# generated using pymatgen
data_Al4H50S7O52
_symmetry_space_group_name_H-M   'P 1'
_cell_length_a   7.45649747
_cell_length_b   12.55080476
_cell_length_c   12.85897292
_cell_angle_alpha   67.58562298
_cell_angle_beta   75.50022803
_cell_angle_gamma   74.74350675
_symmetry_Int_Tables_number   1
_chemical_formula_structural   Al4H50S7O52
_chemical_formula_sum   'Al4 H50 S7 O52'
_cell_volume   1057.98680481
_cell_formula_units_Z   1
loop_
 _symmetry_equiv_pos_site_id
 _symmetry_equiv_pos_as_xyz
  1  'x, y, z'
loop_
 _atom_site_type_symbol
 _atom_site_label
 _atom_site_symmetry_multiplicity
 _atom_site_fract_x
 _atom_site_fract_y
 _atom_site_fract_z
 _atom_site_occupancy
  Al  Al0  1  0.86030911  0.01056356  0.27226411  1
  Al  Al1  1  0.13969089  0.98943644  0.72773589  1
  Al  Al2  1  0.27675624  0.43230792  0.84987682  1
  Al  Al3  1  0.72324376  0.56769208  0.15012318  1
  H  H4  1  0.42700565  0.21850040  0.90739938  1
  H  H5  1  0.57299435  0.78149960  0.09260062  1
  H  H6  1  0.67968904  0.07954661  0.09326139  1
  H  H7  1  0.32031096  0.92045339  0.90673861  1
  H  H8  1  0.43574091  0.26107274  0.76632532  1
  H  H9  1  0.56425909  0.73892726  0.23367468  1
  H  H10  1  0.63534760  0.43883772  0.78583191  1
  H  H11  1  0.36465240  0.56116228  0.21416809  1
  H  H12  1  0.88435885  0.11498853  0.05921638  1
  H  H13  1  0.11564115  0.88501147  0.94078362  1
  H  H14  1  0.62165770  0.57534410  0.53358666  1
  H  H15  1  0.37834230  0.42465590  0.46641334  1
  H  H16  1  0.77846625  0.45082118  0.57722831  1
  H  H17  1  0.22153375  0.54917882  0.42277169  1
  H  H18  1  0.17796394  0.05456067  0.13515905  1
  H  H19  1  0.82203606  0.94543933  0.86484095  1
  H  H20  1  0.49329225  0.36525325  0.99830242  1
  H  H21  1  0.50670775  0.63474675  0.00169758  1
  H  H22  1  0.07071017  0.51435064  0.69646964  1
  H  H23  1  0.92928983  0.48564936  0.30353036  1
  H  H24  1  0.64149862  0.21060600  0.27478358  1
  H  H25  1  0.35850138  0.78939400  0.72521642  1
  H  H26  1  0.20313029  0.61025937  0.91601460  1
  H  H27  1  0.79686971  0.38974063  0.08398540  1
  H  H28  1  0.51582051  0.56866651  0.77135355  1
  H  H29  1  0.48417949  0.43133349  0.22864645  1
  H  H30  1  0.49824764  0.02422872  0.34539204  1
  H  H31  1  0.50175236  0.97577128  0.65460796  1
  H  H32  1  0.05189540  0.63309991  0.83323219  1
  H  H33  1  0.94810460  0.36690009  0.16676781  1
  H  H34  1  0.27930421  0.54073335  0.63839505  1
  H  H35  1  0.72069579  0.45926665  0.36160495  1
  H  H36  1  0.75494740  0.15955603  0.38059135  1
  H  H37  1  0.24505260  0.84044397  0.61940865  1
  H  H38  1  0.83064194  0.91235110  0.49317754  1
  H  H39  1  0.16935806  0.08764890  0.50682246  1
  H  H40  1  0.80160828  0.57921079  0.58780860  1
  H  H41  1  0.19839172  0.42078921  0.41219140  1
  H  H42  1  0.05042555  0.79926783  0.30649114  1
  H  H43  1  0.94957445  0.20073217  0.69350886  1
  H  H44  1  0.98510962  0.84280612  0.18361058  1
  H  H45  1  0.01489038  0.15719388  0.81638942  1
  H  H46  1  0.28721257  0.33745374  0.06887430  1
  H  H47  1  0.71278743  0.66254626  0.93112570  1
  H  H48  1  0.05032759  0.90560548  0.44076057  1
  H  H49  1  0.94967241  0.09439452  0.55923943  1
  H  H50  1  0.57900902  0.89186013  0.34189157  1
  H  H51  1  0.42099098  0.10813987  0.65810843  1
  H  H52  1  0.11690186  0.13341047  0.21760897  1
  H  H53  1  0.88309814  0.86658953  0.78239103  1
  S  S54  1  0.74003407  0.73289555  0.70352760  1
  S  S55  1  0.25996593  0.26710445  0.29647240  1
  S  S56  1  0.89912872  0.33025420  0.90643755  1
  S  S57  1  0.10087128  0.66974580  0.09356245  1
  S  S58  1  0.50000000  0.00000000  0.00000000  1
  S  S59  1  0.65590740  0.27075737  0.55990916  1
  S  S60  1  0.34409260  0.72924263  0.44009084  1
  O  O61  1  0.10009007  0.06003209  0.21239992  1
  O  O62  1  0.89990993  0.93996791  0.78760008  1
  O  O63  1  0.58026880  0.37739270  0.46606784  1
  O  O64  1  0.41973120  0.62260730  0.53393216  1
  O  O65  1  0.85474591  0.39199207  0.78973673  1
  O  O66  1  0.14525409  0.60800793  0.21026327  1
  O  O67  1  0.73382877  0.35028023  0.99436370  1
  O  O68  1  0.26617123  0.64971977  0.00563630  1
  O  O69  1  0.96362308  0.86003239  0.25666053  1
  O  O70  1  0.03637692  0.13996761  0.74333947  1
  O  O71  1  0.61394426  0.96615398  0.33542108  1
  O  O72  1  0.38605574  0.03384602  0.66457892  1
  O  O73  1  0.79854943  0.07383938  0.12731346  1
  O  O74  1  0.20145057  0.92616062  0.87268654  1
  O  O75  1  0.05009285  0.38057749  0.92189060  1
  O  O76  1  0.94990715  0.61942251  0.07810940  1
  O  O77  1  0.35645046  0.38118943  0.99396075  1
  O  O78  1  0.64354954  0.61881057  0.00603925  1
  O  O79  1  0.40252140  0.28448400  0.83637601  1
  O  O80  1  0.59747860  0.71551600  0.16362399  1
  O  O81  1  0.92083594  0.94646194  0.42309490  1
  O  O82  1  0.07916406  0.05353806  0.57690510  1
  O  O83  1  0.83793988  0.72516724  0.79641578  1
  O  O84  1  0.16206012  0.27483276  0.20358422  1
  O  O85  1  0.70674118  0.85638481  0.62536678  1
  O  O86  1  0.29325882  0.14361519  0.37463322  1
  O  O87  1  0.55372092  0.69573469  0.75814362  1
  O  O88  1  0.44627908  0.30426531  0.24185638  1
  O  O89  1  0.76355668  0.53924325  0.54182497  1
  O  O90  1  0.23644332  0.46075675  0.45817503  1
  O  O91  1  0.86078951  0.65276486  0.64181913  1
  O  O92  1  0.13921049  0.34723514  0.35818087  1
  O  O93  1  0.96603568  0.20330726  0.92613843  1
  O  O94  1  0.03396432  0.79669274  0.07386157  1
  O  O95  1  0.75839922  0.17692135  0.51136030  1
  O  O96  1  0.24160078  0.82307865  0.48863970  1
  O  O97  1  0.78437543  0.30570696  0.60816687  1
  O  O98  1  0.21562457  0.69429304  0.39183313  1
  O  O99  1  0.20517370  0.48491366  0.70229384  1
  O  O100  1  0.79482630  0.51508634  0.29770616  1
  O  O101  1  0.49395416  0.22912776  0.64913055  1
  O  O102  1  0.50604584  0.77087224  0.35086945  1
  O  O103  1  0.75401447  0.15373713  0.30576490  1
  O  O104  1  0.24598553  0.84626287  0.69423510  1
  O  O105  1  0.50538109  0.48811647  0.77762355  1
  O  O106  1  0.49461891  0.51188353  0.22237645  1
  O  O107  1  0.17352125  0.58547502  0.85723204  1
  O  O108  1  0.82647875  0.41452498  0.14276796  1
  O  O109  1  0.51325660  0.10297701  0.04161111  1
  O  O110  1  0.48674340  0.89702299  0.95838889  1
  O  O111  1  0.71945457  0.96675704  0.97721237  1
  O  O112  1  0.28054543  0.03324296  0.02278763  1
