# generated using pymatgen
data_Zn2SiO4
_symmetry_space_group_name_H-M   'P 1'
_cell_length_a   5.81779715
_cell_length_b   7.77725950
_cell_length_c   7.77725950
_cell_angle_alpha   66.43559337
_cell_angle_beta   68.03586306
_cell_angle_gamma   68.03586306
_symmetry_Int_Tables_number   1
_chemical_formula_structural   Zn2SiO4
_chemical_formula_sum   'Zn8 Si4 O16'
_cell_volume   288.51864750
_cell_formula_units_Z   4
loop_
 _symmetry_equiv_pos_site_id
 _symmetry_equiv_pos_as_xyz
  1  'x, y, z'
loop_
 _atom_site_type_symbol
 _atom_site_label
 _atom_site_symmetry_multiplicity
 _atom_site_fract_x
 _atom_site_fract_y
 _atom_site_fract_z
 _atom_site_occupancy
  Zn  Zn0  1  0.50000000  0.50000000  0.50000000  1
  Zn  Zn1  1  0.00000000  -0.00000000  -0.00000000  1
  Zn  Zn2  1  0.75000000  0.21827074  0.28172926  1
  Zn  Zn3  1  0.25000000  0.78172926  0.71827074  1
  Zn  Zn4  1  0.87547170  0.62452830  0.12452830  1
  Zn  Zn5  1  0.62452830  0.37547170  0.87547170  1
  Zn  Zn6  1  0.37547170  0.62452830  0.12452830  1
  Zn  Zn7  1  0.12452830  0.37547170  0.87547170  1
  Si  Si8  1  0.62074998  0.99627986  0.76222018  1
  Si  Si9  1  0.37925002  0.00372014  0.23777982  1
  Si  Si10  1  0.12074998  0.26222018  0.49627986  1
  Si  Si11  1  0.87925002  0.73777982  0.50372014  1
  O  O12  1  0.75000000  0.46238675  0.03761325  1
  O  O13  1  0.25000000  0.53761325  0.96238675  1
  O  O14  1  0.75000000  0.96376148  0.53623852  1
  O  O15  1  0.25000000  0.03623852  0.46376148  1
  O  O16  1  0.98733328  0.75579211  0.26954133  1
  O  O17  1  0.01266672  0.24420789  0.73045867  1
  O  O18  1  0.48733328  0.76954133  0.25579211  1
  O  O19  1  0.51266672  0.23045867  0.74420789  1
  O  O20  1  0.88746567  0.36843753  0.38552460  1
  O  O21  1  0.64142780  0.63156247  0.61447540  1
  O  O22  1  0.38746567  0.88552460  0.86843753  1
  O  O23  1  0.14142780  0.11447540  0.13156247  1
  O  O24  1  0.11253433  0.63156247  0.61447540  1
  O  O25  1  0.35857220  0.36843753  0.38552460  1
  O  O26  1  0.61253433  0.11447540  0.13156247  1
  O  O27  1  0.85857220  0.88552460  0.86843753  1
