# generated using pymatgen
data_YbB4Rh
_symmetry_space_group_name_H-M   'P 1'
_cell_length_a   3.53267253
_cell_length_b   5.94905078
_cell_length_c   11.51734815
_cell_angle_alpha   90.00000000
_cell_angle_beta   90.00000000
_cell_angle_gamma   90.00000000
_symmetry_Int_Tables_number   1
_chemical_formula_structural   YbB4Rh
_chemical_formula_sum   'Yb4 B16 Rh4'
_cell_volume   242.04914466
_cell_formula_units_Z   4
loop_
 _symmetry_equiv_pos_site_id
 _symmetry_equiv_pos_as_xyz
  1  'x, y, z'
loop_
 _atom_site_type_symbol
 _atom_site_label
 _atom_site_symmetry_multiplicity
 _atom_site_fract_x
 _atom_site_fract_y
 _atom_site_fract_z
 _atom_site_occupancy
  B  B0  1  0.50000000  0.78934863  0.68536280  1
  B  B1  1  0.50000000  0.21065137  0.31463720  1
  B  B2  1  0.50000000  0.28934863  0.81463720  1
  B  B3  1  0.50000000  0.71065137  0.18536280  1
  B  B4  1  0.50000000  0.86404587  0.52994340  1
  B  B5  1  0.50000000  0.13595413  0.47005660  1
  B  B6  1  0.50000000  0.36404587  0.97005660  1
  B  B7  1  0.50000000  0.63595413  0.02994340  1
  B  B8  1  0.50000000  0.02521522  0.19170820  1
  B  B9  1  0.50000000  0.97478478  0.80829180  1
  B  B10  1  0.50000000  0.52521522  0.30829180  1
  B  B11  1  0.50000000  0.47478478  0.69170820  1
  B  B12  1  0.50000000  0.11233735  0.04683464  1
  B  B13  1  0.50000000  0.88766265  0.95316536  1
  B  B14  1  0.50000000  0.61233735  0.45316536  1
  B  B15  1  0.50000000  0.38766265  0.54683464  1
  Rh  Rh16  1  0.00000000  0.64193385  0.59327993  1
  Rh  Rh17  1  0.00000000  0.35806615  0.40672007  1
  Rh  Rh18  1  0.00000000  0.14193385  0.90672007  1
  Rh  Rh19  1  0.00000000  0.85806615  0.09327993  1
  Yb  Yb20  1  0.00000000  0.13027211  0.64994110  1
  Yb  Yb21  1  0.00000000  0.86972789  0.35005890  1
  Yb  Yb22  1  0.00000000  0.63027211  0.85005890  1
  Yb  Yb23  1  0.00000000  0.36972789  0.14994110  1
