# generated using pymatgen
data_SrFe12O19
_symmetry_space_group_name_H-M   'P 1'
_cell_length_a   6.00511284
_cell_length_b   6.00511285
_cell_length_c   23.33389128
_cell_angle_alpha   90.00000000
_cell_angle_beta   90.00000000
_cell_angle_gamma   119.99999996
_symmetry_Int_Tables_number   1
_chemical_formula_structural   SrFe12O19
_chemical_formula_sum   'Sr2 Fe24 O38'
_cell_volume   728.71909106
_cell_formula_units_Z   2
loop_
 _symmetry_equiv_pos_site_id
 _symmetry_equiv_pos_as_xyz
  1  'x, y, z'
loop_
 _atom_site_type_symbol
 _atom_site_label
 _atom_site_symmetry_multiplicity
 _atom_site_fract_x
 _atom_site_fract_y
 _atom_site_fract_z
 _atom_site_occupancy
  O  O0  1  0.50589613  0.49410458  0.34873773  1
  O  O1  1  0.50589679  0.01179200  0.34873773  1
  O  O2  1  0.98820827  0.49410458  0.34873773  1
  O  O3  1  0.01179134  0.50589658  0.84873746  1
  O  O4  1  0.49410458  0.98820917  0.65126261  1
  O  O5  1  0.49410524  0.50589658  0.84873746  1
  O  O6  1  0.49410458  0.98820917  0.84873746  1
  O  O7  1  0.50589613  0.49410458  0.15126244  1
  O  O8  1  0.98820827  0.49410458  0.15126244  1
  O  O9  1  0.01179134  0.50589658  0.65126261  1
  O  O10  1  0.49410524  0.50589658  0.65126261  1
  O  O11  1  0.50589679  0.01179200  0.15126244  1
  O  O12  1  0.15533700  0.84466266  0.44698826  1
  O  O13  1  0.15533647  0.31067294  0.44698826  1
  O  O14  1  0.68932566  0.84466266  0.44698826  1
  O  O15  1  0.63465105  0.81732473  0.25000009  1
  O  O16  1  0.84466388  0.68932619  0.55301164  1
  O  O17  1  0.84466335  0.15533647  0.94698843  1
  O  O18  1  0.84466388  0.68932619  0.94698843  1
  O  O19  1  0.15533700  0.84466266  0.05301147  1
  O  O20  1  0.68932566  0.84466266  0.05301147  1
  O  O21  1  0.31067294  0.15533647  0.55301164  1
  O  O22  1  0.84466335  0.15533647  0.55301164  1
  O  O23  1  0.15533647  0.31067294  0.05301147  1
  O  O24  1  0.81732595  0.63465033  0.74999981  1
  O  O25  1  0.18267368  0.81732473  0.25000009  1
  O  O26  1  0.00000000  0.00000000  0.15214131  1
  O  O27  1  0.00000000  0.00000000  0.65214149  1
  O  O28  1  0.00000000  0.00000000  0.84785859  1
  O  O29  1  0.00000000  0.00000000  0.34785886  1
  O  O30  1  0.66666765  0.33333372  0.05522871  1
  O  O31  1  0.33333372  0.66666744  0.55522888  1
  O  O32  1  0.33333372  0.66666744  0.94477119  1
  O  O33  1  0.66666765  0.33333372  0.44477147  1
  O  O34  1  0.18267440  0.36534880  0.25000009  1
  O  O35  1  0.81732492  0.18267440  0.74999981  1
  O  O36  1  0.36534930  0.18267440  0.74999981  1
  O  O37  1  0.31067294  0.15533647  0.94698843  1
  Fe  Fe38  1  0.16827622  0.83172466  0.60936600  1
  Fe  Fe39  1  0.16827548  0.33655096  0.60936600  1
  Fe  Fe40  1  0.66344844  0.83172466  0.60936600  1
  Fe  Fe41  1  0.33655117  0.16827650  0.10936627  1
  Fe  Fe42  1  0.83172487  0.66344817  0.39063390  1
  Fe  Fe43  1  0.83172515  0.16827650  0.10936627  1
  Fe  Fe44  1  0.83172487  0.66344817  0.10936627  1
  Fe  Fe45  1  0.16827622  0.83172466  0.89063407  1
  Fe  Fe46  1  0.66344844  0.83172466  0.89063407  1
  Fe  Fe47  1  0.33655117  0.16827650  0.39063390  1
  Fe  Fe48  1  0.83172515  0.16827650  0.39063390  1
  Fe  Fe49  1  0.16827548  0.33655096  0.89063407  1
  Fe  Fe50  1  0.33333372  0.66666744  0.30907536  1
  Fe  Fe51  1  0.00000000  0.00000000  0.00000000  1
  Fe  Fe52  1  0.66666765  0.33333372  0.69092454  1
  Fe  Fe53  1  0.33333372  0.66666744  0.19092481  1
  Fe  Fe54  1  0.33333372  0.66666744  0.47206623  1
  Fe  Fe55  1  0.66666765  0.33333372  0.97206640  1
  Fe  Fe56  1  0.66666765  0.33333372  0.52793367  1
  Fe  Fe57  1  0.33333372  0.66666744  0.02793394  1
  Fe  Fe58  1  0.00000000  0.00000000  0.74999981  1
  Fe  Fe59  1  0.00000000  0.00000000  0.25000009  1
  Fe  Fe60  1  0.00000000  0.00000000  0.50000017  1
  Fe  Fe61  1  0.66666765  0.33333372  0.80907509  1
  Sr  Sr62  1  0.33333372  0.66666744  0.74999981  1
  Sr  Sr63  1  0.66666765  0.33333372  0.25000009  1
