# generated using pymatgen
data_LiMg6Sb
_symmetry_space_group_name_H-M   'P 1'
_cell_length_a   6.38600469
_cell_length_b   6.38600417
_cell_length_c   5.08177321
_cell_angle_alpha   90.00000000
_cell_angle_beta   90.00000000
_cell_angle_gamma   119.54890844
_symmetry_Int_Tables_number   1
_chemical_formula_structural   LiMg6Sb
_chemical_formula_sum   'Li1 Mg6 Sb1'
_cell_volume   180.28539031
_cell_formula_units_Z   1
loop_
 _symmetry_equiv_pos_site_id
 _symmetry_equiv_pos_as_xyz
  1  'x, y, z'
loop_
 _atom_site_type_symbol
 _atom_site_label
 _atom_site_symmetry_multiplicity
 _atom_site_fract_x
 _atom_site_fract_y
 _atom_site_fract_z
 _atom_site_occupancy
  Li  Li0  1  0.16554229  0.33445771  0.25000000  1
  Mg  Mg1  1  0.16440712  0.82588654  0.25000000  1
  Mg  Mg2  1  0.67411346  0.33559288  0.25000000  1
  Mg  Mg3  1  0.66522829  0.83477171  0.25000000  1
  Mg  Mg4  1  0.33283846  0.66436107  0.75000000  1
  Mg  Mg5  1  0.83563893  0.16716154  0.75000000  1
  Mg  Mg6  1  0.83296807  0.66703193  0.75000000  1
  Sb  Sb7  1  0.32926338  0.17073662  0.75000000  1
