# generated using pymatgen
data_NbCuO3
_symmetry_space_group_name_H-M   'P 1'
_cell_length_a   6.53729257
_cell_length_b   6.53729256
_cell_length_c   6.87182982
_cell_angle_alpha   90.54979718
_cell_angle_beta   90.54979721
_cell_angle_gamma   83.83671361
_symmetry_Int_Tables_number   1
_chemical_formula_structural   NbCuO3
_chemical_formula_sum   'Nb4 Cu4 O12'
_cell_volume   291.95411703
_cell_formula_units_Z   4
loop_
 _symmetry_equiv_pos_site_id
 _symmetry_equiv_pos_as_xyz
  1  'x, y, z'
loop_
 _atom_site_type_symbol
 _atom_site_label
 _atom_site_symmetry_multiplicity
 _atom_site_fract_x
 _atom_site_fract_y
 _atom_site_fract_z
 _atom_site_occupancy
  O  O0  1  0.69375222  0.69375222  0.47403955  1
  O  O1  1  0.30624778  0.30624778  0.52596045  1
  O  O2  1  0.87079983  0.87079983  0.94334924  1
  O  O3  1  0.12920017  0.12920017  0.05665076  1
  O  O4  1  0.25446934  0.92957247  0.74124912  1
  O  O5  1  0.07042753  0.74553066  0.25875088  1
  O  O6  1  0.74553066  0.07042753  0.25875088  1
  O  O7  1  0.92957247  0.25446934  0.74124912  1
  O  O8  1  0.53014149  0.20650054  0.89296641  1
  O  O9  1  0.79349946  0.46985851  0.10703359  1
  O  O10  1  0.46985851  0.79349946  0.10703359  1
  O  O11  1  0.20650054  0.53014149  0.89296641  1
  Cu  Cu12  1  0.15253849  0.84746151  0.50000000  1
  Cu  Cu13  1  0.84746151  0.15253849  0.50000000  1
  Cu  Cu14  1  0.78446395  0.78446395  0.70381096  1
  Cu  Cu15  1  0.21553605  0.21553605  0.29618904  1
  Nb  Nb16  1  0.20138194  0.79861806  0.00000000  1
  Nb  Nb17  1  0.79861806  0.20138194  0.00000000  1
  Nb  Nb18  1  0.24919172  0.24919172  0.77770086  1
  Nb  Nb19  1  0.75080828  0.75080828  0.22229914  1
