# generated using pymatgen
data_Cr2Fe3(SiO4)3
_symmetry_space_group_name_H-M   'P 1'
_cell_length_a   10.25938428
_cell_length_b   10.25938428
_cell_length_c   10.25938428
_cell_angle_alpha   109.47122063
_cell_angle_beta   109.47122063
_cell_angle_gamma   109.47122063
_symmetry_Int_Tables_number   1
_chemical_formula_structural   Cr2Fe3(SiO4)3
_chemical_formula_sum   'Cr8 Fe12 Si12 O48'
_cell_volume   831.26979663
_cell_formula_units_Z   4
loop_
 _symmetry_equiv_pos_site_id
 _symmetry_equiv_pos_as_xyz
  1  'x, y, z'
loop_
 _atom_site_type_symbol
 _atom_site_label
 _atom_site_symmetry_multiplicity
 _atom_site_fract_x
 _atom_site_fract_y
 _atom_site_fract_z
 _atom_site_occupancy
  O  O0  1  0.70921637  0.69179951  0.08726419  1
  O  O1  1  0.69179951  0.10453532  0.98258314  1
  O  O2  1  0.62195218  0.70921637  0.51741686  1
  O  O3  1  0.51741686  0.62195218  0.70921637  1
  O  O4  1  0.08726419  0.87804782  0.39546468  1
  O  O5  1  0.39546468  0.08726419  0.87804782  1
  O  O6  1  0.10453532  0.98258314  0.69179951  1
  O  O7  1  0.62195218  0.41273581  0.10453532  1
  O  O8  1  0.51741686  0.39546468  0.80820049  1
  O  O9  1  0.87804782  0.98258314  0.79078363  1
  O  O10  1  0.41273581  0.10453532  0.62195218  1
  O  O11  1  0.80820049  0.51741686  0.39546468  1
  O  O12  1  0.98258314  0.79078363  0.87804782  1
  O  O13  1  0.08726419  0.70921637  0.69179951  1
  O  O14  1  0.69179951  0.08726419  0.70921637  1
  O  O15  1  0.10453532  0.62195218  0.41273581  1
  O  O16  1  0.80820049  0.79078363  0.41273581  1
  O  O17  1  0.39546468  0.80820049  0.51741686  1
  O  O18  1  0.41273581  0.80820049  0.79078363  1
  O  O19  1  0.79078363  0.87804782  0.98258314  1
  O  O20  1  0.79078363  0.41273581  0.80820049  1
  O  O21  1  0.87804782  0.39546468  0.08726419  1
  O  O22  1  0.98258314  0.69179951  0.10453532  1
  O  O23  1  0.70921637  0.51741686  0.62195218  1
  O  O24  1  0.29078363  0.30820049  0.91273581  1
  O  O25  1  0.30820049  0.89546468  0.01741686  1
  O  O26  1  0.37804782  0.29078363  0.48258314  1
  O  O27  1  0.48258314  0.37804782  0.29078363  1
  O  O28  1  0.91273581  0.12195218  0.60453532  1
  O  O29  1  0.60453532  0.91273581  0.12195218  1
  O  O30  1  0.89546468  0.01741686  0.30820049  1
  O  O31  1  0.37804782  0.58726419  0.89546468  1
  O  O32  1  0.48258314  0.60453532  0.19179951  1
  O  O33  1  0.12195218  0.01741686  0.20921637  1
  O  O34  1  0.58726419  0.89546468  0.37804782  1
  O  O35  1  0.19179951  0.48258314  0.60453532  1
  O  O36  1  0.01741686  0.20921637  0.12195218  1
  O  O37  1  0.91273581  0.29078363  0.30820049  1
  O  O38  1  0.30820049  0.91273581  0.29078363  1
  O  O39  1  0.89546468  0.37804782  0.58726419  1
  O  O40  1  0.19179951  0.20921637  0.58726419  1
  O  O41  1  0.60453532  0.19179951  0.48258314  1
  O  O42  1  0.58726419  0.19179951  0.20921637  1
  O  O43  1  0.20921637  0.12195218  0.01741686  1
  O  O44  1  0.20921637  0.58726419  0.19179951  1
  O  O45  1  0.12195218  0.60453532  0.91273581  1
  O  O46  1  0.01741686  0.30820049  0.89546468  1
  O  O47  1  0.29078363  0.48258314  0.37804782  1
  Si  Si48  1  0.25000000  0.12500000  0.87500000  1
  Si  Si49  1  0.75000000  0.87500000  0.12500000  1
  Si  Si50  1  0.37500000  0.25000000  0.62500000  1
  Si  Si51  1  0.62500000  0.37500000  0.25000000  1
  Si  Si52  1  0.12500000  0.75000000  0.87500000  1
  Si  Si53  1  0.87500000  0.12500000  0.75000000  1
  Si  Si54  1  0.75000000  0.37500000  0.62500000  1
  Si  Si55  1  0.37500000  0.62500000  0.75000000  1
  Si  Si56  1  0.12500000  0.87500000  0.25000000  1
  Si  Si57  1  0.87500000  0.25000000  0.12500000  1
  Si  Si58  1  0.62500000  0.75000000  0.37500000  1
  Si  Si59  1  0.25000000  0.62500000  0.37500000  1
  Cr  Cr60  1  0.50000000  0.50000000  0.50000000  1
  Cr  Cr61  1  0.50000000  0.50000000  0.00000000  1
  Cr  Cr62  1  0.50000000  0.00000000  0.50000000  1
  Cr  Cr63  1  0.00000000  0.50000000  0.50000000  1
  Cr  Cr64  1  0.50000000  0.00000000  0.00000000  1
  Cr  Cr65  1  0.00000000  0.00000000  0.50000000  1
  Cr  Cr66  1  0.00000000  0.50000000  0.00000000  1
  Cr  Cr67  1  0.00000000  0.00000000  0.00000000  1
  Fe  Fe68  1  0.25000000  0.87500000  0.62500000  1
  Fe  Fe69  1  0.87500000  0.62500000  0.25000000  1
  Fe  Fe70  1  0.62500000  0.87500000  0.75000000  1
  Fe  Fe71  1  0.87500000  0.75000000  0.62500000  1
  Fe  Fe72  1  0.62500000  0.25000000  0.87500000  1
  Fe  Fe73  1  0.75000000  0.62500000  0.87500000  1
  Fe  Fe74  1  0.75000000  0.12500000  0.37500000  1
  Fe  Fe75  1  0.12500000  0.37500000  0.75000000  1
  Fe  Fe76  1  0.37500000  0.12500000  0.25000000  1
  Fe  Fe77  1  0.12500000  0.25000000  0.37500000  1
  Fe  Fe78  1  0.37500000  0.75000000  0.12500000  1
  Fe  Fe79  1  0.25000000  0.37500000  0.12500000  1
