# generated using pymatgen
data_NdP2H9O10
_symmetry_space_group_name_H-M   'P 1'
_cell_length_a   7.34310912
_cell_length_b   10.15835236
_cell_length_c   11.79699882
_cell_angle_alpha   90.00000000
_cell_angle_beta   90.00000000
_cell_angle_gamma   90.00000000
_symmetry_Int_Tables_number   1
_chemical_formula_structural   NdP2H9O10
_chemical_formula_sum   'Nd4 P8 H36 O40'
_cell_volume   879.98403064
_cell_formula_units_Z   4
loop_
 _symmetry_equiv_pos_site_id
 _symmetry_equiv_pos_as_xyz
  1  'x, y, z'
loop_
 _atom_site_type_symbol
 _atom_site_label
 _atom_site_symmetry_multiplicity
 _atom_site_fract_x
 _atom_site_fract_y
 _atom_site_fract_z
 _atom_site_occupancy
  H  H0  1  0.55517098  0.94467891  0.25613653  1
  H  H1  1  0.55517098  0.55532109  0.74386347  1
  H  H2  1  0.94482902  0.94467891  0.24386347  1
  H  H3  1  0.94482902  0.55532109  0.75613653  1
  H  H4  1  0.44482902  0.05532109  0.74386347  1
  H  H5  1  0.44482902  0.44467891  0.25613653  1
  H  H6  1  0.05517098  0.05532109  0.75613653  1
  H  H7  1  0.05517098  0.44467891  0.24386347  1
  H  H8  1  0.53758567  0.62935691  0.42985071  1
  H  H9  1  0.53758567  0.87064309  0.57014929  1
  H  H10  1  0.96241433  0.62935691  0.07014929  1
  H  H11  1  0.96241433  0.87064309  0.92985071  1
  H  H12  1  0.46241433  0.37064309  0.57014929  1
  H  H13  1  0.46241433  0.12935691  0.42985071  1
  H  H14  1  0.03758567  0.37064309  0.92985071  1
  H  H15  1  0.03758567  0.12935691  0.07014929  1
  H  H16  1  0.62826288  0.85338876  0.35381985  1
  H  H17  1  0.62826288  0.64661124  0.64618015  1
  H  H18  1  0.87173712  0.85338876  0.14618015  1
  H  H19  1  0.87173712  0.64661124  0.85381985  1
  H  H20  1  0.37173712  0.14661124  0.64618015  1
  H  H21  1  0.37173712  0.35338876  0.35381985  1
  H  H22  1  0.12826288  0.14661124  0.85381985  1
  H  H23  1  0.12826288  0.35338876  0.14618015  1
  H  H24  1  0.80091614  0.75000000  0.50000000  1
  H  H25  1  0.69908386  0.75000000  0.00000000  1
  H  H26  1  0.19908386  0.25000000  0.50000000  1
  H  H27  1  0.30091614  0.25000000  0.00000000  1
  H  H28  1  0.34040888  0.62086308  0.48604233  1
  H  H29  1  0.34040888  0.87913692  0.51395767  1
  H  H30  1  0.15959112  0.62086308  0.01395767  1
  H  H31  1  0.15959112  0.87913692  0.98604233  1
  H  H32  1  0.65959112  0.37913692  0.51395767  1
  H  H33  1  0.65959112  0.12086308  0.48604233  1
  H  H34  1  0.84040888  0.37913692  0.98604233  1
  H  H35  1  0.84040888  0.12086308  0.01395767  1
  O  O36  1  0.40583945  0.63308791  0.41307819  1
  O  O37  1  0.40583945  0.86691209  0.58692181  1
  O  O38  1  0.09416055  0.63308791  0.08692181  1
  O  O39  1  0.09416055  0.86691209  0.91307819  1
  O  O40  1  0.59416055  0.36691209  0.58692181  1
  O  O41  1  0.59416055  0.13308791  0.41307819  1
  O  O42  1  0.90583945  0.36691209  0.91307819  1
  O  O43  1  0.90583945  0.13308791  0.08692181  1
  O  O44  1  0.19522000  0.90777078  0.39529421  1
  O  O45  1  0.19522000  0.59222922  0.60470579  1
  O  O46  1  0.30478000  0.90777078  0.10470579  1
  O  O47  1  0.30478000  0.59222922  0.89529421  1
  O  O48  1  0.80478000  0.09222922  0.60470579  1
  O  O49  1  0.80478000  0.40777078  0.39529421  1
  O  O50  1  0.69522000  0.09222922  0.89529421  1
  O  O51  1  0.69522000  0.40777078  0.10470579  1
  O  O52  1  0.55059460  0.85387186  0.28666408  1
  O  O53  1  0.55059460  0.64612814  0.71333592  1
  O  O54  1  0.94940540  0.85387186  0.21333592  1
  O  O55  1  0.94940540  0.64612814  0.78666408  1
  O  O56  1  0.44940540  0.14612814  0.71333592  1
  O  O57  1  0.44940540  0.35387186  0.28666408  1
  O  O58  1  0.05059460  0.14612814  0.78666408  1
  O  O59  1  0.05059460  0.35387186  0.21333592  1
  O  O60  1  0.72379083  0.63535587  0.02216815  1
  O  O61  1  0.72379083  0.86464413  0.97783185  1
  O  O62  1  0.77620917  0.63535587  0.47783185  1
  O  O63  1  0.77620917  0.86464413  0.52216815  1
  O  O64  1  0.27620917  0.36464413  0.97783185  1
  O  O65  1  0.27620917  0.13535587  0.02216815  1
  O  O66  1  0.22379083  0.36464413  0.52216815  1
  O  O67  1  0.22379083  0.13535587  0.47783185  1
  O  O68  1  0.46524065  0.58575447  0.16532031  1
  O  O69  1  0.46524065  0.91424553  0.83467969  1
  O  O70  1  0.03475935  0.58575447  0.33467969  1
  O  O71  1  0.03475935  0.91424553  0.66532031  1
  O  O72  1  0.53475935  0.41424553  0.83467969  1
  O  O73  1  0.53475935  0.08575447  0.16532031  1
  O  O74  1  0.96524065  0.41424553  0.66532031  1
  O  O75  1  0.96524065  0.08575447  0.33467969  1
  P  P76  1  0.91286636  0.53129599  0.42918111  1
  P  P77  1  0.91286636  0.96870401  0.57081889  1
  P  P78  1  0.58713364  0.53129599  0.07081889  1
  P  P79  1  0.58713364  0.96870401  0.92918111  1
  P  P80  1  0.08713364  0.46870401  0.57081889  1
  P  P81  1  0.08713364  0.03129599  0.42918111  1
  P  P82  1  0.41286636  0.46870401  0.92918111  1
  P  P83  1  0.41286636  0.03129599  0.07081889  1
  Nd  Nd84  1  0.75000000  0.24330057  0.25000000  1
  Nd  Nd85  1  0.75000000  0.25669943  0.75000000  1
  Nd  Nd86  1  0.25000000  0.75669943  0.75000000  1
  Nd  Nd87  1  0.25000000  0.74330057  0.25000000  1
