# generated using pymatgen
data_SbP2O7
_symmetry_space_group_name_H-M   'P 1'
_cell_length_a   7.39947695
_cell_length_b   8.48753463
_cell_length_c   9.91031780
_cell_angle_alpha   90.00000000
_cell_angle_beta   110.37178169
_cell_angle_gamma   90.00000000
_symmetry_Int_Tables_number   1
_chemical_formula_structural   SbP2O7
_chemical_formula_sum   'Sb4 P8 O28'
_cell_volume   583.47186598
_cell_formula_units_Z   4
loop_
 _symmetry_equiv_pos_site_id
 _symmetry_equiv_pos_as_xyz
  1  'x, y, z'
loop_
 _atom_site_type_symbol
 _atom_site_label
 _atom_site_symmetry_multiplicity
 _atom_site_fract_x
 _atom_site_fract_y
 _atom_site_fract_z
 _atom_site_occupancy
  Sb  Sb0  1  0.73589432  0.50533216  0.24584680  1
  Sb  Sb1  1  0.73589432  0.99466784  0.74584680  1
  Sb  Sb2  1  0.26410568  0.00533216  0.25415320  1
  Sb  Sb3  1  0.26410568  0.49466784  0.75415320  1
  P  P4  1  0.67329613  0.28641775  0.94746495  1
  P  P5  1  0.32670387  0.71358225  0.05253505  1
  P  P6  1  0.92175298  0.75918314  0.04185468  1
  P  P7  1  0.07824702  0.25918314  0.45814532  1
  P  P8  1  0.07824702  0.24081686  0.95814532  1
  P  P9  1  0.92175298  0.74081686  0.54185468  1
  P  P10  1  0.32670387  0.78641775  0.55253505  1
  P  P11  1  0.67329613  0.21358225  0.44746495  1
  O  O12  1  0.67129661  0.30021694  0.10173704  1
  O  O13  1  0.79905889  0.63772143  0.08511303  1
  O  O14  1  0.54406684  0.09327311  0.34236490  1
  O  O15  1  0.20094111  0.36227857  0.91488697  1
  O  O16  1  0.67129661  0.19978306  0.60173704  1
  O  O17  1  0.45593316  0.59327311  0.15763510  1
  O  O18  1  0.88489512  0.33419952  0.94906770  1
  O  O19  1  0.81528140  0.79926401  0.88172114  1
  O  O20  1  0.63531609  0.38633869  0.39671170  1
  O  O21  1  0.02293813  0.40448837  0.35993257  1
  O  O22  1  0.32870339  0.80021694  0.39826296  1
  O  O23  1  0.36468391  0.88633869  0.10328830  1
  O  O24  1  0.97706187  0.90448837  0.14006743  1
  O  O25  1  0.11510488  0.66580048  0.05093230  1
  O  O26  1  0.20094111  0.13772143  0.41488697  1
  O  O27  1  0.63531609  0.11366131  0.89671170  1
  O  O28  1  0.88489512  0.16580048  0.44906770  1
  O  O29  1  0.32870339  0.69978306  0.89826296  1
  O  O30  1  0.18471860  0.20073599  0.11827886  1
  O  O31  1  0.97706187  0.59551163  0.64006743  1
  O  O32  1  0.18471860  0.29926401  0.61827886  1
  O  O33  1  0.11510488  0.83419952  0.55093230  1
  O  O34  1  0.02293813  0.09551163  0.85993257  1
  O  O35  1  0.79905889  0.86227857  0.58511303  1
  O  O36  1  0.36468391  0.61366131  0.60328830  1
  O  O37  1  0.81528140  0.70073599  0.38172114  1
  O  O38  1  0.45593316  0.90672689  0.65763510  1
  O  O39  1  0.54406684  0.40672689  0.84236490  1
