# generated using pymatgen
data_LiH2SO4
_symmetry_space_group_name_H-M   'P 1'
_cell_length_a   6.13530989
_cell_length_b   10.19366287
_cell_length_c   10.59534532
_cell_angle_alpha   90.00000000
_cell_angle_beta   90.00000000
_cell_angle_gamma   90.00000000
_symmetry_Int_Tables_number   1
_chemical_formula_structural   LiH2SO4
_chemical_formula_sum   'Li8 H16 S8 O32'
_cell_volume   662.64646494
_cell_formula_units_Z   8
loop_
 _symmetry_equiv_pos_site_id
 _symmetry_equiv_pos_as_xyz
  1  'x, y, z'
loop_
 _atom_site_type_symbol
 _atom_site_label
 _atom_site_symmetry_multiplicity
 _atom_site_fract_x
 _atom_site_fract_y
 _atom_site_fract_z
 _atom_site_occupancy
  H  H0  1  0.29714211  0.74878580  0.89280160  1
  H  H1  1  0.79714211  0.75121420  0.60719840  1
  H  H2  1  0.20285789  0.24878580  0.10719840  1
  H  H3  1  0.70285789  0.25121420  0.39280160  1
  H  H4  1  0.70285789  0.25121420  0.10719840  1
  H  H5  1  0.20285789  0.24878580  0.39280160  1
  H  H6  1  0.79714211  0.75121420  0.89280160  1
  H  H7  1  0.29714211  0.74878580  0.60719840  1
  H  H8  1  0.20848843  0.61924588  0.95164417  1
  H  H9  1  0.70848843  0.88075412  0.54835583  1
  H  H10  1  0.29151157  0.11924588  0.04835583  1
  H  H11  1  0.79151157  0.38075412  0.45164417  1
  H  H12  1  0.79151157  0.38075412  0.04835583  1
  H  H13  1  0.29151157  0.11924588  0.45164417  1
  H  H14  1  0.70848843  0.88075412  0.95164417  1
  H  H15  1  0.20848843  0.61924588  0.54835583  1
  Li  Li16  1  0.94060297  0.16449651  0.57344220  1
  Li  Li17  1  0.44060297  0.33550349  0.92655780  1
  Li  Li18  1  0.55939703  0.66449651  0.42655780  1
  Li  Li19  1  0.05939703  0.83550349  0.07344220  1
  Li  Li20  1  0.05939703  0.83550349  0.42655780  1
  Li  Li21  1  0.55939703  0.66449651  0.07344220  1
  Li  Li22  1  0.44060297  0.33550349  0.57344220  1
  Li  Li23  1  0.94060297  0.16449651  0.92655780  1
  O  O24  1  0.76591970  0.79408426  0.52520112  1
  O  O25  1  0.26591970  0.70591574  0.97479888  1
  O  O26  1  0.73408030  0.29408426  0.47479888  1
  O  O27  1  0.23408030  0.20591574  0.02520112  1
  O  O28  1  0.23408030  0.20591574  0.47479888  1
  O  O29  1  0.73408030  0.29408426  0.02520112  1
  O  O30  1  0.26591970  0.70591574  0.52520112  1
  O  O31  1  0.76591970  0.79408426  0.97479888  1
  O  O32  1  0.04467931  0.72851762  0.25000000  1
  O  O33  1  0.54467931  0.77148238  0.25000000  1
  O  O34  1  0.45532069  0.22851762  0.75000000  1
  O  O35  1  0.95532069  0.27148238  0.75000000  1
  O  O36  1  0.14678296  0.44437792  0.63283976  1
  O  O37  1  0.64678296  0.05562208  0.86716024  1
  O  O38  1  0.35321704  0.94437792  0.36716024  1
  O  O39  1  0.85321704  0.55562208  0.13283976  1
  O  O40  1  0.85321704  0.55562208  0.36716024  1
  O  O41  1  0.35321704  0.94437792  0.13283976  1
  O  O42  1  0.64678296  0.05562208  0.63283976  1
  O  O43  1  0.14678296  0.44437792  0.86716024  1
  O  O44  1  0.16588419  0.33249298  0.25000000  1
  O  O45  1  0.66588419  0.16750702  0.25000000  1
  O  O46  1  0.33411581  0.83249298  0.75000000  1
  O  O47  1  0.83411581  0.66750702  0.75000000  1
  O  O48  1  0.62294839  0.50313213  0.63324165  1
  O  O49  1  0.12294839  0.99686787  0.86675835  1
  O  O50  1  0.87705161  0.00313213  0.36675835  1
  O  O51  1  0.37705161  0.49686787  0.13324165  1
  O  O52  1  0.37705161  0.49686787  0.36675835  1
  O  O53  1  0.87705161  0.00313213  0.13324165  1
  O  O54  1  0.12294839  0.99686787  0.63324165  1
  O  O55  1  0.62294839  0.50313213  0.86675835  1
  S  S56  1  0.96651466  0.59121103  0.25000000  1
  S  S57  1  0.46651466  0.90878897  0.25000000  1
  S  S58  1  0.53348534  0.09121103  0.75000000  1
  S  S59  1  0.03348534  0.40878897  0.75000000  1
  S  S60  1  0.26069343  0.46608769  0.25000000  1
  S  S61  1  0.76069343  0.03391231  0.25000000  1
  S  S62  1  0.23930657  0.96608769  0.75000000  1
  S  S63  1  0.73930657  0.53391231  0.75000000  1
