# generated using pymatgen
data_LiMg6Si
_symmetry_space_group_name_H-M   'P 1'
_cell_length_a   6.25471252
_cell_length_b   6.23761364
_cell_length_c   4.90920279
_cell_angle_alpha   90.00000000
_cell_angle_beta   90.00000000
_cell_angle_gamma   119.90961428
_symmetry_Int_Tables_number   1
_chemical_formula_structural   LiMg6Si
_chemical_formula_sum   'Li1 Mg6 Si1'
_cell_volume   166.02070669
_cell_formula_units_Z   1
loop_
 _symmetry_equiv_pos_site_id
 _symmetry_equiv_pos_as_xyz
  1  'x, y, z'
loop_
 _atom_site_type_symbol
 _atom_site_label
 _atom_site_symmetry_multiplicity
 _atom_site_fract_x
 _atom_site_fract_y
 _atom_site_fract_z
 _atom_site_occupancy
  Li  Li0  1  0.16602936  0.33301418  0.25000000  1
  Mg  Mg1  1  0.66762392  0.33263544  0.25000000  1
  Mg  Mg2  1  0.66762392  0.83498748  0.25000000  1
  Mg  Mg3  1  0.32793394  0.16303831  0.75000000  1
  Mg  Mg4  1  0.32793394  0.66489663  0.75000000  1
  Mg  Mg5  1  0.83687280  0.16843690  0.75000000  1
  Mg  Mg6  1  0.83820381  0.66910241  0.75000000  1
  Si  Si7  1  0.16777829  0.83388865  0.25000000  1
