# generated using pymatgen
data_FeP2O7
_symmetry_space_group_name_H-M   'P 1'
_cell_length_a   4.98986947
_cell_length_b   7.03823680
_cell_length_c   8.21063409
_cell_angle_alpha   90.00000000
_cell_angle_beta   90.00000000
_cell_angle_gamma   106.93869715
_symmetry_Int_Tables_number   1
_chemical_formula_structural   FeP2O7
_chemical_formula_sum   'Fe2 P4 O14'
_cell_volume   275.84674552
_cell_formula_units_Z   2
loop_
 _symmetry_equiv_pos_site_id
 _symmetry_equiv_pos_as_xyz
  1  'x, y, z'
loop_
 _atom_site_type_symbol
 _atom_site_label
 _atom_site_symmetry_multiplicity
 _atom_site_fract_x
 _atom_site_fract_y
 _atom_site_fract_z
 _atom_site_occupancy
  O  O0  1  0.43162198  0.08745739  0.91993781  1
  O  O1  1  0.98707730  0.16416549  0.83570178  1
  O  O2  1  0.01292405  0.83583451  0.33570155  1
  O  O3  1  0.14480847  0.91024657  0.67990295  1
  O  O4  1  0.15811949  0.47292400  0.05803823  1
  O  O5  1  0.26933404  0.51405365  0.35924886  1
  O  O6  1  0.43721623  0.63189016  0.67699640  1
  O  O7  1  0.56837937  0.91254261  0.41993759  1
  O  O8  1  0.84188186  0.52707599  0.55803845  1
  O  O9  1  0.41263571  0.26648455  0.64977781  1
  O  O10  1  0.85519288  0.08975343  0.17990399  1
  O  O11  1  0.56278305  0.36810988  0.17699744  1
  O  O12  1  0.73066525  0.48594638  0.85924908  1
  O  O13  1  0.58736564  0.73351544  0.14977758  1
  P  P14  1  0.23880445  0.10093095  0.77746926  1
  P  P15  1  0.76119690  0.89906904  0.27746904  1
  P  P16  1  0.38675003  0.51283737  0.18780409  1
  P  P17  1  0.61325132  0.48716263  0.68780431  1
  Fe  Fe18  1  0.78744584  0.27357477  0.01008133  1
  Fe  Fe19  1  0.21255551  0.72642522  0.51008156  1
