# generated using pymatgen
data_BiP2O7
_symmetry_space_group_name_H-M   'P 1'
_cell_length_a   5.20353334
_cell_length_b   8.81903589
_cell_length_c   7.35514716
_cell_angle_alpha   90.00000000
_cell_angle_beta   109.60216011
_cell_angle_gamma   90.00000000
_symmetry_Int_Tables_number   1
_chemical_formula_structural   BiP2O7
_chemical_formula_sum   'Bi2 P4 O14'
_cell_volume   317.96724023
_cell_formula_units_Z   2
loop_
 _symmetry_equiv_pos_site_id
 _symmetry_equiv_pos_as_xyz
  1  'x, y, z'
loop_
 _atom_site_type_symbol
 _atom_site_label
 _atom_site_symmetry_multiplicity
 _atom_site_fract_x
 _atom_site_fract_y
 _atom_site_fract_z
 _atom_site_occupancy
  Bi  Bi0  1  0.79882095  0.94906983  0.28639929  1
  Bi  Bi1  1  0.20117905  0.44906983  0.71360071  1
  P  P2  1  0.21645087  0.73200481  0.08064072  1
  P  P3  1  0.78354913  0.23200481  0.91935928  1
  P  P4  1  0.59240708  0.62247987  0.45938363  1
  P  P5  1  0.40759292  0.12247987  0.54061637  1
  O  O6  1  0.39763542  0.62516335  0.57684641  1
  O  O7  1  0.62222748  0.37874767  0.91552145  1
  O  O8  1  0.37777252  0.87874767  0.08447855  1
  O  O9  1  0.75520683  0.77152151  0.49516711  1
  O  O10  1  0.86807554  0.14910367  0.11280793  1
  O  O11  1  0.95801721  0.76201104  0.13311685  1
  O  O12  1  0.13192446  0.64910367  0.88719207  1
  O  O13  1  0.22599151  0.98075095  0.50526325  1
  O  O14  1  0.41245214  0.61328529  0.23322102  1
  O  O15  1  0.60236458  0.12516335  0.42315359  1
  O  O16  1  0.77400849  0.48075095  0.49473675  1
  O  O17  1  0.04198279  0.26201104  0.86688315  1
  O  O18  1  0.24479317  0.27152151  0.50483289  1
  O  O19  1  0.58754786  0.11328529  0.76677898  1
