# generated using pymatgen
data_FeCu2SnSe4
_symmetry_space_group_name_H-M   'P 1'
_cell_length_a   5.76786649
_cell_length_b   5.76786649
_cell_length_c   6.98012921
_cell_angle_alpha   114.40370419
_cell_angle_beta   114.40370413
_cell_angle_gamma   89.99999995
_symmetry_Int_Tables_number   1
_chemical_formula_structural   FeCu2SnSe4
_chemical_formula_sum   'Fe1 Cu2 Sn1 Se4'
_cell_volume   188.45260354
_cell_formula_units_Z   1
loop_
 _symmetry_equiv_pos_site_id
 _symmetry_equiv_pos_as_xyz
  1  'x, y, z'
loop_
 _atom_site_type_symbol
 _atom_site_label
 _atom_site_symmetry_multiplicity
 _atom_site_fract_x
 _atom_site_fract_y
 _atom_site_fract_z
 _atom_site_occupancy
  Fe  Fe0  1  0.00000000  0.00000000  0.00000000  1
  Cu  Cu1  1  0.75000000  0.25000000  0.50000000  1
  Cu  Cu2  1  0.25000000  0.75000000  0.50000000  1
  Se  Se3  1  0.36400823  0.36400823  0.26759039  1
  Se  Se4  1  0.63599177  0.09641783  0.73240961  1
  Se  Se5  1  0.09641783  0.63599177  0.73240961  1
  Se  Se6  1  0.90358217  0.90358217  0.26759039  1
  Sn  Sn7  1  0.50000000  0.50000000  0.00000000  1
