# generated using pymatgen
data_K2ReI6
_symmetry_space_group_name_H-M   'P 1'
_cell_length_a   8.05091315
_cell_length_b   8.23472920
_cell_length_c   11.49933991
_cell_angle_alpha   90.00000000
_cell_angle_beta   90.13357540
_cell_angle_gamma   90.00000000
_symmetry_Int_Tables_number   1
_chemical_formula_structural   K2ReI6
_chemical_formula_sum   'K4 Re2 I12'
_cell_volume   762.37069697
_cell_formula_units_Z   2
loop_
 _symmetry_equiv_pos_site_id
 _symmetry_equiv_pos_as_xyz
  1  'x, y, z'
loop_
 _atom_site_type_symbol
 _atom_site_label
 _atom_site_symmetry_multiplicity
 _atom_site_fract_x
 _atom_site_fract_y
 _atom_site_fract_z
 _atom_site_occupancy
  K  K0  1  0.96181616  0.31241165  0.30311679  1
  K  K1  1  0.46181616  0.68758835  0.80311679  1
  K  K2  1  0.99755256  0.19022927  0.80363328  1
  K  K3  1  0.49755256  0.80977073  0.30363328  1
  I  I4  1  0.70470098  0.56012877  0.08902605  1
  I  I5  1  0.25905782  0.94047452  0.01867002  1
  I  I6  1  0.41630636  0.24624969  0.31923611  1
  I  I7  1  0.75905782  0.05952548  0.51867002  1
  I  I8  1  0.54653139  0.25278488  0.78893033  1
  I  I9  1  0.04653139  0.74721512  0.28893033  1
  I  I10  1  0.29286960  0.97335075  0.58267533  1
  I  I11  1  0.79286960  0.02664925  0.08267533  1
  I  I12  1  0.67092556  0.52575132  0.52539514  1
  I  I13  1  0.17092556  0.47424868  0.02539514  1
  I  I14  1  0.91630636  0.75375031  0.81923611  1
  I  I15  1  0.20470098  0.43987123  0.58902605  1
  Re  Re16  1  0.98193957  0.75052035  0.05398696  1
  Re  Re17  1  0.48193957  0.24947965  0.55398696  1
