# generated using pymatgen
data_CuTe2O5
_symmetry_space_group_name_H-M   'P 1'
_cell_length_a   6.97461896
_cell_length_b   7.65295098
_cell_length_c   9.50223988
_cell_angle_alpha   90.00000000
_cell_angle_beta   90.00000000
_cell_angle_gamma   107.71014498
_symmetry_Int_Tables_number   1
_chemical_formula_structural   CuTe2O5
_chemical_formula_sum   'Cu4 Te8 O20'
_cell_volume   483.15832215
_cell_formula_units_Z   4
loop_
 _symmetry_equiv_pos_site_id
 _symmetry_equiv_pos_as_xyz
  1  'x, y, z'
loop_
 _atom_site_type_symbol
 _atom_site_label
 _atom_site_symmetry_multiplicity
 _atom_site_fract_x
 _atom_site_fract_y
 _atom_site_fract_z
 _atom_site_occupancy
  Cu  Cu0  1  0.34003467  0.79422484  0.01189832  1
  Cu  Cu1  1  0.34003467  0.29422484  0.48810168  1
  Cu  Cu2  1  0.65996533  0.70577516  0.51189832  1
  Cu  Cu3  1  0.65996533  0.20577516  0.98810168  1
  Te  Te4  1  0.35049386  0.94036068  0.67811417  1
  Te  Te5  1  0.64950614  0.55963932  0.17811417  1
  Te  Te6  1  0.35049386  0.44036068  0.82188583  1
  Te  Te7  1  0.13527806  0.09049862  0.20428245  1
  Te  Te8  1  0.86472194  0.90950138  0.79571755  1
  Te  Te9  1  0.86472194  0.40950138  0.70428245  1
  Te  Te10  1  0.13527806  0.59049862  0.29571755  1
  Te  Te11  1  0.64950614  0.05963932  0.32188583  1
  O  O12  1  0.61773245  0.00796862  0.12615470  1
  O  O13  1  0.32190889  0.59121598  0.14621860  1
  O  O14  1  0.49357723  0.67765275  0.89127131  1
  O  O15  1  0.86218124  0.14623876  0.86607584  1
  O  O16  1  0.86218124  0.64623876  0.63392416  1
  O  O17  1  0.49357723  0.17765275  0.60872869  1
  O  O18  1  0.13781876  0.35376124  0.36607584  1
  O  O19  1  0.50642277  0.82234725  0.39127131  1
  O  O20  1  0.13781876  0.85376124  0.13392416  1
  O  O21  1  0.67809111  0.40878402  0.85378140  1
  O  O22  1  0.09986806  0.53146019  0.81827148  1
  O  O23  1  0.90013194  0.46853981  0.18172852  1
  O  O24  1  0.90013194  0.96853981  0.31827148  1
  O  O25  1  0.61773245  0.50796862  0.37384530  1
  O  O26  1  0.67809111  0.90878402  0.64621860  1
  O  O27  1  0.32190889  0.09121598  0.35378140  1
  O  O28  1  0.50642277  0.32234725  0.10872869  1
  O  O29  1  0.38226755  0.49203138  0.62615470  1
  O  O30  1  0.09986806  0.03146019  0.68172852  1
  O  O31  1  0.38226755  0.99203138  0.87384530  1
