# generated using pymatgen
data_LaNb7O19
_symmetry_space_group_name_H-M   'P 1'
_cell_length_a   6.34107619
_cell_length_b   6.34107619
_cell_length_c   20.38250988
_cell_angle_alpha   90.00000000
_cell_angle_beta   90.00000000
_cell_angle_gamma   119.99999999
_symmetry_Int_Tables_number   1
_chemical_formula_structural   LaNb7O19
_chemical_formula_sum   'La2 Nb14 O38'
_cell_volume   709.76443880
_cell_formula_units_Z   2
loop_
 _symmetry_equiv_pos_site_id
 _symmetry_equiv_pos_as_xyz
  1  'x, y, z'
loop_
 _atom_site_type_symbol
 _atom_site_label
 _atom_site_symmetry_multiplicity
 _atom_site_fract_x
 _atom_site_fract_y
 _atom_site_fract_z
 _atom_site_occupancy
  O  O0  1  0.66666667  0.33333333  0.83618314  1
  O  O1  1  0.66666667  0.33333333  0.66405878  1
  O  O2  1  0.66666667  0.33333333  0.43780997  1
  O  O3  1  0.66666667  0.33333333  0.17608570  1
  O  O4  1  0.00000000  0.00000000  0.86861900  1
  O  O5  1  0.00000000  0.00000000  0.64240729  1
  O  O6  1  0.00000000  0.00000000  0.47017802  1
  O  O7  1  0.00000000  0.00000000  0.13032906  1
  O  O8  1  0.71133107  0.61576303  0.94473358  1
  O  O9  1  0.90443196  0.28866893  0.94473358  1
  O  O10  1  0.38423697  0.09556804  0.94473358  1
  O  O11  1  0.70941919  0.63325645  0.55613151  1
  O  O12  1  0.92383726  0.29058081  0.55613151  1
  O  O13  1  0.36674355  0.07616274  0.55613151  1
  O  O14  1  0.74292009  0.70016529  0.75035134  1
  O  O15  1  0.95724520  0.25707991  0.75035134  1
  O  O16  1  0.09092950  0.42427709  0.15317847  1
  O  O17  1  0.57572291  0.66665241  0.15317847  1
  O  O18  1  0.33334759  0.90907050  0.15317847  1
  O  O19  1  0.08773627  0.66672157  0.45948127  1
  O  O20  1  0.33327843  0.42101471  0.45948127  1
  O  O21  1  0.57898529  0.91226373  0.45948127  1
  O  O22  1  0.08978435  0.66665632  0.65326059  1
  O  O23  1  0.33334368  0.42312803  0.65326059  1
  O  O24  1  0.57687197  0.91021565  0.65326059  1
  O  O25  1  0.08776471  0.66661268  0.84701521  1
  O  O26  1  0.33338732  0.42115203  0.84701521  1
  O  O27  1  0.57884797  0.91223529  0.84701521  1
  O  O28  1  0.38884791  0.28474565  0.05891377  1
  O  O29  1  0.71525435  0.10410226  0.05891377  1
  O  O30  1  0.89589774  0.61115209  0.05891377  1
  O  O31  1  0.27775668  0.22934805  0.24748433  1
  O  O32  1  0.77065195  0.04840862  0.24748433  1
  O  O33  1  0.95159138  0.72224332  0.24748433  1
  O  O34  1  0.28246339  0.04445506  0.36165690  1
  O  O35  1  0.95554494  0.23800833  0.36165690  1
  O  O36  1  0.76199167  0.71753661  0.36165690  1
  O  O37  1  0.29983471  0.04275480  0.75035134  1
  Nb  Nb38  1  0.66666667  0.33333333  0.99489830  1
  Nb  Nb39  1  0.00000000  0.00000000  0.31164485  1
  Nb  Nb40  1  0.69268223  0.66750936  0.84166369  1
  Nb  Nb41  1  0.97482713  0.30731777  0.84166369  1
  Nb  Nb42  1  0.33249064  0.02517287  0.84166369  1
  Nb  Nb43  1  0.69232763  0.66668604  0.65327819  1
  Nb  Nb44  1  0.97435841  0.30767237  0.65327819  1
  Nb  Nb45  1  0.33331396  0.02564159  0.65327819  1
  Nb  Nb46  1  0.69185691  0.66577027  0.46484786  1
  Nb  Nb47  1  0.97391337  0.30814309  0.46484786  1
  Nb  Nb48  1  0.33422973  0.02608663  0.46484786  1
  Nb  Nb49  1  0.97844242  0.66669686  0.15322843  1
  Nb  Nb50  1  0.68825444  0.02155758  0.15322843  1
  Nb  Nb51  1  0.33330314  0.31174556  0.15322843  1
  La  La52  1  0.66666667  0.33333333  0.30603899  1
  La  La53  1  0.00000000  0.00000000  1.00037152  1
