# generated using pymatgen
data_P4SeO7
_symmetry_space_group_name_H-M   'P 1'
_cell_length_a   7.20951636
_cell_length_b   7.44262693
_cell_length_c   8.69346043
_cell_angle_alpha   93.86533589
_cell_angle_beta   103.88702679
_cell_angle_gamma   95.23449008
_symmetry_Int_Tables_number   1
_chemical_formula_structural   P4SeO7
_chemical_formula_sum   'P8 Se2 O14'
_cell_volume   449.01996320
_cell_formula_units_Z   2
loop_
 _symmetry_equiv_pos_site_id
 _symmetry_equiv_pos_as_xyz
  1  'x, y, z'
loop_
 _atom_site_type_symbol
 _atom_site_label
 _atom_site_symmetry_multiplicity
 _atom_site_fract_x
 _atom_site_fract_y
 _atom_site_fract_z
 _atom_site_occupancy
  O  O0  1  0.77784314  0.96489166  0.19694980  1
  O  O1  1  0.22215686  0.03510834  0.80305020  1
  O  O2  1  0.48277708  0.94720109  0.30627413  1
  O  O3  1  0.51722292  0.05279891  0.69372587  1
  O  O4  1  0.50897752  0.71357998  0.08510360  1
  O  O5  1  0.49102248  0.28642002  0.91489640  1
  O  O6  1  0.75547189  0.20809473  0.41726209  1
  O  O7  1  0.24452811  0.79190527  0.58273791  1
  O  O8  1  0.79969473  0.87669854  0.47598013  1
  O  O9  1  0.20030527  0.12330146  0.52401987  1
  O  O10  1  0.17185146  0.35816248  0.74405590  1
  O  O11  1  0.82814854  0.64183752  0.25594410  1
  O  O12  1  0.46888339  0.37847125  0.63385414  1
  O  O13  1  0.53111661  0.62152875  0.36614586  1
  P  P14  1  0.39259885  0.73081062  0.23229586  1
  P  P15  1  0.60740115  0.26918938  0.76770414  1
  P  P16  1  0.70725412  0.01737827  0.35631263  1
  P  P17  1  0.29274588  0.98262173  0.64368737  1
  P  P18  1  0.73908192  0.75663516  0.10906958  1
  P  P19  1  0.26091808  0.24336484  0.89093042  1
  P  P20  1  0.76816649  0.64875650  0.43202601  1
  P  P21  1  0.23183351  0.35124350  0.56797399  1
  Se  Se22  1  0.84335139  0.72255155  0.91165640  1
  Se  Se23  1  0.15664861  0.27744845  0.08834360  1
