# generated using pymatgen
data_SrLiMg6
_symmetry_space_group_name_H-M   'P 1'
_cell_length_a   6.81087605
_cell_length_b   6.81087543
_cell_length_c   5.28904334
_cell_angle_alpha   90.00000000
_cell_angle_beta   90.00000000
_cell_angle_gamma   120.69367770
_symmetry_Int_Tables_number   1
_chemical_formula_structural   SrLiMg6
_chemical_formula_sum   'Sr1 Li1 Mg6'
_cell_volume   210.97710717
_cell_formula_units_Z   1
loop_
 _symmetry_equiv_pos_site_id
 _symmetry_equiv_pos_as_xyz
  1  'x, y, z'
loop_
 _atom_site_type_symbol
 _atom_site_label
 _atom_site_symmetry_multiplicity
 _atom_site_fract_x
 _atom_site_fract_y
 _atom_site_fract_z
 _atom_site_occupancy
  Sr  Sr0  1  0.32881280  0.17118720  0.75000000  1
  Li  Li1  1  0.15524469  0.34475531  0.25000000  1
  Mg  Mg2  1  0.15885600  0.80809614  0.25000000  1
  Mg  Mg3  1  0.69190386  0.34114400  0.25000000  1
  Mg  Mg4  1  0.66888202  0.83111798  0.25000000  1
  Mg  Mg5  1  0.32028304  0.66340766  0.75000000  1
  Mg  Mg6  1  0.83659234  0.17971696  0.75000000  1
  Mg  Mg7  1  0.83942526  0.66057474  0.75000000  1
