# generated using pymatgen
data_Li2Sn3(P2O7)2
_symmetry_space_group_name_H-M   'P 1'
_cell_length_a   6.31813420
_cell_length_b   7.68382564
_cell_length_c   8.02219373
_cell_angle_alpha   69.89426558
_cell_angle_beta   82.07082759
_cell_angle_gamma   64.65273899
_symmetry_Int_Tables_number   1
_chemical_formula_structural   Li2Sn3(P2O7)2
_chemical_formula_sum   'Li2 Sn3 P4 O14'
_cell_volume   330.49564627
_cell_formula_units_Z   1
loop_
 _symmetry_equiv_pos_site_id
 _symmetry_equiv_pos_as_xyz
  1  'x, y, z'
loop_
 _atom_site_type_symbol
 _atom_site_label
 _atom_site_symmetry_multiplicity
 _atom_site_fract_x
 _atom_site_fract_y
 _atom_site_fract_z
 _atom_site_occupancy
  Li  Li0  1  0.67704792  0.03811127  0.69521036  1
  Li  Li1  1  0.32295208  0.96188873  0.30478964  1
  O  O2  1  0.14428210  0.28053516  0.86284095  1
  O  O3  1  0.02926314  0.66826491  0.57859619  1
  O  O4  1  0.33405318  0.26167396  0.13485124  1
  O  O5  1  0.02022341  0.91458583  0.72953355  1
  O  O6  1  0.29234229  0.54668054  0.85025830  1
  O  O7  1  0.62141083  0.23763666  0.45001301  1
  O  O8  1  0.58357290  0.18539089  0.86976114  1
  O  O9  1  0.41642710  0.81460911  0.13023886  1
  O  O10  1  0.37858917  0.76236334  0.54998699  1
  O  O11  1  0.70765771  0.45331946  0.14974170  1
  O  O12  1  0.97977659  0.08541417  0.27046645  1
  O  O13  1  0.66594682  0.73832604  0.86514876  1
  O  O14  1  0.97073686  0.33173509  0.42140381  1
  O  O15  1  0.85571790  0.71946484  0.13715905  1
  P  P16  1  0.17471276  0.73443066  0.66543093  1
  P  P17  1  0.34165425  0.30624471  0.93178157  1
  P  P18  1  0.65834575  0.69375529  0.06821843  1
  P  P19  1  0.82528724  0.26556934  0.33456907  1
  Sn  Sn20  1  0.00000000  0.00000000  0.00000000  1
  Sn  Sn21  1  0.21653547  0.47467387  0.29900787  1
  Sn  Sn22  1  0.78346453  0.52532613  0.70099213  1
