# generated using pymatgen
data_Ca(BS2)2
_symmetry_space_group_name_H-M   'P 1'
_cell_length_a   11.24944962
_cell_length_b   11.24944962
_cell_length_c   11.24944962
_cell_angle_alpha   90.00000000
_cell_angle_beta   90.00000000
_cell_angle_gamma   90.00000000
_symmetry_Int_Tables_number   1
_chemical_formula_structural   Ca(BS2)2
_chemical_formula_sum   'Ca12 B24 S48'
_cell_volume   1423.61916282
_cell_formula_units_Z   12
loop_
 _symmetry_equiv_pos_site_id
 _symmetry_equiv_pos_as_xyz
  1  'x, y, z'
loop_
 _atom_site_type_symbol
 _atom_site_label
 _atom_site_symmetry_multiplicity
 _atom_site_fract_x
 _atom_site_fract_y
 _atom_site_fract_z
 _atom_site_occupancy
  B  B0  1  0.62938186  0.19343553  0.14598853  1
  B  B1  1  0.12938186  0.30656447  0.85401147  1
  B  B2  1  0.37061814  0.69343553  0.35401147  1
  B  B3  1  0.30656447  0.85401147  0.12938186  1
  B  B4  1  0.35401147  0.37061814  0.69343553  1
  B  B5  1  0.85401147  0.12938186  0.30656447  1
  B  B6  1  0.19343553  0.14598853  0.62938186  1
  B  B7  1  0.14598853  0.62938186  0.19343553  1
  B  B8  1  0.69343553  0.35401147  0.37061814  1
  B  B9  1  0.80656447  0.64598853  0.87061814  1
  B  B10  1  0.64598853  0.87061814  0.80656447  1
  B  B11  1  0.87061814  0.80656447  0.64598853  1
  B  B12  1  0.37061814  0.80656447  0.85401147  1
  B  B13  1  0.87061814  0.69343553  0.14598853  1
  B  B14  1  0.62938186  0.30656447  0.64598853  1
  B  B15  1  0.69343553  0.14598853  0.87061814  1
  B  B16  1  0.64598853  0.62938186  0.30656447  1
  B  B17  1  0.14598853  0.87061814  0.69343553  1
  B  B18  1  0.80656447  0.85401147  0.37061814  1
  B  B19  1  0.85401147  0.37061814  0.80656447  1
  B  B20  1  0.30656447  0.64598853  0.62938186  1
  B  B21  1  0.19343553  0.35401147  0.12938186  1
  B  B22  1  0.35401147  0.12938186  0.19343553  1
  B  B23  1  0.12938186  0.19343553  0.35401147  1
  S  S24  1  0.58493940  0.27730330  0.47957323  1
  S  S25  1  0.08493940  0.22269670  0.52042677  1
  S  S26  1  0.41506060  0.77730330  0.02042677  1
  S  S27  1  0.22269670  0.52042677  0.08493940  1
  S  S28  1  0.02042677  0.41506060  0.77730330  1
  S  S29  1  0.52042677  0.08493940  0.22269670  1
  S  S30  1  0.27730330  0.47957323  0.58493940  1
  S  S31  1  0.47957323  0.58493940  0.27730330  1
  S  S32  1  0.77730330  0.02042677  0.41506060  1
  S  S33  1  0.72269670  0.97957323  0.91506060  1
  S  S34  1  0.97957323  0.91506060  0.72269670  1
  S  S35  1  0.91506060  0.72269670  0.97957323  1
  S  S36  1  0.41506060  0.72269670  0.52042677  1
  S  S37  1  0.91506060  0.77730330  0.47957323  1
  S  S38  1  0.58493940  0.22269670  0.97957323  1
  S  S39  1  0.77730330  0.47957323  0.91506060  1
  S  S40  1  0.97957323  0.58493940  0.22269670  1
  S  S41  1  0.47957323  0.91506060  0.77730330  1
  S  S42  1  0.72269670  0.52042677  0.41506060  1
  S  S43  1  0.52042677  0.41506060  0.72269670  1
  S  S44  1  0.22269670  0.97957323  0.58493940  1
  S  S45  1  0.27730330  0.02042677  0.08493940  1
  S  S46  1  0.02042677  0.08493940  0.27730330  1
  S  S47  1  0.08493940  0.27730330  0.02042677  1
  S  S48  1  0.85094016  0.28814204  0.37173712  1
  S  S49  1  0.35094016  0.21185796  0.62826288  1
  S  S50  1  0.14905984  0.78814204  0.12826288  1
  S  S51  1  0.21185796  0.62826288  0.35094016  1
  S  S52  1  0.12826288  0.14905984  0.78814204  1
  S  S53  1  0.62826288  0.35094016  0.21185796  1
  S  S54  1  0.28814204  0.37173712  0.85094016  1
  S  S55  1  0.37173712  0.85094016  0.28814204  1
  S  S56  1  0.78814204  0.12826288  0.14905984  1
  S  S57  1  0.71185796  0.87173712  0.64905984  1
  S  S58  1  0.87173712  0.64905984  0.71185796  1
  S  S59  1  0.64905984  0.71185796  0.87173712  1
  S  S60  1  0.14905984  0.71185796  0.62826288  1
  S  S61  1  0.64905984  0.78814204  0.37173712  1
  S  S62  1  0.85094016  0.21185796  0.87173712  1
  S  S63  1  0.78814204  0.37173712  0.64905984  1
  S  S64  1  0.87173712  0.85094016  0.21185796  1
  S  S65  1  0.37173712  0.64905984  0.78814204  1
  S  S66  1  0.71185796  0.62826288  0.14905984  1
  S  S67  1  0.62826288  0.14905984  0.71185796  1
  S  S68  1  0.21185796  0.87173712  0.85094016  1
  S  S69  1  0.28814204  0.12826288  0.35094016  1
  S  S70  1  0.12826288  0.35094016  0.28814204  1
  S  S71  1  0.35094016  0.28814204  0.12826288  1
  Ca  Ca72  1  0.37359490  0.12640510  0.87359490  1
  Ca  Ca73  1  0.12640510  0.87359490  0.37359490  1
  Ca  Ca74  1  0.87359490  0.37359490  0.12640510  1
  Ca  Ca75  1  0.62640510  0.62640510  0.62640510  1
  Ca  Ca76  1  0.62640510  0.87359490  0.12640510  1
  Ca  Ca77  1  0.87359490  0.12640510  0.62640510  1
  Ca  Ca78  1  0.12640510  0.62640510  0.87359490  1
  Ca  Ca79  1  0.37359490  0.37359490  0.37359490  1
  Ca  Ca80  1  0.00000000  0.50000000  0.50000000  1
  Ca  Ca81  1  0.50000000  0.50000000  0.00000000  1
  Ca  Ca82  1  0.50000000  0.00000000  0.50000000  1
  Ca  Ca83  1  0.00000000  0.00000000  0.00000000  1
