# generated using pymatgen
data_Tl2(SbO3)3
_symmetry_space_group_name_H-M   'P 1'
_cell_length_a   9.59075346
_cell_length_b   9.59075346
_cell_length_c   9.59075346
_cell_angle_alpha   90.00000000
_cell_angle_beta   90.00000000
_cell_angle_gamma   90.00000000
_symmetry_Int_Tables_number   1
_chemical_formula_structural   Tl2(SbO3)3
_chemical_formula_sum   'Tl8 Sb12 O36'
_cell_volume   882.18197819
_cell_formula_units_Z   4
loop_
 _symmetry_equiv_pos_site_id
 _symmetry_equiv_pos_as_xyz
  1  'x, y, z'
loop_
 _atom_site_type_symbol
 _atom_site_label
 _atom_site_symmetry_multiplicity
 _atom_site_fract_x
 _atom_site_fract_y
 _atom_site_fract_z
 _atom_site_occupancy
  O  O0  1  0.03872244  0.75587496  0.41444895  1
  O  O1  1  0.03872244  0.74412504  0.08555105  1
  O  O2  1  0.46127756  0.75587496  0.08555105  1
  O  O3  1  0.74412504  0.08555105  0.03872244  1
  O  O4  1  0.08555105  0.46127756  0.75587496  1
  O  O5  1  0.08555105  0.03872244  0.74412504  1
  O  O6  1  0.75587496  0.41444895  0.03872244  1
  O  O7  1  0.41444895  0.03872244  0.75587496  1
  O  O8  1  0.75587496  0.08555105  0.46127756  1
  O  O9  1  0.74412504  0.41444895  0.46127756  1
  O  O10  1  0.41444895  0.46127756  0.74412504  1
  O  O11  1  0.46127756  0.74412504  0.41444895  1
  O  O12  1  0.96127756  0.24412504  0.58555105  1
  O  O13  1  0.96127756  0.25587496  0.91444895  1
  O  O14  1  0.53872244  0.24412504  0.91444895  1
  O  O15  1  0.25587496  0.91444895  0.96127756  1
  O  O16  1  0.91444895  0.53872244  0.24412504  1
  O  O17  1  0.91444895  0.96127756  0.25587496  1
  O  O18  1  0.24412504  0.58555105  0.96127756  1
  O  O19  1  0.58555105  0.96127756  0.24412504  1
  O  O20  1  0.61310948  0.25000000  0.25000000  1
  O  O21  1  0.25000000  0.61310948  0.25000000  1
  O  O22  1  0.25000000  0.25000000  0.61310948  1
  O  O23  1  0.25000000  0.88689052  0.25000000  1
  O  O24  1  0.25000000  0.25000000  0.88689052  1
  O  O25  1  0.88689052  0.25000000  0.25000000  1
  O  O26  1  0.38689052  0.75000000  0.75000000  1
  O  O27  1  0.75000000  0.38689052  0.75000000  1
  O  O28  1  0.75000000  0.75000000  0.38689052  1
  O  O29  1  0.75000000  0.11310948  0.75000000  1
  O  O30  1  0.75000000  0.75000000  0.11310948  1
  O  O31  1  0.11310948  0.75000000  0.75000000  1
  O  O32  1  0.53872244  0.25587496  0.58555105  1
  O  O33  1  0.58555105  0.53872244  0.25587496  1
  O  O34  1  0.25587496  0.58555105  0.53872244  1
  O  O35  1  0.24412504  0.91444895  0.53872244  1
  Sb  Sb36  1  0.08732585  0.25000000  0.75000000  1
  Sb  Sb37  1  0.25000000  0.75000000  0.08732585  1
  Sb  Sb38  1  0.75000000  0.08732585  0.25000000  1
  Sb  Sb39  1  0.25000000  0.75000000  0.41267415  1
  Sb  Sb40  1  0.75000000  0.41267415  0.25000000  1
  Sb  Sb41  1  0.41267415  0.25000000  0.75000000  1
  Sb  Sb42  1  0.91267415  0.75000000  0.25000000  1
  Sb  Sb43  1  0.75000000  0.25000000  0.91267415  1
  Sb  Sb44  1  0.25000000  0.91267415  0.75000000  1
  Sb  Sb45  1  0.75000000  0.25000000  0.58732585  1
  Sb  Sb46  1  0.25000000  0.58732585  0.75000000  1
  Sb  Sb47  1  0.58732585  0.75000000  0.25000000  1
  Tl  Tl48  1  0.88854716  0.61145284  0.88854716  1
  Tl  Tl49  1  0.61145284  0.88854716  0.88854716  1
  Tl  Tl50  1  0.88854716  0.88854716  0.61145284  1
  Tl  Tl51  1  0.61145284  0.61145284  0.61145284  1
  Tl  Tl52  1  0.11145284  0.38854716  0.11145284  1
  Tl  Tl53  1  0.38854716  0.11145284  0.11145284  1
  Tl  Tl54  1  0.11145284  0.11145284  0.38854716  1
  Tl  Tl55  1  0.38854716  0.38854716  0.38854716  1
