# generated using pymatgen
data_BiTePd
_symmetry_space_group_name_H-M   'P 1'
_cell_length_a   6.75663256
_cell_length_b   6.75663256
_cell_length_c   6.75663256
_cell_angle_alpha   90.00000000
_cell_angle_beta   90.00000000
_cell_angle_gamma   90.00000000
_symmetry_Int_Tables_number   1
_chemical_formula_structural   BiTePd
_chemical_formula_sum   'Bi4 Te4 Pd4'
_cell_volume   308.45435415
_cell_formula_units_Z   4
loop_
 _symmetry_equiv_pos_site_id
 _symmetry_equiv_pos_as_xyz
  1  'x, y, z'
loop_
 _atom_site_type_symbol
 _atom_site_label
 _atom_site_symmetry_multiplicity
 _atom_site_fract_x
 _atom_site_fract_y
 _atom_site_fract_z
 _atom_site_occupancy
  Pd  Pd0  1  0.00482830  0.00482830  0.00482830  1
  Pd  Pd1  1  0.49517170  0.99517170  0.50482830  1
  Pd  Pd2  1  0.50482830  0.49517170  0.99517170  1
  Pd  Pd3  1  0.99517170  0.50482830  0.49517170  1
  Te  Te4  1  0.62702595  0.62702595  0.62702595  1
  Te  Te5  1  0.87297405  0.37297405  0.12702595  1
  Te  Te6  1  0.12702595  0.87297405  0.37297405  1
  Te  Te7  1  0.37297405  0.12702595  0.87297405  1
  Bi  Bi8  1  0.36833878  0.36833878  0.36833878  1
  Bi  Bi9  1  0.13166122  0.63166122  0.86833878  1
  Bi  Bi10  1  0.86833878  0.13166122  0.63166122  1
  Bi  Bi11  1  0.63166122  0.86833878  0.13166122  1
