# generated using pymatgen
data_LiCo(PO3)4
_symmetry_space_group_name_H-M   'P 1'
_cell_length_a   7.00358196
_cell_length_b   12.35439346
_cell_length_c   7.00358223
_cell_angle_alpha   68.76024592
_cell_angle_beta   70.73846347
_cell_angle_gamma   111.23975826
_symmetry_Int_Tables_number   1
_chemical_formula_structural   LiCo(PO3)4
_chemical_formula_sum   'Li2 Co2 P8 O24'
_cell_volume   446.17540306
_cell_formula_units_Z   2
loop_
 _symmetry_equiv_pos_site_id
 _symmetry_equiv_pos_as_xyz
  1  'x, y, z'
loop_
 _atom_site_type_symbol
 _atom_site_label
 _atom_site_symmetry_multiplicity
 _atom_site_fract_x
 _atom_site_fract_y
 _atom_site_fract_z
 _atom_site_occupancy
  Li  Li0  1  0.90801410  0.75000000  0.90801410  1
  Li  Li1  1  0.09198590  0.25000000  0.09198590  1
  Co  Co2  1  0.36601155  0.25000000  0.36601155  1
  Co  Co3  1  0.63398845  0.75000000  0.63398845  1
  P  P4  1  0.67379334  0.47067362  0.75479448  1
  P  P5  1  0.16760327  0.53061808  0.69471100  1
  P  P6  1  0.24520552  0.97067362  0.32620666  1
  P  P7  1  0.32620666  0.52932638  0.24520552  1
  P  P8  1  0.75479448  0.02932638  0.67379334  1
  P  P9  1  0.69471100  0.96938192  0.16760327  1
  P  P10  1  0.83239673  0.46938192  0.30528900  1
  P  P11  1  0.30528900  0.03061808  0.83239673  1
  O  O12  1  0.45950247  0.35080901  0.00429559  1
  O  O13  1  0.36648467  0.09826487  0.32959231  1
  O  O14  1  0.16773498  0.89493598  0.86760750  1
  O  O15  1  0.32959231  0.40173513  0.36648468  1
  O  O16  1  0.30046721  0.59311287  0.40732005  1
  O  O17  1  0.86760750  0.60506402  0.16773498  1
  O  O18  1  0.40732005  0.90688713  0.30046721  1
  O  O19  1  0.72245356  0.85340431  0.29963595  1
  O  O20  1  0.13239250  0.39493598  0.83226502  1
  O  O21  1  0.29963595  0.64659569  0.72245356  1
  O  O22  1  0.91770127  0.52104527  0.75414838  1
  O  O23  1  0.24585162  0.02104527  0.08229873  1
  O  O24  1  0.99570441  0.85080901  0.54049753  1
  O  O25  1  0.83226502  0.10506402  0.13239250  1
  O  O26  1  0.63351533  0.90173513  0.67040769  1
  O  O27  1  0.75414838  0.97895473  0.91770127  1
  O  O28  1  0.27754644  0.14659569  0.70036405  1
  O  O29  1  0.69953279  0.40688713  0.59267995  1
  O  O30  1  0.67040769  0.59826487  0.63351532  1
  O  O31  1  0.70036405  0.35340431  0.27754644  1
  O  O32  1  0.00429559  0.14919099  0.45950247  1
  O  O33  1  0.59267995  0.09311287  0.69953279  1
  O  O34  1  0.08229873  0.47895473  0.24585162  1
  O  O35  1  0.54049753  0.64919099  0.99570441  1
