# generated using pymatgen
data_LiFe(PO3)4
_symmetry_space_group_name_H-M   'P 1'
_cell_length_a   7.36341639
_cell_length_b   8.55853796
_cell_length_c   9.35762119
_cell_angle_alpha   114.57413373
_cell_angle_beta   113.16902083
_cell_angle_gamma   64.52104320
_symmetry_Int_Tables_number   1
_chemical_formula_structural   LiFe(PO3)4
_chemical_formula_sum   'Li2 Fe2 P8 O24'
_cell_volume   467.32029235
_cell_formula_units_Z   2
loop_
 _symmetry_equiv_pos_site_id
 _symmetry_equiv_pos_as_xyz
  1  'x, y, z'
loop_
 _atom_site_type_symbol
 _atom_site_label
 _atom_site_symmetry_multiplicity
 _atom_site_fract_x
 _atom_site_fract_y
 _atom_site_fract_z
 _atom_site_occupancy
  Li  Li0  1  0.30425092  0.74999953  0.74999964  1
  Li  Li1  1  0.69574988  0.24999984  0.25000037  1
  O  O2  1  0.48572222  0.56381906  0.29012289  1
  O  O3  1  0.24058128  0.06381979  0.79012247  1
  O  O4  1  0.75941754  0.93618094  0.20987744  1
  O  O5  1  0.60358510  0.96748888  0.77281900  1
  O  O6  1  0.13991097  0.79138313  0.28856473  1
  O  O7  1  0.01279418  0.92499237  0.79000334  1
  O  O8  1  0.64273034  0.70861686  0.21143583  1
  O  O9  1  0.74592259  0.72892929  0.50998054  1
  O  O10  1  0.33766193  0.69594576  0.53918730  1
  O  O11  1  0.49442090  0.80405330  0.96081341  1
  O  O12  1  0.03512923  0.22892826  0.00998112  1
  O  O13  1  0.96487156  0.77107111  0.99001889  1
  O  O14  1  0.20174554  0.46748919  0.27281972  1
  O  O15  1  0.14778322  0.57500804  0.70999630  1
  O  O16  1  0.86008835  0.20861624  0.71143481  1
  O  O17  1  0.79825525  0.53251018  0.72718029  1
  O  O18  1  0.39641569  0.03251049  0.22718101  1
  O  O19  1  0.51427857  0.43618031  0.70987712  1
  O  O20  1  0.50557989  0.19594607  0.03918660  1
  O  O21  1  0.66233886  0.30405361  0.46081271  1
  O  O22  1  0.25407623  0.27107143  0.49001937  1
  O  O23  1  0.35726995  0.29138386  0.78856454  1
  O  O24  1  0.98720612  0.07500835  0.20999703  1
  O  O25  1  0.85221757  0.42499133  0.29000371  1
  P  P26  1  0.71082598  0.37706841  0.64016608  1
  P  P27  1  0.44772830  0.12293169  0.85983389  1
  P  P28  1  0.96651103  0.89055713  0.16133095  1
  P  P29  1  0.55227249  0.87706768  0.14016612  1
  P  P30  1  0.28917432  0.62293231  0.35983429  1
  P  P31  1  0.69573662  0.60944287  0.33866859  1
  P  P32  1  0.30426220  0.39055786  0.66133132  1
  P  P33  1  0.03348976  0.10944224  0.83866906  1
  Fe  Fe34  1  0.13965389  0.24999984  0.25000056  1
  Fe  Fe35  1  0.86034690  0.74999953  0.74999945  1
