# generated using pymatgen
data_Li4Cr(PO4)2
_symmetry_space_group_name_H-M   'P 1'
_cell_length_a   8.27035482
_cell_length_b   10.40236265
_cell_length_c   8.41367440
_cell_angle_alpha   90.00000000
_cell_angle_beta   105.08178078
_cell_angle_gamma   90.00000000
_symmetry_Int_Tables_number   1
_chemical_formula_structural   Li4Cr(PO4)2
_chemical_formula_sum   'Li16 Cr4 P8 O32'
_cell_volume   698.90643515
_cell_formula_units_Z   4
loop_
 _symmetry_equiv_pos_site_id
 _symmetry_equiv_pos_as_xyz
  1  'x, y, z'
loop_
 _atom_site_type_symbol
 _atom_site_label
 _atom_site_symmetry_multiplicity
 _atom_site_fract_x
 _atom_site_fract_y
 _atom_site_fract_z
 _atom_site_occupancy
  Li  Li0  1  0.72831552  0.07281404  0.47698099  1
  Li  Li1  1  0.09815064  0.66447562  0.59856729  1
  Li  Li2  1  0.85057592  0.64867761  0.84959615  1
  Li  Li3  1  0.40184936  0.16447562  0.40143271  1
  Li  Li4  1  0.34269128  0.66405271  0.34882593  1
  Li  Li5  1  0.14942408  0.35132239  0.15040385  1
  Li  Li6  1  0.77168448  0.57281404  0.52301901  1
  Li  Li7  1  0.15730872  0.16405271  0.65117407  1
  Li  Li8  1  0.35057592  0.85132239  0.84959615  1
  Li  Li9  1  0.90184936  0.33552438  0.40143271  1
  Li  Li10  1  0.84269128  0.83594729  0.34882593  1
  Li  Li11  1  0.22831552  0.42718596  0.47698099  1
  Li  Li12  1  0.27168448  0.92718596  0.52301901  1
  Li  Li13  1  0.64942408  0.14867761  0.15040385  1
  Li  Li14  1  0.65730872  0.33594729  0.65117407  1
  Li  Li15  1  0.59815064  0.83552438  0.59856729  1
  Cr  Cr16  1  0.08787218  0.84395713  0.09733079  1
  Cr  Cr17  1  0.58787218  0.65604287  0.09733079  1
  Cr  Cr18  1  0.91212782  0.15604287  0.90266921  1
  Cr  Cr19  1  0.41212782  0.34395713  0.90266921  1
  P  P20  1  0.46646702  0.91157402  0.23281977  1
  P  P21  1  0.52872576  0.40681741  0.29786196  1
  P  P22  1  0.53353298  0.08842598  0.76718023  1
  P  P23  1  0.47127424  0.59318259  0.70213804  1
  P  P24  1  0.03353298  0.41157402  0.76718023  1
  P  P25  1  0.97127424  0.90681741  0.70213804  1
  P  P26  1  0.02872576  0.09318259  0.29786196  1
  P  P27  1  0.96646702  0.58842598  0.23281977  1
  O  O28  1  0.59189734  0.15140247  0.62299261  1
  O  O29  1  0.40810266  0.84859753  0.37700739  1
  O  O30  1  0.47672130  0.94838710  0.72082192  1
  O  O31  1  0.97672130  0.55161290  0.72082192  1
  O  O32  1  0.93934692  0.83254655  0.85210877  1
  O  O33  1  0.43934692  0.66745345  0.85210877  1
  O  O34  1  0.62664249  0.65125711  0.65681704  1
  O  O35  1  0.17601801  0.40496700  0.93052963  1
  O  O36  1  0.00732349  0.05266701  0.74404947  1
  O  O37  1  0.12664249  0.84874289  0.65681704  1
  O  O38  1  0.99267651  0.94733299  0.25595053  1
  O  O39  1  0.32398199  0.90496700  0.06947037  1
  O  O40  1  0.56065308  0.33254655  0.14789123  1
  O  O41  1  0.82398199  0.59503300  0.06947037  1
  O  O42  1  0.02327870  0.44838710  0.27917808  1
  O  O43  1  0.87335751  0.15125711  0.34318296  1
  O  O44  1  0.61731084  0.83312585  0.20320001  1
  O  O45  1  0.18891604  0.10181362  0.44265058  1
  O  O46  1  0.31108396  0.60181362  0.55734942  1
  O  O47  1  0.52327870  0.05161290  0.27917808  1
  O  O48  1  0.88268916  0.33312585  0.79679999  1
  O  O49  1  0.49267651  0.55266701  0.25595053  1
  O  O50  1  0.68891604  0.39818638  0.44265058  1
  O  O51  1  0.06065308  0.16745345  0.14789123  1
  O  O52  1  0.90810266  0.65140247  0.37700739  1
  O  O53  1  0.37335751  0.34874289  0.34318296  1
  O  O54  1  0.38268916  0.16687415  0.79679999  1
  O  O55  1  0.67601801  0.09503300  0.93052963  1
  O  O56  1  0.81108396  0.89818638  0.55734942  1
  O  O57  1  0.11731084  0.66687415  0.20320001  1
  O  O58  1  0.50732349  0.44733299  0.74404947  1
  O  O59  1  0.09189734  0.34859753  0.62299261  1
