# generated using pymatgen
data_Fe(PO3)4
_symmetry_space_group_name_H-M   'P 1'
_cell_length_a   5.15033781
_cell_length_b   10.47922937
_cell_length_c   10.47922938
_cell_angle_alpha   73.24529947
_cell_angle_beta   95.74102481
_cell_angle_gamma   95.74102486
_symmetry_Int_Tables_number   1
_chemical_formula_structural   Fe(PO3)4
_chemical_formula_sum   'Fe2 P8 O24'
_cell_volume   537.34727714
_cell_formula_units_Z   2
loop_
 _symmetry_equiv_pos_site_id
 _symmetry_equiv_pos_as_xyz
  1  'x, y, z'
loop_
 _atom_site_type_symbol
 _atom_site_label
 _atom_site_symmetry_multiplicity
 _atom_site_fract_x
 _atom_site_fract_y
 _atom_site_fract_z
 _atom_site_occupancy
  O  O0  1  0.40598060  0.15100450  0.15100476  1
  O  O1  1  0.96399782  0.55258544  0.16655528  1
  O  O2  1  0.03600327  0.44741509  0.83344444  1
  O  O3  1  0.03600256  0.83344465  0.44741455  1
  O  O4  1  0.00000086  0.22739316  0.77260742  1
  O  O5  1  0.99999944  0.77260713  0.22739265  1
  O  O6  1  0.23706297  0.66924398  0.93488886  1
  O  O7  1  0.23706197  0.93488867  0.66924391  1
  O  O8  1  0.34762609  0.67302020  0.42041740  1
  O  O9  1  0.34762564  0.42041704  0.67302089  1
  O  O10  1  0.37529912  0.27235288  0.91670642  1
  O  O11  1  0.37529868  0.91670656  0.27235296  1
  O  O12  1  0.59401841  0.84899502  0.84899514  1
  O  O13  1  0.30550848  0.08832597  0.39535918  1
  O  O14  1  0.30550772  0.39535948  0.08832555  1
  O  O15  1  0.76293812  0.33075655  0.06511086  1
  O  O16  1  0.69449261  0.91167456  0.60464054  1
  O  O17  1  0.96399645  0.16655488  0.55258535  1
  O  O18  1  0.62470033  0.08329297  0.72764694  1
  O  O19  1  0.62470197  0.72764765  0.08329329  1
  O  O20  1  0.65237484  0.32697933  0.57958260  1
  O  O21  1  0.65237337  0.57958249  0.32697901  1
  O  O22  1  0.76293704  0.06511086  0.33075599  1
  O  O23  1  0.69449130  0.60464005  0.91167435  1
  P  P24  1  0.47212183  0.29898393  0.05841377  1
  P  P25  1  0.80865354  0.20814998  0.64673408  1
  P  P26  1  0.19134551  0.35326633  0.79184997  1
  P  P27  1  0.19134547  0.79184955  0.35326582  1
  P  P28  1  0.52787926  0.70101661  0.94158595  1
  P  P29  1  0.52787942  0.94158566  0.70101632  1
  P  P30  1  0.47212152  0.05841387  0.29898368  1
  P  P31  1  0.80865365  0.64673420  0.20814965  1
  Fe  Fe32  1  0.00000022  0.49999999  0.99999982  1
  Fe  Fe33  1  0.99999986  0.99999965  0.49999987  1
