# generated using pymatgen
data_Mn2(PO4)3
_symmetry_space_group_name_H-M   'P 1'
_cell_length_a   8.78521565
_cell_length_b   8.78521614
_cell_length_c   8.78521656
_cell_angle_alpha   55.34015233
_cell_angle_beta   55.34015010
_cell_angle_gamma   55.34015146
_symmetry_Int_Tables_number   1
_chemical_formula_structural   Mn2(PO4)3
_chemical_formula_sum   'Mn4 P6 O24'
_cell_volume   427.54034061
_cell_formula_units_Z   2
loop_
 _symmetry_equiv_pos_site_id
 _symmetry_equiv_pos_as_xyz
  1  'x, y, z'
loop_
 _atom_site_type_symbol
 _atom_site_label
 _atom_site_symmetry_multiplicity
 _atom_site_fract_x
 _atom_site_fract_y
 _atom_site_fract_z
 _atom_site_occupancy
  Mn  Mn0  1  0.34975398  0.34975398  0.34975398  1
  Mn  Mn1  1  0.65024602  0.65024602  0.65024602  1
  Mn  Mn2  1  0.14293956  0.14293956  0.14293956  1
  Mn  Mn3  1  0.85706044  0.85706044  0.85706044  1
  P  P4  1  0.74916984  0.46137139  0.03662285  1
  P  P5  1  0.25083016  0.53862861  0.96337715  1
  P  P6  1  0.53862861  0.96337715  0.25083016  1
  P  P7  1  0.46137139  0.03662285  0.74916984  1
  P  P8  1  0.03662285  0.74916984  0.46137139  1
  P  P9  1  0.96337715  0.25083016  0.53862861  1
  O  O10  1  0.47480673  0.83291697  0.78917336  1
  O  O11  1  0.88572037  0.25325632  0.13120151  1
  O  O12  1  0.83291697  0.78917336  0.47480673  1
  O  O13  1  0.20028790  0.38101459  0.99113852  1
  O  O14  1  0.38101459  0.99113852  0.20028790  1
  O  O15  1  0.25325632  0.13120151  0.88572037  1
  O  O16  1  0.52519327  0.16708303  0.21082664  1
  O  O17  1  0.13120151  0.88572037  0.25325632  1
  O  O18  1  0.74674368  0.86879849  0.11427963  1
  O  O19  1  0.78917336  0.47480673  0.83291697  1
  O  O20  1  0.11427963  0.74674368  0.86879849  1
  O  O21  1  0.46911259  0.50828168  0.82292601  1
  O  O22  1  0.16708303  0.21082664  0.52519327  1
  O  O23  1  0.53088741  0.49171832  0.17707399  1
  O  O24  1  0.49171832  0.17707399  0.53088741  1
  O  O25  1  0.79971210  0.61898541  0.00886148  1
  O  O26  1  0.50828168  0.82292601  0.46911259  1
  O  O27  1  0.21082664  0.52519327  0.16708303  1
  O  O28  1  0.61898541  0.00886148  0.79971210  1
  O  O29  1  0.86879849  0.11427963  0.74674368  1
  O  O30  1  0.82292601  0.46911259  0.50828168  1
  O  O31  1  0.17707399  0.53088741  0.49171832  1
  O  O32  1  0.00886148  0.79971210  0.61898541  1
  O  O33  1  0.99113852  0.20028790  0.38101459  1
