# generated using pymatgen
data_LiVP2O7
_symmetry_space_group_name_H-M   'P 1'
_cell_length_a   6.85454300
_cell_length_b   8.14505194
_cell_length_c   9.58186530
_cell_angle_alpha   90.00000000
_cell_angle_beta   109.11228008
_cell_angle_gamma   90.00000000
_symmetry_Int_Tables_number   1
_chemical_formula_structural   LiVP2O7
_chemical_formula_sum   'Li4 V4 P8 O28'
_cell_volume   505.47363755
_cell_formula_units_Z   4
loop_
 _symmetry_equiv_pos_site_id
 _symmetry_equiv_pos_as_xyz
  1  'x, y, z'
loop_
 _atom_site_type_symbol
 _atom_site_label
 _atom_site_symmetry_multiplicity
 _atom_site_fract_x
 _atom_site_fract_y
 _atom_site_fract_z
 _atom_site_occupancy
  Li  Li0  1  0.79020791  0.12925550  0.46185765  1
  Li  Li1  1  0.20979209  0.62925550  0.03814235  1
  Li  Li2  1  0.79020791  0.37074450  0.96185765  1
  Li  Li3  1  0.20979209  0.87074450  0.53814235  1
  V  V4  1  0.28271332  0.27408223  0.49336699  1
  V  V5  1  0.28271332  0.22591777  0.99336699  1
  V  V6  1  0.71728668  0.72591777  0.50663301  1
  V  V7  1  0.71728668  0.77408223  0.00663301  1
  P  P8  1  0.46527722  0.91767971  0.20565914  1
  P  P9  1  0.05671624  0.46178845  0.70594577  1
  P  P10  1  0.53472278  0.41767971  0.29434086  1
  P  P11  1  0.46527722  0.58232029  0.70565914  1
  P  P12  1  0.53472278  0.08232029  0.79434086  1
  P  P13  1  0.94328376  0.53821155  0.29405423  1
  P  P14  1  0.94328376  0.96178845  0.79405423  1
  P  P15  1  0.05671624  0.03821155  0.20594577  1
  O  O16  1  0.93381449  0.82040797  0.89598250  1
  O  O17  1  0.48495730  0.76902323  0.11296934  1
  O  O18  1  0.14407980  0.44077544  0.34678723  1
  O  O19  1  0.76925119  0.39985459  0.28955357  1
  O  O20  1  0.90412789  0.58956715  0.13112398  1
  O  O21  1  0.85592020  0.94077544  0.15321277  1
  O  O22  1  0.09587211  0.08956715  0.36887602  1
  O  O23  1  0.47858578  0.08178398  0.13286744  1
  O  O24  1  0.09587211  0.41043285  0.86887602  1
  O  O25  1  0.06618551  0.17959203  0.10401750  1
  O  O26  1  0.06618551  0.32040797  0.60401750  1
  O  O27  1  0.51504270  0.23097677  0.88703066  1
  O  O28  1  0.76925119  0.10014541  0.78955357  1
  O  O29  1  0.14407980  0.05922456  0.84678723  1
  O  O30  1  0.52141422  0.58178398  0.36713256  1
  O  O31  1  0.23074881  0.89985459  0.21044643  1
  O  O32  1  0.48495730  0.73097677  0.61296934  1
  O  O33  1  0.23074881  0.60014541  0.71044643  1
  O  O34  1  0.60746128  0.91936630  0.36728186  1
  O  O35  1  0.47858578  0.41821602  0.63286744  1
  O  O36  1  0.39253872  0.41936630  0.13271814  1
  O  O37  1  0.60746128  0.58063370  0.86728186  1
  O  O38  1  0.39253872  0.08063370  0.63271814  1
  O  O39  1  0.51504270  0.26902323  0.38703066  1
  O  O40  1  0.90412789  0.91043285  0.63112398  1
  O  O41  1  0.93381449  0.67959203  0.39598250  1
  O  O42  1  0.85592020  0.55922456  0.65321277  1
  O  O43  1  0.52141422  0.91821602  0.86713256  1
