# generated using pymatgen
data_Li6Fe9(PO4)8
_symmetry_space_group_name_H-M   'P 1'
_cell_length_a   9.12112707
_cell_length_b   8.94340552
_cell_length_c   8.92121630
_cell_angle_alpha   101.83192030
_cell_angle_beta   100.33698677
_cell_angle_gamma   111.03290948
_symmetry_Int_Tables_number   1
_chemical_formula_structural   Li6Fe9(PO4)8
_chemical_formula_sum   'Li6 Fe9 P8 O32'
_cell_volume   638.81140623
_cell_formula_units_Z   1
loop_
 _symmetry_equiv_pos_site_id
 _symmetry_equiv_pos_as_xyz
  1  'x, y, z'
loop_
 _atom_site_type_symbol
 _atom_site_label
 _atom_site_symmetry_multiplicity
 _atom_site_fract_x
 _atom_site_fract_y
 _atom_site_fract_z
 _atom_site_occupancy
  Li  Li0  1  0.00857829  0.12137885  0.36550430  1
  Li  Li1  1  0.99142194  0.87862046  0.63449588  1
  Li  Li2  1  0.72900230  0.22965992  0.96448918  1
  Li  Li3  1  0.64287104  0.68615933  0.68088483  1
  Li  Li4  1  0.35712806  0.31383997  0.31911516  1
  Li  Li5  1  0.27099842  0.77034064  0.03551135  1
  O  O6  1  0.32889543  0.93557465  0.89857668  1
  O  O7  1  0.65583001  0.12872202  0.71734023  1
  O  O8  1  0.88695934  0.04097102  0.68111642  1
  O  O9  1  0.59890008  0.82033639  0.86001528  1
  O  O10  1  0.74238635  0.38452535  0.38599493  1
  O  O11  1  0.87981268  0.69153816  0.42719497  1
  O  O12  1  0.72591653  0.07961800  0.44472975  1
  O  O13  1  0.67110417  0.06442591  0.10142365  1
  O  O14  1  0.96344277  0.50842959  0.72260711  1
  O  O15  1  0.11304088  0.95902828  0.31888263  1
  O  O16  1  0.02435820  0.68044215  0.00847721  1
  O  O17  1  0.03655795  0.49157096  0.27739229  1
  O  O18  1  0.90161695  0.77101618  0.78885832  1
  O  O19  1  0.27408258  0.92038130  0.55527023  1
  O  O20  1  0.12018642  0.30846115  0.57280502  1
  O  O21  1  0.25761438  0.61547521  0.61400559  1
  O  O22  1  0.82963297  0.88255809  0.10367371  1
  O  O23  1  0.34416910  0.87127728  0.28265976  1
  O  O24  1  0.17036663  0.11744247  0.89632662  1
  O  O25  1  0.29879095  0.48340845  0.84209655  1
  O  O26  1  0.27301235  0.49503326  0.16189708  1
  O  O27  1  0.97564140  0.31955841  0.99152312  1
  O  O28  1  0.43760026  0.45741322  0.62218472  1
  O  O29  1  0.58742175  0.84054410  0.55280259  1
  O  O30  1  0.46499082  0.24249607  0.88980313  1
  O  O31  1  0.53500878  0.75750448  0.11019720  1
  O  O32  1  0.41257897  0.15945645  0.44719681  1
  O  O33  1  0.56239884  0.54258608  0.37781414  1
  O  O34  1  0.40109953  0.17966417  0.13998505  1
  O  O35  1  0.72698788  0.50496605  0.83810310  1
  O  O36  1  0.70120928  0.51659086  0.15790363  1
  O  O37  1  0.09838265  0.22898437  0.21114201  1
  P  P38  1  0.28298861  0.97252787  0.40258855  1
  P  P39  1  0.09600412  0.38703747  0.16276801  1
  P  P40  1  0.28415434  0.46786484  0.66056404  1
  P  P41  1  0.34319542  0.11654058  0.95576394  1
  P  P42  1  0.65680531  0.88345998  0.04423658  1
  P  P43  1  0.71584589  0.53213447  0.33943614  1
  P  P44  1  0.90399499  0.61296182  0.83723085  1
  P  P45  1  0.71701099  0.02747268  0.59741178  1
  Fe  Fe46  1  0.93960057  0.71442685  0.20152959  1
  Fe  Fe47  1  0.57164454  0.13004113  0.28826148  1
  Fe  Fe48  1  0.54272809  0.29256258  0.67992967  1
  Fe  Fe49  1  0.50000019  0.49999990  0.99999948  1
  Fe  Fe50  1  0.45727102  0.70743672  0.32007032  1
  Fe  Fe51  1  0.00000000  0.00000000  0.00000000  1
  Fe  Fe52  1  0.42835507  0.86995943  0.71173885  1
  Fe  Fe53  1  0.06039853  0.28557245  0.79847040  1
  Fe  Fe54  1  0.00000059  0.50000045  0.49999988  1
