# generated using pymatgen
data_Mo3(PO4)4
_symmetry_space_group_name_H-M   'P 1'
_cell_length_a   14.10577572
_cell_length_b   5.15205778
_cell_length_c   8.79016864
_cell_angle_alpha   90.00000000
_cell_angle_beta   95.35210798
_cell_angle_gamma   90.00000000
_symmetry_Int_Tables_number   1
_chemical_formula_structural   Mo3(PO4)4
_chemical_formula_sum   'Mo6 P8 O32'
_cell_volume   636.02965442
_cell_formula_units_Z   2
loop_
 _symmetry_equiv_pos_site_id
 _symmetry_equiv_pos_as_xyz
  1  'x, y, z'
loop_
 _atom_site_type_symbol
 _atom_site_label
 _atom_site_symmetry_multiplicity
 _atom_site_fract_x
 _atom_site_fract_y
 _atom_site_fract_z
 _atom_site_occupancy
  O  O0  1  0.60617903  0.75402928  0.60802651  1
  O  O1  1  0.96894177  0.56189253  0.71824921  1
  O  O2  1  0.93826520  0.83630583  0.43184572  1
  O  O3  1  0.83724028  0.99613805  0.20686747  1
  O  O4  1  0.89382133  0.25402992  0.89197398  1
  O  O5  1  0.86606942  0.29194806  0.44126603  1
  O  O6  1  0.03105799  0.43810618  0.28175028  1
  O  O7  1  0.06173456  0.16369483  0.56815377  1
  O  O8  1  0.16275948  0.00386066  0.79313317  1
  O  O9  1  0.10617843  0.74597073  0.10802665  1
  O  O10  1  0.13393034  0.70805259  0.55873346  1
  O  O11  1  0.12218207  0.26372195  0.07040255  1
  O  O12  1  0.26218066  0.59945847  0.95044364  1
  O  O13  1  0.21027904  0.48595127  0.29986236  1
  O  O14  1  0.23781928  0.09945717  0.54955658  1
  O  O15  1  0.28972156  0.98595063  0.20013750  1
  O  O16  1  0.36606960  0.20805324  0.94126676  1
  O  O17  1  0.33724046  0.50386196  0.70686706  1
  O  O18  1  0.37781853  0.76372326  0.42959730  1
  O  O19  1  0.73781910  0.40054219  0.04955699  1
  O  O20  1  0.39382145  0.24597138  0.39197309  1
  O  O21  1  0.46894189  0.93810748  0.21824946  1
  O  O22  1  0.53105787  0.06189318  0.78175003  1
  O  O23  1  0.87781841  0.73627676  0.92959705  1
  O  O24  1  0.56173438  0.33630648  0.06815419  1
  O  O25  1  0.62218195  0.23627740  0.57040344  1
  O  O26  1  0.66275930  0.49613869  0.29313244  1
  O  O27  1  0.63393016  0.79194742  0.05873387  1
  O  O28  1  0.71027892  0.01405003  0.79986210  1
  O  O29  1  0.76218048  0.90054154  0.45044291  1
  O  O30  1  0.78972144  0.51404939  0.70013724  1
  O  O31  1  0.43826538  0.66369418  0.93184531  1
  P  P32  1  0.14938242  0.99392118  0.61585753  1
  P  P33  1  0.35061752  0.49392054  0.88414269  1
  P  P34  1  0.38184335  0.97412005  0.30999347  1
  P  P35  1  0.61815642  0.02587866  0.69000602  1
  P  P36  1  0.64938224  0.50608012  0.11585680  1
  P  P37  1  0.85061734  0.00607948  0.38414310  1
  P  P38  1  0.11815653  0.47412069  0.19000627  1
  P  P39  1  0.88184394  0.52587996  0.80999447  1
  Mo  Mo40  1  0.79790916  0.05024626  0.98826941  1
  Mo  Mo41  1  0.70209048  0.55024562  0.51173096  1
  Mo  Mo42  1  0.50000021  0.00000000  0.00000013  1
  Mo  Mo43  1  0.29790928  0.44975504  0.48826853  1
  Mo  Mo44  1  0.20209060  0.94975440  0.01173122  1
  Mo  Mo45  1  0.99999967  0.49999936  0.49999961  1
