# generated using pymatgen
data_Fe3(SiO4)2
_symmetry_space_group_name_H-M   'P 1'
_cell_length_a   4.89060055
_cell_length_b   5.88488906
_cell_length_c   10.32220264
_cell_angle_alpha   91.08825480
_cell_angle_beta   90.00000000
_cell_angle_gamma   90.00000000
_symmetry_Int_Tables_number   1
_chemical_formula_structural   Fe3(SiO4)2
_chemical_formula_sum   'Fe6 Si4 O16'
_cell_volume   297.02603004
_cell_formula_units_Z   2
loop_
 _symmetry_equiv_pos_site_id
 _symmetry_equiv_pos_as_xyz
  1  'x, y, z'
loop_
 _atom_site_type_symbol
 _atom_site_label
 _atom_site_symmetry_multiplicity
 _atom_site_fract_x
 _atom_site_fract_y
 _atom_site_fract_z
 _atom_site_occupancy
  O  O0  1  0.72452042  0.96863253  0.16961377  1
  O  O1  1  0.22452160  0.03136707  0.33038644  1
  O  O2  1  0.27547927  0.03136775  0.83038675  1
  O  O3  1  0.77547809  0.96863153  0.66961407  1
  O  O4  1  0.19676690  0.45558668  0.31984232  1
  O  O5  1  0.69676572  0.54441291  0.18015691  1
  O  O6  1  0.80323280  0.54441360  0.68015722  1
  O  O7  1  0.30323398  0.45558736  0.81984264  1
  O  O8  1  0.72582810  0.23513827  0.39216131  1
  O  O9  1  0.22582928  0.76486132  0.10783793  1
  O  O10  1  0.66685866  0.75984129  0.94610923  1
  O  O11  1  0.16685779  0.24015967  0.55389063  1
  O  O12  1  0.33314103  0.24015898  0.05389032  1
  O  O13  1  0.27417160  0.76486200  0.60783824  1
  O  O14  1  0.77417042  0.23513727  0.89216160  1
  O  O15  1  0.83314191  0.75984061  0.44610892  1
  Si  Si16  1  0.55739218  0.75084389  0.09592898  1
  Si  Si17  1  0.05739130  0.24915738  0.40407027  1
  Si  Si18  1  0.44260957  0.24915639  0.90407057  1
  Si  Si19  1  0.94260839  0.75084289  0.59592927  1
  Fe  Fe20  1  0.00483238  0.74022675  0.27259536  1
  Fe  Fe21  1  0.50483325  0.25977284  0.22740485  1
  Fe  Fe22  1  0.49516644  0.74022744  0.77259567  1
  Fe  Fe23  1  0.99516732  0.25977352  0.72740419  1
  Fe  Fe24  1  0.50000088  0.00000068  0.50000031  1
  Fe  Fe25  1  0.00000000  0.00000000  0.00000000  1
