# generated using pymatgen
data_Li6Mn9(PO4)8
_symmetry_space_group_name_H-M   'P 1'
_cell_length_a   9.32343883
_cell_length_b   8.91727247
_cell_length_c   9.14553512
_cell_angle_alpha   101.26728202
_cell_angle_beta   101.42820876
_cell_angle_gamma   111.29875469
_symmetry_Int_Tables_number   1
_chemical_formula_structural   Li6Mn9(PO4)8
_chemical_formula_sum   'Li6 Mn9 P8 O32'
_cell_volume   663.95453231
_cell_formula_units_Z   1
loop_
 _symmetry_equiv_pos_site_id
 _symmetry_equiv_pos_as_xyz
  1  'x, y, z'
loop_
 _atom_site_type_symbol
 _atom_site_label
 _atom_site_symmetry_multiplicity
 _atom_site_fract_x
 _atom_site_fract_y
 _atom_site_fract_z
 _atom_site_occupancy
  Li  Li0  1  0.02850330  0.12303392  0.36185905  1
  Li  Li1  1  0.26708416  0.76770112  0.03656466  1
  Li  Li2  1  0.35907427  0.31441716  0.30987835  1
  Li  Li3  1  0.64092578  0.68558234  0.69012126  1
  Li  Li4  1  0.73291640  0.23229964  0.96343528  1
  Li  Li5  1  0.97149675  0.87696558  0.63814056  1
  O  O6  1  0.32907301  0.93390161  0.90065064  1
  O  O7  1  0.97096564  0.30835331  -0.00064725  1
  O  O8  1  0.96120543  0.49768272  0.72837621  1
  O  O9  1  0.67092704  0.06609790  0.09935007  1
  O  O10  1  0.71144316  0.06754953  0.44987277  1
  O  O11  1  0.88065113  0.69180511  0.43497081  1
  O  O12  1  0.74136788  0.38394585  0.38471423  1
  O  O13  1  0.65508584  0.12568212  0.71929637  1
  O  O14  1  0.83379556  0.89163197  0.10902895  1
  O  O15  1  0.11735549  0.95535472  0.31336326  1
  O  O16  1  0.02903331  0.69164618  1.00064775  1
  O  O17  1  0.03879462  0.50231678  0.27162339  1
  O  O18  1  0.88264396  0.04464604  0.68663647  1
  O  O19  1  0.28855579  0.93244997  0.55012662  1
  O  O20  1  0.11934892  0.30819439  0.56502880  1
  O  O21  1  0.25863217  0.61605365  0.61528538  1
  O  O22  1  0.34491311  0.87431737  0.28070413  1
  O  O23  1  0.16620339  0.10836753  0.89097045  1
  O  O24  1  0.11532456  0.24873908  0.22601654  1
  O  O25  1  0.29255672  0.47832450  0.83547963  1
  O  O26  1  0.26527893  0.50733845  0.15186983  1
  O  O27  1  0.88467599  0.75126167  0.77398341  1
  O  O28  1  0.43600405  0.45810314  0.63010192  1
  O  O29  1  0.58743147  0.83360790  0.56461821  1
  O  O30  1  0.45609593  0.23838858  0.88505959  1
  O  O31  1  0.54390411  0.76161092  0.11494002  1
  O  O32  1  0.41256909  0.16639285  0.43538173  1
  O  O33  1  0.56399651  0.54189761  0.36989912  1
  O  O34  1  0.39729035  0.18337152  0.13166062  1
  O  O35  1  0.73472002  0.49266104  0.84813067  1
  O  O36  1  0.70744222  0.52167499  0.16451977  1
  O  O37  1  0.60270970  0.81662798  0.86833898  1
  P  P38  1  0.71130104  0.02135000  0.60248340  1
  P  P39  1  0.90120555  0.60553420  0.83565807  1
  P  P40  1  0.71832906  0.53524057  0.34076018  1
  P  P41  1  0.66239061  0.88644770  0.04798863  1
  P  P42  1  0.33760994  0.11355306  0.95201132  1
  P  P43  1  0.28167099  0.46475893  0.65923942  1
  P  P44  1  0.09879340  0.39446530  0.16434132  1
  P  P45  1  0.28869790  0.97864950  0.39751599  1
  Mn  Mn46  1  0.99999995  0.50000024  0.50000017  1
  Mn  Mn47  1  0.04642890  0.30124961  0.79669104  1
  Mn  Mn48  1  0.42751209  0.87096293  0.71842915  1
  Mn  Mn49  1  0.00000000  0.00000000  0.00000000  1
  Mn  Mn50  1  0.46633602  0.71755579  0.32060645  1
  Mn  Mn51  1  0.50000006  0.49999977  0.00000044  1
  Mn  Mn52  1  0.53366344  0.28244497  0.67939438  1
  Mn  Mn53  1  0.57248846  0.12903783  0.28157079  1
  Mn  Mn54  1  0.95357005  0.69874988  0.20330836  1
