# generated using pymatgen
data_CuTeO3
_symmetry_space_group_name_H-M   'P 1'
_cell_length_a   6.01691350
_cell_length_b   7.67781926
_cell_length_c   12.88292390
_cell_angle_alpha   90.00000000
_cell_angle_beta   90.00000000
_cell_angle_gamma   90.00000000
_symmetry_Int_Tables_number   1
_chemical_formula_structural   CuTeO3
_chemical_formula_sum   'Cu8 Te8 O24'
_cell_volume   595.14952845
_cell_formula_units_Z   8
loop_
 _symmetry_equiv_pos_site_id
 _symmetry_equiv_pos_as_xyz
  1  'x, y, z'
loop_
 _atom_site_type_symbol
 _atom_site_label
 _atom_site_symmetry_multiplicity
 _atom_site_fract_x
 _atom_site_fract_y
 _atom_site_fract_z
 _atom_site_occupancy
  O  O0  1  0.94339862  0.25000000  0.01005333  1
  O  O1  1  0.44339862  0.75000000  0.48994667  1
  O  O2  1  0.05660138  0.75000000  0.98994667  1
  O  O3  1  0.55660138  0.25000000  0.51005333  1
  O  O4  1  0.57578906  0.25000000  0.18099408  1
  O  O5  1  0.07578906  0.75000000  0.31900592  1
  O  O6  1  0.42421094  0.75000000  0.81900592  1
  O  O7  1  0.92421094  0.25000000  0.68099408  1
  O  O8  1  0.09722863  0.04695970  0.83196650  1
  O  O9  1  0.59722863  0.95304030  0.66803350  1
  O  O10  1  0.90277137  0.54695970  0.16803350  1
  O  O11  1  0.40277137  0.45304030  0.33196650  1
  O  O12  1  0.90277137  0.95304030  0.16803350  1
  O  O13  1  0.40277137  0.04695970  0.33196650  1
  O  O14  1  0.09722863  0.45304030  0.83196650  1
  O  O15  1  0.59722863  0.54695970  0.66803350  1
  O  O16  1  0.65404244  0.56877148  0.95839514  1
  O  O17  1  0.15404244  0.43122852  0.54160486  1
  O  O18  1  0.34595756  0.06877148  0.04160486  1
  O  O19  1  0.84595756  0.93122852  0.45839514  1
  O  O20  1  0.34595756  0.43122852  0.04160486  1
  O  O21  1  0.84595756  0.56877148  0.45839514  1
  O  O22  1  0.65404244  0.93122852  0.95839514  1
  O  O23  1  0.15404244  0.06877148  0.54160486  1
  Cu  Cu24  1  0.35001257  0.95537457  0.90473235  1
  Cu  Cu25  1  0.85001257  0.04462543  0.59526765  1
  Cu  Cu26  1  0.64998743  0.45537457  0.09526765  1
  Cu  Cu27  1  0.14998743  0.54462543  0.40473235  1
  Cu  Cu28  1  0.64998743  0.04462543  0.09526765  1
  Cu  Cu29  1  0.14998743  0.95537457  0.40473235  1
  Cu  Cu30  1  0.35001257  0.54462543  0.90473235  1
  Cu  Cu31  1  0.85001257  0.45537457  0.59526765  1
  Te  Te32  1  0.58600361  0.25000000  0.34402650  1
  Te  Te33  1  0.08600361  0.75000000  0.15597350  1
  Te  Te34  1  0.41399639  0.75000000  0.65597350  1
  Te  Te35  1  0.91399639  0.25000000  0.84402650  1
  Te  Te36  1  0.67918286  0.75000000  0.38877543  1
  Te  Te37  1  0.17918286  0.25000000  0.11122457  1
  Te  Te38  1  0.32081714  0.25000000  0.61122457  1
  Te  Te39  1  0.82081714  0.75000000  0.88877543  1
