# generated using pymatgen
data_Ag3SBr
_symmetry_space_group_name_H-M   'P 1'
_cell_length_a   9.92773552
_cell_length_b   6.97888955
_cell_length_c   6.90592272
_cell_angle_alpha   59.25294732
_cell_angle_beta   44.04581177
_cell_angle_gamma   44.66174167
_symmetry_Int_Tables_number   1
_chemical_formula_structural   Ag3SBr
_chemical_formula_sum   'Ag6 S2 Br2'
_cell_volume   233.82700141
_cell_formula_units_Z   2
loop_
 _symmetry_equiv_pos_site_id
 _symmetry_equiv_pos_as_xyz
  1  'x, y, z'
loop_
 _atom_site_type_symbol
 _atom_site_label
 _atom_site_symmetry_multiplicity
 _atom_site_fract_x
 _atom_site_fract_y
 _atom_site_fract_z
 _atom_site_occupancy
  Ag  Ag0  1  0.06414727  0.50000000  0.00000000  1
  Ag  Ag1  1  0.06066998  0.37545844  0.50000000  1
  Ag  Ag2  1  0.56414727  0.50000000  0.00000000  1
  Ag  Ag3  1  0.43612842  0.62454156  0.50000000  1
  Ag  Ag4  1  0.55466994  0.00000000  0.50000000  1
  Ag  Ag5  1  0.93620946  0.00000000  0.50000000  1
  Br  Br6  1  0.00381112  0.00000000  0.00003976  1
  Br  Br7  1  0.50385088  0.00000000  0.99996024  1
  S  S8  1  0.24584629  0.49967308  0.50000000  1
  S  S9  1  0.74551938  0.50032692  0.50000000  1
