# generated using pymatgen
data_Li3V2P5O16
_symmetry_space_group_name_H-M   'P 1'
_cell_length_a   18.43466342
_cell_length_b   7.04668998
_cell_length_c   5.07954560
_cell_angle_alpha   90.00000000
_cell_angle_beta   93.22307124
_cell_angle_gamma   90.00000000
_symmetry_Int_Tables_number   1
_chemical_formula_structural   Li3V2P5O16
_chemical_formula_sum   'Li6 V4 P10 O32'
_cell_volume   658.80628300
_cell_formula_units_Z   2
loop_
 _symmetry_equiv_pos_site_id
 _symmetry_equiv_pos_as_xyz
  1  'x, y, z'
loop_
 _atom_site_type_symbol
 _atom_site_label
 _atom_site_symmetry_multiplicity
 _atom_site_fract_x
 _atom_site_fract_y
 _atom_site_fract_z
 _atom_site_occupancy
  Li  Li0  1  0.03369474  0.32143438  0.26114457  1
  Li  Li1  1  0.25000012  0.98391474  0.49999995  1
  Li  Li2  1  0.46630496  0.32143438  0.73885524  1
  Li  Li3  1  0.53369501  0.67856616  0.26114470  1
  Li  Li4  1  0.74999985  0.01608580  0.49999999  1
  Li  Li5  1  0.96630523  0.67856616  0.73885538  1
  O  O6  1  0.39262872  0.54645890  0.55050867  1
  O  O7  1  0.06949056  0.62083062  0.91745170  1
  O  O8  1  0.07119757  0.08514360  0.05676048  1
  O  O9  1  0.10737152  0.54645890  0.44949123  1
  O  O10  1  0.13056223  0.98820395  0.62047336  1
  O  O11  1  0.14277907  0.31637554  0.81414856  1
  O  O12  1  0.20422819  0.61475107  0.81004636  1
  O  O13  1  0.20299720  0.86503444  0.17873067  1
  O  O14  1  0.29700305  0.86503444  0.82126923  1
  O  O15  1  0.29577206  0.61475107  0.18995354  1
  O  O16  1  0.35722063  0.31637554  0.18585124  1
  O  O17  1  0.36943747  0.98820395  0.37952644  1
  O  O18  1  0.02012039  0.20903842  0.61438379  1
  O  O19  1  0.42880267  0.08514360  0.94323942  1
  O  O20  1  0.43050968  0.62083062  0.08254820  1
  O  O21  1  0.47987986  0.20903842  0.38561611  1
  O  O22  1  0.52012011  0.79096070  0.61438383  1
  O  O23  1  0.56949029  0.37916850  0.91745174  1
  O  O24  1  0.57119730  0.91485551  0.05676052  1
  O  O25  1  0.60737125  0.45354021  0.44949127  1
  O  O26  1  0.97987958  0.79096070  0.38561615  1
  O  O27  1  0.64277934  0.68362500  0.81414870  1
  O  O28  1  0.70422791  0.38524948  0.81004640  1
  O  O29  1  0.70299692  0.13496610  0.17873071  1
  O  O30  1  0.79700277  0.13496610  0.82126927  1
  O  O31  1  0.79577178  0.38524948  0.18995358  1
  O  O32  1  0.85722090  0.68362500  0.18585138  1
  O  O33  1  0.86943774  0.01179516  0.37952658  1
  O  O34  1  0.89262845  0.45354021  0.55050871  1
  O  O35  1  0.92880294  0.91485551  0.94323955  1
  O  O36  1  0.93050941  0.37916850  0.08254824  1
  O  O37  1  0.63056250  0.01179516  0.62047350  1
  P  P38  1  0.08720388  0.13203231  0.77266816  1
  P  P39  1  0.12437776  0.53124176  0.74313362  1
  P  P40  1  0.24999986  0.75529079  0.00000002  1
  P  P41  1  0.37562248  0.53124176  0.25686628  1
  P  P42  1  0.41279582  0.13203231  0.22733164  1
  P  P43  1  0.58720415  0.86796680  0.77266830  1
  P  P44  1  0.62437749  0.46875878  0.74313366  1
  P  P45  1  0.91279609  0.86796680  0.22733178  1
  P  P46  1  0.87562221  0.46875878  0.25686632  1
  P  P47  1  0.75000013  0.24470832  0.00000016  1
  V  V48  1  0.09013773  0.82278498  0.26622223  1
  V  V49  1  0.40986252  0.82278498  0.73377965  1
  V  V50  1  0.59013745  0.17721556  0.26622228  1
  V  V51  1  0.90986224  0.17721556  0.73377771  1
