# generated using pymatgen
data_BaLaTiCrO6
_symmetry_space_group_name_H-M   'P 1'
_cell_length_a   3.98203093
_cell_length_b   31.86342238
_cell_length_c   5.65537963
_cell_angle_alpha   44.76894371
_cell_angle_beta   90.00000000
_cell_angle_gamma   90.00000000
_symmetry_Int_Tables_number   1
_chemical_formula_structural   BaLaTiCrO6
_chemical_formula_sum   'Ba4 La4 Ti4 Cr4 O24'
_cell_volume   505.34195631
_cell_formula_units_Z   4
loop_
 _symmetry_equiv_pos_site_id
 _symmetry_equiv_pos_as_xyz
  1  'x, y, z'
loop_
 _atom_site_type_symbol
 _atom_site_label
 _atom_site_symmetry_multiplicity
 _atom_site_fract_x
 _atom_site_fract_y
 _atom_site_fract_z
 _atom_site_occupancy
  Ba  Ba0  1  0.00000000  0.99637371  0.01450514  1
  Ba  Ba1  1  0.00000000  0.12377132  0.00491473  1
  Ba  Ba2  1  0.00000000  0.25122868  0.99508527  1
  Ba  Ba3  1  0.00000000  0.37862629  0.98549486  1
  Cr  Cr4  1  0.50000000  0.62633262  0.49466953  1
  Cr  Cr5  1  0.50000000  0.50246532  0.49013872  1
  Cr  Cr6  1  0.50000000  0.74866738  0.50533047  1
  Cr  Cr7  1  0.50000000  0.87253468  0.50986128  1
  La  La8  1  0.00000000  0.50632607  0.97469571  1
  La  La9  1  0.00000000  0.75118044  0.99527825  1
  La  La10  1  0.00000000  0.62381956  0.00472175  1
  La  La11  1  0.00000000  0.86867393  0.02530429  1
  O  O12  1  0.50000000  0.05996199  0.51100613  1
  O  O13  1  0.50000000  0.18750000  0.50000000  1
  O  O14  1  0.50000000  0.31503801  0.48899387  1
  O  O15  1  0.50000000  0.56421682  0.49352595  1
  O  O16  1  0.50000000  0.44276282  0.46479055  1
  O  O17  1  0.50000000  0.68750000  0.50000000  1
  O  O18  1  0.50000000  0.81078318  0.50647405  1
  O  O19  1  0.50000000  0.93223718  0.53520945  1
  O  O20  1  0.50000000  0.05996199  0.00929793  1
  O  O21  1  0.50000000  0.18750000  0.00000000  1
  O  O22  1  0.50000000  0.31503801  0.99070207  1
  O  O23  1  0.50000000  0.44276282  -0.00689315  1
  O  O24  1  0.50000000  0.56421682  -0.00726049  1
  O  O25  1  0.50000000  0.81078318  1.00726049  1
  O  O26  1  0.50000000  0.68750000  0.00000000  1
  O  O27  1  0.50000000  0.93223718  1.00689315  1
  O  O28  1  0.00000000  0.12373057  0.50507772  1
  O  O29  1  0.00000000  0.25126943  0.49492228  1
  O  O30  1  0.00000000  0.38145824  0.47416705  1
  O  O31  1  0.00000000  0.50988734  0.46045064  1
  O  O32  1  0.00000000  0.62290414  0.50838343  1
  O  O33  1  0.00000000  0.75209586  0.49161657  1
  O  O34  1  0.00000000  0.86511266  0.53954936  1
  O  O35  1  0.00000000  0.99354176  0.52583295  1
  Ti  Ti36  1  0.50000000  0.12365569  0.50537726  1
  Ti  Ti37  1  0.50000000  0.37955716  0.48177134  1
  Ti  Ti38  1  0.50000000  0.25134431  0.49462274  1
  Ti  Ti39  1  0.50000000  0.99544284  0.51822866  1
