# generated using pymatgen
data_Mg6TiBi
_symmetry_space_group_name_H-M   'P 1'
_cell_length_a   6.36966564
_cell_length_b   6.11951494
_cell_length_c   5.33898898
_cell_angle_alpha   90.00000000
_cell_angle_beta   90.00000000
_cell_angle_gamma   118.70917718
_symmetry_Int_Tables_number   1
_chemical_formula_structural   Mg6TiBi
_chemical_formula_sum   'Mg6 Ti1 Bi1'
_cell_volume   182.52675663
_cell_formula_units_Z   1
loop_
 _symmetry_equiv_pos_site_id
 _symmetry_equiv_pos_as_xyz
  1  'x, y, z'
loop_
 _atom_site_type_symbol
 _atom_site_label
 _atom_site_symmetry_multiplicity
 _atom_site_fract_x
 _atom_site_fract_y
 _atom_site_fract_z
 _atom_site_occupancy
  Mg  Mg0  1  0.66653149  0.33156179  0.25000000  1
  Mg  Mg1  1  0.66653149  0.83496870  0.25000000  1
  Mg  Mg2  1  0.33529804  0.17792729  0.75000000  1
  Mg  Mg3  1  0.33529804  0.65737175  0.75000000  1
  Mg  Mg4  1  0.84090857  0.17045478  0.75000000  1
  Mg  Mg5  1  0.82472947  0.66236524  0.75000000  1
  Ti  Ti6  1  0.16577095  0.33288497  0.25000000  1
  Bi  Bi7  1  0.16493195  0.83246547  0.25000000  1
