# generated using pymatgen
data_Ti19Se20
_symmetry_space_group_name_H-M   'P 1'
_cell_length_a   6.91900676
_cell_length_b   17.28021322
_cell_length_c   9.63299677
_cell_angle_alpha   44.05614279
_cell_angle_beta   111.02438529
_cell_angle_gamma   120.00775367
_symmetry_Int_Tables_number   1
_chemical_formula_structural   Ti19Se20
_chemical_formula_sum   'Ti19 Se20'
_cell_volume   693.52516707
_cell_formula_units_Z   1
loop_
 _symmetry_equiv_pos_site_id
 _symmetry_equiv_pos_as_xyz
  1  'x, y, z'
loop_
 _atom_site_type_symbol
 _atom_site_label
 _atom_site_symmetry_multiplicity
 _atom_site_fract_x
 _atom_site_fract_y
 _atom_site_fract_z
 _atom_site_occupancy
  Se  Se0  1  0.33133904  0.96477702  0.75098217  1
  Se  Se1  1  0.15921356  0.83850763  0.23355455  1
  Se  Se2  1  0.32892955  0.76793236  0.73732556  1
  Se  Se3  1  0.16469324  0.62911529  0.25615762  1
  Se  Se4  1  0.83208053  0.96404925  0.75383654  1
  Se  Se5  1  0.33243050  0.56472080  0.75378367  1
  Se  Se6  1  0.67080513  0.83880738  0.23259693  1
  Se  Se7  1  0.16578694  0.43332218  0.24902373  1
  Se  Se8  1  0.33592907  0.37049826  0.74528131  1
  Se  Se9  1  0.82786487  0.76741899  0.73885532  1
  Se  Se10  1  0.66407093  0.62950174  0.25471869  1
  Se  Se11  1  0.83421306  0.56667782  0.75097627  1
  Se  Se12  1  0.32919487  0.16119262  0.76740307  1
  Se  Se13  1  0.17213513  0.23258101  0.26114468  1
  Se  Se14  1  0.66756950  0.43527920  0.24621633  1
  Se  Se15  1  0.83530676  0.37088471  0.74384238  1
  Se  Se16  1  0.16791947  0.03595075  0.24616346  1
  Se  Se17  1  0.67107045  0.23206764  0.26267444  1
  Se  Se18  1  0.84078644  0.16149237  0.76644545  1
  Se  Se19  1  0.66866096  0.03522298  0.24901783  1
  Ti  Ti20  1  0.99424018  0.80232936  0.48431740  1
  Ti  Ti21  1  0.99265789  0.79158557  0.99607264  1
  Ti  Ti22  1  0.00929136  0.60777494  0.49540432  1
  Ti  Ti23  1  0.48911840  0.79665380  0.48481671  1
  Ti  Ti24  1  0.50667763  0.60823429  0.49603848  1
  Ti  Ti25  1  0.48205900  0.79142107  0.99554926  1
  Ti  Ti26  1  0.99290036  0.39437768  0.00311264  1
  Ti  Ti27  1  0.00575982  0.19767064  0.51568260  1
  Ti  Ti28  1  0.49332237  0.39176571  0.50396152  1
  Ti  Ti29  1  0.50309394  0.60490875  0.99744173  1
  Ti  Ti30  1  0.00734211  0.20841443  0.00392736  1
  Ti  Ti31  1  0.00000000  0.00000000  0.50000000  1
  Ti  Ti32  1  0.49690606  0.39509125  0.00255827  1
  Ti  Ti33  1  0.51088160  0.20334620  0.51518329  1
  Ti  Ti34  1  0.99070864  0.39222506  0.50459568  1
  Ti  Ti35  1  0.00709964  0.60562232  0.99688736  1
  Ti  Ti36  1  0.51794100  0.20857893  0.00445074  1
  Ti  Ti37  1  0.50000000  0.00000000  0.50000000  1
  Ti  Ti38  1  0.50000000  0.00000000  0.00000000  1
