# generated using pymatgen
data_Li3Mn3O8
_symmetry_space_group_name_H-M   'P 1'
_cell_length_a   5.92170252
_cell_length_b   5.92170275
_cell_length_c   5.92170296
_cell_angle_alpha   58.83210845
_cell_angle_beta   58.83211207
_cell_angle_gamma   58.83211087
_symmetry_Int_Tables_number   1
_chemical_formula_structural   Li3Mn3O8
_chemical_formula_sum   'Li3 Mn3 O8'
_cell_volume   142.91791689
_cell_formula_units_Z   1
loop_
 _symmetry_equiv_pos_site_id
 _symmetry_equiv_pos_as_xyz
  1  'x, y, z'
loop_
 _atom_site_type_symbol
 _atom_site_label
 _atom_site_symmetry_multiplicity
 _atom_site_fract_x
 _atom_site_fract_y
 _atom_site_fract_z
 _atom_site_occupancy
  Li  Li0  1  0.00375812  0.00375812  0.00375812  1
  Li  Li1  1  0.24624188  0.24624188  0.24624188  1
  Li  Li2  1  0.62500000  0.62500000  0.62500000  1
  Mn  Mn3  1  0.12500000  0.62500000  0.62500000  1
  Mn  Mn4  1  0.62500000  0.12500000  0.62500000  1
  Mn  Mn5  1  0.62500000  0.62500000  0.12500000  1
  O  O6  1  0.38737847  0.38737847  0.38737847  1
  O  O7  1  0.37608739  0.37608739  0.83355733  1
  O  O8  1  0.37608739  0.83355733  0.37608739  1
  O  O9  1  0.83355733  0.37608739  0.37608739  1
  O  O10  1  0.41644267  0.87391261  0.87391261  1
  O  O11  1  0.87391261  0.87391261  0.41644267  1
  O  O12  1  0.87391261  0.41644267  0.87391261  1
  O  O13  1  0.86262153  0.86262153  0.86262153  1
