# generated using pymatgen
data_Co2TcO4
_symmetry_space_group_name_H-M   'P 1'
_cell_length_a   6.13568112
_cell_length_b   6.13568138
_cell_length_c   6.13546302
_cell_angle_alpha   60.00117723
_cell_angle_beta   60.00117587
_cell_angle_gamma   56.28253463
_symmetry_Int_Tables_number   1
_chemical_formula_structural   Co2TcO4
_chemical_formula_sum   'Co4 Tc2 O8'
_cell_volume   158.25550272
_cell_formula_units_Z   2
loop_
 _symmetry_equiv_pos_site_id
 _symmetry_equiv_pos_as_xyz
  1  'x, y, z'
loop_
 _atom_site_type_symbol
 _atom_site_label
 _atom_site_symmetry_multiplicity
 _atom_site_fract_x
 _atom_site_fract_y
 _atom_site_fract_z
 _atom_site_occupancy
  Co  Co0  1  0.00855738  0.00855738  0.99144262  1
  Co  Co1  1  0.24144262  0.24144262  0.25855738  1
  Co  Co2  1  0.62500000  0.62500000  0.12500000  1
  Co  Co3  1  0.62500000  0.62500000  0.62500000  1
  Tc  Tc4  1  0.12500000  0.62500000  0.62500000  1
  Tc  Tc5  1  0.62500000  0.12500000  0.62500000  1
  O  O6  1  0.37560688  0.37560688  0.38390597  1
  O  O7  1  0.36620884  0.83710190  0.39834463  1
  O  O8  1  0.37560688  0.37560688  0.86488026  1
  O  O9  1  0.83710190  0.36620884  0.39834463  1
  O  O10  1  0.41289810  0.88379116  0.85165537  1
  O  O11  1  0.87439312  0.87439312  0.38511974  1
  O  O12  1  0.88379116  0.41289810  0.85165537  1
  O  O13  1  0.87439312  0.87439312  0.86609403  1
