# generated using pymatgen
data_Li6Fe3P8O29
_symmetry_space_group_name_H-M   'P 1'
_cell_length_a   9.96860361
_cell_length_b   9.98400342
_cell_length_c   13.86515448
_cell_angle_alpha   89.80231857
_cell_angle_beta   89.88490363
_cell_angle_gamma   59.96759444
_symmetry_Int_Tables_number   1
_chemical_formula_structural   Li6Fe3P8O29
_chemical_formula_sum   'Li12 Fe6 P16 O58'
_cell_volume   1194.67528091
_cell_formula_units_Z   2
loop_
 _symmetry_equiv_pos_site_id
 _symmetry_equiv_pos_as_xyz
  1  'x, y, z'
loop_
 _atom_site_type_symbol
 _atom_site_label
 _atom_site_symmetry_multiplicity
 _atom_site_fract_x
 _atom_site_fract_y
 _atom_site_fract_z
 _atom_site_occupancy
  Li  Li0  1  0.09011071  0.21828303  0.56325801  1
  Li  Li1  1  0.91007013  0.77656748  0.43710627  1
  Li  Li2  1  0.77749704  0.91090555  0.93688461  1
  Li  Li3  1  0.91113403  0.30784011  0.93537387  1
  Li  Li4  1  0.66521797  0.66992710  0.12426937  1
  Li  Li5  1  0.77985754  0.30731680  0.43638587  1
  Li  Li6  1  0.68663422  0.22076567  0.06326217  1
  Li  Li7  1  0.09023281  0.69281195  0.06398005  1
  Li  Li8  1  0.22017277  0.69117563  0.56284566  1
  Li  Li9  1  0.31328719  0.77145309  0.93857703  1
  Li  Li10  1  0.68842988  0.08921054  0.56383745  1
  Li  Li11  1  0.30976548  0.90843317  0.43262148  1
  O  O12  1  0.62294829  0.48302779  0.67371633  1
  O  O13  1  0.75126494  0.91657933  0.65900779  1
  O  O14  1  0.75461062  0.99846928  0.43242681  1
  O  O15  1  0.78213773  0.99786990  0.24987671  1
  O  O16  1  0.91783534  0.75024931  0.15715944  1
  O  O17  1  1.00090372  0.75225004  0.93225562  1
  O  O18  1  0.08111067  0.24774608  0.84047086  1
  O  O19  1  0.20717931  0.01397409  0.73799990  1
  O  O20  1  0.25299788  -0.00449412  0.56067966  1
  O  O21  1  0.24715681  0.08225641  0.33955485  1
  O  O22  1  0.11026893  0.37505784  0.32211291  1
  O  O23  1  0.18816764  0.32256909  0.65596941  1
  O  O24  1  0.10797862  0.51438706  0.82437066  1
  O  O25  1  -0.00023140  0.75494909  0.56826063  1
  O  O26  1  1.00002180  0.78338154  0.75035375  1
  O  O27  1  0.08262674  0.66960069  0.34087425  1
  O  O28  1  0.32944929  0.19534058  0.16387225  1
  O  O29  1  0.37620202  0.09836006  0.82858464  1
  O  O30  1  0.18665053  0.49151714  0.15383831  1
  O  O31  1  0.34380275  0.31202610  0.01613972  1
  O  O32  1  0.33759062  0.35840529  0.51789464  1
  O  O33  1  0.51587937  0.10395664  0.32584274  1
  O  O34  1  0.32428575  0.48604728  0.66061476  1
  O  O35  1  0.48468093  0.18487333  0.65843414  1
  O  O36  1  0.24955430  0.66551302  0.84181159  1
  O  O37  1  0.21960499  0.78323128  0.25067217  1
  O  O38  1  0.25434764  0.74798674  0.07029006  1
  O  O39  1  0.24562578  0.75331195  0.43245104  1
  O  O40  1  0.37631557  0.51569313  0.32517631  1
  O  O41  1  0.48445564  0.33855461  0.15551526  1
  O  O42  1  0.32956022  0.75293378  0.65832684  1
  O  O43  1  0.51525554  0.37688051  0.82472270  1
  O  O44  1  0.66620295  0.08302084  0.84096580  1
  O  O45  1  0.23682285  0.98751722  0.92050165  1
  O  O46  1  0.74880311  1.00101421  0.06858170  1
  O  O47  1  0.66830789  0.24604325  0.34161087  1
  O  O48  1  0.33821107  0.91552363  0.16000657  1
  O  O49  1  0.49392030  0.62879602  0.17833191  1
  O  O50  1  0.51385746  0.67486108  0.84353433  1
  O  O51  1  0.81597883  0.66905159  0.34296528  1
  O  O52  1  0.75603216  0.24401814  0.56818154  1
  O  O53  1  0.75251058  0.24436197  0.93188148  1
  O  O54  1  0.78436182  0.21520310  0.75017877  1
  O  O55  1  0.74669806  0.33354072  0.16028097  1
  O  O56  1  0.51574253  0.80923604  0.34552639  1
  O  O57  1  0.48437937  0.89073731  0.67435335  1
  O  O58  1  0.67806444  0.51029684  0.34686595  1
  O  O59  1  0.65321695  0.68702172  0.48721845  1
  O  O60  1  0.66782986  0.66480192  0.98825862  1
  O  O61  1  0.81132403  0.51345562  0.84335831  1
  O  O62  1  0.62873070  0.87953388  0.17610444  1
  O  O63  1  0.89261328  0.62312820  0.67426043  1
  O  O64  1  0.91673684  0.33183046  0.65803482  1
  O  O65  1  0.99709364  0.22076064  0.24874903  1
  O  O66  1  0.98699889  0.25595268  0.06533365  1
  O  O67  1  1.00042471  0.24706911  0.43102238  1
  O  O68  1  0.87993542  0.49215044  0.17422565  1
  O  O69  1  0.67489008  0.81122202  0.84425926  1
  P  P70  1  0.67394844  0.23316324  0.84094413  1
  P  P71  1  0.76619580  0.32409296  0.65854566  1
  P  P72  1  0.66703803  0.66618569  0.87772666  1
  P  P73  1  0.67088516  0.66307500  0.37588980  1
  P  P74  1  0.90434464  0.32805548  0.15823159  1
  P  P75  1  0.76618081  0.90747344  0.15831642  1
  P  P76  1  0.09056219  0.23486564  0.34000409  1
  P  P77  1  0.22835175  0.08807037  0.83627707  1
  P  P78  1  0.09113459  0.67340952  0.84148561  1
  P  P79  1  0.33319006  0.33184262  0.62859657  1
  P  P80  1  0.33425914  0.33892720  0.12706955  1
  P  P81  1  0.23423375  0.67509836  0.34196612  1
  P  P82  1  0.32851792  0.76762804  0.16018410  1
  P  P83  1  0.67455363  0.08852982  0.34190281  1
  P  P84  1  0.32563175  0.90924380  0.65374451  1
  P  P85  1  0.90919013  0.76592899  0.65893670  1
  Fe  Fe86  1  0.99762385  0.43318775  0.74978368  1
  Fe  Fe87  1  0.56878656  0.99571865  0.75062563  1
  Fe  Fe88  1  0.56773468  0.43177561  0.25372215  1
  Fe  Fe89  1  0.43532049  0.57131156  0.75192125  1
  Fe  Fe90  1  0.42759495  0.00491486  0.24750748  1
  Fe  Fe91  1  0.00378647  0.56778280  0.24979022  1
