# generated using pymatgen
data_Ce(IO3)3
_symmetry_space_group_name_H-M   'P 1'
_cell_length_a   6.06245138
_cell_length_b   8.97103331
_cell_length_c   15.55287376
_cell_angle_alpha   96.44652536
_cell_angle_beta   90.00000000
_cell_angle_gamma   90.00000000
_symmetry_Int_Tables_number   1
_chemical_formula_structural   Ce(IO3)3
_chemical_formula_sum   'Ce4 I12 O36'
_cell_volume   840.51729863
_cell_formula_units_Z   4
loop_
 _symmetry_equiv_pos_site_id
 _symmetry_equiv_pos_as_xyz
  1  'x, y, z'
loop_
 _atom_site_type_symbol
 _atom_site_label
 _atom_site_symmetry_multiplicity
 _atom_site_fract_x
 _atom_site_fract_y
 _atom_site_fract_z
 _atom_site_occupancy
  Ce  Ce0  1  0.73253628  0.46092613  0.59936545  1
  Ce  Ce1  1  0.23253628  0.03907387  0.90063455  1
  Ce  Ce2  1  0.26746372  0.53907387  0.40063455  1
  Ce  Ce3  1  0.76746372  0.96092613  0.09936545  1
  I  I4  1  0.40955983  0.38614441  0.80165784  1
  I  I5  1  0.90955983  0.11385559  0.69834216  1
  I  I6  1  0.59044017  0.61385559  0.19834216  1
  I  I7  1  0.09044017  0.88614441  0.30165784  1
  I  I8  1  0.36309428  0.16256083  0.52251960  1
  I  I9  1  0.86309428  0.33743917  0.97748040  1
  I  I10  1  0.63690572  0.83743917  0.47748040  1
  I  I11  1  0.13690572  0.66256083  0.02251960  1
  I  I12  1  0.18783629  0.71870761  0.64921653  1
  I  I13  1  0.68783629  0.78129239  0.85078347  1
  I  I14  1  0.81216371  0.28129239  0.35078347  1
  I  I15  1  0.31216371  0.21870761  0.14921653  1
  O  O16  1  0.68269423  0.41087256  0.75427128  1
  O  O17  1  0.18269423  0.08912744  0.74572872  1
  O  O18  1  0.31730577  0.58912744  0.24572872  1
  O  O19  1  0.81730577  0.91087256  0.25427128  1
  O  O20  1  0.41389543  0.55089752  0.88287660  1
  O  O21  1  0.91389543  0.94910248  0.61712340  1
  O  O22  1  0.58610457  0.44910248  0.11712340  1
  O  O23  1  0.08610457  0.05089752  0.38287660  1
  O  O24  1  0.49889458  0.23849971  0.86849328  1
  O  O25  1  -0.00110542  0.26150029  0.63150672  1
  O  O26  1  0.50110542  0.76150029  0.13150672  1
  O  O27  1  1.00110542  0.73849971  0.36849328  1
  O  O28  1  0.53224939  0.21714797  0.61923611  1
  O  O29  1  0.03224939  0.28285203  0.88076389  1
  O  O30  1  0.46775061  0.78285203  0.38076389  1
  O  O31  1  0.96775061  0.71714797  0.11923611  1
  O  O32  1  0.58647926  0.08804407  0.44636846  1
  O  O33  1  0.08647926  0.41195593  0.05363154  1
  O  O34  1  0.41352074  0.91195593  0.55363154  1
  O  O35  1  0.91352074  0.58804407  0.94636846  1
  O  O36  1  0.39943571  0.35653508  0.49024921  1
  O  O37  1  0.89943571  0.14346492  0.00975079  1
  O  O38  1  0.60056429  0.64346492  0.50975079  1
  O  O39  1  0.10056429  0.85653508  0.99024921  1
  O  O40  1  0.94938941  0.63951515  0.70235900  1
  O  O41  1  0.44938941  0.86048485  0.79764100  1
  O  O42  1  0.05061059  0.36048485  0.29764100  1
  O  O43  1  0.55061059  0.13951515  0.20235900  1
  O  O44  1  0.39436251  0.57559359  0.67076196  1
  O  O45  1  0.89436251  0.92440641  0.82923804  1
  O  O46  1  0.60563749  0.42440641  0.32923804  1
  O  O47  1  0.10563749  0.07559359  0.17076196  1
  O  O48  1  0.09431086  0.63359977  0.54131477  1
  O  O49  1  0.59431086  0.86640023  0.95868523  1
  O  O50  1  0.90568914  0.36640023  0.45868523  1
  O  O51  1  0.40568914  0.13359977  0.04131477  1
