# generated using pymatgen
data_HfMg6Sn
_symmetry_space_group_name_H-M   'P 1'
_cell_length_a   6.39697581
_cell_length_b   6.12750821
_cell_length_c   5.19760253
_cell_angle_alpha   90.00000000
_cell_angle_beta   90.00000000
_cell_angle_gamma   118.61606224
_symmetry_Int_Tables_number   1
_chemical_formula_structural   HfMg6Sn
_chemical_formula_sum   'Hf1 Mg6 Sn1'
_cell_volume   178.84687969
_cell_formula_units_Z   1
loop_
 _symmetry_equiv_pos_site_id
 _symmetry_equiv_pos_as_xyz
  1  'x, y, z'
loop_
 _atom_site_type_symbol
 _atom_site_label
 _atom_site_symmetry_multiplicity
 _atom_site_fract_x
 _atom_site_fract_y
 _atom_site_fract_z
 _atom_site_occupancy
  Hf  Hf0  1  0.15994925  0.82997412  0.25000000  1
  Mg  Mg1  1  0.66457920  0.33355776  0.25000000  1
  Mg  Mg2  1  0.66457920  0.83102044  0.25000000  1
  Mg  Mg3  1  0.33771444  0.16211710  0.75000000  1
  Mg  Mg4  1  0.33771444  0.67559834  0.75000000  1
  Mg  Mg5  1  0.83050282  0.16525191  0.75000000  1
  Mg  Mg6  1  0.83889732  0.66944916  0.75000000  1
  Sn  Sn7  1  0.16606334  0.33303117  0.25000000  1
