# generated using pymatgen
data_Mo4P9O32
_symmetry_space_group_name_H-M   'P 1'
_cell_length_a   14.59792278
_cell_length_b   14.59792278
_cell_length_c   6.46854007
_cell_angle_alpha   90.00000000
_cell_angle_beta   90.00000000
_cell_angle_gamma   90.00000000
_symmetry_Int_Tables_number   1
_chemical_formula_structural   Mo4P9O32
_chemical_formula_sum   'Mo8 P18 O64'
_cell_volume   1378.44168107
_cell_formula_units_Z   2
loop_
 _symmetry_equiv_pos_site_id
 _symmetry_equiv_pos_as_xyz
  1  'x, y, z'
loop_
 _atom_site_type_symbol
 _atom_site_label
 _atom_site_symmetry_multiplicity
 _atom_site_fract_x
 _atom_site_fract_y
 _atom_site_fract_z
 _atom_site_occupancy
  O  O0  1  0.90385590  0.39242841  0.43646548  1
  O  O1  1  0.98294690  0.69592678  0.20581261  1
  O  O2  1  0.99995732  0.25755453  0.57730617  1
  O  O3  1  0.95619439  0.92804483  0.64458070  1
  O  O4  1  0.92804483  0.04380561  0.35541930  1
  O  O5  1  0.90822201  0.80180050  0.95217404  1
  O  O6  1  0.89242841  0.40385590  0.93646648  1
  O  O7  1  0.87367310  0.81955136  0.32867028  1
  O  O8  1  0.01705210  0.30407322  0.20581261  1
  O  O9  1  0.00004268  0.74244547  0.57730617  1
  O  O10  1  0.04380561  0.07195517  0.64458070  1
  O  O11  1  0.07195517  0.95619439  0.35541930  1
  O  O12  1  0.09614510  0.60757159  0.43646548  1
  O  O13  1  0.09177799  0.19819950  0.95217404  1
  O  O14  1  0.10757259  0.59614410  0.93646648  1
  O  O15  1  0.12632790  0.18044864  0.32867028  1
  O  O16  1  0.12683724  0.77317578  0.32703597  1
  O  O17  1  0.17884783  0.31536629  0.63535384  1
  O  O18  1  0.18463471  0.32115217  0.13535284  1
  O  O19  1  0.18044864  0.87367310  0.67133072  1
  O  O20  1  0.19819950  0.90822201  0.04782596  1
  O  O21  1  0.19592678  0.48294690  0.70581361  1
  O  O22  1  0.22682422  0.12683724  0.67296503  1
  O  O23  1  0.24244547  0.50004268  0.07730717  1
  O  O24  1  0.25755453  0.00004268  0.42269383  1
  O  O25  1  0.27317578  0.62683724  0.82703497  1
  O  O26  1  0.30407322  0.98294690  0.79418639  1
  O  O27  1  0.30180050  0.40822301  0.45217304  1
  O  O28  1  0.31955136  0.37367210  0.82866928  1
  O  O29  1  0.31536629  0.82115217  0.36464616  1
  O  O30  1  0.32115217  0.81536629  0.86464616  1
  O  O31  1  0.37316276  0.27317578  0.17296503  1
  O  O32  1  0.37367210  0.68044864  0.17132972  1
  O  O33  1  0.39242841  0.09614510  0.56353352  1
  O  O34  1  0.40822301  0.69819950  0.54782596  1
  O  O35  1  0.40385590  0.10757259  0.06353352  1
  O  O36  1  0.42804483  0.45619439  0.14457970  1
  O  O37  1  0.45619439  0.57195517  0.85541930  1
  O  O38  1  0.49995732  0.24244547  0.92269483  1
  O  O39  1  0.48294690  0.80407322  0.29418639  1
  O  O40  1  0.51705310  0.19592678  0.29418639  1
  O  O41  1  0.50004268  0.75755453  0.92269483  1
  O  O42  1  0.54380561  0.42804483  0.85541930  1
  O  O43  1  0.57195517  0.54380561  0.14457970  1
  O  O44  1  0.59614410  0.89242841  0.06353352  1
  O  O45  1  0.59177799  0.30180050  0.54782596  1
  O  O46  1  0.60757159  0.90385590  0.56353352  1
  O  O47  1  0.62632690  0.31955136  0.17132972  1
  O  O48  1  0.62683724  0.72682422  0.17296503  1
  O  O49  1  0.67884683  0.18463471  0.86464616  1
  O  O50  1  0.68463371  0.17884783  0.36464616  1
  O  O51  1  0.68044864  0.62632690  0.82866928  1
  O  O52  1  0.69819950  0.59177799  0.45217304  1
  O  O53  1  0.69592678  0.01705210  0.79418639  1
  O  O54  1  0.72682422  0.37316276  0.82703497  1
  O  O55  1  0.74244547  0.99995732  0.42269383  1
  O  O56  1  0.75755453  0.49995732  0.07730717  1
  O  O57  1  0.77317578  0.87316376  0.67296503  1
  O  O58  1  0.80407322  0.51705310  0.70581361  1
  O  O59  1  0.80180050  0.09177799  0.04782596  1
  O  O60  1  0.87316376  0.22682422  0.32703597  1
  O  O61  1  0.81536629  0.67884683  0.13535284  1
  O  O62  1  0.82115217  0.68463371  0.63535384  1
  O  O63  1  0.81955136  0.12632790  0.67133072  1
  P  P64  1  0.55577479  0.80282175  0.10540458  1
  P  P65  1  0.60926392  0.24993448  0.34555660  1
  P  P66  1  0.69717825  0.94422621  0.60540358  1
  P  P67  1  0.50000000  0.50000000  0.00000000  1
  P  P68  1  0.74993448  0.10926392  0.84555560  1
  P  P69  1  0.75006552  0.60926392  0.65444440  1
  P  P70  1  0.80282175  0.44422521  0.89459642  1
  P  P71  1  0.89073608  0.74993448  0.15444440  1
  P  P72  1  0.00000000  0.00000000  0.50000100  1
  P  P73  1  0.05577479  0.69717825  0.39459642  1
  P  P74  1  0.10926392  0.25006552  0.15444440  1
  P  P75  1  0.19717825  0.55577479  0.89459642  1
  P  P76  1  0.24993448  0.39073608  0.65444440  1
  P  P77  1  0.25006552  0.89073608  0.84555560  1
  P  P78  1  0.30282175  0.05577479  0.60540358  1
  P  P79  1  0.39073608  0.75006552  0.34555660  1
  P  P80  1  0.44422521  0.19717825  0.10540458  1
  P  P81  1  0.94422621  0.30282175  0.39459642  1
  Mo  Mo82  1  0.88794632  0.80836565  0.64337010  1
  Mo  Mo83  1  0.80836565  0.11205468  0.35662890  1
  Mo  Mo84  1  0.69163435  0.61205468  0.14337110  1
  Mo  Mo85  1  0.61205468  0.30836565  0.85662790  1
  Mo  Mo86  1  0.38794532  0.69163435  0.85662790  1
  Mo  Mo87  1  0.30836565  0.38794532  0.14337110  1
  Mo  Mo88  1  0.19163435  0.88794632  0.35662890  1
  Mo  Mo89  1  0.11205468  0.19163435  0.64337010  1
