# generated using pymatgen
data_Ba2CuWO6
_symmetry_space_group_name_H-M   'P 1'
_cell_length_a   5.61308559
_cell_length_b   5.61308560
_cell_length_c   6.00131367
_cell_angle_alpha   117.88216816
_cell_angle_beta   117.88216810
_cell_angle_gamma   90.00000004
_symmetry_Int_Tables_number   1
_chemical_formula_structural   Ba2CuWO6
_chemical_formula_sum   'Ba2 Cu1 W1 O6'
_cell_volume   141.82368996
_cell_formula_units_Z   1
loop_
 _symmetry_equiv_pos_site_id
 _symmetry_equiv_pos_as_xyz
  1  'x, y, z'
loop_
 _atom_site_type_symbol
 _atom_site_label
 _atom_site_symmetry_multiplicity
 _atom_site_fract_x
 _atom_site_fract_y
 _atom_site_fract_z
 _atom_site_occupancy
  O  O0  1  0.73653855  0.75802252  0.00000000  1
  O  O1  1  0.24197748  0.73653855  0.00000000  1
  O  O2  1  0.75802252  0.26346145  0.00000000  1
  O  O3  1  0.26346145  0.24197748  0.00000000  1
  O  O4  1  0.28353148  0.28353148  0.56706296  1
  O  O5  1  0.71646852  0.71646852  0.43293704  1
  Cu  Cu6  1  0.00000000  0.00000000  0.00000000  1
  Ba  Ba7  1  0.25000000  0.75000000  0.50000000  1
  Ba  Ba8  1  0.75000000  0.25000000  0.50000000  1
  W  W9  1  0.50000000  0.50000000  0.00000000  1
