# generated using pymatgen
data_Dy2Ti2O7
_symmetry_space_group_name_H-M   'P 1'
_cell_length_a   7.24247951
_cell_length_b   7.24248025
_cell_length_c   28.87362260
_cell_angle_alpha   59.35163916
_cell_angle_beta   59.35163587
_cell_angle_gamma   59.60584827
_symmetry_Int_Tables_number   1
_chemical_formula_structural   Dy2Ti2O7
_chemical_formula_sum   'Dy16 Ti16 O56'
_cell_volume   1057.18249464
_cell_formula_units_Z   8
loop_
 _symmetry_equiv_pos_site_id
 _symmetry_equiv_pos_as_xyz
  1  'x, y, z'
loop_
 _atom_site_type_symbol
 _atom_site_label
 _atom_site_symmetry_multiplicity
 _atom_site_fract_x
 _atom_site_fract_y
 _atom_site_fract_z
 _atom_site_occupancy
  Dy  Dy0  1  0.98996370  0.49557647  -0.00436373  1
  Dy  Dy1  1  0.00000000  0.00000000  0.12500000  1
  Dy  Dy2  1  0.49557647  0.98996370  -0.00436373  1
  Dy  Dy3  1  0.01003630  0.50442353  0.25436373  1
  Dy  Dy4  1  0.47254996  0.47254996  0.01192676  1
  Dy  Dy5  1  0.50442353  0.01003630  0.25436373  1
  Dy  Dy6  1  0.99861015  0.99861015  0.50057941  1
  Dy  Dy7  1  0.00000000  0.00000000  0.62500000  1
  Dy  Dy8  1  -0.00075678  0.49970668  0.50072009  1
  Dy  Dy9  1  -0.00686241  -0.00686241  0.37517656  1
  Dy  Dy10  1  0.52745004  0.52745004  0.23807324  1
  Dy  Dy11  1  0.49970668  -0.00075678  0.50072009  1
  Dy  Dy12  1  1.00075678  0.50029332  0.74927991  1
  Dy  Dy13  1  1.00686241  1.00686241  0.87482344  1
  Dy  Dy14  1  0.00138985  0.00138985  0.74942059  1
  Dy  Dy15  1  0.50029332  1.00075678  0.74927991  1
  O  O16  1  0.10184541  0.10184541  0.02916381  1
  O  O17  1  0.26674433  0.26674433  0.09897671  1
  O  O18  1  0.08152584  0.69789586  0.04231495  1
  O  O19  1  0.16153498  0.60136587  0.14066712  1
  O  O20  1  0.69789586  0.08152583  0.04231495  1
  O  O21  1  0.11931786  0.11931786  0.28306644  1
  O  O22  1  0.60136587  0.16153498  0.14066712  1
  O  O23  1  0.59717462  0.59717462  0.04321906  1
  O  O24  1  0.17566533  0.17566533  0.39507667  1
  O  O25  1  0.15908839  0.58161002  0.29301660  1
  O  O26  1  0.39863413  0.83846502  0.10933288  1
  O  O27  1  0.40282538  0.40282538  0.20678094  1
  O  O28  1  0.83846502  0.39863413  0.10933288  1
  O  O29  1  0.58161002  0.15908839  0.29301660  1
  O  O30  1  0.30210414  0.91847417  0.20768505  1
  O  O31  1  0.17426460  0.57995634  0.39371921  1
  O  O32  1  0.12474280  0.12474280  0.53079286  1
  O  O33  1  0.73325567  0.73325567  0.15102329  1
  O  O34  1  0.61327568  0.61327568  0.28553654  1
  O  O35  1  0.91847416  0.30210414  0.20768505  1
  O  O36  1  0.57995634  0.17426460  0.39371921  1
  O  O37  1  0.16992898  0.58204360  0.54217756  1
  O  O38  1  0.42257053  0.42257053  0.45662034  1
  O  O39  1  0.41242981  0.83131525  0.35739630  1
  O  O40  1  0.16992283  0.16992283  0.64496700  1
  O  O41  1  0.83131525  0.41242981  0.35739630  1
  O  O42  1  0.12569269  0.12569269  0.78035283  1
  O  O43  1  0.42694862  0.82899894  0.45683854  1
  O  O44  1  0.16883758  0.58048381  0.64522727  1
  O  O45  1  0.89815459  0.89815459  0.22083619  1
  O  O46  1  0.58204360  0.16992898  0.54217756  1
  O  O47  1  0.82899894  0.42694862  0.45683854  1
  O  O48  1  0.58034318  0.58034318  0.54261758  1
  O  O49  1  0.84681625  0.84681625  0.34831658  1
  O  O50  1  0.58048381  0.16883758  0.64522727  1
  O  O51  1  0.15318375  0.15318375  0.90168342  1
  O  O52  1  0.41951619  0.83116242  0.60477273  1
  O  O53  1  0.41965682  0.41965682  0.70738242  1
  O  O54  1  0.17100106  0.57305138  0.79316146  1
  O  O55  1  0.16868475  0.58757019  0.89260370  1
  O  O56  1  0.83116242  0.41951619  0.60477273  1
  O  O57  1  0.41795640  0.83007102  0.70782244  1
  O  O58  1  0.57305138  0.17100106  0.79316146  1
  O  O59  1  0.87430731  0.87430731  0.46964717  1
  O  O60  1  0.83007102  0.41795640  0.70782244  1
  O  O61  1  0.58757019  0.16868475  0.89260370  1
  O  O62  1  0.83007717  0.83007717  0.60503300  1
  O  O63  1  0.57742947  0.57742947  0.79337966  1
  O  O64  1  0.38672432  0.38672432  0.96446346  1
  O  O65  1  0.42004366  0.82573540  0.85628079  1
  O  O66  1  0.87525720  0.87525720  0.71920714  1
  O  O67  1  0.41838998  0.84091161  0.95698340  1
  O  O68  1  0.82573540  0.42004366  0.85628079  1
  O  O69  1  0.84091161  0.41838998  0.95698340  1
  O  O70  1  0.82433467  0.82433467  0.85492333  1
  O  O71  1  0.88068214  0.88068214  0.96693356  1
  Ti  Ti72  1  0.00310120  0.00310120  0.99390204  1
  Ti  Ti73  1  0.99689880  0.99689880  0.25609796  1
  Ti  Ti74  1  0.00000000  0.50000000  0.12500000  1
  Ti  Ti75  1  0.50000000  0.00000000  0.12500000  1
  Ti  Ti76  1  0.50000000  0.50000000  0.12500000  1
  Ti  Ti77  1  0.01539510  0.50107111  0.37346737  1
  Ti  Ti78  1  0.51128370  0.51128370  0.37385021  1
  Ti  Ti79  1  0.00000000  0.50000000  0.62500000  1
  Ti  Ti80  1  0.50000000  0.00000000  0.62500000  1
  Ti  Ti81  1  0.50107111  0.01539510  0.37346737  1
  Ti  Ti82  1  0.50443887  0.50443887  0.49847447  1
  Ti  Ti83  1  0.50000000  0.50000000  0.62500000  1
  Ti  Ti84  1  0.98460490  0.49892889  0.87653263  1
  Ti  Ti85  1  0.49892889  0.98460490  0.87653263  1
  Ti  Ti86  1  0.49556113  0.49556113  0.75152553  1
  Ti  Ti87  1  0.48871630  0.48871630  0.87614979  1
