# generated using pymatgen
data_Fe3(CuS5)2
_symmetry_space_group_name_H-M   'P 1'
_cell_length_a   5.56515604
_cell_length_b   5.55228370
_cell_length_c   27.84838286
_cell_angle_alpha   90.12934882
_cell_angle_beta   89.80706737
_cell_angle_gamma   90.07635447
_symmetry_Int_Tables_number   1
_chemical_formula_structural   Fe3(CuS5)2
_chemical_formula_sum   'Fe12 Cu8 S40'
_cell_volume   860.48840959
_cell_formula_units_Z   4
loop_
 _symmetry_equiv_pos_site_id
 _symmetry_equiv_pos_as_xyz
  1  'x, y, z'
loop_
 _atom_site_type_symbol
 _atom_site_label
 _atom_site_symmetry_multiplicity
 _atom_site_fract_x
 _atom_site_fract_y
 _atom_site_fract_z
 _atom_site_occupancy
  Cu  Cu0  1  0.00714536  0.99838650  0.00180980  1
  Cu  Cu1  1  0.49467486  0.50221855  0.19834254  1
  Cu  Cu2  1  0.50058486  0.49964300  0.59982215  1
  Cu  Cu3  1  0.49999414  1.00146507  0.29940491  1
  Cu  Cu4  1  0.50334000  0.50039776  0.40062617  1
  Cu  Cu5  1  0.50181416  0.50183095  0.79982013  1
  Cu  Cu6  1  0.50699167  0.00215579  0.89997947  1
  Cu  Cu7  1  1.00018790  0.99973613  0.59984196  1
  Fe  Fe8  1  0.99080036  0.00143703  0.19899437  1
  Fe  Fe9  1  0.00923510  1.00220797  0.39999123  1
  Fe  Fe10  1  -0.00065675  0.49996244  0.70094813  1
  Fe  Fe11  1  0.99467392  -0.00249183  0.79933028  1
  Fe  Fe12  1  0.49483376  0.99741542  0.10016709  1
  Fe  Fe13  1  0.49766499  0.49608897  0.00162946  1
  Fe  Fe14  1  0.50771084  1.00237602  0.49919449  1
  Fe  Fe15  1  0.49409059  0.99724622  0.70071609  1
  Fe  Fe16  1  0.99363519  0.50468237  0.09995701  1
  Fe  Fe17  1  0.99995620  0.50161156  0.29947093  1
  Fe  Fe18  1  1.00189443  0.49977852  0.49874592  1
  Fe  Fe19  1  0.00445570  0.49361720  0.90113728  1
  S  S20  1  0.11824968  0.87963357  0.08088850  1
  S  S21  1  0.09025739  0.61732615  0.17586368  1
  S  S22  1  0.09316199  0.88200694  0.27492738  1
  S  S23  1  0.12043447  0.87521051  0.68106452  1
  S  S24  1  0.09710168  0.62439588  0.37531749  1
  S  S25  1  0.11796424  0.88652261  0.47642282  1
  S  S26  1  0.10134474  0.59943765  0.57517174  1
  S  S27  1  0.09293795  0.61485729  0.77656634  1
  S  S28  1  0.11856637  0.59477167  0.97677086  1
  S  S29  1  0.09463711  0.88003697  0.87602079  1
  S  S30  1  0.38086994  0.38565377  0.07795559  1
  S  S31  1  0.37894732  0.09453604  0.17596988  1
  S  S32  1  0.38054970  0.10460313  0.37945102  1
  S  S33  1  0.37848693  0.40149858  0.27958864  1
  S  S34  1  0.40014610  0.09760875  0.57515072  1
  S  S35  1  0.38395802  0.38354355  0.48047760  1
  S  S36  1  0.38221681  0.08954916  0.77696872  1
  S  S37  1  0.37792480  0.37552190  0.68187227  1
  S  S38  1  0.37814390  0.39892659  0.88020834  1
  S  S39  1  0.40512486  0.12137140  0.98035401  1
  S  S40  1  0.61641224  0.62229589  0.11952996  1
  S  S41  1  0.62114097  0.60180972  0.31939186  1
  S  S42  1  0.59332869  0.88427100  0.02462468  1
  S  S43  1  0.62337669  0.62421460  0.51795007  1
  S  S44  1  0.61897616  0.90032028  0.21946226  1
  S  S45  1  0.61757303  0.61638749  0.71915025  1
  S  S46  1  0.62044939  0.91031282  0.42278095  1
  S  S47  1  0.60050204  0.90206205  0.62452410  1
  S  S48  1  0.61754548  0.59183078  0.92498991  1
  S  S49  1  0.62282432  0.89545054  0.82047071  1
  S  S50  1  0.88111491  0.11786940  0.12271293  1
  S  S51  1  0.87817427  0.40547198  0.02488359  1
  S  S52  1  0.90241688  0.37904674  0.22367182  1
  S  S53  1  0.90683445  0.12112143  0.32403458  1
  S  S54  1  0.88093568  0.12456612  0.51859501  1
  S  S55  1  0.88351042  0.11305460  0.72325060  1
  S  S56  1  0.89983644  0.40036106  0.62449321  1
  S  S57  1  0.90997178  0.38583163  0.42304487  1
  S  S58  1  0.90553494  0.11932934  0.92138229  1
  S  S59  1  0.90548997  0.37761477  0.82411599  1
