# generated using pymatgen
data_U2Zn17
_symmetry_space_group_name_H-M   'P 1'
_cell_length_a   6.77990254
_cell_length_b   6.77990254
_cell_length_c   6.77990254
_cell_angle_alpha   82.48444713
_cell_angle_beta   82.48444718
_cell_angle_gamma   82.48444713
_symmetry_Int_Tables_number   1
_chemical_formula_structural   U2Zn17
_chemical_formula_sum   'U2 Zn17'
_cell_volume   304.26474884
_cell_formula_units_Z   1
loop_
 _symmetry_equiv_pos_site_id
 _symmetry_equiv_pos_as_xyz
  1  'x, y, z'
loop_
 _atom_site_type_symbol
 _atom_site_label
 _atom_site_symmetry_multiplicity
 _atom_site_fract_x
 _atom_site_fract_y
 _atom_site_fract_z
 _atom_site_occupancy
  Zn  Zn0  1  0.35414568  0.35414568  0.83969352  1
  Zn  Zn1  1  0.35414568  0.83969352  0.35414568  1
  Zn  Zn2  1  0.10173531  0.10173531  0.10173531  1
  Zn  Zn3  1  0.89826469  0.89826469  0.89826469  1
  Zn  Zn4  1  0.00000000  0.00000000  0.50000000  1
  Zn  Zn5  1  0.50000000  0.00000000  0.00000000  1
  Zn  Zn6  1  0.00000000  0.50000000  0.00000000  1
  Zn  Zn7  1  0.70166353  0.00000000  0.29833647  1
  Zn  Zn8  1  0.29833647  0.70166353  0.00000000  1
  Zn  Zn9  1  0.00000000  0.29833647  0.70166353  1
  Zn  Zn10  1  0.29833647  0.00000000  0.70166353  1
  Zn  Zn11  1  0.70166353  0.29833647  0.00000000  1
  Zn  Zn12  1  0.00000000  0.70166353  0.29833647  1
  Zn  Zn13  1  0.64585432  0.16030648  0.64585432  1
  Zn  Zn14  1  0.64585432  0.64585432  0.16030648  1
  Zn  Zn15  1  0.16030648  0.64585432  0.64585432  1
  Zn  Zn16  1  0.83969352  0.35414568  0.35414568  1
  U  U17  1  0.66169959  0.66169959  0.66169959  1
  U  U18  1  0.33830041  0.33830041  0.33830041  1
