# generated using pymatgen
data_Li2Ni(PO3)5
_symmetry_space_group_name_H-M   'P 1'
_cell_length_a   12.43340305
_cell_length_b   9.29001854
_cell_length_c   5.14692958
_cell_angle_alpha   90.00000000
_cell_angle_beta   93.25892838
_cell_angle_gamma   90.00000000
_symmetry_Int_Tables_number   1
_chemical_formula_structural   Li2Ni(PO3)5
_chemical_formula_sum   'Li4 Ni2 P10 O30'
_cell_volume   593.54263421
_cell_formula_units_Z   2
loop_
 _symmetry_equiv_pos_site_id
 _symmetry_equiv_pos_as_xyz
  1  'x, y, z'
loop_
 _atom_site_type_symbol
 _atom_site_label
 _atom_site_symmetry_multiplicity
 _atom_site_fract_x
 _atom_site_fract_y
 _atom_site_fract_z
 _atom_site_occupancy
  Li  Li0  1  0.05273762  0.65775020  0.10541680  1
  Li  Li1  1  0.44965687  0.64868867  0.39838438  1
  Li  Li2  1  0.55273762  0.34224980  0.60541680  1
  Li  Li3  1  0.94965687  0.35131133  0.89838438  1
  Ni  Ni4  1  0.49716036  0.99782323  0.50367472  1
  Ni  Ni5  1  0.99716036  0.00217677  0.00367472  1
  O  O6  1  0.00171287  0.13783322  0.29458604  1
  O  O7  1  0.05439709  0.17963801  0.77761708  1
  O  O8  1  0.06202082  0.51296583  0.80191452  1
  O  O9  1  0.11596689  0.34859203  0.42775818  1
  O  O10  1  0.15383391  0.92234533  0.11981912  1
  O  O11  1  0.15798142  0.61169847  0.41069912  1
  O  O12  1  0.19994940  0.10869762  0.46932017  1
  O  O13  1  0.24995058  0.43743761  0.75059371  1
  O  O14  1  0.29500784  0.10741475  0.03841797  1
  O  O15  1  0.34484981  0.60996942  0.08913308  1
  O  O16  1  0.33994119  0.92152771  0.38945295  1
  O  O17  1  0.38141316  0.34566784  0.07736455  1
  O  O18  1  0.43943440  0.50526328  0.70061773  1
  O  O19  1  0.44115385  0.17475837  0.72911361  1
  O  O20  1  0.49370139  0.13314706  0.21209589  1
  O  O21  1  0.50171287  0.86216678  0.79458604  1
  O  O22  1  0.55439809  0.82036199  0.27761708  1
  O  O23  1  0.56202082  0.48703417  0.30191452  1
  O  O24  1  0.61596689  0.65140797  0.92775818  1
  O  O25  1  0.65383391  0.07765467  0.61981912  1
  O  O26  1  0.65798142  0.38830153  0.91069912  1
  O  O27  1  0.69994940  0.89130238  0.96932017  1
  O  O28  1  0.74995058  0.56256239  0.25059371  1
  O  O29  1  0.79500784  0.89258525  0.53841797  1
  O  O30  1  0.84484981  0.39003058  0.58913308  1
  O  O31  1  0.83994119  0.07847229  0.88945295  1
  O  O32  1  0.88141316  0.65433216  0.57736455  1
  O  O33  1  0.93943440  0.49473672  0.20061773  1
  O  O34  1  0.94115385  0.82524163  0.22911361  1
  O  O35  1  0.99370139  0.86685294  0.71209589  1
  P  P36  1  0.08552352  0.18533795  0.49879497  1
  P  P37  1  0.14212236  0.49083102  0.59697420  1
  P  P38  1  0.24719233  1.00076147  0.25443801  1
  P  P39  1  0.35849446  0.48744891  0.90496124  1
  P  P40  1  0.41019887  0.18166571  0.00785296  1
  P  P41  1  0.58552352  0.81466205  0.99879497  1
  P  P42  1  0.64212236  0.50916898  0.09697420  1
  P  P43  1  0.74719233  -0.00076147  0.75443801  1
  P  P44  1  0.85849446  0.51255109  0.40496124  1
  P  P45  1  0.91019887  0.81833429  0.50785296  1
