# generated using pymatgen
data_LiFePO4
_symmetry_space_group_name_H-M   'P 1'
_cell_length_a   11.38224089
_cell_length_b   6.06433465
_cell_length_c   5.07392246
_cell_angle_alpha   90.00000000
_cell_angle_beta   90.00000000
_cell_angle_gamma   90.00000000
_symmetry_Int_Tables_number   1
_chemical_formula_structural   LiFePO4
_chemical_formula_sum   'Li4 Fe4 P4 O16'
_cell_volume   350.23113998
_cell_formula_units_Z   4
loop_
 _symmetry_equiv_pos_site_id
 _symmetry_equiv_pos_as_xyz
  1  'x, y, z'
loop_
 _atom_site_type_symbol
 _atom_site_label
 _atom_site_symmetry_multiplicity
 _atom_site_fract_x
 _atom_site_fract_y
 _atom_site_fract_z
 _atom_site_occupancy
  Li  Li0  1  0.06513253  0.21708383  0.99133590  1
  Li  Li1  1  0.93486747  0.78291517  0.49133690  1
  Li  Li2  1  0.56513253  0.28291417  0.99133590  1
  Li  Li3  1  0.43486747  0.71708383  0.49133690  1
  O  O4  1  0.08244890  0.71370006  0.30206543  1
  O  O5  1  0.84084835  0.05930960  0.42018487  1
  O  O6  1  0.85199114  0.48342829  0.38916682  1
  O  O7  1  0.91755010  0.28629994  0.80206543  1
  O  O8  1  0.03828786  0.24508658  0.38302605  1
  O  O9  1  0.41755110  0.21370006  0.80206543  1
  O  O10  1  0.14800886  0.51657271  0.88916682  1
  O  O11  1  0.65915265  0.55930960  0.92018687  1
  O  O12  1  0.34084735  0.44069040  0.42018487  1
  O  O13  1  0.35199114  0.01657271  0.38916682  1
  O  O14  1  0.96171214  0.75491342  0.88302705  1
  O  O15  1  0.46171314  0.74508758  0.88302705  1
  O  O16  1  0.53828686  0.25491342  0.38302605  1
  O  O17  1  0.58244990  0.78630094  0.30206543  1
  O  O18  1  0.64800886  0.98342629  0.88916682  1
  O  O19  1  0.15915265  0.94069040  0.92018687  1
  P  P20  1  0.08814255  0.73004223  0.99700534  1
  P  P21  1  0.41185845  0.23004223  0.49700634  1
  P  P22  1  0.58814155  0.76995877  0.99700534  1
  P  P23  1  0.91185745  0.26995777  0.49700634  1
  Fe  Fe24  1  0.83245686  0.53586400  0.98810359  1
  Fe  Fe25  1  0.66754314  0.03586400  0.48810459  1
  Fe  Fe26  1  0.33245686  0.96413600  0.98810359  1
  Fe  Fe27  1  0.16754314  0.46413600  0.48810459  1
