# generated using pymatgen
data_Ba2H14C4O15
_symmetry_space_group_name_H-M   'P 1'
_cell_length_a   7.85295923
_cell_length_b   7.81439044
_cell_length_c   14.39483264
_cell_angle_alpha   79.45844271
_cell_angle_beta   74.17678667
_cell_angle_gamma   59.83336478
_symmetry_Int_Tables_number   1
_chemical_formula_structural   Ba2H14C4O15
_chemical_formula_sum   'Ba4 H28 C8 O30'
_cell_volume   733.65968593
_cell_formula_units_Z   2
loop_
 _symmetry_equiv_pos_site_id
 _symmetry_equiv_pos_as_xyz
  1  'x, y, z'
loop_
 _atom_site_type_symbol
 _atom_site_label
 _atom_site_symmetry_multiplicity
 _atom_site_fract_x
 _atom_site_fract_y
 _atom_site_fract_z
 _atom_site_occupancy
  Ba  Ba0  1  0.62220077  0.91689008  0.71903649  1
  Ba  Ba1  1  0.25812128  0.58311870  0.78094986  1
  Ba  Ba2  1  0.37779923  0.08310992  0.28096351  1
  Ba  Ba3  1  0.74187872  0.41688130  0.21905014  1
  C  C4  1  0.95898695  0.77753328  0.47688066  1
  C  C5  1  0.21340218  0.72248984  0.02302755  1
  C  C6  1  0.04101305  0.22246672  0.52311934  1
  C  C7  1  0.78659782  0.27751016  0.97697245  1
  C  C8  1  0.09784890  0.62922134  0.54655735  1
  C  C9  1  0.27356760  0.87080481  0.95340048  1
  C  C10  1  0.90215110  0.37077866  0.45344265  1
  C  C11  1  0.72643240  0.12919519  0.04659952  1
  O  O12  1  0.78948153  0.91440730  0.51411079  1
  O  O13  1  0.21808059  0.58555805  0.98579887  1
  O  O14  1  0.21051847  0.08559270  0.48588921  1
  O  O15  1  0.78191941  0.41444195  0.01420113  1
  O  O16  1  0.02868572  0.75229174  0.38644260  1
  O  O17  1  0.16733001  0.74772099  0.11348583  1
  O  O18  1  0.97131428  0.24770826  0.61355740  1
  O  O19  1  0.83266999  0.25227901  0.88651417  1
  O  O20  1  0.03078342  0.65413911  0.63604611  1
  O  O21  1  0.32087212  0.84594174  0.86388786  1
  O  O22  1  0.96921658  0.34586089  0.36395389  1
  O  O23  1  0.67912788  0.15405826  0.13611214  1
  O  O24  1  0.27156768  0.49586520  0.50784118  1
  O  O25  1  0.27526002  0.00410457  0.99213756  1
  O  O26  1  0.72843232  0.50413480  0.49215882  1
  O  O27  1  0.72473998  0.99589543  0.00786244  1
  O  O28  1  0.41427049  0.80981242  0.61774061  1
  O  O29  1  0.84179100  0.69022563  0.88226372  1
  O  O30  1  0.58572951  0.19018758  0.38225939  1
  O  O31  1  0.15820900  0.30977437  0.11773628  1
  O  O32  1  0.46806245  0.18672608  0.86903006  1
  O  O33  1  0.52385812  0.31318624  0.63099178  1
  O  O34  1  0.53193755  0.81327392  0.13096994  1
  O  O35  1  0.47614188  0.68681376  0.36900822  1
  O  O36  1  0.93615633  0.97989617  0.75734591  1
  O  O37  1  0.67335326  0.52020424  0.74267715  1
  O  O38  1  0.06384367  0.02010383  0.24265409  1
  O  O39  1  0.32664674  0.47979576  0.25732285  1
  O  O40  1  0.19276698  0.25002956  0.74999521  1
  O  O41  1  0.80723302  0.74997044  0.25000479  1
  H  H42  1  0.33602861  0.91374880  0.57148435  1
  H  H43  1  0.82124114  0.58631573  0.92852964  1
  H  H44  1  0.66397139  0.08625120  0.42851565  1
  H  H45  1  0.17875886  0.41368427  0.07147036  1
  H  H46  1  0.52882669  0.70703888  0.57626692  1
  H  H47  1  0.81214423  0.79298934  0.92373531  1
  H  H48  1  0.47117331  0.29296112  0.42373308  1
  H  H49  1  0.18785577  0.20701066  0.07626469  1
  H  H50  1  0.38487291  0.12888662  0.91417670  1
  H  H51  1  0.42799730  0.37108033  0.58582280  1
  H  H52  1  0.61512709  0.87111338  0.08582330  1
  H  H53  1  0.57200270  0.62891967  0.41417720  1
  H  H54  1  0.57309423  0.15500198  0.90381076  1
  H  H55  1  0.63197645  0.34487543  0.59625667  1
  H  H56  1  0.42690577  0.84499802  0.09618924  1
  H  H57  1  0.36802355  0.65512457  0.40374333  1
  H  H58  1  0.97070642  0.05954526  0.70082658  1
  H  H59  1  0.73105395  0.44056028  0.79919862  1
  H  H60  1  0.02929358  0.94045474  0.29917342  1
  H  H61  1  0.26894605  0.55943972  0.20080138  1
  H  H62  1  0.89429442  0.06118513  0.81301419  1
  H  H63  1  0.76840638  0.43887978  0.68701759  1
  H  H64  1  0.10570558  0.93881487  0.18698581  1
  H  H65  1  0.23159362  0.56112022  0.31298241  1
  H  H66  1  0.12652048  0.28182973  0.69567852  1
  H  H67  1  0.10404494  0.21821559  0.80432247  1
  H  H68  1  0.87347952  0.71817027  0.30432148  1
  H  H69  1  0.89595506  0.78178441  0.19567753  1
