# generated using pymatgen
data_Nd2Zn15Ge2
_symmetry_space_group_name_H-M   'P 1'
_cell_length_a   6.89838090
_cell_length_b   6.89838081
_cell_length_c   6.89838127
_cell_angle_alpha   84.88699611
_cell_angle_beta   84.88699630
_cell_angle_gamma   84.88699278
_symmetry_Int_Tables_number   1
_chemical_formula_structural   Nd2Zn15Ge2
_chemical_formula_sum   'Nd2 Zn15 Ge2'
_cell_volume   324.57834113
_cell_formula_units_Z   1
loop_
 _symmetry_equiv_pos_site_id
 _symmetry_equiv_pos_as_xyz
  1  'x, y, z'
loop_
 _atom_site_type_symbol
 _atom_site_label
 _atom_site_symmetry_multiplicity
 _atom_site_fract_x
 _atom_site_fract_y
 _atom_site_fract_z
 _atom_site_occupancy
  Nd  Nd0  1  0.33357322  0.33357322  0.33357322  1
  Nd  Nd1  1  0.66642678  0.66642678  0.66642678  1
  Ge  Ge2  1  0.09913610  0.09913610  0.09913610  1
  Ge  Ge3  1  0.90086390  0.90086390  0.90086390  1
  Zn  Zn4  1  0.00000000  0.00000000  0.50000000  1
  Zn  Zn5  1  0.50000000  0.00000000  0.00000000  1
  Zn  Zn6  1  0.00000000  0.50000000  0.00000000  1
  Zn  Zn7  1  0.30882925  0.69117075  0.00000000  1
  Zn  Zn8  1  1.00000000  0.30882925  0.69117075  1
  Zn  Zn9  1  0.69117075  0.00000000  0.30882925  1
  Zn  Zn10  1  0.69117075  0.30882925  1.00000000  1
  Zn  Zn11  1  0.00000000  0.69117075  0.30882925  1
  Zn  Zn12  1  0.30882925  1.00000000  0.69117075  1
  Zn  Zn13  1  0.64841149  0.17053761  0.64841149  1
  Zn  Zn14  1  0.64841149  0.64841149  0.17053761  1
  Zn  Zn15  1  0.17053761  0.64841149  0.64841149  1
  Zn  Zn16  1  0.82946239  0.35158851  0.35158851  1
  Zn  Zn17  1  0.35158851  0.82946239  0.35158851  1
  Zn  Zn18  1  0.35158851  0.35158851  0.82946239  1
