# generated using pymatgen
data_Cu8GeS6
_symmetry_space_group_name_H-M   'P 1'
_cell_length_a   6.96708567
_cell_length_b   7.03711402
_cell_length_c   9.81899490
_cell_angle_alpha   90.00000000
_cell_angle_beta   90.00000000
_cell_angle_gamma   90.00000000
_symmetry_Int_Tables_number   1
_chemical_formula_structural   Cu8GeS6
_chemical_formula_sum   'Cu16 Ge2 S12'
_cell_volume   481.40741252
_cell_formula_units_Z   2
loop_
 _symmetry_equiv_pos_site_id
 _symmetry_equiv_pos_as_xyz
  1  'x, y, z'
loop_
 _atom_site_type_symbol
 _atom_site_label
 _atom_site_symmetry_multiplicity
 _atom_site_fract_x
 _atom_site_fract_y
 _atom_site_fract_z
 _atom_site_occupancy
  S  S0  1  0.27728538  0.50000000  0.49363621  1
  S  S1  1  0.72271462  0.00000000  0.99363621  1
  S  S2  1  0.24253234  0.76217996  0.11290020  1
  S  S3  1  0.75746766  0.73782004  0.61290020  1
  S  S4  1  0.75746766  0.26217996  0.61290020  1
  S  S5  1  0.24253234  0.23782004  0.11290020  1
  S  S6  1  0.99021709  0.00000000  0.33788160  1
  S  S7  1  0.00978291  0.50000000  0.83788160  1
  S  S8  1  0.49507982  0.00000000  0.35574000  1
  S  S9  1  0.50492018  0.50000000  0.85574000  1
  S  S10  1  0.21770014  0.00000000  0.75769354  1
  S  S11  1  0.78229986  0.50000000  0.25769354  1
  Cu  Cu12  1  0.30095977  0.00000000  0.53874153  1
  Cu  Cu13  1  0.69904023  0.50000000  0.03874153  1
  Cu  Cu14  1  0.48078863  0.79794339  0.74311349  1
  Cu  Cu15  1  0.51921137  0.70205661  0.24311349  1
  Cu  Cu16  1  0.51921137  0.29794339  0.24311349  1
  Cu  Cu17  1  0.48078863  0.20205661  0.74311349  1
  Cu  Cu18  1  0.88159306  0.79276614  0.14177927  1
  Cu  Cu19  1  0.11840694  0.70723386  0.64177927  1
  Cu  Cu20  1  0.11840694  0.29276614  0.64177927  1
  Cu  Cu21  1  0.88159306  0.20723386  0.14177927  1
  Cu  Cu22  1  0.83420234  0.76772483  0.86349535  1
  Cu  Cu23  1  0.16579766  0.73227517  0.36349535  1
  Cu  Cu24  1  0.16579766  0.26772483  0.36349535  1
  Cu  Cu25  1  0.83420234  0.23227517  0.86349535  1
  Cu  Cu26  1  0.39048724  0.00000000  0.97188094  1
  Cu  Cu27  1  0.60951276  0.50000000  0.47188094  1
  Ge  Ge28  1  0.24874392  0.50000000  0.98984958  1
  Ge  Ge29  1  0.75125608  0.00000000  0.48984958  1
