# generated using pymatgen
data_P4O7
_symmetry_space_group_name_H-M   'P 1'
_cell_length_a   6.94230169
_cell_length_b   10.50694705
_cell_length_c   10.68806982
_cell_angle_alpha   90.00000000
_cell_angle_beta   90.00000000
_cell_angle_gamma   97.94655947
_symmetry_Int_Tables_number   1
_chemical_formula_structural   P4O7
_chemical_formula_sum   'P16 O28'
_cell_volume   772.12714473
_cell_formula_units_Z   4
loop_
 _symmetry_equiv_pos_site_id
 _symmetry_equiv_pos_as_xyz
  1  'x, y, z'
loop_
 _atom_site_type_symbol
 _atom_site_label
 _atom_site_symmetry_multiplicity
 _atom_site_fract_x
 _atom_site_fract_y
 _atom_site_fract_z
 _atom_site_occupancy
  P  P0  1  0.92690860  0.95564831  0.67250091  1
  P  P1  1  0.69236773  0.83671426  0.88511734  1
  P  P2  1  0.57309140  0.54435169  0.17250091  1
  P  P3  1  0.07309140  0.04435169  0.32749909  1
  P  P4  1  0.47631955  0.98772549  0.29001292  1
  P  P5  1  0.52368045  0.01227451  0.70998708  1
  P  P6  1  0.66818762  0.38925313  0.38331456  1
  P  P7  1  0.30763227  0.16328574  0.11488266  1
  P  P8  1  0.19236773  0.33671426  0.61488266  1
  P  P9  1  0.97631955  0.48772549  0.20998708  1
  P  P10  1  0.16818762  0.88925313  0.11668544  1
  P  P11  1  0.80763227  0.66328574  0.38511734  1
  P  P12  1  0.83181238  0.11074687  0.88331456  1
  P  P13  1  0.33181238  0.61074687  0.61668544  1
  P  P14  1  0.42690860  0.45564831  0.82749909  1
  P  P15  1  0.02368045  0.51227451  0.79001292  1
  O  O16  1  0.98900275  0.61321467  0.30587559  1
  O  O17  1  0.22190779  0.02292714  0.04309134  1
  O  O18  1  0.78603054  0.51015324  0.12306744  1
  O  O19  1  0.40634461  0.71990707  0.53734801  1
  O  O20  1  0.09365539  0.78009293  0.03734801  1
  O  O21  1  0.36383100  0.87369949  0.19145047  1
  O  O22  1  0.51959132  0.42189973  0.27615524  1
  O  O23  1  0.01959132  0.92189973  0.22384476  1
  O  O24  1  0.13616900  0.62630051  0.69145047  1
  O  O25  1  0.35773293  0.33820687  0.72703804  1
  O  O26  1  0.64226707  0.66179313  0.27296196  1
  O  O27  1  0.63616900  0.12630051  0.80854953  1
  O  O28  1  0.77809221  0.97707286  0.95690866  1
  O  O29  1  0.98040868  0.07810027  0.77615524  1
  O  O30  1  0.48900275  0.11321467  0.19412441  1
  O  O31  1  0.90634461  0.21990707  0.96265199  1
  O  O32  1  0.72190779  0.52292714  0.45690866  1
  O  O33  1  0.85773293  0.83820687  0.77296196  1
  O  O34  1  0.48040868  0.57810027  0.72384476  1
  O  O35  1  0.51099725  0.88678533  0.80587559  1
  O  O36  1  0.71396946  0.98984676  0.62306744  1
  O  O37  1  0.86383100  0.37369949  0.30854953  1
  O  O38  1  0.01099725  0.38678533  0.69412441  1
  O  O39  1  0.14226707  0.16179313  0.22703804  1
  O  O40  1  0.59365539  0.28009293  0.46265199  1
  O  O41  1  0.21396946  0.48984676  0.87693256  1
  O  O42  1  0.27809221  0.47707286  0.54309134  1
  O  O43  1  0.28603054  0.01015324  0.37693256  1
