# generated using pymatgen
data_Mg6SnSb
_symmetry_space_group_name_H-M   'P 1'
_cell_length_a   6.39425081
_cell_length_b   6.52249152
_cell_length_c   5.26180105
_cell_angle_alpha   90.00000000
_cell_angle_beta   90.00000000
_cell_angle_gamma   120.66568782
_symmetry_Int_Tables_number   1
_chemical_formula_structural   Mg6SnSb
_chemical_formula_sum   'Mg6 Sn1 Sb1'
_cell_volume   188.76252413
_cell_formula_units_Z   1
loop_
 _symmetry_equiv_pos_site_id
 _symmetry_equiv_pos_as_xyz
  1  'x, y, z'
loop_
 _atom_site_type_symbol
 _atom_site_label
 _atom_site_symmetry_multiplicity
 _atom_site_fract_x
 _atom_site_fract_y
 _atom_site_fract_z
 _atom_site_occupancy
  Mg  Mg0  1  0.66743694  0.33341529  0.25000000  1
  Mg  Mg1  1  0.66743694  0.83402066  0.25000000  1
  Mg  Mg2  1  0.33453631  0.16685032  0.75000000  1
  Mg  Mg3  1  0.33453631  0.66768699  0.75000000  1
  Mg  Mg4  1  0.83219820  0.16609960  0.75000000  1
  Mg  Mg5  1  0.83272967  0.66636534  0.75000000  1
  Sn  Sn6  1  0.16554797  0.33277348  0.25000000  1
  Sb  Sb7  1  0.16557766  0.83278833  0.25000000  1
