# generated using pymatgen
data_LiMnPO4
_symmetry_space_group_name_H-M   'P 1'
_cell_length_a   9.32069962
_cell_length_b   5.69657323
_cell_length_c   6.33341719
_cell_angle_alpha   104.93973388
_cell_angle_beta   103.24517075
_cell_angle_gamma   84.48018422
_symmetry_Int_Tables_number   1
_chemical_formula_structural   LiMnPO4
_chemical_formula_sum   'Li4 Mn4 P4 O16'
_cell_volume   316.02274693
_cell_formula_units_Z   4
loop_
 _symmetry_equiv_pos_site_id
 _symmetry_equiv_pos_as_xyz
  1  'x, y, z'
loop_
 _atom_site_type_symbol
 _atom_site_label
 _atom_site_symmetry_multiplicity
 _atom_site_fract_x
 _atom_site_fract_y
 _atom_site_fract_z
 _atom_site_occupancy
  Li  Li0  1  0.24216760  0.62954117  0.01812349  1
  Li  Li1  1  0.38417441  0.23195854  0.14450871  1
  Li  Li2  1  0.61582459  0.76804146  0.85549029  1
  Li  Li3  1  0.75783240  0.37045683  0.98187551  1
  O  O4  1  0.11559767  0.94801242  0.69941953  1
  O  O5  1  0.88440133  0.05198658  0.30057947  1
  O  O6  1  0.89483262  0.15518525  0.81702199  1
  O  O7  1  0.84747490  0.69405597  0.95448739  1
  O  O8  1  0.05682408  0.39268530  0.67173088  1
  O  O9  1  0.94317492  0.60731470  0.32826812  1
  O  O10  1  0.10516738  0.84481575  0.18297901  1
  O  O11  1  0.15252410  0.30594403  0.04551261  1
  O  O12  1  0.41652947  0.14372720  0.82841357  1
  O  O13  1  0.33973995  0.20765606  0.44467581  1
  O  O14  1  0.58346953  0.85627280  0.17158643  1
  O  O15  1  0.40645646  0.64536766  0.31030480  1
  O  O16  1  0.59354354  0.35463234  0.68969520  1
  O  O17  1  0.63677109  0.41684560  0.22281466  1
  O  O18  1  0.66026105  0.79234394  0.55532519  1
  O  O19  1  0.36322891  0.58315440  0.77718534  1
  P  P20  1  0.94525576  0.79622890  0.18944853  1
  P  P21  1  0.57178750  0.67538063  0.31307145  1
  P  P22  1  0.42821250  0.32462037  0.68692855  1
  P  P23  1  0.05474524  0.20377210  0.81055247  1
  Mn  Mn24  1  0.08868457  0.26346837  0.33413489  1
  Mn  Mn25  1  0.30343416  0.84487171  0.56762187  1
  Mn  Mn26  1  0.69656684  0.15512829  0.43237813  1
  Mn  Mn27  1  0.91131543  0.73653163  0.66586511  1
