# generated using pymatgen
data_Li2Fe5(PO4)4
_symmetry_space_group_name_H-M   'P 1'
_cell_length_a   8.03783067
_cell_length_b   8.15800373
_cell_length_c   5.29787410
_cell_angle_alpha   91.67568240
_cell_angle_beta   101.34488474
_cell_angle_gamma   109.00338500
_symmetry_Int_Tables_number   1
_chemical_formula_structural   Li2Fe5(PO4)4
_chemical_formula_sum   'Li2 Fe5 P4 O16'
_cell_volume   320.40940339
_cell_formula_units_Z   1
loop_
 _symmetry_equiv_pos_site_id
 _symmetry_equiv_pos_as_xyz
  1  'x, y, z'
loop_
 _atom_site_type_symbol
 _atom_site_label
 _atom_site_symmetry_multiplicity
 _atom_site_fract_x
 _atom_site_fract_y
 _atom_site_fract_z
 _atom_site_occupancy
  Li  Li0  1  0.93792074  0.70160469  0.37929596  1
  Li  Li1  1  0.06207926  0.29839531  0.62070404  1
  Fe  Fe2  1  0.59339068  0.33148671  0.36200145  1
  Fe  Fe3  1  0.74308743  0.21613259  0.90739139  1
  Fe  Fe4  1  0.40660932  0.66851329  0.63799855  1
  Fe  Fe5  1  0.25691257  0.78386741  0.09260861  1
  Fe  Fe6  1  0.00000000  0.00000000  0.00000000  1
  P  P7  1  0.79336621  0.57250924  0.86172030  1
  P  P8  1  0.29654468  0.03012772  0.62142850  1
  P  P9  1  0.70345532  0.96987228  0.37857150  1
  P  P10  1  0.20663379  0.42749076  0.13827970  1
  O  O11  1  0.77401268  0.49430403  0.12323942  1
  O  O12  1  0.03159469  0.26545640  0.09948425  1
  O  O13  1  0.67608367  0.12986433  0.23714545  1
  O  O14  1  0.22598732  0.50569597  0.87676058  1
  O  O15  1  0.63086505  0.61877395  0.73290324  1
  O  O16  1  0.79521893  0.04090735  0.66793711  1
  O  O17  1  0.81832855  0.43161316  0.67406156  1
  O  O18  1  0.48419929  0.16933862  0.65036339  1
  O  O19  1  0.51580071  0.83066138  0.34963661  1
  O  O20  1  0.20478107  0.95909265  0.33206289  1
  O  O21  1  0.36913495  0.38122605  0.26709676  1
  O  O22  1  0.32391633  0.87013567  0.76285455  1
  O  O23  1  0.82930893  0.89870129  0.25820031  1
  O  O24  1  0.18167145  0.56838684  0.32593844  1
  O  O25  1  0.96840531  0.73454360  0.90051575  1
  O  O26  1  0.17069107  0.10129871  0.74179969  1
