# generated using pymatgen
data_SiO2
_symmetry_space_group_name_H-M   'P 1'
_cell_length_a   4.92661961
_cell_length_b   7.15015586
_cell_length_c   7.05544758
_cell_angle_alpha   114.06212233
_cell_angle_beta   102.22578744
_cell_angle_gamma   104.07312980
_symmetry_Int_Tables_number   1
_chemical_formula_structural   SiO2
_chemical_formula_sum   'Si4 O8'
_cell_volume   206.11968322
_cell_formula_units_Z   4
loop_
 _symmetry_equiv_pos_site_id
 _symmetry_equiv_pos_as_xyz
  1  'x, y, z'
loop_
 _atom_site_type_symbol
 _atom_site_label
 _atom_site_symmetry_multiplicity
 _atom_site_fract_x
 _atom_site_fract_y
 _atom_site_fract_z
 _atom_site_occupancy
  Si  Si0  1  0.18470836  0.71617054  0.84010987  1
  Si  Si1  1  0.56296060  0.47117530  0.85555151  1
  Si  Si2  1  0.18297227  0.36799831  0.43069150  1
  Si  Si3  1  0.54840517  0.22756487  0.12768303  1
  O  O4  1  0.32525173  0.28691315  0.60297536  1
  O  O5  1  0.39008619  0.37132029  0.27983042  1
  O  O6  1  0.18856500  0.61573328  0.58516022  1
  O  O7  1  0.83600326  0.20877474  0.27380331  1
  O  O8  1  0.30333882  0.98182023  0.95481111  1
  O  O9  1  0.66327505  0.35042279  0.99302638  1
  O  O10  1  0.39635701  0.63323218  0.97553588  1
  O  O11  1  0.84928654  0.62402433  0.83788140  1
