# generated using pymatgen
data_Cr3O8
_symmetry_space_group_name_H-M   'P 1'
_cell_length_a   5.31405942
_cell_length_b   5.31429361
_cell_length_c   6.73197147
_cell_angle_alpha   88.38864162
_cell_angle_beta   88.39927098
_cell_angle_gamma   61.63165187
_symmetry_Int_Tables_number   1
_chemical_formula_structural   Cr3O8
_chemical_formula_sum   'Cr3 O8'
_cell_volume   167.19437581
_cell_formula_units_Z   1
loop_
 _symmetry_equiv_pos_site_id
 _symmetry_equiv_pos_as_xyz
  1  'x, y, z'
loop_
 _atom_site_type_symbol
 _atom_site_label
 _atom_site_symmetry_multiplicity
 _atom_site_fract_x
 _atom_site_fract_y
 _atom_site_fract_z
 _atom_site_occupancy
  O  O0  1  0.79391197  0.28413782  0.69205309  1
  Cr  Cr1  1  0.35704604  0.35711751  0.26373648  1
  O  O2  1  0.20830028  0.20827596  0.41325558  1
  O  O3  1  0.20623418  0.71562686  0.30804257  1
  O  O4  1  0.68487412  0.68494296  0.96375017  1
  O  O5  1  0.28436441  0.79359740  0.69193548  1
  Cr  Cr6  1  0.99993311  0.00004531  0.50015289  1
  O  O7  1  0.31516426  0.31506881  0.03594597  1
  Cr  Cr8  1  0.64293998  0.64291274  0.73616861  1
  O  O9  1  0.71551152  0.20651298  0.30819120  1
  O  O10  1  0.79172013  0.79176166  0.58676797  1
