# generated using pymatgen
data_Np(IO3)4
_symmetry_space_group_name_H-M   'P 1'
_cell_length_a   5.36558023
_cell_length_b   10.19078576
_cell_length_c   10.19078576
_cell_angle_alpha   90.00000000
_cell_angle_beta   90.00000000
_cell_angle_gamma   90.00000000
_symmetry_Int_Tables_number   1
_chemical_formula_structural   Np(IO3)4
_chemical_formula_sum   'Np2 I8 O24'
_cell_volume   557.22685190
_cell_formula_units_Z   2
loop_
 _symmetry_equiv_pos_site_id
 _symmetry_equiv_pos_as_xyz
  1  'x, y, z'
loop_
 _atom_site_type_symbol
 _atom_site_label
 _atom_site_symmetry_multiplicity
 _atom_site_fract_x
 _atom_site_fract_y
 _atom_site_fract_z
 _atom_site_occupancy
  Np  Np0  1  0.25000000  0.75000000  0.75000000  1
  Np  Np1  1  0.75000000  0.25000000  0.25000000  1
  I  I2  1  0.71929863  0.74811923  0.02168150  1
  I  I3  1  0.21929863  0.97831850  0.24811923  1
  I  I4  1  0.28070137  0.24811923  0.52168150  1
  I  I5  1  0.28070137  0.25188077  0.97831850  1
  I  I6  1  0.71929863  0.75188077  0.47831850  1
  I  I7  1  0.21929863  0.52168150  0.25188077  1
  I  I8  1  0.78070137  0.47831850  0.74811923  1
  I  I9  1  0.78070137  0.02168150  0.75188077  1
  O  O10  1  0.05466711  0.17777193  0.40125260  1
  O  O11  1  0.74518257  0.15245550  0.87028610  1
  O  O12  1  0.25481743  0.65245550  0.37028610  1
  O  O13  1  0.24518257  0.12971390  0.65245550  1
  O  O14  1  0.75481743  0.87028610  0.34754450  1
  O  O15  1  0.05279286  0.55941566  0.67242435  1
  O  O16  1  0.75481743  0.62971390  0.15245550  1
  O  O17  1  0.55279286  0.32757565  0.05941566  1
  O  O18  1  0.44533289  0.09874740  0.17777193  1
  O  O19  1  0.94720714  0.05941566  0.17242435  1
  O  O20  1  0.25481743  0.84754450  0.12971390  1
  O  O21  1  0.94533289  0.82222807  0.59874740  1
  O  O22  1  0.05279286  0.94058434  0.82757565  1
  O  O23  1  0.44720714  0.67242435  0.94058434  1
  O  O24  1  0.44533289  0.40125260  0.32222807  1
  O  O25  1  0.44720714  0.82757565  0.55941566  1
  O  O26  1  0.05466711  0.32222807  0.09874740  1
  O  O27  1  0.55466711  0.90125260  0.82222807  1
  O  O28  1  0.74518257  0.34754450  0.62971390  1
  O  O29  1  0.24518257  0.37028610  0.84754450  1
  O  O30  1  0.94720714  0.44058434  0.32757565  1
  O  O31  1  0.55466711  0.59874740  0.67777193  1
  O  O32  1  0.55279286  0.17242435  0.44058434  1
  O  O33  1  0.94533289  0.67777193  0.90125260  1
