# generated using pymatgen
data_Pr6S4N3Cl
_symmetry_space_group_name_H-M   'P 1'
_cell_length_a   4.06621778
_cell_length_b   11.87080606
_cell_length_c   26.94831995
_cell_angle_alpha   90.00000000
_cell_angle_beta   90.00000000
_cell_angle_gamma   90.00000000
_symmetry_Int_Tables_number   1
_chemical_formula_structural   Pr6S4N3Cl
_chemical_formula_sum   'Pr24 S16 N12 Cl4'
_cell_volume   1300.77607299
_cell_formula_units_Z   4
loop_
 _symmetry_equiv_pos_site_id
 _symmetry_equiv_pos_as_xyz
  1  'x, y, z'
loop_
 _atom_site_type_symbol
 _atom_site_label
 _atom_site_symmetry_multiplicity
 _atom_site_fract_x
 _atom_site_fract_y
 _atom_site_fract_z
 _atom_site_occupancy
  Pr  Pr0  1  0.75000000  0.26464649  0.83085357  1
  Pr  Pr1  1  0.25000000  0.23535351  0.33085357  1
  Pr  Pr2  1  0.25000000  0.23463143  0.06549553  1
  Pr  Pr3  1  0.25000000  0.91156860  0.04043472  1
  Pr  Pr4  1  0.25000000  0.44533309  0.19070281  1
  Pr  Pr5  1  0.75000000  0.05466691  0.69070281  1
  Pr  Pr6  1  0.25000000  0.41156860  0.45956528  1
  Pr  Pr7  1  0.75000000  0.08843140  0.95956528  1
  Pr  Pr8  1  0.75000000  0.58843140  0.54043472  1
  Pr  Pr9  1  0.25000000  0.88304912  0.79473780  1
  Pr  Pr10  1  0.75000000  0.61695088  0.29473780  1
  Pr  Pr11  1  0.75000000  0.76536857  0.93450447  1
  Pr  Pr12  1  0.75000000  0.55836901  0.07382764  1
  Pr  Pr13  1  0.75000000  0.05836901  0.42617236  1
  Pr  Pr14  1  0.75000000  0.76464649  0.66914643  1
  Pr  Pr15  1  0.75000000  0.26536857  0.56549553  1
  Pr  Pr16  1  0.25000000  0.73535351  0.16914643  1
  Pr  Pr17  1  0.25000000  0.73463143  0.43450447  1
  Pr  Pr18  1  0.25000000  0.38304912  0.70526220  1
  Pr  Pr19  1  0.25000000  0.94533309  0.30929719  1
  Pr  Pr20  1  0.75000000  0.11695088  0.20526220  1
  Pr  Pr21  1  0.75000000  0.55466691  0.80929719  1
  Pr  Pr22  1  0.25000000  0.94163099  0.57382764  1
  Pr  Pr23  1  0.25000000  0.44163099  0.92617236  1
  S  S24  1  0.75000000  0.45481160  0.63472592  1
  S  S25  1  0.75000000  0.95481160  0.86527408  1
  S  S26  1  0.75000000  0.78622118  0.10374619  1
  S  S27  1  0.25000000  0.14593637  0.50722691  1
  S  S28  1  0.75000000  0.35406363  0.00722691  1
  S  S29  1  0.25000000  0.68194910  0.85909295  1
  S  S30  1  0.75000000  0.31805090  0.14090705  1
  S  S31  1  0.25000000  0.54518840  0.36527408  1
  S  S32  1  0.75000000  0.28622118  0.39625381  1
  S  S33  1  0.25000000  0.64593637  0.99277309  1
  S  S34  1  0.25000000  0.04518840  0.13472592  1
  S  S35  1  0.25000000  0.18194910  0.64090705  1
  S  S36  1  0.25000000  0.71377882  0.60374619  1
  S  S37  1  0.75000000  0.81805090  0.35909295  1
  S  S38  1  0.25000000  0.21377882  0.89625381  1
  S  S39  1  0.75000000  0.85406363  0.49277309  1
  N  N40  1  0.25000000  0.61193625  0.23963570  1
  N  N41  1  0.75000000  0.88806375  0.73963570  1
  N  N42  1  0.25000000  0.56204529  0.12378534  1
  N  N43  1  0.75000000  0.38806375  0.76036430  1
  N  N44  1  0.25000000  0.06204529  0.37621466  1
  N  N45  1  0.25000000  0.09772390  0.00951821  1
  N  N46  1  0.25000000  0.11193625  0.26036430  1
  N  N47  1  0.75000000  0.40227610  0.50951821  1
  N  N48  1  0.75000000  0.43795471  0.87621466  1
  N  N49  1  0.75000000  0.90227610  0.99048179  1
  N  N50  1  0.25000000  0.59772390  0.49048179  1
  N  N51  1  0.75000000  0.93795471  0.62378534  1
  Cl  Cl52  1  0.75000000  0.86790514  0.23279117  1
  Cl  Cl53  1  0.25000000  0.63209486  0.73279117  1
  Cl  Cl54  1  0.75000000  0.36790514  0.26720883  1
  Cl  Cl55  1  0.25000000  0.13209486  0.76720883  1
