# generated using pymatgen
data_SbSNF5
_symmetry_space_group_name_H-M   'P 1'
_cell_length_a   8.58904832
_cell_length_b   15.97295403
_cell_length_c   16.50851141
_cell_angle_alpha   90.00000000
_cell_angle_beta   90.00000000
_cell_angle_gamma   100.57924321
_symmetry_Int_Tables_number   1
_chemical_formula_structural   SbSNF5
_chemical_formula_sum   'Sb16 S16 N16 F80'
_cell_volume   2226.34554300
_cell_formula_units_Z   16
loop_
 _symmetry_equiv_pos_site_id
 _symmetry_equiv_pos_as_xyz
  1  'x, y, z'
loop_
 _atom_site_type_symbol
 _atom_site_label
 _atom_site_symmetry_multiplicity
 _atom_site_fract_x
 _atom_site_fract_y
 _atom_site_fract_z
 _atom_site_occupancy
  Sb  Sb0  1  0.94133860  0.74442660  0.75503938  1
  Sb  Sb1  1  0.94133860  0.24442660  0.74496062  1
  Sb  Sb2  1  0.60983390  0.29497439  0.02239525  1
  Sb  Sb3  1  0.05866140  0.25557340  0.24496062  1
  Sb  Sb4  1  0.62739222  0.97012031  0.16808148  1
  Sb  Sb5  1  0.52438709  0.67906062  0.21523538  1
  Sb  Sb6  1  0.37260778  0.02987969  0.83191852  1
  Sb  Sb7  1  0.52438709  0.17906062  0.28476462  1
  Sb  Sb8  1  0.37260778  0.52987969  0.66808148  1
  Sb  Sb9  1  0.62739222  0.47012031  0.33191852  1
  Sb  Sb10  1  0.39016610  0.70502561  0.97760475  1
  Sb  Sb11  1  0.60983390  0.79497439  0.47760475  1
  Sb  Sb12  1  0.39016610  0.20502561  0.52239525  1
  Sb  Sb13  1  0.05866140  0.75557340  0.25503938  1
  Sb  Sb14  1  0.47561291  0.32093938  0.78476462  1
  Sb  Sb15  1  0.47561291  0.82093938  0.71523538  1
  S  S16  1  0.04524398  0.13635295  0.99364901  1
  S  S17  1  0.86348327  0.99326036  0.89078490  1
  S  S18  1  0.13651673  0.00673964  0.10921510  1
  S  S19  1  0.86348327  0.49326036  0.60921510  1
  S  S20  1  0.95806103  0.49342304  0.87129906  1
  S  S21  1  0.04193897  0.50657696  0.12870094  1
  S  S22  1  0.04193897  0.00657696  0.37129906  1
  S  S23  1  0.80966957  0.56838616  0.01398397  1
  S  S24  1  0.95806103  0.99342304  0.62870094  1
  S  S25  1  0.19033043  0.93161384  0.51398397  1
  S  S26  1  0.19033043  0.43161384  0.98601603  1
  S  S27  1  0.04524398  0.63635295  0.50635099  1
  S  S28  1  0.13651673  0.50673964  0.39078490  1
  S  S29  1  0.95475602  0.36364705  0.49364901  1
  S  S30  1  0.95475602  0.86364705  0.00635099  1
  S  S31  1  0.80966957  0.06838616  0.48601603  1
  N  N32  1  0.90897917  0.04631648  0.41241990  1
  N  N33  1  0.11648829  0.59063974  0.43523481  1
  N  N34  1  0.09102083  0.95368352  0.58758010  1
  N  N35  1  0.14688196  0.46057971  0.07247645  1
  N  N36  1  0.85311804  0.03942029  0.57247645  1
  N  N37  1  0.05622362  0.42032906  0.42898690  1
  N  N38  1  0.05622362  0.92032906  0.07101310  1
  N  N39  1  0.11648829  0.09063974  0.06476519  1
  N  N40  1  0.09102083  0.45368352  0.91241990  1
  N  N41  1  0.94377638  0.57967094  0.57101310  1
  N  N42  1  0.88351171  0.90936026  0.93523481  1
  N  N43  1  0.94377638  0.07967094  0.92898690  1
  N  N44  1  0.85311804  0.53942029  0.92752355  1
  N  N45  1  0.88351171  0.40936026  0.56476519  1
  N  N46  1  0.90897917  0.54631648  0.08758010  1
  N  N47  1  0.14688196  0.96057971  0.42752355  1
  F  F48  1  0.39642760  0.73437136  0.47817274  1
  F  F49  1  0.36065931  0.14475170  0.86165758  1
  F  F50  1  0.60357240  0.26562864  0.52182726  1
  F  F51  1  0.39642760  0.23437136  0.02182726  1
  F  F52  1  0.16560337  0.24643496  0.75448741  1
  F  F53  1  0.50852270  0.06523242  0.74335809  1
  F  F54  1  0.80937981  0.97645194  0.23583486  1
  F  F55  1  0.63934069  0.85524830  0.13834242  1
  F  F56  1  0.83439663  0.25356504  0.25448741  1
  F  F57  1  0.37777463  0.40781713  0.69311197  1
  F  F58  1  0.06651535  0.74351922  0.13954378  1
  F  F59  1  0.49147730  0.43476758  0.24335809  1
  F  F60  1  0.06651535  0.24351922  0.36045622  1
  F  F61  1  0.82025725  0.36239260  0.01451461  1
  F  F62  1  0.37777463  0.90781713  0.80688803  1
  F  F63  1  0.46404751  0.09895904  0.52271781  1
  F  F64  1  0.63647421  0.11961859  0.36103262  1
  F  F65  1  0.80937981  0.47645194  0.26416514  1
  F  F66  1  0.38195756  0.20812484  0.63766183  1
  F  F67  1  0.16560337  0.74643496  0.74551259  1
  F  F68  1  0.39754941  0.20384779  0.40140199  1
  F  F69  1  0.02035752  0.13410279  0.23339005  1
  F  F70  1  0.61804244  0.79187516  0.36233817  1
  F  F71  1  0.69477137  0.69354090  0.48640554  1
  F  F72  1  0.02035752  0.63410279  0.26660995  1
  F  F73  1  0.30522863  0.80645910  0.98640554  1
  F  F74  1  0.28361434  0.25646302  0.23774410  1
  F  F75  1  0.65557378  0.91406362  0.72101127  1
  F  F76  1  0.61804244  0.29187516  0.13766183  1
  F  F77  1  0.46404751  0.59895904  0.97728219  1
  F  F78  1  0.95264321  0.23272181  0.62936410  1
  F  F79  1  0.36352579  0.38038141  0.86103262  1
  F  F80  1  0.04735679  0.76727819  0.37063590  1
  F  F81  1  0.04735679  0.26727819  0.12936410  1
  F  F82  1  0.63934069  0.35524830  0.36165758  1
  F  F83  1  0.09905807  0.87753156  0.24571971  1
  F  F84  1  0.45137546  0.97201716  0.09779040  1
  F  F85  1  0.60245059  0.29615221  0.90140199  1
  F  F86  1  0.34442622  0.58593638  0.22101127  1
  F  F87  1  0.69477137  0.19354090  0.01359446  1
  F  F88  1  0.65557378  0.41406362  0.77898873  1
  F  F89  1  0.95264321  0.73272181  0.87063590  1
  F  F90  1  0.76921946  0.01046960  0.08006543  1
  F  F91  1  0.17974275  0.13760740  0.51451461  1
  F  F92  1  0.17974275  0.63760740  0.98548539  1
  F  F93  1  0.76921946  0.51046960  0.41993457  1
  F  F94  1  0.28361434  0.75646302  0.26225590  1
  F  F95  1  0.19062019  0.02354806  0.76416514  1
  F  F96  1  0.90094193  0.12246844  0.75428029  1
  F  F97  1  0.93348465  0.75648078  0.63954378  1
  F  F98  1  0.97964248  0.86589721  0.76660995  1
  F  F99  1  0.38195756  0.70812484  0.86233817  1
  F  F100  1  0.53595249  0.40104096  0.02271781  1
  F  F101  1  0.62222537  0.09218287  0.19311197  1
  F  F102  1  0.09905807  0.37753156  0.25428029  1
  F  F103  1  0.49147730  0.93476758  0.25664191  1
  F  F104  1  0.54862454  0.52798284  0.59779040  1
  F  F105  1  0.23078054  0.98953040  0.91993457  1
  F  F106  1  0.36065931  0.64475170  0.63834242  1
  F  F107  1  0.54862454  0.02798284  0.90220960  1
  F  F108  1  0.83439663  0.75356504  0.24551259  1
  F  F109  1  0.34442622  0.08593638  0.27898873  1
  F  F110  1  0.63647421  0.61961859  0.13896738  1
  F  F111  1  0.45137546  0.47201716  0.40220960  1
  F  F112  1  0.62222537  0.59218287  0.30688803  1
  F  F113  1  0.82025725  0.86239260  0.48548539  1
  F  F114  1  0.53595249  0.90104096  0.47728219  1
  F  F115  1  0.71638566  0.74353698  0.76225590  1
  F  F116  1  0.60245059  0.79615221  0.59859801  1
  F  F117  1  0.36352579  0.88038141  0.63896738  1
  F  F118  1  0.50852270  0.56523242  0.75664191  1
  F  F119  1  0.71638566  0.24353698  0.73774410  1
  F  F120  1  0.39754941  0.70384779  0.09859801  1
  F  F121  1  0.30522863  0.30645910  0.51359446  1
  F  F122  1  0.19062019  0.52354806  0.73583486  1
  F  F123  1  0.60357240  0.76562864  0.97817274  1
  F  F124  1  0.23078054  0.48953040  0.58006543  1
  F  F125  1  0.97964248  0.36589721  0.73339005  1
  F  F126  1  0.90094193  0.62246844  0.74571971  1
  F  F127  1  0.93348465  0.25648078  0.86045622  1
