# generated using pymatgen
data_NpAgSeO5
_symmetry_space_group_name_H-M   'P 1'
_cell_length_a   7.21154185
_cell_length_b   8.45458595
_cell_length_c   8.45853215
_cell_angle_alpha   89.34535514
_cell_angle_beta   77.35197278
_cell_angle_gamma   77.09283998
_symmetry_Int_Tables_number   1
_chemical_formula_structural   NpAgSeO5
_chemical_formula_sum   'Np4 Ag4 Se4 O20'
_cell_volume   490.11156877
_cell_formula_units_Z   4
loop_
 _symmetry_equiv_pos_site_id
 _symmetry_equiv_pos_as_xyz
  1  'x, y, z'
loop_
 _atom_site_type_symbol
 _atom_site_label
 _atom_site_symmetry_multiplicity
 _atom_site_fract_x
 _atom_site_fract_y
 _atom_site_fract_z
 _atom_site_occupancy
  Np  Np0  1  0.50358629  0.24398301  0.74305632  1
  Np  Np1  1  0.38696128  0.28220037  0.26270834  1
  Np  Np2  1  0.61303872  0.71779963  0.73729166  1
  Np  Np3  1  0.49641371  0.75601699  0.25694368  1
  Ag  Ag4  1  0.81058097  0.97462198  0.99249974  1
  Ag  Ag5  1  0.18941903  0.02537802  0.00750026  1
  Ag  Ag6  1  0.88277977  0.90539497  0.39998661  1
  Ag  Ag7  1  0.11722023  0.09460503  0.60001339  1
  Se  Se8  1  0.09425964  0.63124996  0.11698024  1
  Se  Se9  1  0.90574036  0.36875004  0.88301976  1
  Se  Se10  1  0.84870946  0.28750621  0.34672969  1
  Se  Se11  1  0.15129054  0.71249379  0.65327031  1
  O  O12  1  0.41164279  0.29391398  0.03567409  1
  O  O13  1  0.14741669  0.25477206  0.82741509  1
  O  O14  1  0.20452553  0.78542299  0.15929933  1
  O  O15  1  0.79547447  0.21457701  0.84070067  1
  O  O16  1  0.36637348  0.26482105  0.49007008  1
  O  O17  1  0.21910563  0.82709303  0.48482156  1
  O  O18  1  0.88565919  0.48866885  0.72069449  1
  O  O19  1  0.52212035  0.01720164  0.77060683  1
  O  O20  1  0.85258331  0.74522794  0.17258491  1
  O  O21  1  0.63362652  0.73517895  0.50992992  1
  O  O22  1  0.26164312  0.79035242  0.78833673  1
  O  O23  1  0.08759466  0.17965902  0.27924993  1
  O  O24  1  0.49294066  0.46746881  0.72344902  1
  O  O25  1  0.47787965  0.98279836  0.22939317  1
  O  O26  1  0.50705934  0.53253119  0.27655098  1
  O  O27  1  0.91240534  0.82034098  0.72075007  1
  O  O28  1  0.58835721  0.70608602  0.96432591  1
  O  O29  1  0.78089437  0.17290697  0.51517844  1
  O  O30  1  0.11434081  0.51133115  0.27930551  1
  O  O31  1  0.73835688  0.20964758  0.21166327  1
