# generated using pymatgen
data_S
_symmetry_space_group_name_H-M   'P 1'
_cell_length_a   9.65966852
_cell_length_b   10.06913362
_cell_length_c   11.85470281
_cell_angle_alpha   115.13100381
_cell_angle_beta   101.16570930
_cell_angle_gamma   90.00000446
_symmetry_Int_Tables_number   1
_chemical_formula_structural   S
_chemical_formula_sum   S32
_cell_volume   1019.73459958
_cell_formula_units_Z   32
loop_
 _symmetry_equiv_pos_site_id
 _symmetry_equiv_pos_as_xyz
  1  'x, y, z'
loop_
 _atom_site_type_symbol
 _atom_site_label
 _atom_site_symmetry_multiplicity
 _atom_site_fract_x
 _atom_site_fract_y
 _atom_site_fract_z
 _atom_site_occupancy
  S  S0  1  0.13853823  0.03448090  0.91646865  1
  S  S1  1  0.30719594  0.41564428  0.92675494  1
  S  S2  1  0.04251355  0.75792076  0.39418828  1
  S  S3  1  0.07795229  0.56152019  0.25222981  1
  S  S4  1  0.25131015  0.46748209  0.30762099  1
  S  S5  1  0.31351348  0.45359508  0.58960087  1
  S  S6  1  0.42204771  0.80929039  0.74777019  1
  S  S7  1  0.68648652  0.54640492  0.41039913  1
  S  S8  1  0.75131015  0.34013890  0.30762099  1
  S  S9  1  0.57795229  0.19070961  0.25222981  1
  S  S10  1  0.74868985  0.53251791  0.69237901  1
  S  S11  1  0.36146177  0.61801225  0.08353135  1
  S  S12  1  0.19280406  0.98888935  0.07324506  1
  S  S13  1  0.52945027  0.70753636  0.04444490  1
  S  S14  1  0.86146177  0.96551910  0.08353135  1
  S  S15  1  0.92204771  0.43847981  0.74777019  1
  S  S16  1  0.97054973  0.16309146  0.95555510  1
  S  S17  1  0.63853823  0.38198775  0.91646865  1
  S  S18  1  0.24868985  0.65986110  0.69237901  1
  S  S19  1  0.69280406  0.58435572  0.07324506  1
  S  S20  1  0.69048644  0.99065542  0.40871447  1
  S  S21  1  0.81351348  0.63600579  0.58960087  1
  S  S22  1  0.02945027  0.83690854  0.04444490  1
  S  S23  1  0.18648652  0.36399421  0.41039913  1
  S  S24  1  0.30951356  0.00934458  0.59128553  1
  S  S25  1  0.80719594  0.01111065  0.92675494  1
  S  S26  1  0.54251355  0.13626752  0.39418828  1
  S  S27  1  0.80951356  0.08194095  0.59128553  1
  S  S28  1  0.47054973  0.29246364  0.95555510  1
  S  S29  1  0.45748645  0.86373248  0.60581172  1
  S  S30  1  0.95748645  0.24207924  0.60581172  1
  S  S31  1  0.19048644  0.91805905  0.40871447  1
