# generated using pymatgen
data_LiLa5Ti8O24
_symmetry_space_group_name_H-M   'P 1'
_cell_length_a   7.87643124
_cell_length_b   7.82501141
_cell_length_c   7.79476410
_cell_angle_alpha   90.00000000
_cell_angle_beta   90.00000000
_cell_angle_gamma   90.24195130
_symmetry_Int_Tables_number   1
_chemical_formula_structural   LiLa5Ti8O24
_chemical_formula_sum   'Li1 La5 Ti8 O24'
_cell_volume   480.41169309
_cell_formula_units_Z   1
loop_
 _symmetry_equiv_pos_site_id
 _symmetry_equiv_pos_as_xyz
  1  'x, y, z'
loop_
 _atom_site_type_symbol
 _atom_site_label
 _atom_site_symmetry_multiplicity
 _atom_site_fract_x
 _atom_site_fract_y
 _atom_site_fract_z
 _atom_site_occupancy
  Li  Li0  1  0.75584912  0.75532121  0.00000000  1
  La  La1  1  0.24303567  0.02832821  0.50000000  1
  La  La2  1  0.74634369  0.49909161  0.50000000  1
  La  La3  1  0.74222186  1.00448559  0.50000000  1
  La  La4  1  0.25813332  0.50476719  0.00000000  1
  La  La5  1  0.24529065  0.00543825  0.00000000  1
  Ti  Ti6  1  0.00154418  0.75175893  0.25143002  1
  Ti  Ti7  1  0.50212818  0.26011513  0.75573221  1
  Ti  Ti8  1  0.50212818  0.26011513  0.24426779  1
  Ti  Ti9  1  0.99184722  0.26118983  0.75439778  1
  Ti  Ti10  1  0.99184722  0.26118983  0.24560222  1
  Ti  Ti11  1  0.49860411  0.75100314  0.74922861  1
  Ti  Ti12  1  0.49860411  0.75100314  0.25077139  1
  Ti  Ti13  1  0.00154418  0.75175893  0.74856998  1
  O  O14  1  0.25799658  0.73962272  0.77431480  1
  O  O15  1  0.03788311  0.27249487  0.00000000  1
  O  O16  1  0.52107388  0.26530642  0.50000000  1
  O  O17  1  0.03000717  0.99564799  0.76918372  1
  O  O18  1  1.01005762  0.78698261  0.50000000  1
  O  O19  1  -0.00653993  0.49637986  0.71955679  1
  O  O20  1  0.25810226  0.24315515  0.74533637  1
  O  O21  1  0.75886675  0.75752934  0.26167656  1
  O  O22  1  0.00638564  0.72304193  0.00000000  1
  O  O23  1  0.75614840  0.23569773  0.26670093  1
  O  O24  1  0.25810226  0.24315515  0.25466363  1
  O  O25  1  0.51129477  0.49599548  0.22208632  1
  O  O26  1  0.75614840  0.23569773  0.73329907  1
  O  O27  1  0.51129477  0.49599548  0.77791368  1
  O  O28  1  0.50946228  0.77548080  0.00000000  1
  O  O29  1  0.52232475  0.71867917  0.50000000  1
  O  O30  1  0.48962927  0.99245863  0.29227532  1
  O  O31  1  0.25799658  0.73962272  0.22568520  1
  O  O32  1  0.47844568  0.21871067  0.00000000  1
  O  O33  1  0.48962927  0.99245863  0.70772468  1
  O  O34  1  -0.00653993  0.49637986  0.28044321  1
  O  O35  1  0.99736479  0.20957355  0.50000000  1
  O  O36  1  0.75886675  0.75752934  0.73832344  1
  O  O37  1  0.03000717  0.99564799  0.23081628  1
