# generated using pymatgen
data_LaMg6Sn
_symmetry_space_group_name_H-M   'P 1'
_cell_length_a   6.80967820
_cell_length_b   6.52994585
_cell_length_c   5.25372929
_cell_angle_alpha   90.00000000
_cell_angle_beta   90.00000000
_cell_angle_gamma   118.65018988
_symmetry_Int_Tables_number   1
_chemical_formula_structural   LaMg6Sn
_chemical_formula_sum   'La1 Mg6 Sn1'
_cell_volume   205.01343401
_cell_formula_units_Z   1
loop_
 _symmetry_equiv_pos_site_id
 _symmetry_equiv_pos_as_xyz
  1  'x, y, z'
loop_
 _atom_site_type_symbol
 _atom_site_label
 _atom_site_symmetry_multiplicity
 _atom_site_fract_x
 _atom_site_fract_y
 _atom_site_fract_z
 _atom_site_occupancy
  La  La0  1  0.15922316  0.82961108  0.25000000  1
  Mg  Mg1  1  0.66377397  0.33402670  0.25000000  1
  Mg  Mg2  1  0.66377397  0.82974627  0.25000000  1
  Mg  Mg3  1  0.34498487  0.17679850  0.75000000  1
  Mg  Mg4  1  0.34498487  0.66818737  0.75000000  1
  Mg  Mg5  1  0.83074144  0.16537122  0.75000000  1
  Mg  Mg6  1  0.82284666  0.66142383  0.75000000  1
  Sn  Sn7  1  0.16967106  0.33483503  0.25000000  1
