# generated using pymatgen
data_K3AgC4(SN)4
_symmetry_space_group_name_H-M   'P 1'
_cell_length_a   8.10238715
_cell_length_b   12.91951133
_cell_length_c   14.73135272
_cell_angle_alpha   90.00000000
_cell_angle_beta   104.49069642
_cell_angle_gamma   90.00000000
_symmetry_Int_Tables_number   1
_chemical_formula_structural   K3AgC4(SN)4
_chemical_formula_sum   'K12 Ag4 C16 S16 N16'
_cell_volume   1493.00591674
_cell_formula_units_Z   4
loop_
 _symmetry_equiv_pos_site_id
 _symmetry_equiv_pos_as_xyz
  1  'x, y, z'
loop_
 _atom_site_type_symbol
 _atom_site_label
 _atom_site_symmetry_multiplicity
 _atom_site_fract_x
 _atom_site_fract_y
 _atom_site_fract_z
 _atom_site_occupancy
  K  K0  1  0.46438790  0.74707020  0.97570825  1
  K  K1  1  0.53561210  0.25292980  0.02429175  1
  K  K2  1  0.65804003  0.99087976  0.30182407  1
  K  K3  1  0.91008919  0.74252087  0.48031898  1
  K  K4  1  0.96438790  0.75292980  0.97570825  1
  K  K5  1  0.03561210  0.24707020  0.02429175  1
  K  K6  1  0.41008919  0.75747913  0.48031898  1
  K  K7  1  0.15804003  0.50912024  0.30182407  1
  K  K8  1  0.34195997  0.00912024  0.69817593  1
  K  K9  1  0.84195997  0.49087976  0.69817593  1
  K  K10  1  0.08991081  0.25747913  0.51968102  1
  K  K11  1  0.58991081  0.24252087  0.51968102  1
  Ag  Ag12  1  0.63466560  0.48715688  0.22325429  1
  Ag  Ag13  1  0.86533440  0.98715688  0.77674571  1
  Ag  Ag14  1  0.13466560  0.01284312  0.22325429  1
  Ag  Ag15  1  0.36533440  0.51284312  0.77674571  1
  C  C16  1  0.21340082  0.27409471  0.77471468  1
  C  C17  1  0.78659918  0.72590529  0.22528532  1
  C  C18  1  0.19865115  0.74588393  0.69000175  1
  C  C19  1  0.80134885  0.25411607  0.30999825  1
  C  C20  1  0.76733050  0.96694972  0.05884831  1
  C  C21  1  0.30134885  0.24588393  0.30999825  1
  C  C22  1  0.23266950  0.03305028  0.94115169  1
  C  C23  1  0.26733050  0.53305028  0.05884831  1
  C  C24  1  0.28659918  0.77409471  0.22528532  1
  C  C25  1  0.71340082  0.22590529  0.77471468  1
  C  C26  1  0.25955722  0.52780169  0.54036518  1
  C  C27  1  0.24044278  0.02780169  0.45963482  1
  C  C28  1  0.73266950  0.46694972  0.94115169  1
  C  C29  1  0.75955722  0.97219831  0.54036518  1
  C  C30  1  0.74044278  0.47219831  0.45963482  1
  C  C31  1  0.69865115  0.75411607  0.69000175  1
  S  S32  1  0.62001257  0.55411718  0.38680316  1
  S  S33  1  0.78279010  0.63226797  0.14858041  1
  S  S34  1  0.17224016  0.93202179  0.87263956  1
  S  S35  1  0.32782728  0.17278290  0.22319803  1
  S  S36  1  0.32775984  0.43202179  0.12736044  1
  S  S37  1  0.12001257  0.94588282  0.38680316  1
  S  S38  1  0.82775984  0.06797821  0.12736044  1
  S  S39  1  0.67224016  0.56797821  0.87263956  1
  S  S40  1  0.17217272  0.67278290  0.77680197  1
  S  S41  1  0.82782728  0.32721710  0.22319803  1
  S  S42  1  0.28279010  0.86773203  0.14858041  1
  S  S43  1  0.37998743  0.44588282  0.61319684  1
  S  S44  1  0.71720990  0.13226797  0.85141959  1
  S  S45  1  0.87998743  0.05411718  0.61319684  1
  S  S46  1  0.21720990  0.36773203  0.85141959  1
  S  S47  1  0.67217272  0.82721710  0.77680197  1
  N  N48  1  0.28353206  0.30016856  0.37187036  1
  N  N49  1  0.27813661  0.10527371  0.99050541  1
  N  N50  1  0.28969927  0.70739262  0.28077535  1
  N  N51  1  0.17343670  0.58603811  0.48616494  1
  N  N52  1  0.71646794  0.69983144  0.62812964  1
  N  N53  1  0.32656330  0.08603811  0.51383506  1
  N  N54  1  0.78353206  0.19983144  0.37187036  1
  N  N55  1  0.72186339  0.89472629  0.00949459  1
  N  N56  1  0.82656330  0.41396189  0.51383506  1
  N  N57  1  0.21030073  0.20739262  0.71922465  1
  N  N58  1  0.77813661  0.39472629  0.99050541  1
  N  N59  1  0.22186339  0.60527371  0.00949459  1
  N  N60  1  0.21646794  0.80016856  0.62812964  1
  N  N61  1  0.78969927  0.79260738  0.28077535  1
  N  N62  1  0.71030073  0.29260738  0.71922465  1
  N  N63  1  0.67343670  0.91396189  0.48616494  1
