# generated using pymatgen
data_Ho2O3
_symmetry_space_group_name_H-M   'P 1'
_cell_length_a   3.48399204
_cell_length_b   7.21624528
_cell_length_c   8.61434897
_cell_angle_alpha   100.06605941
_cell_angle_beta   90.00000000
_cell_angle_gamma   103.96913849
_symmetry_Int_Tables_number   1
_chemical_formula_structural   Ho2O3
_chemical_formula_sum   'Ho6 O9'
_cell_volume   206.73419138
_cell_formula_units_Z   3
loop_
 _symmetry_equiv_pos_site_id
 _symmetry_equiv_pos_as_xyz
  1  'x, y, z'
loop_
 _atom_site_type_symbol
 _atom_site_label
 _atom_site_symmetry_multiplicity
 _atom_site_fract_x
 _atom_site_fract_y
 _atom_site_fract_z
 _atom_site_occupancy
  Ho  Ho0  1  0.03212498  0.06424996  0.81385771  1
  Ho  Ho1  1  0.69145761  0.38291523  0.13723522  1
  Ho  Ho2  1  0.36499625  0.72999250  0.51203083  1
  Ho  Ho3  1  0.30854239  0.61708477  0.86276478  1
  Ho  Ho4  1  0.63500375  0.27000750  0.48796917  1
  Ho  Ho5  1  0.96787502  0.93575004  0.18614229  1
  O  O6  1  0.17462816  0.34925632  0.96947436  1
  O  O7  1  0.50000000  0.00000000  0.00000000  1
  O  O8  1  0.82537184  0.65074368  0.03052564  1
  O  O9  1  0.87218431  0.74436862  0.71826086  1
  O  O10  1  0.20635843  0.41271686  0.62291742  1
  O  O11  1  0.79364157  0.58728314  0.37708258  1
  O  O12  1  0.12781569  0.25563138  0.28173914  1
  O  O13  1  0.52920756  0.05841511  0.65698532  1
  O  O14  1  0.47079244  0.94158489  0.34301468  1
