# generated using pymatgen
data_Ca(CO2)2
_symmetry_space_group_name_H-M   'P 1'
_cell_length_a   6.23667372
_cell_length_b   7.48657035
_cell_length_c   9.66805048
_cell_angle_alpha   90.00000000
_cell_angle_beta   89.11755731
_cell_angle_gamma   90.00000000
_symmetry_Int_Tables_number   1
_chemical_formula_structural   Ca(CO2)2
_chemical_formula_sum   'Ca4 C8 O16'
_cell_volume   451.36027399
_cell_formula_units_Z   4
loop_
 _symmetry_equiv_pos_site_id
 _symmetry_equiv_pos_as_xyz
  1  'x, y, z'
loop_
 _atom_site_type_symbol
 _atom_site_label
 _atom_site_symmetry_multiplicity
 _atom_site_fract_x
 _atom_site_fract_y
 _atom_site_fract_z
 _atom_site_occupancy
  Ca  Ca0  1  0.40482902  0.50000000  0.18081798  1
  Ca  Ca1  1  0.59517098  0.50000000  0.81918202  1
  Ca  Ca2  1  0.58628705  0.00000000  0.67954406  1
  Ca  Ca3  1  0.41371295  0.00000000  0.32045594  1
  C  C4  1  0.50000000  0.89536112  0.00000000  1
  C  C5  1  0.50000000  0.39549039  0.50000000  1
  C  C6  1  0.93111522  0.50000000  0.06842008  1
  C  C7  1  0.50000000  0.10463888  0.00000000  1
  C  C8  1  0.50000000  0.60450961  0.50000000  1
  C  C9  1  0.06473575  0.00000000  0.56869663  1
  C  C10  1  0.06888478  0.50000000  0.93157992  1
  C  C11  1  0.93526425  0.00000000  0.43130337  1
  O  O12  1  0.54815575  0.18040079  0.88647674  1
  O  O13  1  0.45184425  0.18040079  0.11352326  1
  O  O14  1  0.45184425  0.81959921  0.11352326  1
  O  O15  1  0.54841044  0.68023483  0.61254492  1
  O  O16  1  0.72857189  0.50000000  0.05211368  1
  O  O17  1  0.54841044  0.31976517  0.61254492  1
  O  O18  1  0.02669145  0.50000000  0.18190427  1
  O  O19  1  0.03741749  0.00000000  0.31829201  1
  O  O20  1  0.45158956  0.31976517  0.38745508  1
  O  O21  1  0.45158956  0.68023483  0.38745508  1
  O  O22  1  0.96258251  0.00000000  0.68170799  1
  O  O23  1  0.97330855  0.50000000  0.81809573  1
  O  O24  1  0.27142811  0.50000000  0.94788632  1
  O  O25  1  0.73183284  0.00000000  0.44666446  1
  O  O26  1  0.26816716  0.00000000  0.55333554  1
  O  O27  1  0.54815575  0.81959921  0.88647674  1
