# generated using pymatgen
data_Cu2H3ClO3
_symmetry_space_group_name_H-M   'P 1'
_cell_length_a   5.80105809
_cell_length_b   5.74176398
_cell_length_c   6.17329967
_cell_angle_alpha   90.00000000
_cell_angle_beta   90.00000000
_cell_angle_gamma   90.59941942
_symmetry_Int_Tables_number   1
_chemical_formula_structural   Cu2H3ClO3
_chemical_formula_sum   'Cu4 H6 Cl2 O6'
_cell_volume   205.61090434
_cell_formula_units_Z   2
loop_
 _symmetry_equiv_pos_site_id
 _symmetry_equiv_pos_as_xyz
  1  'x, y, z'
loop_
 _atom_site_type_symbol
 _atom_site_label
 _atom_site_symmetry_multiplicity
 _atom_site_fract_x
 _atom_site_fract_y
 _atom_site_fract_z
 _atom_site_occupancy
  Cu  Cu0  1  0.99245456  0.52707299  0.75000000  1
  Cu  Cu1  1  0.50000000  0.50000000  0.00000000  1
  Cu  Cu2  1  0.50000000  0.50000000  0.50000000  1
  Cu  Cu3  1  0.00754544  0.47292701  0.25000000  1
  H  H4  1  0.19007425  0.80208371  0.04037757  1
  H  H5  1  0.46595082  0.17383713  0.75000000  1
  H  H6  1  0.53404918  0.82616287  0.25000000  1
  H  H7  1  0.19007425  0.80208371  0.45962243  1
  H  H8  1  0.80992575  0.19791629  0.95962243  1
  H  H9  1  0.80992575  0.19791629  0.54037757  1
  Cl  Cl10  1  0.27945906  0.10882816  0.25000000  1
  Cl  Cl11  1  0.72054094  0.89117184  0.75000000  1
  O  O12  1  0.81537716  0.36704553  0.50677147  1
  O  O13  1  0.60331888  0.66947367  0.25000000  1
  O  O14  1  0.39668112  0.33052633  0.75000000  1
  O  O15  1  0.18462284  0.63295447  0.49322853  1
  O  O16  1  0.18462284  0.63295447  0.00677147  1
  O  O17  1  0.81537716  0.36704553  0.99322853  1
