# generated using pymatgen
data_Na2MgSi5O12
_symmetry_space_group_name_H-M   'P 1'
_cell_length_a   5.33375984
_cell_length_b   8.73795878
_cell_length_c   9.34515596
_cell_angle_alpha   90.00000000
_cell_angle_beta   104.54542571
_cell_angle_gamma   90.00000000
_symmetry_Int_Tables_number   1
_chemical_formula_structural   Na2MgSi5O12
_chemical_formula_sum   'Na4 Mg2 Si10 O24'
_cell_volume   421.58233074
_cell_formula_units_Z   2
loop_
 _symmetry_equiv_pos_site_id
 _symmetry_equiv_pos_as_xyz
  1  'x, y, z'
loop_
 _atom_site_type_symbol
 _atom_site_label
 _atom_site_symmetry_multiplicity
 _atom_site_fract_x
 _atom_site_fract_y
 _atom_site_fract_z
 _atom_site_occupancy
  Na  Na0  1  0.00000000  0.45709377  0.75000000  1
  Na  Na1  1  0.00000000  0.54290623  0.25000000  1
  Na  Na2  1  0.50000000  0.05145627  0.75000000  1
  Na  Na3  1  0.50000000  0.94854373  0.25000000  1
  Mg  Mg4  1  0.50000000  0.65389506  0.75000000  1
  Mg  Mg5  1  0.50000000  0.34610494  0.25000000  1
  Si  Si6  1  0.69801392  0.33435146  0.96335908  1
  Si  Si7  1  0.81940480  0.84864863  0.04445045  1
  Si  Si8  1  0.18059520  0.84864863  0.45554955  1
  Si  Si9  1  0.69801392  0.66564854  0.46335908  1
  Si  Si10  1  0.18059520  0.15135137  0.95554955  1
  Si  Si11  1  0.30198608  0.66564854  0.03664092  1
  Si  Si12  1  0.81940480  0.15135137  0.54445045  1
  Si  Si13  1  0.00000000  0.84788622  0.75000000  1
  Si  Si14  1  0.30198608  0.33435146  0.53664092  1
  Si  Si15  1  0.00000000  0.15211378  0.25000000  1
  O  O16  1  0.41420759  0.75365151  0.40857464  1
  O  O17  1  0.69144534  0.49586865  0.40156873  1
  O  O18  1  0.58579241  0.24634849  0.59142536  1
  O  O19  1  0.30855466  0.49586865  0.09843127  1
  O  O20  1  0.10074416  0.23374872  0.61211135  1
  O  O21  1  0.79964148  0.69366381  0.64424956  1
  O  O22  1  0.23895453  0.84397962  0.63806354  1
  O  O23  1  0.20035852  0.30633619  0.35575044  1
  O  O24  1  0.79964148  0.30633619  0.14424956  1
  O  O25  1  0.41420759  0.24634849  0.90857464  1
  O  O26  1  0.10074416  0.76625128  0.11211135  1
  O  O27  1  0.58579241  0.75365151  0.09142536  1
  O  O28  1  0.20035852  0.69366381  0.85575044  1
  O  O29  1  0.69144534  0.50413135  0.90156873  1
  O  O30  1  0.76104547  0.15602038  0.36193646  1
  O  O31  1  0.89925584  0.76625128  0.38788865  1
  O  O32  1  0.18235912  0.01441582  0.37563262  1
  O  O33  1  0.81764088  0.01441582  0.12436738  1
  O  O34  1  0.18235912  0.98558418  0.87563262  1
  O  O35  1  0.30855466  0.50413135  0.59843127  1
  O  O36  1  0.81764088  0.98558418  0.62436738  1
  O  O37  1  0.76104547  0.84397962  0.86193646  1
  O  O38  1  0.89925584  0.23374872  0.88788865  1
  O  O39  1  0.23895453  0.15602038  0.13806354  1
