# generated using pymatgen
data_TiAgSe2
_symmetry_space_group_name_H-M   'P 1'
_cell_length_a   3.69170120
_cell_length_b   3.69170120
_cell_length_c   7.67661365
_cell_angle_alpha   76.08683062
_cell_angle_beta   76.08683062
_cell_angle_gamma   59.99999934
_symmetry_Int_Tables_number   1
_chemical_formula_structural   TiAgSe2
_chemical_formula_sum   'Ti1 Ag1 Se2'
_cell_volume   87.04289084
_cell_formula_units_Z   1
loop_
 _symmetry_equiv_pos_site_id
 _symmetry_equiv_pos_as_xyz
  1  'x, y, z'
loop_
 _atom_site_type_symbol
 _atom_site_label
 _atom_site_symmetry_multiplicity
 _atom_site_fract_x
 _atom_site_fract_y
 _atom_site_fract_z
 _atom_site_occupancy
  Ti  Ti0  1  0.99963755  0.99963755  0.00108734  1
  Ag  Ag1  1  0.84888423  0.84888423  0.45334731  1
  Se  Se2  1  0.73360520  0.73360520  0.79918440  1
  Se  Se3  1  0.26317302  0.26317302  0.21048094  1
