# generated using pymatgen
data_Ho3ReO7
_symmetry_space_group_name_H-M   'P 1'
_cell_length_a   6.45206486
_cell_length_b   6.45206452
_cell_length_c   7.39104717
_cell_angle_alpha   90.00000000
_cell_angle_beta   90.00000000
_cell_angle_gamma   108.69529099
_symmetry_Int_Tables_number   1
_chemical_formula_structural   Ho3ReO7
_chemical_formula_sum   'Ho6 Re2 O14'
_cell_volume   291.44853847
_cell_formula_units_Z   2
loop_
 _symmetry_equiv_pos_site_id
 _symmetry_equiv_pos_as_xyz
  1  'x, y, z'
loop_
 _atom_site_type_symbol
 _atom_site_label
 _atom_site_symmetry_multiplicity
 _atom_site_fract_x
 _atom_site_fract_y
 _atom_site_fract_z
 _atom_site_occupancy
  Ho  Ho0  1  0.46509845  0.46509845  0.75000000  1
  Ho  Ho1  1  0.46522303  0.99965674  0.00675778  1
  Ho  Ho2  1  0.53477697  0.00034326  0.50675778  1
  Ho  Ho3  1  0.00034326  0.53477697  0.99324222  1
  Ho  Ho4  1  0.53490155  0.53490155  0.25000000  1
  Ho  Ho5  1  0.99965674  0.46522303  0.49324222  1
  Re  Re6  1  0.99874131  0.99874131  0.75000000  1
  Re  Re7  1  0.00125869  0.00125869  0.25000000  1
  O  O8  1  0.05372562  0.30997927  0.21196904  1
  O  O9  1  0.07265434  0.92734566  0.00000000  1
  O  O10  1  0.63037856  0.36962144  0.00000000  1
  O  O11  1  0.30997927  0.05372562  0.28803096  1
  O  O12  1  0.91795808  0.67321520  0.27446340  1
  O  O13  1  0.92734566  0.07265434  0.50000000  1
  O  O14  1  0.67321520  0.91795808  0.22553660  1
  O  O15  1  0.36225405  0.63774595  0.00000000  1
  O  O16  1  0.69002073  0.94627438  0.78803096  1
  O  O17  1  0.63774595  0.36225405  0.50000000  1
  O  O18  1  0.08204192  0.32678480  0.77446340  1
  O  O19  1  0.94627438  0.69002073  0.71196904  1
  O  O20  1  0.36962144  0.63037856  0.50000000  1
  O  O21  1  0.32678480  0.08204192  0.72553660  1
