# generated using pymatgen
data_SiO2
_symmetry_space_group_name_H-M   'P 1'
_cell_length_a   4.92079787
_cell_length_b   8.76541477
_cell_length_c   10.59042323
_cell_angle_alpha   90.00000000
_cell_angle_beta   90.00000000
_cell_angle_gamma   90.00000000
_symmetry_Int_Tables_number   1
_chemical_formula_structural   SiO2
_chemical_formula_sum   'Si12 O24'
_cell_volume   456.79497066
_cell_formula_units_Z   12
loop_
 _symmetry_equiv_pos_site_id
 _symmetry_equiv_pos_as_xyz
  1  'x, y, z'
loop_
 _atom_site_type_symbol
 _atom_site_label
 _atom_site_symmetry_multiplicity
 _atom_site_fract_x
 _atom_site_fract_y
 _atom_site_fract_z
 _atom_site_occupancy
  Si  Si0  1  0.30785395  0.28688210  0.41305910  1
  Si  Si1  1  0.19217812  0.78685035  0.08151312  1
  Si  Si2  1  0.69214605  0.78688210  0.91305910  1
  Si  Si3  1  0.50000000  0.00000000  0.27939762  1
  Si  Si4  1  0.80782188  0.21314965  0.08151312  1
  Si  Si5  1  0.30785395  0.21311790  0.91305910  1
  Si  Si6  1  0.19217812  0.71314965  0.58151312  1
  Si  Si7  1  0.00000000  0.50000000  0.21518292  1
  Si  Si8  1  0.00000000  0.00000000  0.71518292  1
  Si  Si9  1  0.80782188  0.28685035  0.58151312  1
  Si  Si10  1  0.69214605  0.71311790  0.41305910  1
  Si  Si11  1  0.50000000  0.50000000  0.77939762  1
  O  O12  1  0.69495170  0.89067123  0.36607688  1
  O  O13  1  0.19495082  0.89066777  0.62848509  1
  O  O14  1  0.20696743  0.39564519  0.29851809  1
  O  O15  1  0.19495082  0.60933223  0.12848509  1
  O  O16  1  0.61980741  0.17932579  0.95749140  1
  O  O17  1  0.30504830  0.39067123  0.86607688  1
  O  O18  1  0.80504918  0.10933223  0.62848509  1
  O  O19  1  0.70695156  0.39563313  0.69601915  1
  O  O20  1  0.29304844  0.60436687  0.69601915  1
  O  O21  1  0.79303257  0.60435481  0.29851809  1
  O  O22  1  0.80504918  0.39066777  0.12848509  1
  O  O23  1  0.29304844  0.89563313  0.19601915  1
  O  O24  1  0.11982518  0.32066302  0.53704689  1
  O  O25  1  0.79303257  0.89564519  0.79851809  1
  O  O26  1  0.20696743  0.10435481  0.79851809  1
  O  O27  1  0.11982518  0.17933698  0.03704689  1
  O  O28  1  0.88017482  0.82066302  0.03704689  1
  O  O29  1  0.69495170  0.60932877  0.86607688  1
  O  O30  1  0.70695156  0.10436687  0.19601915  1
  O  O31  1  0.88017482  0.67933698  0.53704689  1
  O  O32  1  0.38019259  0.67932579  0.45749140  1
  O  O33  1  0.61980741  0.32067421  0.45749140  1
  O  O34  1  0.38019259  0.82067421  0.95749140  1
  O  O35  1  0.30504830  0.10932877  0.36607688  1
