# generated using pymatgen
data_KHg2S(ClO)3
_symmetry_space_group_name_H-M   'P 1'
_cell_length_a   6.18865897
_cell_length_b   7.03473784
_cell_length_c   11.61418535
_cell_angle_alpha   90.00000000
_cell_angle_beta   105.45174658
_cell_angle_gamma   90.00000000
_symmetry_Int_Tables_number   1
_chemical_formula_structural   KHg2S(ClO)3
_chemical_formula_sum   'K2 Hg4 S2 Cl6 O6'
_cell_volume   487.35452727
_cell_formula_units_Z   2
loop_
 _symmetry_equiv_pos_site_id
 _symmetry_equiv_pos_as_xyz
  1  'x, y, z'
loop_
 _atom_site_type_symbol
 _atom_site_label
 _atom_site_symmetry_multiplicity
 _atom_site_fract_x
 _atom_site_fract_y
 _atom_site_fract_z
 _atom_site_occupancy
  K  K0  1  0.26174399  0.69535943  0.52348799  1
  K  K1  1  0.73825601  0.19535943  0.47651201  1
  Hg  Hg2  1  0.90127375  0.84299906  0.80254751  1
  Hg  Hg3  1  0.56072389  0.71965729  0.12144778  1
  Hg  Hg4  1  0.09872625  0.34299906  0.19745249  1
  Hg  Hg5  1  0.43927611  0.21965729  0.87855222  1
  S  S6  1  0.66739444  0.65009859  0.33478889  1
  S  S7  1  0.33260556  0.15009859  0.66521111  1
  Cl  Cl8  1  0.84604441  0.56393401  0.69208883  1
  Cl  Cl9  1  0.54678316  0.26089639  0.09356633  1
  Cl  Cl10  1  0.15395559  0.06393401  0.30791117  1
  Cl  Cl11  1  0.03986615  0.61761404  0.07973230  1
  Cl  Cl12  1  0.96013385  0.11761404  0.92026770  1
  Cl  Cl13  1  0.45321684  0.76089639  0.90643367  1
  O  O14  1  0.12387603  0.03516350  0.64371474  1
  O  O15  1  0.29900832  0.32941418  0.59801663  1
  O  O16  1  0.87612397  0.53516350  0.35628526  1
  O  O17  1  0.48016128  0.53516350  0.35628526  1
  O  O18  1  0.70099168  0.82941418  0.40198337  1
  O  O19  1  0.51983872  0.03516350  0.64371474  1
