# generated using pymatgen
data_CaAl12Si4O27
_symmetry_space_group_name_H-M   'P 1'
_cell_length_a   7.30868108
_cell_length_b   7.30868064
_cell_length_c   8.69798438
_cell_angle_alpha   90.00000000
_cell_angle_beta   90.00000000
_cell_angle_gamma   120.00000197
_symmetry_Int_Tables_number   1
_chemical_formula_structural   CaAl12Si4O27
_chemical_formula_sum   'Ca1 Al12 Si4 O27'
_cell_volume   402.37152926
_cell_formula_units_Z   1
loop_
 _symmetry_equiv_pos_site_id
 _symmetry_equiv_pos_as_xyz
  1  'x, y, z'
loop_
 _atom_site_type_symbol
 _atom_site_label
 _atom_site_symmetry_multiplicity
 _atom_site_fract_x
 _atom_site_fract_y
 _atom_site_fract_z
 _atom_site_occupancy
  Ca  Ca0  1  0.00000000  0.00000000  0.00000000  1
  Al  Al1  1  0.94975229  0.74292094  0.35315251  1
  Al  Al2  1  0.45295616  0.36735722  0.86501814  1
  Al  Al3  1  0.20683135  0.94975229  0.64684749  1
  Al  Al4  1  0.36735722  0.91440106  0.13498186  1
  Al  Al5  1  0.54704384  0.63264278  0.13498186  1
  Al  Al6  1  0.74292094  0.79316865  0.64684749  1
  Al  Al7  1  0.08559894  0.45295616  0.13498186  1
  Al  Al8  1  0.91440106  0.54704384  0.86501814  1
  Al  Al9  1  0.25707906  0.20683135  0.35315251  1
  Al  Al10  1  0.63264278  0.08559894  0.86501814  1
  Al  Al11  1  0.79316865  0.05024771  0.35315251  1
  Al  Al12  1  0.05024771  0.25707906  0.64684749  1
  Si  Si13  1  0.66666700  0.33333300  0.55357975  1
  Si  Si14  1  0.33333300  0.66666700  0.44642025  1
  Si  Si15  1  0.33333300  0.66666700  0.85903121  1
  Si  Si16  1  0.66666700  0.33333300  0.14096879  1
  O  O17  1  0.45688182  0.15499227  0.00054624  1
  O  O18  1  0.30188956  0.45688182  0.99945376  1
  O  O19  1  0.61235125  0.10394213  0.23799305  1
  O  O20  1  0.84500773  0.30188956  0.00054624  1
  O  O21  1  0.57938348  0.83427956  0.49187547  1
  O  O22  1  0.10394213  0.49159088  0.76200695  1
  O  O23  1  0.16572044  0.74510392  0.49187547  1
  O  O24  1  0.25489608  0.42061652  0.49187547  1
  O  O25  1  0.83427956  0.25489608  0.50812453  1
  O  O26  1  0.42061652  0.16572044  0.50812453  1
  O  O27  1  0.22504778  0.18013540  0.75871780  1
  O  O28  1  0.74510392  0.57938348  0.50812453  1
  O  O29  1  0.95508762  0.77495222  0.75871780  1
  O  O30  1  0.81986460  0.04491238  0.75871780  1
  O  O31  1  0.18013540  0.95508762  0.24128220  1
  O  O32  1  0.49159088  0.38764875  0.23799305  1
  O  O33  1  0.54311818  0.84500773  0.99945376  1
  O  O34  1  0.77495222  0.81986460  0.24128220  1
  O  O35  1  0.69811044  0.54311818  0.00054624  1
  O  O36  1  0.50840912  0.61235125  0.76200695  1
  O  O37  1  0.38764875  0.89605787  0.76200695  1
  O  O38  1  0.89605787  0.50840912  0.23799305  1
  O  O39  1  0.33333300  0.66666700  0.24928336  1
  O  O40  1  0.66666700  0.33333300  0.75071664  1
  O  O41  1  0.15499227  0.69811044  0.99945376  1
  O  O42  1  0.04491238  0.22504778  0.24128220  1
  O  O43  1  0.00000000  0.00000000  0.50000000  1
