# generated using pymatgen
data_Bi2MoO6
_symmetry_space_group_name_H-M   'P 1'
_cell_length_a   5.46401846
_cell_length_b   5.44660315
_cell_length_c   8.87768007
_cell_angle_alpha   107.86397485
_cell_angle_beta   90.00000000
_cell_angle_gamma   90.00000000
_symmetry_Int_Tables_number   1
_chemical_formula_structural   Bi2MoO6
_chemical_formula_sum   'Bi4 Mo2 O12'
_cell_volume   251.46489367
_cell_formula_units_Z   2
loop_
 _symmetry_equiv_pos_site_id
 _symmetry_equiv_pos_as_xyz
  1  'x, y, z'
loop_
 _atom_site_type_symbol
 _atom_site_label
 _atom_site_symmetry_multiplicity
 _atom_site_fract_x
 _atom_site_fract_y
 _atom_site_fract_z
 _atom_site_occupancy
  Bi  Bi0  1  0.52465470  0.17338167  0.34676333  1
  Bi  Bi1  1  0.47534530  0.82661833  0.65323667  1
  Bi  Bi2  1  0.02465470  0.32661833  0.65323667  1
  Bi  Bi3  1  0.97534530  0.67338167  0.34676333  1
  Mo  Mo4  1  0.00000000  0.00000000  0.00000000  1
  Mo  Mo5  1  0.50000000  0.50000000  0.00000000  1
  O  O6  1  0.08087628  0.89028072  0.78056144  1
  O  O7  1  0.58087628  0.60971928  0.21943856  1
  O  O8  1  0.25000000  0.49886391  0.49772782  1
  O  O9  1  0.25000000  0.27024298  0.04048596  1
  O  O10  1  0.75000000  0.50113609  0.50227218  1
  O  O11  1  0.75000000  0.22975702  0.95951404  1
  O  O12  1  0.41912372  0.39028072  0.78056144  1
  O  O13  1  0.75000000  0.72975702  0.95951404  1
  O  O14  1  0.25000000  0.77024298  0.04048596  1
  O  O15  1  0.91912372  0.10971928  0.21943856  1
  O  O16  1  0.75000000  0.00113609  0.50227218  1
  O  O17  1  0.25000000  0.99886391  0.49772782  1
