# generated using pymatgen
data_Nd(NiSn)2
_symmetry_space_group_name_H-M   'P 1'
_cell_length_a   4.41551749
_cell_length_b   4.41551759
_cell_length_c   6.11705175
_cell_angle_alpha   111.15663019
_cell_angle_beta   111.15663070
_cell_angle_gamma   90.00000219
_symmetry_Int_Tables_number   1
_chemical_formula_structural   Nd(NiSn)2
_chemical_formula_sum   'Nd1 Ni2 Sn2'
_cell_volume   102.55745114
_cell_formula_units_Z   1
loop_
 _symmetry_equiv_pos_site_id
 _symmetry_equiv_pos_as_xyz
  1  'x, y, z'
loop_
 _atom_site_type_symbol
 _atom_site_label
 _atom_site_symmetry_multiplicity
 _atom_site_fract_x
 _atom_site_fract_y
 _atom_site_fract_z
 _atom_site_occupancy
  Nd  Nd0  1  0.00000000  0.00000000  0.00000000  1
  Ni  Ni1  1  0.75000000  0.25000000  0.50000000  1
  Ni  Ni2  1  0.25000000  0.75000000  0.50000000  1
  Sn  Sn3  1  0.63530476  0.63530476  0.27060952  1
  Sn  Sn4  1  0.36469524  0.36469524  0.72939048  1
