# generated using pymatgen
data_Mg3Hg
_symmetry_space_group_name_H-M   'P 1'
_cell_length_a   10.16151747
_cell_length_b   10.16151785
_cell_length_c   10.16151720
_cell_angle_alpha   48.35700487
_cell_angle_beta   48.35700316
_cell_angle_gamma   48.35700591
_symmetry_Int_Tables_number   1
_chemical_formula_structural   Mg3Hg
_chemical_formula_sum   'Mg18 Hg6'
_cell_volume   537.23856521
_cell_formula_units_Z   6
loop_
 _symmetry_equiv_pos_site_id
 _symmetry_equiv_pos_as_xyz
  1  'x, y, z'
loop_
 _atom_site_type_symbol
 _atom_site_label
 _atom_site_symmetry_multiplicity
 _atom_site_fract_x
 _atom_site_fract_y
 _atom_site_fract_z
 _atom_site_occupancy
  Mg  Mg0  1  0.08189765  0.32721060  0.75961609  1
  Mg  Mg1  1  0.86294010  0.86294010  0.86294010  1
  Mg  Mg2  1  0.03768977  0.77068159  0.51945810  1
  Mg  Mg3  1  0.44288127  0.44288127  0.44288127  1
  Mg  Mg4  1  0.32721060  0.75961609  0.08189765  1
  Mg  Mg5  1  0.24038391  0.67278940  0.91810235  1
  Mg  Mg6  1  0.22931841  0.96231023  0.48054190  1
  Mg  Mg7  1  0.51945810  0.03768977  0.77068159  1
  Mg  Mg8  1  0.77068159  0.51945810  0.03768977  1
  Mg  Mg9  1  0.68116542  0.68116542  0.68116542  1
  Mg  Mg10  1  0.75961609  0.08189765  0.32721060  1
  Mg  Mg11  1  0.67278940  0.91810235  0.24038391  1
  Mg  Mg12  1  0.13705990  0.13705990  0.13705990  1
  Mg  Mg13  1  0.96231023  0.48054190  0.22931841  1
  Mg  Mg14  1  0.55711873  0.55711873  0.55711873  1
  Mg  Mg15  1  0.48054190  0.22931841  0.96231023  1
  Mg  Mg16  1  0.91810235  0.24038391  0.67278940  1
  Mg  Mg17  1  0.31883458  0.31883458  0.31883458  1
  Hg  Hg18  1  0.81833564  0.18166436  0.50000000  1
  Hg  Hg19  1  0.32617992  1.00000000  0.67382008  1
  Hg  Hg20  1  0.67382008  0.32617992  1.00000000  1
  Hg  Hg21  1  0.00000000  0.67382008  0.32617992  1
  Hg  Hg22  1  0.18166436  0.50000000  0.81833564  1
  Hg  Hg23  1  0.50000000  0.81833564  0.18166436  1
