# generated using pymatgen
data_ZnSi4As2(H3C)12
_symmetry_space_group_name_H-M   'P 1'
_cell_length_a   10.11634410
_cell_length_b   11.18397127
_cell_length_c   12.89324752
_cell_angle_alpha   92.58969388
_cell_angle_beta   105.08354293
_cell_angle_gamma   105.92463762
_symmetry_Int_Tables_number   1
_chemical_formula_structural   ZnSi4As2(H3C)12
_chemical_formula_sum   'Zn2 Si8 As4 H72 C24'
_cell_volume   1343.72335994
_cell_formula_units_Z   2
loop_
 _symmetry_equiv_pos_site_id
 _symmetry_equiv_pos_as_xyz
  1  'x, y, z'
loop_
 _atom_site_type_symbol
 _atom_site_label
 _atom_site_symmetry_multiplicity
 _atom_site_fract_x
 _atom_site_fract_y
 _atom_site_fract_z
 _atom_site_occupancy
  Zn  Zn0  1  0.98286181  0.11311444  0.40535803  1
  Zn  Zn1  1  0.01713819  0.88688556  0.59464197  1
  Si  Si2  1  0.13902735  0.82925953  0.34898114  1
  Si  Si3  1  0.86097265  0.17074047  0.65101886  1
  Si  Si4  1  0.73723793  0.17620001  0.16210273  1
  Si  Si5  1  0.73267945  0.69684449  0.30116498  1
  Si  Si6  1  0.85612520  0.69459777  0.78659806  1
  Si  Si7  1  0.26276207  0.82379999  0.83789727  1
  Si  Si8  1  0.26732055  0.30315551  0.69883502  1
  Si  Si9  1  0.14387480  0.30540223  0.21340194  1
  As  As10  1  0.95529701  0.28098996  0.29644144  1
  As  As11  1  0.04470299  0.71901004  0.70355856  1
  As  As12  1  0.93795687  0.87252830  0.39032532  1
  As  As13  1  0.06204313  0.12747170  0.60967468  1
  H  H14  1  0.33005125  0.44405492  0.37470565  1
  H  H15  1  0.84737308  0.52907444  0.35499270  1
  H  H16  1  0.57432642  0.75596195  0.40338928  1
  H  H17  1  0.67781470  0.37168296  0.10705669  1
  H  H18  1  0.15176872  0.52412838  0.17308539  1
  H  H19  1  0.03961487  0.71195388  0.16129237  1
  H  H20  1  0.09547136  0.60156201  0.37204278  1
  H  H21  1  0.67474912  0.71544871  0.61841162  1
  H  H22  1  0.44455157  0.18153029  0.72253103  1
  H  H23  1  0.23241197  0.45326997  0.08995088  1
  H  H24  1  0.59115549  0.62915500  0.70811257  1
  H  H25  1  0.18251338  0.69710880  0.49835488  1
  H  H26  1  0.42567358  0.24403805  0.59661072  1
  H  H27  1  0.20321980  0.36814560  0.86370016  1
  H  H28  1  0.22097246  0.03098663  0.86015863  1
  H  H29  1  0.60833138  0.59159208  0.11344851  1
  H  H30  1  0.29248087  0.25115336  0.88932258  1
  H  H31  1  0.08120502  0.87636388  0.15619409  1
  H  H32  1  0.71862373  0.31705930  0.59542261  1
  H  H33  1  0.04278572  0.41308271  0.05901888  1
  H  H34  1  0.52803591  0.34274175  0.71952562  1
  H  H35  1  0.79678020  0.63185440  0.13629984  1
  H  H36  1  0.19956003  0.95023411  0.97314478  1
  H  H37  1  0.76717751  0.56752788  0.45399910  1
  H  H38  1  0.55544843  0.81846971  0.27746897  1
  H  H39  1  0.39352549  0.95899556  0.39563419  1
  H  H40  1  0.80043997  0.04976589  0.02685522  1
  H  H41  1  0.47196409  0.65725825  0.28047438  1
  H  H42  1  0.15262692  0.47092556  0.64500730  1
  H  H43  1  0.49116149  0.08268751  0.18089740  1
  H  H44  1  0.72103917  0.94397680  0.62905340  1
  H  H45  1  0.94792155  0.86452168  0.94348461  1
  H  H46  1  0.42110699  0.75828425  0.99403782  1
  H  H47  1  0.31418402  0.99399029  0.49670983  1
  H  H48  1  0.90452864  0.39843799  0.62795722  1
  H  H49  1  0.58760217  0.21264381  0.28245905  1
  H  H50  1  0.23282249  0.43247212  0.54600090  1
  H  H51  1  0.68581598  0.00600971  0.50329017  1
  H  H52  1  0.77902754  0.96901337  0.13984137  1
  H  H53  1  0.37673547  0.93367953  0.70376783  1
  H  H54  1  0.62531861  0.97631708  0.03713531  1
  H  H55  1  0.23802647  0.68278322  0.98243999  1
  H  H56  1  0.32218530  0.62831704  0.89294331  1
  H  H57  1  0.84823128  0.47587162  0.82691461  1
  H  H58  1  0.65911633  0.47222215  0.33024431  1
  H  H59  1  0.62326453  0.06632047  0.29623217  1
  H  H60  1  0.57889301  0.24171575  0.00596218  1
  H  H61  1  0.86014030  0.91638149  0.82366770  1
  H  H62  1  0.50883851  0.91731249  0.81910260  1
  H  H63  1  0.81748662  0.30289120  0.50164512  1
  H  H64  1  0.22073063  0.80415956  0.18642045  1
  H  H65  1  0.95721428  0.58691729  0.94098112  1
  H  H66  1  0.76758803  0.54673003  0.91004912  1
  H  H67  1  0.77926937  0.19584044  0.81357955  1
  H  H68  1  0.28137627  0.68294070  0.40457739  1
  H  H69  1  0.05207845  0.13547832  0.05651539  1
  H  H70  1  0.13985970  0.08361851  0.17633230  1
  H  H71  1  0.34088367  0.52777785  0.66975569  1
  H  H72  1  0.66994875  0.55594508  0.62529435  1
  H  H73  1  0.91879498  0.12363612  0.84380591  1
  H  H74  1  0.27896083  0.05602320  0.37094660  1
  H  H75  1  0.39166862  0.40840792  0.88655149  1
  H  H76  1  0.37468139  0.02368292  0.96286469  1
  H  H77  1  0.40884451  0.37084500  0.29188743  1
  H  H78  1  0.76197353  0.31721678  0.01756001  1
  H  H79  1  0.75745886  0.81708772  0.89674015  1
  H  H80  1  0.60647451  0.04100444  0.60436581  1
  H  H81  1  0.96038513  0.28804612  0.83870763  1
  H  H82  1  0.41239783  0.78735619  0.71754095  1
  H  H83  1  0.32525088  0.28455129  0.38158838  1
  H  H84  1  0.70751913  0.74884664  0.11067742  1
  H  H85  1  0.24254114  0.18291228  0.10325985  1
  C  C86  1  0.85576047  0.83676544  0.87063636  1
  C  C87  1  0.11674571  0.80317896  0.19893671  1
  C  C88  1  0.31763082  0.35598059  0.32641919  1
  C  C89  1  0.59710247  0.13071603  0.23771810  1
  C  C90  1  0.29555571  0.97340788  0.40900638  1
  C  C91  1  0.40289753  0.86928397  0.76228190  1
  C  C92  1  0.14232608  0.43640055  0.12581628  1
  C  C93  1  0.70444429  0.02659212  0.59099362  1
  C  C94  1  0.14423953  0.16323456  0.12936364  1
  C  C95  1  0.75364187  0.55355497  0.36654798  1
  C  C96  1  0.17759268  0.68964767  0.41206220  1
  C  C97  1  0.28982046  0.33475863  0.84850778  1
  C  C98  1  0.26448159  0.97099280  0.91619643  1
  C  C99  1  0.68236918  0.64401941  0.67358081  1
  C  C100  1  0.43117523  0.26366198  0.68218484  1
  C  C101  1  0.71017954  0.66524137  0.15149222  1
  C  C102  1  0.31555005  0.71273835  0.93583971  1
  C  C103  1  0.85767392  0.56359945  0.87418372  1
  C  C104  1  0.56882477  0.73633802  0.31781516  1
  C  C105  1  0.24635813  0.44644503  0.63345202  1
  C  C106  1  0.82240732  0.31035233  0.58793780  1
  C  C107  1  0.68444995  0.28726165  0.06416029  1
  C  C108  1  0.73551841  0.02900720  0.08380357  1
  C  C109  1  0.88325429  0.19682104  0.80106329  1
