# generated using pymatgen
data_Lu2(CN2)3
_symmetry_space_group_name_H-M   'P 1'
_cell_length_a   6.16302846
_cell_length_b   6.16302813
_cell_length_c   6.16302855
_cell_angle_alpha   60.77112181
_cell_angle_beta   60.77112343
_cell_angle_gamma   60.77111970
_symmetry_Int_Tables_number   1
_chemical_formula_structural   Lu2(CN2)3
_chemical_formula_sum   'Lu2 C3 N6'
_cell_volume   168.40600986
_cell_formula_units_Z   1
loop_
 _symmetry_equiv_pos_site_id
 _symmetry_equiv_pos_as_xyz
  1  'x, y, z'
loop_
 _atom_site_type_symbol
 _atom_site_label
 _atom_site_symmetry_multiplicity
 _atom_site_fract_x
 _atom_site_fract_y
 _atom_site_fract_z
 _atom_site_occupancy
  Lu  Lu0  1  0.17224763  0.17224763  0.17224763  1
  Lu  Lu1  1  0.82775237  0.82775237  0.82775237  1
  C  C2  1  0.71055196  0.28944804  0.00000000  1
  C  C3  1  0.28944804  1.00000000  0.71055196  1
  C  C4  1  0.00000000  0.71055196  0.28944804  1
  N  N5  1  0.59532840  0.16703830  0.00974424  1
  N  N6  1  0.99025576  0.83296170  0.40467160  1
  N  N7  1  0.83296170  0.40467160  0.99025576  1
  N  N8  1  0.16703830  0.00974424  0.59532840  1
  N  N9  1  0.40467160  0.99025576  0.83296170  1
  N  N10  1  0.00974424  0.59532840  0.16703830  1
