# generated using pymatgen
data_Ba2CuWO6
_symmetry_space_group_name_H-M   'P 1'
_cell_length_a   5.62415930
_cell_length_b   5.62416117
_cell_length_c   5.98659380
_cell_angle_alpha   118.01367436
_cell_angle_beta   118.01365779
_cell_angle_gamma   90.00633258
_symmetry_Int_Tables_number   1
_chemical_formula_structural   Ba2CuWO6
_chemical_formula_sum   'Ba2 Cu1 W1 O6'
_cell_volume   141.54788360
_cell_formula_units_Z   1
loop_
 _symmetry_equiv_pos_site_id
 _symmetry_equiv_pos_as_xyz
  1  'x, y, z'
loop_
 _atom_site_type_symbol
 _atom_site_label
 _atom_site_symmetry_multiplicity
 _atom_site_fract_x
 _atom_site_fract_y
 _atom_site_fract_z
 _atom_site_occupancy
  O  O0  1  0.25301050  0.74699403  0.00000481  1
  Ba  Ba1  1  0.25000194  0.74998997  0.49999019  1
  O  O2  1  0.74699348  0.74699202  0.99997278  1
  Ba  Ba3  1  0.74999189  0.25000044  0.49998924  1
  O  O4  1  0.28219205  0.28218790  0.56446229  1
  O  O5  1  0.74699415  0.25300948  0.00000494  1
  O  O6  1  0.71784361  0.71784158  0.43555967  1
  W  W7  1  0.49997645  0.49998007  -0.00001996  1
  Cu  Cu8  1  0.99997928  0.99998901  1.00000122  1
  O  O9  1  0.25301665  0.25301550  0.00003482  1
