# generated using pymatgen
data_Bi2MoO6
_symmetry_space_group_name_H-M   'P 1'
_cell_length_a   5.42431694
_cell_length_b   5.40286290
_cell_length_c   16.94906519
_cell_angle_alpha   90.00000000
_cell_angle_beta   90.00000000
_cell_angle_gamma   90.00000000
_symmetry_Int_Tables_number   1
_chemical_formula_structural   Bi2MoO6
_chemical_formula_sum   'Bi8 Mo4 O24'
_cell_volume   496.72355443
_cell_formula_units_Z   4
loop_
 _symmetry_equiv_pos_site_id
 _symmetry_equiv_pos_as_xyz
  1  'x, y, z'
loop_
 _atom_site_type_symbol
 _atom_site_label
 _atom_site_symmetry_multiplicity
 _atom_site_fract_x
 _atom_site_fract_y
 _atom_site_fract_z
 _atom_site_occupancy
  Bi  Bi0  1  0.02236614  0.00587852  0.67304237  1
  Bi  Bi1  1  0.52236614  0.00587852  0.82695763  1
  Bi  Bi2  1  0.97763386  0.99412148  0.32695763  1
  Bi  Bi3  1  0.47763386  0.99412148  0.17304237  1
  Bi  Bi4  1  0.02236614  0.49412148  0.17304237  1
  Bi  Bi5  1  0.97763386  0.50587852  0.82695763  1
  Bi  Bi6  1  0.47763386  0.50587852  0.67304237  1
  Bi  Bi7  1  0.52236614  0.49412148  0.32695763  1
  Mo  Mo8  1  0.50000000  0.00000000  0.50000000  1
  Mo  Mo9  1  0.00000000  0.00000000  0.00000000  1
  Mo  Mo10  1  0.50000000  0.50000000  0.00000000  1
  Mo  Mo11  1  0.00000000  0.50000000  0.50000000  1
  O  O12  1  0.92563846  0.98673626  0.89021135  1
  O  O13  1  0.57436154  0.01326374  0.39021135  1
  O  O14  1  0.75187811  0.24766697  0.24892509  1
  O  O15  1  0.42563846  0.98673626  0.60978865  1
  O  O16  1  0.70683857  0.29139199  0.51831282  1
  O  O17  1  0.20683857  0.20860801  0.48168718  1
  O  O18  1  0.92563846  0.51326374  0.39021135  1
  O  O19  1  0.42563846  0.51326374  0.10978865  1
  O  O20  1  0.07436154  0.01326374  0.10978865  1
  O  O21  1  0.74812189  0.74766697  0.24892509  1
  O  O22  1  0.25187811  0.24766697  0.25107491  1
  O  O23  1  0.24812189  0.75233303  0.75107491  1
  O  O24  1  0.29316143  0.70860801  0.48168718  1
  O  O25  1  0.29316143  0.79139199  0.98168718  1
  O  O26  1  0.24812189  0.74766697  0.25107491  1
  O  O27  1  0.07436154  0.48673626  0.60978865  1
  O  O28  1  0.79316143  0.79139199  0.51831282  1
  O  O29  1  0.74812189  0.75233303  0.74892509  1
  O  O30  1  0.75187811  0.25233303  0.74892509  1
  O  O31  1  0.20683857  0.29139199  0.98168718  1
  O  O32  1  0.79316143  0.70860801  0.01831282  1
  O  O33  1  0.57436154  0.48673626  0.89021135  1
  O  O34  1  0.25187811  0.25233303  0.75107491  1
  O  O35  1  0.70683857  0.20860801  0.01831282  1
