# generated using pymatgen
data_Mg6CoCu
_symmetry_space_group_name_H-M   'P 1'
_cell_length_a   5.82285774
_cell_length_b   5.82285726
_cell_length_c   4.54724307
_cell_angle_alpha   90.00000000
_cell_angle_beta   90.00000000
_cell_angle_gamma   108.91115348
_symmetry_Int_Tables_number   1
_chemical_formula_structural   Mg6CoCu
_chemical_formula_sum   'Mg6 Co1 Cu1'
_cell_volume   145.85518108
_cell_formula_units_Z   1
loop_
 _symmetry_equiv_pos_site_id
 _symmetry_equiv_pos_as_xyz
  1  'x, y, z'
loop_
 _atom_site_type_symbol
 _atom_site_label
 _atom_site_symmetry_multiplicity
 _atom_site_fract_x
 _atom_site_fract_y
 _atom_site_fract_z
 _atom_site_occupancy
  Mg  Mg0  1  0.14664567  0.92029583  0.25000000  1
  Mg  Mg1  1  0.57970417  0.35335434  0.25000000  1
  Mg  Mg2  1  0.61670282  0.88329718  0.25000000  1
  Mg  Mg3  1  0.35947697  0.58187778  0.75000000  1
  Mg  Mg4  1  0.91812222  0.14052303  0.75000000  1
  Mg  Mg5  1  0.87986516  0.62013484  0.75000000  1
  Co  Co6  1  0.40803393  0.09196607  0.75000000  1
  Cu  Cu7  1  0.09144907  0.40855093  0.25000000  1
