# generated using pymatgen
data_Pr7Al7Co6
_symmetry_space_group_name_H-M   'P 1'
_cell_length_a   4.18363065
_cell_length_b   13.96013108
_cell_length_c   13.96013108
_cell_angle_alpha   90.00000000
_cell_angle_beta   90.00000000
_cell_angle_gamma   90.00000000
_symmetry_Int_Tables_number   1
_chemical_formula_structural   Pr7Al7Co6
_chemical_formula_sum   'Pr14 Al14 Co12'
_cell_volume   815.32794601
_cell_formula_units_Z   2
loop_
 _symmetry_equiv_pos_site_id
 _symmetry_equiv_pos_as_xyz
  1  'x, y, z'
loop_
 _atom_site_type_symbol
 _atom_site_label
 _atom_site_symmetry_multiplicity
 _atom_site_fract_x
 _atom_site_fract_y
 _atom_site_fract_z
 _atom_site_occupancy
  Al  Al0  1  0.00000000  0.00000000  0.50000000  1
  Al  Al1  1  0.00000000  0.50000000  0.00000000  1
  Al  Al2  1  0.50000000  0.21457221  0.71457221  1
  Al  Al3  1  0.50000000  0.28542779  0.21457221  1
  Al  Al4  1  0.50000000  0.71457221  0.78542779  1
  Al  Al5  1  0.50000000  0.78542779  0.28542779  1
  Al  Al6  1  0.50000000  0.09923132  0.13960943  1
  Al  Al7  1  0.50000000  0.86039057  0.09923132  1
  Al  Al8  1  0.50000000  0.13960943  0.90076868  1
  Al  Al9  1  0.50000000  0.90076868  0.86039057  1
  Al  Al10  1  0.50000000  0.59923132  0.36039057  1
  Al  Al11  1  0.50000000  0.40076868  0.63960943  1
  Al  Al12  1  0.50000000  0.63960943  0.59923132  1
  Al  Al13  1  0.50000000  0.36039057  0.40076868  1
  Co  Co14  1  0.50000000  0.07284657  0.57284657  1
  Co  Co15  1  0.50000000  0.42715343  0.07284657  1
  Co  Co16  1  0.50000000  0.57284657  0.92715343  1
  Co  Co17  1  0.50000000  0.92715343  0.42715343  1
  Co  Co18  1  0.00000000  0.28886967  0.33422396  1
  Co  Co19  1  0.00000000  0.66577604  0.28886967  1
  Co  Co20  1  0.00000000  0.33422396  0.71113033  1
  Co  Co21  1  0.00000000  0.71113033  0.66577604  1
  Co  Co22  1  0.00000000  0.78886967  0.16577604  1
  Co  Co23  1  0.00000000  0.21113033  0.83422396  1
  Co  Co24  1  0.00000000  0.83422396  0.78886967  1
  Co  Co25  1  0.00000000  0.16577604  0.21113033  1
  Pr  Pr26  1  0.00000000  0.00000000  0.00000000  1
  Pr  Pr27  1  0.00000000  0.50000000  0.50000000  1
  Pr  Pr28  1  0.50000000  0.36828256  0.86828256  1
  Pr  Pr29  1  0.50000000  0.13171744  0.36828256  1
  Pr  Pr30  1  0.50000000  0.86828256  0.63171744  1
  Pr  Pr31  1  0.50000000  0.63171744  0.13171744  1
  Pr  Pr32  1  0.00000000  0.26164907  0.04755183  1
  Pr  Pr33  1  0.00000000  0.95244817  0.26164907  1
  Pr  Pr34  1  0.00000000  0.04755183  0.73835093  1
  Pr  Pr35  1  0.00000000  0.73835093  0.95244817  1
  Pr  Pr36  1  0.00000000  0.76164907  0.45244817  1
  Pr  Pr37  1  0.00000000  0.23835093  0.54755183  1
  Pr  Pr38  1  0.00000000  0.54755183  0.76164907  1
  Pr  Pr39  1  0.00000000  0.45244817  0.23835093  1
