# generated using pymatgen
data_Ni3P3O11
_symmetry_space_group_name_H-M   'P 1'
_cell_length_a   9.77824887
_cell_length_b   9.47269471
_cell_length_c   9.91411698
_cell_angle_alpha   90.00000000
_cell_angle_beta   62.55438896
_cell_angle_gamma   90.00000000
_symmetry_Int_Tables_number   1
_chemical_formula_structural   Ni3P3O11
_chemical_formula_sum   'Ni12 P12 O44'
_cell_volume   814.95185230
_cell_formula_units_Z   4
loop_
 _symmetry_equiv_pos_site_id
 _symmetry_equiv_pos_as_xyz
  1  'x, y, z'
loop_
 _atom_site_type_symbol
 _atom_site_label
 _atom_site_symmetry_multiplicity
 _atom_site_fract_x
 _atom_site_fract_y
 _atom_site_fract_z
 _atom_site_occupancy
  Ni  Ni0  1  0.68072347  0.37369424  0.23593971  1
  Ni  Ni1  1  0.35854187  0.13310523  0.37372598  1
  Ni  Ni2  1  0.31927653  0.62630576  0.76406029  1
  Ni  Ni3  1  0.49187111  0.36343991  0.60586279  1
  Ni  Ni4  1  0.18072347  0.12630576  0.73593971  1
  Ni  Ni5  1  0.64145813  0.86689477  0.62627402  1
  Ni  Ni6  1  0.99187111  0.13656009  0.10586179  1
  Ni  Ni7  1  0.00812889  0.86343991  0.89413721  1
  Ni  Ni8  1  0.14145813  0.63310523  0.12627402  1
  Ni  Ni9  1  0.50812889  0.63656009  0.39413721  1
  Ni  Ni10  1  0.85854187  0.36689477  0.87372598  1
  Ni  Ni11  1  0.81927653  0.87369424  0.26406029  1
  P  P12  1  0.31124826  0.91933699  0.92196798  1
  P  P13  1  0.68102647  0.16723867  0.43329928  1
  P  P14  1  0.81124826  0.58066301  0.42196798  1
  P  P15  1  0.18102647  0.33276133  0.93329928  1
  P  P16  1  0.31897353  0.83276133  0.56670072  1
  P  P17  1  0.65545810  0.55583944  0.74879769  1
  P  P18  1  0.34454190  0.44416056  0.25120231  1
  P  P19  1  0.68875174  0.08066301  0.07803202  1
  P  P20  1  0.18875174  0.41933699  0.57803202  1
  P  P21  1  0.15545810  0.94416056  0.24879769  1
  P  P22  1  0.84454190  0.05583944  0.75120231  1
  P  P23  1  0.81897353  0.66723867  0.06670072  1
  O  O24  1  0.00602714  0.99164160  0.23942160  1
  O  O25  1  0.34036370  0.76263845  0.41753303  1
  O  O26  1  0.81293252  0.97015372  0.64214406  1
  O  O27  1  0.03258087  0.26571717  0.92486474  1
  O  O28  1  0.28993440  0.75764921  0.93714338  1
  O  O29  1  0.31535248  0.26930138  0.78784704  1
  O  O30  1  0.21006560  0.25764921  0.56285662  1
  O  O31  1  0.04061821  0.46886895  0.70685933  1
  O  O32  1  0.81535248  0.23069862  0.28784704  1
  O  O33  1  0.66686855  0.51029692  0.41163506  1
  O  O34  1  0.13789558  0.78526505  0.27343890  1
  O  O35  1  0.15963630  0.26263845  0.08246697  1
  O  O36  1  0.99397286  0.00835840  0.76057840  1
  O  O37  1  0.31293252  0.52984628  0.14214406  1
  O  O38  1  0.96741913  0.73428283  0.07513526  1
  O  O39  1  0.20276330  0.47559849  0.42045490  1
  O  O40  1  0.53258087  0.23428283  0.42486474  1
  O  O41  1  0.18054767  0.49427014  0.93848882  1
  O  O42  1  0.45938179  0.96886895  0.79314067  1
  O  O43  1  0.31945233  0.99427014  0.56151118  1
  O  O44  1  0.49397286  0.49164160  0.26057840  1
  O  O45  1  0.86210442  0.21473495  0.72656110  1
  O  O46  1  0.78993440  0.74235079  0.43714338  1
  O  O47  1  0.83313145  0.01029692  0.08836494  1
  O  O48  1  0.68706748  0.47015372  0.85785594  1
  O  O49  1  0.81945233  0.50572986  0.06151118  1
  O  O50  1  0.70276330  0.02440151  0.92045490  1
  O  O51  1  0.71006560  0.24235079  0.06285662  1
  O  O52  1  0.18464752  0.76930138  0.71215296  1
  O  O53  1  0.79723670  0.52440151  0.57954510  1
  O  O54  1  0.29723670  0.97559849  0.07954510  1
  O  O55  1  0.33313145  0.48970308  0.58836494  1
  O  O56  1  0.18706748  0.02984628  0.35785594  1
  O  O57  1  0.46741913  0.76571717  0.57513526  1
  O  O58  1  0.63789558  0.71473495  0.77343890  1
  O  O59  1  0.84036370  0.73736155  0.91753303  1
  O  O60  1  0.68054767  0.00572986  0.43848882  1
  O  O61  1  0.50602714  0.50835840  0.73942160  1
  O  O62  1  0.54061821  0.03113105  0.20685933  1
  O  O63  1  0.68464752  0.73069862  0.21215296  1
  O  O64  1  0.95938179  0.53113105  0.29314067  1
  O  O65  1  0.65963630  0.23736155  0.58246697  1
  O  O66  1  0.36210442  0.28526505  0.22656110  1
  O  O67  1  0.16686855  0.98970308  0.91163506  1
