# generated using pymatgen
data_Cu3BiTe2ClO8
_symmetry_space_group_name_H-M   'P 1'
_cell_length_a   6.44878256
_cell_length_b   10.02407489
_cell_length_c   14.53269374
_cell_angle_alpha   90.00000000
_cell_angle_beta   90.00000000
_cell_angle_gamma   90.00000000
_symmetry_Int_Tables_number   1
_chemical_formula_structural   Cu3BiTe2ClO8
_chemical_formula_sum   'Cu12 Bi4 Te8 Cl4 O32'
_cell_volume   939.43807432
_cell_formula_units_Z   4
loop_
 _symmetry_equiv_pos_site_id
 _symmetry_equiv_pos_as_xyz
  1  'x, y, z'
loop_
 _atom_site_type_symbol
 _atom_site_label
 _atom_site_symmetry_multiplicity
 _atom_site_fract_x
 _atom_site_fract_y
 _atom_site_fract_z
 _atom_site_occupancy
  Cu  Cu0  1  0.19447584  0.75000000  0.35915425  1
  Cu  Cu1  1  0.01534140  0.01248086  0.24066762  1
  Cu  Cu2  1  0.30552416  0.75000000  0.85915425  1
  Cu  Cu3  1  0.98465860  0.98751914  0.75933238  1
  Cu  Cu4  1  0.48465860  0.48751914  0.74066762  1
  Cu  Cu5  1  0.69447584  0.25000000  0.14084575  1
  Cu  Cu6  1  0.01534140  0.48751914  0.24066762  1
  Cu  Cu7  1  0.80552416  0.25000000  0.64084575  1
  Cu  Cu8  1  0.48465860  0.01248086  0.74066762  1
  Cu  Cu9  1  0.51534140  0.98751914  0.25933238  1
  Cu  Cu10  1  0.98465860  0.51248086  0.75933238  1
  Cu  Cu11  1  0.51534140  0.51248086  0.25933238  1
  Bi  Bi12  1  0.76517927  0.25000000  0.36474487  1
  Bi  Bi13  1  0.26517927  0.75000000  0.13525513  1
  Bi  Bi14  1  0.23482073  0.75000000  0.63525513  1
  Bi  Bi15  1  0.73482073  0.25000000  0.86474487  1
  Te  Te16  1  0.74188694  0.56323721  0.04315027  1
  Te  Te17  1  0.25811306  0.06323721  0.95684973  1
  Te  Te18  1  0.24188694  0.06323721  0.45684973  1
  Te  Te19  1  0.24188694  0.43676279  0.45684973  1
  Te  Te20  1  0.75811306  0.56323721  0.54315027  1
  Te  Te21  1  0.75811306  0.93676279  0.54315027  1
  Te  Te22  1  0.25811306  0.43676279  0.95684973  1
  Te  Te23  1  0.74188694  0.93676279  0.04315027  1
  Cl  Cl24  1  0.77992478  0.75000000  0.32247750  1
  Cl  Cl25  1  0.27992478  0.25000000  0.17752250  1
  Cl  Cl26  1  0.72007522  0.75000000  0.82247750  1
  Cl  Cl27  1  0.22007522  0.25000000  0.67752250  1
  O  O28  1  0.00735745  0.44162162  0.88572209  1
  O  O29  1  0.99264255  0.55837838  0.11427791  1
  O  O30  1  0.74994917  0.11359349  0.23790972  1
  O  O31  1  0.54954933  0.60241531  0.14040659  1
  O  O32  1  0.75005083  0.38640651  0.73790972  1
  O  O33  1  0.04954933  0.10241531  0.35959341  1
  O  O34  1  0.17838640  0.87926711  0.46340246  1
  O  O35  1  0.45045067  0.10241531  0.85959341  1
  O  O36  1  0.99264255  0.94162162  0.11427791  1
  O  O37  1  0.49264255  0.44162162  0.38572209  1
  O  O38  1  0.00735745  0.05837838  0.88572209  1
  O  O39  1  0.25005083  0.61359349  0.76209028  1
  O  O40  1  0.32161360  0.87926711  0.96340246  1
  O  O41  1  0.24994917  0.61359349  0.26209028  1
  O  O42  1  0.25005083  0.88640651  0.76209028  1
  O  O43  1  0.32161360  0.62073289  0.96340246  1
  O  O44  1  0.82161360  0.12073289  0.53659754  1
  O  O45  1  0.24994917  0.88640651  0.26209028  1
  O  O46  1  0.17838640  0.62073289  0.46340246  1
  O  O47  1  0.50735745  0.55837838  0.61427791  1
  O  O48  1  0.50735745  0.94162162  0.61427791  1
  O  O49  1  0.82161360  0.37926711  0.53659754  1
  O  O50  1  0.04954933  0.39758469  0.35959341  1
  O  O51  1  0.67838640  0.12073289  0.03659754  1
  O  O52  1  0.95045067  0.60241531  0.64040659  1
  O  O53  1  0.67838640  0.37926711  0.03659754  1
  O  O54  1  0.45045067  0.39758469  0.85959341  1
  O  O55  1  0.74994917  0.38640651  0.23790972  1
  O  O56  1  0.75005083  0.11359349  0.73790972  1
  O  O57  1  0.49264255  0.05837838  0.38572209  1
  O  O58  1  0.54954933  0.89758469  0.14040659  1
  O  O59  1  0.95045067  0.89758469  0.64040659  1
