# generated using pymatgen
data_LiMn4(PO4)3
_symmetry_space_group_name_H-M   'P 1'
_cell_length_a   6.82885556
_cell_length_b   6.82885518
_cell_length_c   10.92098126
_cell_angle_alpha   71.78109707
_cell_angle_beta   71.78109831
_cell_angle_gamma   89.99999823
_symmetry_Int_Tables_number   1
_chemical_formula_structural   LiMn4(PO4)3
_chemical_formula_sum   'Li2 Mn8 P6 O24'
_cell_volume   456.79472192
_cell_formula_units_Z   2
loop_
 _symmetry_equiv_pos_site_id
 _symmetry_equiv_pos_as_xyz
  1  'x, y, z'
loop_
 _atom_site_type_symbol
 _atom_site_label
 _atom_site_symmetry_multiplicity
 _atom_site_fract_x
 _atom_site_fract_y
 _atom_site_fract_z
 _atom_site_occupancy
  Li  Li0  1  0.50000000  0.50000000  0.00000000  1
  Li  Li1  1  0.25000000  0.75000000  0.50000000  1
  Mn  Mn2  1  0.63948913  0.12500000  0.25000000  1
  Mn  Mn3  1  0.98156009  0.48156009  0.03687882  1
  Mn  Mn4  1  0.23156009  0.23156009  0.53687882  1
  Mn  Mn5  1  0.51843991  0.01843991  0.96312118  1
  Mn  Mn6  1  0.37500000  0.36051087  0.75000000  1
  Mn  Mn7  1  0.11051087  0.62500000  0.25000000  1
  Mn  Mn8  1  0.76843991  0.76843991  0.46312118  1
  Mn  Mn9  1  0.87500000  0.88948913  0.75000000  1
  P  P10  1  0.00000000  0.00000000  0.00000000  1
  P  P11  1  0.22251989  0.12500000  0.25000000  1
  P  P12  1  0.75000000  0.25000000  0.50000000  1
  P  P13  1  0.52748011  0.62500000  0.25000000  1
  P  P14  1  0.87500000  0.47251989  0.75000000  1
  P  P15  1  0.37500000  0.77748011  0.75000000  1
  O  O16  1  0.90535595  0.14696183  0.08197266  1
  O  O17  1  0.42741101  0.15638666  0.12406892  1
  O  O18  1  0.30147993  0.09361334  0.37593108  1
  O  O19  1  0.73732761  0.10303817  0.41802734  1
  O  O20  1  0.12253703  0.32884036  0.21081249  1
  O  O21  1  0.89696183  0.15535595  0.58197266  1
  O  O22  1  0.52106451  0.26267239  0.58197266  1
  O  O23  1  0.22893549  0.09464405  0.91802734  1
  O  O24  1  0.66665048  0.46034815  0.21081249  1
  O  O25  1  0.84464405  0.47893549  0.41802734  1
  O  O26  1  0.32258899  0.53045557  0.37593108  1
  O  O27  1  0.07884036  0.37253703  0.71081249  1
  O  O28  1  0.67115964  0.33334952  0.78918751  1
  O  O29  1  0.44852007  0.71954443  0.12406892  1
  O  O30  1  0.01267239  0.77106451  0.08197266  1
  O  O31  1  0.62746297  0.78965185  0.28918751  1
  O  O32  1  0.90638666  0.67741101  0.62406892  1
  O  O33  1  0.84361334  0.55147993  0.87593108  1
  O  O34  1  0.46954443  0.69852007  0.62406892  1
  O  O35  1  0.28045557  0.57258899  0.87593108  1
  O  O36  1  0.08334952  0.92115964  0.28918751  1
  O  O37  1  0.21034815  0.91665048  0.71081249  1
  O  O38  1  0.53965185  0.87746297  0.78918751  1
  O  O39  1  0.85303817  0.98732761  0.91802734  1
