# generated using pymatgen
data_CsU2H3(C2O7)2
_symmetry_space_group_name_H-M   'P 1'
_cell_length_a   5.57192646
_cell_length_b   9.67392782
_cell_length_c   13.70993233
_cell_angle_alpha   90.00000000
_cell_angle_beta   90.00000000
_cell_angle_gamma   97.51284326
_symmetry_Int_Tables_number   1
_chemical_formula_structural   CsU2H3(C2O7)2
_chemical_formula_sum   'Cs2 U4 H6 C8 O28'
_cell_volume   732.65457869
_cell_formula_units_Z   2
loop_
 _symmetry_equiv_pos_site_id
 _symmetry_equiv_pos_as_xyz
  1  'x, y, z'
loop_
 _atom_site_type_symbol
 _atom_site_label
 _atom_site_symmetry_multiplicity
 _atom_site_fract_x
 _atom_site_fract_y
 _atom_site_fract_z
 _atom_site_occupancy
  Cs  Cs0  1  0.54049184  0.63942673  0.75000000  1
  Cs  Cs1  1  0.45950816  0.36057327  0.25000000  1
  U  U2  1  0.21850006  0.23864008  0.58869936  1
  U  U3  1  0.21850006  0.23864008  0.91130064  1
  U  U4  1  0.78149994  0.76135992  0.08869936  1
  U  U5  1  0.78149994  0.76135992  0.41130064  1
  H  H6  1  0.14084704  0.86695716  0.80481343  1
  H  H7  1  0.93744098  0.13673696  0.75000000  1
  H  H8  1  0.06255902  0.86326304  0.25000000  1
  H  H9  1  0.85915296  0.13304284  0.19518657  1
  H  H10  1  0.85915296  0.13304284  0.30481343  1
  H  H11  1  0.14084704  0.86695716  0.69518657  1
  C  C12  1  0.51592494  0.03962760  0.04864189  1
  C  C13  1  0.48407506  0.96037240  0.95135811  1
  C  C14  1  0.96291907  0.52005245  0.94844279  1
  C  C15  1  0.51592494  0.03962760  0.45135811  1
  C  C16  1  0.03708093  0.47994755  0.05155721  1
  C  C17  1  0.03708093  0.47994755  0.44844279  1
  C  C18  1  0.96291907  0.52005245  0.55155721  1
  C  C19  1  0.48407506  0.96037240  0.54864189  1
  O  O20  1  0.42953770  0.15374961  0.44613669  1
  O  O21  1  0.50108367  0.33593874  0.62706578  1
  O  O22  1  0.06771053  0.85787907  0.44651402  1
  O  O23  1  0.16677656  0.38223714  0.05675138  1
  O  O24  1  0.50108367  0.33593874  0.87293422  1
  O  O25  1  0.09365553  0.19515881  0.75000000  1
  O  O26  1  0.03942821  0.45239043  0.62138249  1
  O  O27  1  0.37358000  0.01628668  0.88387263  1
  O  O28  1  0.57046230  0.84625039  0.94613669  1
  O  O29  1  0.05573710  0.81814995  0.75000000  1
  O  O30  1  0.42953770  0.15374961  0.05386331  1
  O  O31  1  0.93228947  0.14212093  0.94651402  1
  O  O32  1  0.83322344  0.61776286  0.55675138  1
  O  O33  1  0.96057179  0.54760957  0.37861751  1
  O  O34  1  0.62642000  0.98371332  0.38387263  1
  O  O35  1  0.62642000  0.98371332  0.11612737  1
  O  O36  1  0.96057179  0.54760957  0.12138249  1
  O  O37  1  0.06771053  0.85787907  0.05348598  1
  O  O38  1  0.90634447  0.80484119  0.25000000  1
  O  O39  1  0.83322344  0.61776286  0.94324862  1
  O  O40  1  0.49891633  0.66406126  0.12706578  1
  O  O41  1  0.57046230  0.84625039  0.55386331  1
  O  O42  1  0.37358000  0.01628668  0.61612737  1
  O  O43  1  0.94426290  0.18185005  0.25000000  1
  O  O44  1  0.03942821  0.45239043  0.87861751  1
  O  O45  1  0.93228947  0.14212093  0.55348598  1
  O  O46  1  0.16677656  0.38223714  0.44324862  1
  O  O47  1  0.49891633  0.66406126  0.37293422  1
