# generated using pymatgen
data_GaSi4H30C10Cl
_symmetry_space_group_name_H-M   'P 1'
_cell_length_a   9.30316895
_cell_length_b   14.42584626
_cell_length_c   15.88040582
_cell_angle_alpha   90.00000000
_cell_angle_beta   90.62353627
_cell_angle_gamma   90.00000000
_symmetry_Int_Tables_number   1
_chemical_formula_structural   GaSi4H30C10Cl
_chemical_formula_sum   'Ga4 Si16 H120 C40 Cl4'
_cell_volume   2131.12088930
_cell_formula_units_Z   4
loop_
 _symmetry_equiv_pos_site_id
 _symmetry_equiv_pos_as_xyz
  1  'x, y, z'
loop_
 _atom_site_type_symbol
 _atom_site_label
 _atom_site_symmetry_multiplicity
 _atom_site_fract_x
 _atom_site_fract_y
 _atom_site_fract_z
 _atom_site_occupancy
  Ga  Ga0  1  0.89569784  0.08838355  0.04471557  1
  Ga  Ga1  1  0.60430216  0.58838355  0.45528443  1
  Ga  Ga2  1  0.10430216  0.91161645  0.95528443  1
  Ga  Ga3  1  0.39569784  0.41161645  0.54471557  1
  Si  Si4  1  0.62620247  0.33710529  0.74274335  1
  Si  Si5  1  0.66824613  0.19951638  0.53027527  1
  Si  Si6  1  0.50641172  0.28215752  0.61853129  1
  Si  Si7  1  0.00641172  0.21784248  0.11853129  1
  Si  Si8  1  0.33175387  0.80048362  0.46972473  1
  Si  Si9  1  0.37379753  0.66289471  0.25725665  1
  Si  Si10  1  0.69189998  0.81506935  0.34349548  1
  Si  Si11  1  0.87379753  0.83710529  0.75725665  1
  Si  Si12  1  0.16824613  0.30048362  0.03027527  1
  Si  Si13  1  0.80810002  0.31506935  0.15650452  1
  Si  Si14  1  0.83175387  0.69951638  0.96972473  1
  Si  Si15  1  0.30810002  0.18493065  0.65650452  1
  Si  Si16  1  0.49358828  0.71784248  0.38146871  1
  Si  Si17  1  0.99358828  0.78215752  0.88146871  1
  Si  Si18  1  0.19189998  0.68493065  0.84349548  1
  Si  Si19  1  0.12620247  0.16289471  0.24274335  1
  H  H20  1  0.37752313  0.59233653  0.92116146  1
  H  H21  1  0.38682313  0.26409111  0.94760086  1
  H  H22  1  0.66808891  0.30598432  0.02128633  1
  H  H23  1  0.90406397  0.69254846  0.67135054  1
  H  H24  1  0.13468705  0.44918455  0.58448525  1
  H  H25  1  0.67846196  0.99418356  0.98835539  1
  H  H26  1  0.76042029  0.46775715  0.67625447  1
  H  H27  1  0.23598478  0.80786857  0.22338369  1
  H  H28  1  0.73957971  0.96775715  0.82374553  1
  H  H29  1  0.82153804  0.49418356  0.51164461  1
  H  H30  1  0.24047818  0.23867410  0.36814477  1
  H  H31  1  0.41756109  0.70756823  0.76307925  1
  H  H32  1  0.82430136  0.13206997  0.64418390  1
  H  H33  1  0.31972800  0.94447847  0.38150805  1
  H  H34  1  0.78525487  0.40354981  0.02126507  1
  H  H35  1  0.53228087  0.52664954  0.22798005  1
  H  H36  1  0.25952182  0.73867410  0.13185523  1
  H  H37  1  0.41755896  0.10796953  0.78339537  1
  H  H38  1  0.86790883  0.36540974  0.68064475  1
  H  H39  1  0.94434767  0.93456756  0.63433053  1
  H  H40  1  0.14369539  0.39761981  0.90073751  1
  H  H41  1  0.38024453  0.19459426  0.04003137  1
  H  H42  1  0.77972974  0.71805434  0.22422324  1
  H  H43  1  0.26401522  0.30786857  0.27661631  1
  H  H44  1  0.64369539  0.10238019  0.40073751  1
  H  H45  1  0.63209117  0.86540974  0.81935525  1
  H  H46  1  0.17569864  0.86793003  0.35581610  1
  H  H47  1  0.74047818  0.26132590  0.86814477  1
  H  H48  1  0.65648794  0.93319635  0.72718344  1
  H  H49  1  0.44434767  0.56543244  0.13433053  1
  H  H50  1  0.13853196  0.38484606  0.48861572  1
  H  H51  1  0.94841240  0.45887341  0.19119104  1
  H  H52  1  0.52145713  0.19728103  0.39706697  1
  H  H53  1  0.96771913  0.02664954  0.27201995  1
  H  H54  1  0.01668098  0.59853245  0.03955286  1
  H  H55  1  0.27688760  0.03933426  0.73955224  1
  H  H56  1  0.02145713  0.30271897  0.89706697  1
  H  H57  1  0.40406397  0.80745154  0.17135054  1
  H  H58  1  0.32153804  0.00581644  0.01164461  1
  H  H59  1  0.08244104  0.60796953  0.71660463  1
  H  H60  1  0.34351206  0.06680365  0.27281656  1
  H  H61  1  0.98331902  0.40146755  0.96044714  1
  H  H62  1  0.21474513  0.59645019  0.97873493  1
  H  H63  1  0.63853196  0.11515394  0.98861572  1
  H  H64  1  0.55565233  0.43456756  0.86566947  1
  H  H65  1  0.67569864  0.63206997  0.85581610  1
  H  H66  1  0.73598478  0.69213143  0.72338369  1
  H  H67  1  0.97854287  0.69728103  0.10293303  1
  H  H68  1  0.83191109  0.80598432  0.47871367  1
  H  H69  1  0.91755896  0.39203047  0.28339537  1
  H  H70  1  0.85630461  0.60238019  0.09926249  1
  H  H71  1  0.09536525  0.87256395  0.67501365  1
  H  H72  1  0.76401522  0.19213143  0.77661631  1
  H  H73  1  0.33106230  0.43598384  0.05085463  1
  H  H74  1  0.03228087  0.97335046  0.72798005  1
  H  H75  1  0.77002269  0.33386336  0.45117575  1
  H  H76  1  0.81972800  0.55552153  0.88150805  1
  H  H77  1  0.59593603  0.19254846  0.82864946  1
  H  H78  1  0.26042029  0.03224285  0.17625447  1
  H  H79  1  0.18027200  0.44447847  0.11849195  1
  H  H80  1  0.77688760  0.46066574  0.23955224  1
  H  H81  1  0.05565233  0.06543244  0.36566947  1
  H  H82  1  0.51668098  0.90146755  0.53955286  1
  H  H83  1  0.48331902  0.09853245  0.46044714  1
  H  H84  1  0.62765375  0.18979911  0.18046952  1
  H  H85  1  0.87234625  0.68979911  0.31953048  1
  H  H86  1  0.15648794  0.56680365  0.22718344  1
  H  H87  1  0.75952182  0.76132590  0.63185523  1
  H  H88  1  0.27002269  0.16613664  0.95117575  1
  H  H89  1  0.17846196  0.50581644  0.48835539  1
  H  H90  1  0.33191109  0.69401568  0.97871367  1
  H  H91  1  0.13209117  0.63459026  0.31935525  1
  H  H92  1  0.46771913  0.47335046  0.77201995  1
  H  H93  1  0.36790883  0.13459026  0.18064475  1
  H  H94  1  0.12765375  0.31020089  0.68046952  1
  H  H95  1  0.72997731  0.83386336  0.04882425  1
  H  H96  1  0.22027026  0.28194566  0.77577676  1
  H  H97  1  0.87752313  0.90766347  0.42116146  1
  H  H98  1  0.66893770  0.56401616  0.94914537  1
  H  H99  1  0.12247687  0.09233653  0.57883854  1
  H  H100  1  0.22997731  0.66613664  0.54882425  1
  H  H101  1  0.72311240  0.96066574  0.26044776  1
  H  H102  1  0.88682313  0.23590889  0.44760086  1
  H  H103  1  0.58243891  0.29243177  0.23692075  1
  H  H104  1  0.36531295  0.94918455  0.91551475  1
  H  H105  1  0.40463475  0.37256395  0.82498635  1
  H  H106  1  0.16808891  0.19401568  0.52128633  1
  H  H107  1  0.35630461  0.89761981  0.59926249  1
  H  H108  1  0.23957971  0.53224285  0.32374553  1
  H  H109  1  0.90463475  0.12743605  0.32498635  1
  H  H110  1  0.71474513  0.90354981  0.47873493  1
  H  H111  1  0.09593603  0.30745154  0.32864946  1
  H  H112  1  0.28525487  0.09645019  0.52126507  1
  H  H113  1  0.91756109  0.79243177  0.26307925  1
  H  H114  1  0.63468705  0.05081545  0.08448525  1
  H  H115  1  0.58244104  0.89203047  0.21660463  1
  H  H116  1  0.83106230  0.06401616  0.55085463  1
  H  H117  1  0.37234625  0.81020089  0.81953048  1
  H  H118  1  0.84351206  0.43319635  0.77281656  1
  H  H119  1  0.47854287  0.80271897  0.60293303  1
  H  H120  1  0.86531295  0.55081545  0.41551475  1
  H  H121  1  0.08243891  0.20756823  0.73692075  1
  H  H122  1  0.22311240  0.53933426  0.76044776  1
  H  H123  1  0.86146804  0.61515394  0.51138428  1
  H  H124  1  0.61975547  0.80540574  0.95996863  1
  H  H125  1  0.32430136  0.36793003  0.14418390  1
  H  H126  1  0.68027200  0.05552153  0.61849195  1
  H  H127  1  0.05158760  0.54112659  0.80880896  1
  H  H128  1  0.44841240  0.04112659  0.69119104  1
  H  H129  1  0.61317687  0.73590889  0.05239914  1
  H  H130  1  0.16893770  0.93598384  0.44914537  1
  H  H131  1  0.27972974  0.78194566  0.72422324  1
  H  H132  1  0.59536525  0.62743605  0.17501365  1
  H  H133  1  0.11975547  0.69459426  0.45996863  1
  H  H134  1  0.11317687  0.76409111  0.55239914  1
  H  H135  1  0.36146804  0.88484606  0.01138428  1
  H  H136  1  0.72027026  0.21805434  0.27577676  1
  H  H137  1  0.55158760  0.95887341  0.30880896  1
  H  H138  1  0.62247687  0.40766347  0.07883854  1
  H  H139  1  0.88024453  0.30540574  0.54003137  1
  C  C140  1  0.25901985  0.39608838  0.09201312  1
  C  C141  1  0.71262671  0.36243488  0.06023456  1
  C  C142  1  0.74098015  0.60391162  0.90798688  1
  C  C143  1  0.30918683  0.94139865  0.97571983  1
  C  C144  1  0.67212563  0.24720712  0.21821682  1
  C  C145  1  0.32787437  0.75279288  0.78178318  1
  C  C146  1  0.00155085  0.08865582  0.30721113  1
  C  C147  1  0.68703512  0.23626375  0.81008551  1
  C  C148  1  0.49844915  0.58865582  0.19278887  1
  C  C149  1  0.24098015  0.89608838  0.40798688  1
  C  C150  1  0.99844915  0.91134418  0.69278887  1
  C  C151  1  0.31296488  0.76373625  0.18991449  1
  C  C152  1  0.56967044  0.14451563  0.43859350  1
  C  C153  1  0.80918683  0.55860135  0.47571983  1
  C  C154  1  0.28962673  0.09241974  0.21516282  1
  C  C155  1  0.81481335  0.27629615  0.48829403  1
  C  C156  1  0.31481335  0.22370385  0.98829403  1
  C  C157  1  0.86898406  0.41592030  0.22379566  1
  C  C158  1  0.82787437  0.74720712  0.28178318  1
  C  C159  1  0.36898406  0.08407970  0.72379566  1
  C  C160  1  0.81296488  0.73626375  0.68991449  1
  C  C161  1  0.75901985  0.10391162  0.59201312  1
  C  C162  1  0.71037327  0.90758026  0.78483718  1
  C  C163  1  0.78962673  0.40758026  0.71516282  1
  C  C164  1  0.19081317  0.44139865  0.52428017  1
  C  C165  1  0.43032956  0.85548437  0.56140650  1
  C  C166  1  0.18703512  0.26373625  0.31008551  1
  C  C167  1  0.93032956  0.64451563  0.06140650  1
  C  C168  1  0.17212563  0.25279288  0.71821682  1
  C  C169  1  0.13101594  0.58407970  0.77620434  1
  C  C170  1  0.06967044  0.35548437  0.93859350  1
  C  C171  1  0.78737329  0.86243488  0.43976544  1
  C  C172  1  0.18518665  0.72370385  0.51170597  1
  C  C173  1  0.21262671  0.13756512  0.56023456  1
  C  C174  1  0.69081317  0.05860135  0.02428017  1
  C  C175  1  0.68518665  0.77629615  0.01170597  1
  C  C176  1  0.63101594  0.91592030  0.27620434  1
  C  C177  1  0.21037327  0.59241974  0.28483718  1
  C  C178  1  0.28737329  0.63756512  0.93976544  1
  C  C179  1  0.50155085  0.41134418  0.80721113  1
  Cl  Cl180  1  0.99555618  0.93876933  0.09326352  1
  Cl  Cl181  1  0.00444382  0.06123067  0.90673648  1
  Cl  Cl182  1  0.49555618  0.56123067  0.59326352  1
  Cl  Cl183  1  0.50444382  0.43876933  0.40673648  1
