# generated using pymatgen
data_CuSb(MoO4)2
_symmetry_space_group_name_H-M   'P 1'
_cell_length_a   4.96146708
_cell_length_b   5.63526613
_cell_length_c   11.36573458
_cell_angle_alpha   100.73090402
_cell_angle_beta   102.60787640
_cell_angle_gamma   90.00773127
_symmetry_Int_Tables_number   1
_chemical_formula_structural   CuSb(MoO4)2
_chemical_formula_sum   'Cu2 Sb2 Mo4 O16'
_cell_volume   304.41529068
_cell_formula_units_Z   2
loop_
 _symmetry_equiv_pos_site_id
 _symmetry_equiv_pos_as_xyz
  1  'x, y, z'
loop_
 _atom_site_type_symbol
 _atom_site_label
 _atom_site_symmetry_multiplicity
 _atom_site_fract_x
 _atom_site_fract_y
 _atom_site_fract_z
 _atom_site_occupancy
  Cu  Cu0  1  0.50000000  0.50000000  0.50000000  1
  Cu  Cu1  1  0.00000000  0.00000000  0.50000000  1
  Sb  Sb2  1  0.19135601  0.25008397  0.99997608  1
  Sb  Sb3  1  0.80864399  0.74991603  0.00002392  1
  Mo  Mo4  1  0.87938439  0.27654903  0.27461921  1
  Mo  Mo5  1  0.60469520  0.22339753  0.72534479  1
  Mo  Mo6  1  0.12061561  0.72345097  0.72538079  1
  Mo  Mo7  1  0.39530480  0.77660247  0.27465521  1
  O  O8  1  0.87860335  0.03823429  0.67728878  1
  O  O9  1  0.56845932  0.98641520  0.20768620  1
  O  O10  1  0.36777189  0.21106500  0.57849460  1
  O  O11  1  0.03860475  0.88073476  0.89591105  1
  O  O12  1  0.14284629  0.61924156  0.10408692  1
  O  O13  1  0.20153764  0.46178410  0.32272298  1
  O  O14  1  0.12139665  0.96176571  0.32271122  1
  O  O15  1  0.36060135  0.51354821  0.79232258  1
  O  O16  1  0.85715371  0.38075844  0.89591308  1
  O  O17  1  0.79846236  0.53821590  0.67727702  1
  O  O18  1  0.78940652  0.28885216  0.42145272  1
  O  O19  1  0.21059348  0.71114784  0.57854728  1
  O  O20  1  0.63939865  0.48645179  0.20767742  1
  O  O21  1  0.63222811  0.78893500  0.42150540  1
  O  O22  1  0.43154068  0.01358480  0.79231380  1
  O  O23  1  0.96139525  0.11926524  0.10408895  1
