# generated using pymatgen
data_HfMg6Zr
_symmetry_space_group_name_H-M   'P 1'
_cell_length_a   6.45345546
_cell_length_b   6.45345493
_cell_length_c   5.05609314
_cell_angle_alpha   90.00000000
_cell_angle_beta   90.00000000
_cell_angle_gamma   120.69579200
_symmetry_Int_Tables_number   1
_chemical_formula_structural   HfMg6Zr
_chemical_formula_sum   'Hf1 Mg6 Zr1'
_cell_volume   181.06830819
_cell_formula_units_Z   1
loop_
 _symmetry_equiv_pos_site_id
 _symmetry_equiv_pos_as_xyz
  1  'x, y, z'
loop_
 _atom_site_type_symbol
 _atom_site_label
 _atom_site_symmetry_multiplicity
 _atom_site_fract_x
 _atom_site_fract_y
 _atom_site_fract_z
 _atom_site_occupancy
  Hf  Hf0  1  0.32498493  0.17501507  0.75000000  1
  Mg  Mg1  1  0.17315230  0.83748971  0.25000000  1
  Mg  Mg2  1  0.66251029  0.32684770  0.25000000  1
  Mg  Mg3  1  0.66467837  0.83532163  0.25000000  1
  Mg  Mg4  1  0.32691136  0.66324116  0.75000000  1
  Mg  Mg5  1  0.83675884  0.17308864  0.75000000  1
  Mg  Mg6  1  0.83535015  0.66464985  0.75000000  1
  Zr  Zr7  1  0.17565376  0.32434624  0.25000000  1
