# generated using pymatgen
data_Mn2NiO4
_symmetry_space_group_name_H-M   'P 1'
_cell_length_a   6.18932458
_cell_length_b   5.84995176
_cell_length_c   6.19014502
_cell_angle_alpha   61.85953658
_cell_angle_beta   56.41138355
_cell_angle_gamma   61.97443886
_symmetry_Int_Tables_number   1
_chemical_formula_structural   Mn2NiO4
_chemical_formula_sum   'Mn4 Ni2 O8'
_cell_volume   157.83510456
_cell_formula_units_Z   2
loop_
 _symmetry_equiv_pos_site_id
 _symmetry_equiv_pos_as_xyz
  1  'x, y, z'
loop_
 _atom_site_type_symbol
 _atom_site_label
 _atom_site_symmetry_multiplicity
 _atom_site_fract_x
 _atom_site_fract_y
 _atom_site_fract_z
 _atom_site_occupancy
  O  O0  1  0.74986713  0.72336421  0.74818703  1
  O  O1  1  0.27708215  0.24984954  0.72066567  1
  O  O2  1  0.25502770  0.72374530  0.25352077  1
  O  O3  1  0.71970927  0.25111482  0.27760034  1
  O  O4  1  0.74833302  0.28086086  0.74877683  1
  O  O5  1  0.27661983  0.74434462  0.73208015  1
  O  O6  1  0.25388491  0.26879382  0.25419907  1
  O  O7  1  0.73151882  0.74546015  0.27675356  1
  Mn  Mn8  1  0.49791553  1.00005353  0.49844196  1
  Mn  Mn9  1  0.99972452  0.50227340  0.49707641  1
  Mn  Mn10  1  0.49814999  0.50196002  0.99944824  1
  Mn  Mn11  1  0.49868954  0.50114683  0.49937108  1
  Ni  Ni12  1  0.12126332  0.12817327  0.12214149  1
  Ni  Ni13  1  0.87221427  0.87885964  0.87173741  1
