# generated using pymatgen
data_Rb2Cr4Cu(HO4)4
_symmetry_space_group_name_H-M   'P 1'
_cell_length_a   7.60516242
_cell_length_b   7.79429994
_cell_length_c   7.74932531
_cell_angle_alpha   92.04722572
_cell_angle_beta   98.76413590
_cell_angle_gamma   117.04421713
_symmetry_Int_Tables_number   1
_chemical_formula_structural   Rb2Cr4Cu(HO4)4
_chemical_formula_sum   'Rb2 Cr4 Cu1 H4 O16'
_cell_volume   401.46419310
_cell_formula_units_Z   1
loop_
 _symmetry_equiv_pos_site_id
 _symmetry_equiv_pos_as_xyz
  1  'x, y, z'
loop_
 _atom_site_type_symbol
 _atom_site_label
 _atom_site_symmetry_multiplicity
 _atom_site_fract_x
 _atom_site_fract_y
 _atom_site_fract_z
 _atom_site_occupancy
  Rb  Rb0  1  0.24521843  0.73211817  0.15607909  1
  Rb  Rb1  1  0.75478157  0.26788183  0.84392091  1
  Cr  Cr2  1  0.24572901  0.47797856  0.66893231  1
  Cr  Cr3  1  0.30088048  0.24422515  0.14950590  1
  Cr  Cr4  1  0.75427099  0.52202144  0.33106769  1
  Cr  Cr5  1  0.69911952  0.75577485  0.85049410  1
  Cu  Cu6  1  0.00000000  0.00000000  0.50000000  1
  H  H7  1  0.32907782  0.03717870  0.62783629  1
  H  H8  1  0.23018540  0.01273069  0.79534200  1
  H  H9  1  0.67092218  0.96282130  0.37216371  1
  H  H10  1  0.76981460  0.98726931  0.20465800  1
  O  O11  1  0.48727425  0.52066266  0.78616365  1
  O  O12  1  0.25750567  0.12812171  0.32365515  1
  O  O13  1  0.20427288  0.95890881  0.66840287  1
  O  O14  1  0.27476739  0.56529316  0.48253072  1
  O  O15  1  0.11130513  0.27753386  0.06649423  1
  O  O16  1  0.74249433  0.87187829  0.67634485  1
  O  O17  1  0.65222997  0.88198708  0.99687530  1
  O  O18  1  0.91583542  0.75919306  0.35767291  1
  O  O19  1  0.72523261  0.43470684  0.51746928  1
  O  O20  1  0.88869487  0.72246614  0.93350577  1
  O  O21  1  0.34777003  0.11801292  0.00312470  1
  O  O22  1  0.79572712  0.04109119  0.33159713  1
  O  O23  1  0.16025663  0.58890553  0.78590158  1
  O  O24  1  0.83974337  0.41109447  0.21409842  1
  O  O25  1  0.51272575  0.47933734  0.21383635  1
  O  O26  1  0.08416458  0.24080694  0.64232709  1
