# generated using pymatgen
data_PbSO4
_symmetry_space_group_name_H-M   'P 1'
_cell_length_a   5.34151105
_cell_length_b   5.56719760
_cell_length_c   12.89093903
_cell_angle_alpha   90.00000000
_cell_angle_beta   90.00000000
_cell_angle_gamma   90.00000000
_symmetry_Int_Tables_number   1
_chemical_formula_structural   PbSO4
_chemical_formula_sum   'Pb4 S4 O16'
_cell_volume   383.34104442
_cell_formula_units_Z   4
loop_
 _symmetry_equiv_pos_site_id
 _symmetry_equiv_pos_as_xyz
  1  'x, y, z'
loop_
 _atom_site_type_symbol
 _atom_site_label
 _atom_site_symmetry_multiplicity
 _atom_site_fract_x
 _atom_site_fract_y
 _atom_site_fract_z
 _atom_site_occupancy
  Pb  Pb0  1  0.25000000  0.40507563  0.62687043  1
  Pb  Pb1  1  0.25000000  0.09492437  0.12687043  1
  Pb  Pb2  1  0.75000000  0.59492437  0.37312957  1
  Pb  Pb3  1  0.75000000  0.90507563  0.87312957  1
  S  S4  1  0.25000000  0.27187346  0.87915457  1
  S  S5  1  0.75000000  0.72812654  0.12084543  1
  S  S6  1  0.25000000  0.22812654  0.37915457  1
  S  S7  1  0.75000000  0.77187346  0.62084543  1
  O  O8  1  0.02332048  0.26356223  0.44721050  1
  O  O9  1  0.25000000  0.51298331  0.83156619  1
  O  O10  1  0.52332048  0.76356223  0.05278950  1
  O  O11  1  0.75000000  0.01298331  0.66843381  1
  O  O12  1  0.25000000  0.41712866  0.29635508  1
  O  O13  1  0.25000000  0.98701669  0.33156619  1
  O  O14  1  0.52332048  0.73643777  0.55278950  1
  O  O15  1  0.47667952  0.26356223  0.44721050  1
  O  O16  1  0.75000000  0.91712866  0.20364492  1
  O  O17  1  0.97667952  0.73643777  0.55278950  1
  O  O18  1  0.25000000  0.08287134  0.79635508  1
  O  O19  1  0.02332048  0.23643777  0.94721050  1
  O  O20  1  0.97667952  0.76356223  0.05278950  1
  O  O21  1  0.75000000  0.58287134  0.70364492  1
  O  O22  1  0.75000000  0.48701669  0.16843381  1
  O  O23  1  0.47667952  0.23643777  0.94721050  1
