# generated using pymatgen
data_H7ClO3
_symmetry_space_group_name_H-M   'P 1'
_cell_length_a   6.59483778
_cell_length_b   6.59483778
_cell_length_c   6.52447694
_cell_angle_alpha   70.55711740
_cell_angle_beta   109.44288260
_cell_angle_gamma   72.18728205
_symmetry_Int_Tables_number   1
_chemical_formula_structural   H7ClO3
_chemical_formula_sum   'H14 Cl2 O6'
_cell_volume   222.89866023
_cell_formula_units_Z   2
loop_
 _symmetry_equiv_pos_site_id
 _symmetry_equiv_pos_as_xyz
  1  'x, y, z'
loop_
 _atom_site_type_symbol
 _atom_site_label
 _atom_site_symmetry_multiplicity
 _atom_site_fract_x
 _atom_site_fract_y
 _atom_site_fract_z
 _atom_site_occupancy
  H  H0  1  0.21425767  0.94969165  0.40999814  1
  H  H1  1  0.45758614  0.70468887  0.57900325  1
  H  H2  1  0.05030835  0.78574233  0.90999814  1
  H  H3  1  0.29531113  0.54241386  0.07900325  1
  H  H4  1  0.79677518  0.32214845  0.72891141  1
  H  H5  1  0.56518636  0.43869676  0.46037918  1
  H  H6  1  0.67785155  0.20322482  0.22891141  1
  H  H7  1  0.56130324  0.43481364  0.96037918  1
  H  H8  1  0.54972704  0.16729140  0.73614631  1
  H  H9  1  0.38676280  0.08562739  0.86718311  1
  H  H10  1  0.44885157  0.95789335  0.69453686  1
  H  H11  1  0.83270860  0.45027296  0.23614631  1
  H  H12  1  0.91437261  0.61323720  0.36718311  1
  H  H13  1  0.04210665  0.55114843  0.19453686  1
  Cl  Cl14  1  0.81667995  0.85903751  0.45875169  1
  Cl  Cl15  1  0.14096249  0.18332005  0.95875169  1
  O  O16  1  0.34851291  0.84309731  0.58135195  1
  O  O17  1  0.15690269  0.65148709  0.08135195  1
  O  O18  1  0.61275567  0.38507792  0.63585422  1
  O  O19  1  0.61492208  0.38724433  0.13585422  1
  O  O20  1  0.51629182  0.02833149  0.81549290  1
  O  O21  1  0.97166851  0.48370818  0.31549290  1
