# generated using pymatgen
data_Ce2Bi5Rh3
_symmetry_space_group_name_H-M   'P 1'
_cell_length_a   4.66488131
_cell_length_b   7.57722215
_cell_length_c   13.88962198
_cell_angle_alpha   90.00000000
_cell_angle_beta   99.66730476
_cell_angle_gamma   90.00000000
_symmetry_Int_Tables_number   1
_chemical_formula_structural   Ce2Bi5Rh3
_chemical_formula_sum   'Ce4 Bi10 Rh6'
_cell_volume   483.98245535
_cell_formula_units_Z   2
loop_
 _symmetry_equiv_pos_site_id
 _symmetry_equiv_pos_as_xyz
  1  'x, y, z'
loop_
 _atom_site_type_symbol
 _atom_site_label
 _atom_site_symmetry_multiplicity
 _atom_site_fract_x
 _atom_site_fract_y
 _atom_site_fract_z
 _atom_site_occupancy
  Ce  Ce0  1  0.47442352  0.24033845  0.94884704  1
  Ce  Ce1  1  0.17080015  0.27392201  0.34160031  1
  Ce  Ce2  1  0.82919985  0.77392201  0.65839969  1
  Ce  Ce3  1  0.52557648  0.74033845  0.05115296  1
  Bi  Bi4  1  0.40424324  0.61547882  0.80848647  1
  Bi  Bi5  1  0.28914708  0.49014138  0.57829417  1
  Bi  Bi6  1  0.71085292  0.99014138  0.42170583  1
  Bi  Bi7  1  0.12112433  0.74808126  0.24224867  1
  Bi  Bi8  1  0.29541851  0.06174967  0.59083703  1
  Bi  Bi9  1  0.95321465  0.90819244  0.90642930  1
  Bi  Bi10  1  0.70458149  0.56174967  0.40916297  1
  Bi  Bi11  1  0.87887567  0.24808126  0.75775133  1
  Bi  Bi12  1  0.04678535  0.40819244  0.09357070  1
  Bi  Bi13  1  0.59575676  0.11547882  0.19151353  1
  Rh  Rh14  1  0.77605264  0.27984317  0.55210527  1
  Rh  Rh15  1  0.60340214  0.49211558  0.20680427  1
  Rh  Rh16  1  0.04958669  0.02532721  0.09917337  1
  Rh  Rh17  1  0.22394736  0.77984317  0.44789473  1
  Rh  Rh18  1  0.95041331  0.52532721  0.90082663  1
  Rh  Rh19  1  0.39659786  0.99211558  0.79319573  1
