# generated using pymatgen
data_OsC3I2O3
_symmetry_space_group_name_H-M   'P 1'
_cell_length_a   6.82384454
_cell_length_b   6.82384481
_cell_length_c   9.83623357
_cell_angle_alpha   75.91690506
_cell_angle_beta   75.91690449
_cell_angle_gamma   69.75855033
_symmetry_Int_Tables_number   1
_chemical_formula_structural   OsC3I2O3
_chemical_formula_sum   'Os2 C6 I4 O6'
_cell_volume   410.39760284
_cell_formula_units_Z   2
loop_
 _symmetry_equiv_pos_site_id
 _symmetry_equiv_pos_as_xyz
  1  'x, y, z'
loop_
 _atom_site_type_symbol
 _atom_site_label
 _atom_site_symmetry_multiplicity
 _atom_site_fract_x
 _atom_site_fract_y
 _atom_site_fract_z
 _atom_site_occupancy
  Os  Os0  1  0.43172936  0.43172936  0.72206736  1
  Os  Os1  1  0.56827064  0.56827064  0.27793264  1
  C  C2  1  0.58745476  0.22299081  0.85691628  1
  C  C3  1  0.73728942  0.73728942  0.28528674  1
  C  C4  1  0.22299081  0.58745476  0.85691628  1
  C  C5  1  0.41254524  0.77700919  0.14308372  1
  C  C6  1  0.26271058  0.26271058  0.71471326  1
  C  C7  1  0.77700919  0.41254524  0.14308372  1
  I  I8  1  0.25969488  0.74030512  0.50000000  1
  I  I9  1  0.32177861  0.32177861  0.26867742  1
  I  I10  1  0.67822139  0.67822139  0.73132258  1
  I  I11  1  0.74030512  0.25969488  0.50000000  1
  O  O12  1  0.31093034  0.90567137  0.06612362  1
  O  O13  1  0.84145602  0.84145602  0.28268712  1
  O  O14  1  0.68906966  0.09432863  0.93387638  1
  O  O15  1  0.09432863  0.68906966  0.93387638  1
  O  O16  1  0.90567137  0.31093034  0.06612362  1
  O  O17  1  0.15854398  0.15854398  0.71731288  1
