# generated using pymatgen
data_K2OsNCl5
_symmetry_space_group_name_H-M   'P 1'
_cell_length_a   6.92383064
_cell_length_b   9.95967941
_cell_length_c   13.43600114
_cell_angle_alpha   90.00000000
_cell_angle_beta   90.00000000
_cell_angle_gamma   90.00000000
_symmetry_Int_Tables_number   1
_chemical_formula_structural   K2OsNCl5
_chemical_formula_sum   'K8 Os4 N4 Cl20'
_cell_volume   926.53499583
_cell_formula_units_Z   4
loop_
 _symmetry_equiv_pos_site_id
 _symmetry_equiv_pos_as_xyz
  1  'x, y, z'
loop_
 _atom_site_type_symbol
 _atom_site_label
 _atom_site_symmetry_multiplicity
 _atom_site_fract_x
 _atom_site_fract_y
 _atom_site_fract_z
 _atom_site_occupancy
  K  K0  1  0.83043841  0.50093319  0.64540417  1
  K  K1  1  0.33043841  0.00093319  0.85459583  1
  K  K2  1  0.66956159  0.50093319  0.14540417  1
  K  K3  1  0.16956159  0.00093319  0.35459583  1
  K  K4  1  0.16956159  0.49906681  0.35459583  1
  K  K5  1  0.66956159  0.99906681  0.14540417  1
  K  K6  1  0.33043841  0.49906681  0.85459583  1
  K  K7  1  0.83043841  0.99906681  0.64540417  1
  Os  Os8  1  0.32980371  0.25000000  0.59266239  1
  Os  Os9  1  0.67019629  0.75000000  0.40733761  1
  Os  Os10  1  0.82980371  0.75000000  0.90733761  1
  Os  Os11  1  0.17019629  0.25000000  0.09266239  1
  N  N12  1  0.01788459  0.25000000  0.99669574  1
  N  N13  1  0.98211541  0.75000000  0.00330426  1
  N  N14  1  0.48211541  0.25000000  0.49669574  1
  N  N15  1  0.51788459  0.75000000  0.50330426  1
  Cl  Cl16  1  0.46529314  0.25000000  0.00028185  1
  Cl  Cl17  1  0.59653612  0.75000000  0.75197825  1
  Cl  Cl18  1  0.90346388  0.75000000  0.25197825  1
  Cl  Cl19  1  0.69133003  0.51118852  0.39372148  1
  Cl  Cl20  1  0.07178808  0.75000000  0.78020020  1
  Cl  Cl21  1  0.53470686  0.75000000  0.99971815  1
  Cl  Cl22  1  0.42821192  0.75000000  0.28020020  1
  Cl  Cl23  1  0.03470686  0.25000000  0.50028185  1
  Cl  Cl24  1  0.40346388  0.25000000  0.24802175  1
  Cl  Cl25  1  0.80866997  0.98881148  0.89372148  1
  Cl  Cl26  1  0.96529314  0.75000000  0.49971815  1
  Cl  Cl27  1  0.09653612  0.25000000  0.74802175  1
  Cl  Cl28  1  0.80866997  0.51118852  0.89372148  1
  Cl  Cl29  1  0.19133003  0.48881148  0.10627852  1
  Cl  Cl30  1  0.92821192  0.25000000  0.21979980  1
  Cl  Cl31  1  0.30866997  0.48881148  0.60627852  1
  Cl  Cl32  1  0.57178808  0.25000000  0.71979980  1
  Cl  Cl33  1  0.19133003  0.01118852  0.10627852  1
  Cl  Cl34  1  0.69133003  0.98881148  0.39372148  1
  Cl  Cl35  1  0.30866997  0.01118852  0.60627852  1
