# generated using pymatgen
data_K2Pd(NO2)4
_symmetry_space_group_name_H-M   'P 1'
_cell_length_a   8.04412808
_cell_length_b   8.95171032
_cell_length_c   13.43708034
_cell_angle_alpha   90.00000000
_cell_angle_beta   90.00000000
_cell_angle_gamma   93.56339230
_symmetry_Int_Tables_number   1
_chemical_formula_structural   K2Pd(NO2)4
_chemical_formula_sum   'K8 Pd4 N16 O32'
_cell_volume   965.71605410
_cell_formula_units_Z   4
loop_
 _symmetry_equiv_pos_site_id
 _symmetry_equiv_pos_as_xyz
  1  'x, y, z'
loop_
 _atom_site_type_symbol
 _atom_site_label
 _atom_site_symmetry_multiplicity
 _atom_site_fract_x
 _atom_site_fract_y
 _atom_site_fract_z
 _atom_site_occupancy
  K  K0  1  0.07430602  0.81997256  0.34116100  1
  K  K1  1  0.14595326  0.66574688  0.67586009  1
  K  K2  1  0.42569398  0.18002744  0.84116100  1
  K  K3  1  0.57430602  0.81997256  0.15883900  1
  K  K4  1  0.64595326  0.66574688  0.82413991  1
  K  K5  1  0.35404674  0.33425312  0.17586009  1
  K  K6  1  0.85404674  0.33425312  0.32413991  1
  K  K7  1  0.92569398  0.18002744  0.65883900  1
  Pd  Pd8  1  0.50000000  0.00000000  0.50000000  1
  Pd  Pd9  1  0.00000000  0.00000000  0.00000000  1
  Pd  Pd10  1  0.00000000  0.50000000  0.00000000  1
  Pd  Pd11  1  0.50000000  0.50000000  0.50000000  1
  N  N12  1  0.24123435  0.44513024  0.49166743  1
  N  N13  1  0.27725424  0.00159608  0.57457932  1
  N  N14  1  0.25876565  0.55486976  0.99166743  1
  N  N15  1  0.89804921  0.09467009  0.12663246  1
  N  N16  1  0.49068709  0.59592397  0.36160312  1
  N  N17  1  0.00931291  0.40407603  0.86160312  1
  N  N18  1  0.10195079  0.90532991  0.87336754  1
  N  N19  1  0.74123435  0.44513024  0.00833257  1
  N  N20  1  0.22274576  0.99840392  0.07457932  1
  N  N21  1  0.50931291  0.40407603  0.63839688  1
  N  N22  1  0.39804921  0.09467009  0.37336754  1
  N  N23  1  0.72274576  0.99840392  0.42542068  1
  N  N24  1  0.75876565  0.55486976  0.50833257  1
  N  N25  1  0.60195079  0.90532991  0.62663246  1
  N  N26  1  0.77725424  0.00159608  0.92542068  1
  N  N27  1  0.99068709  0.59592397  0.13839688  1
  O  O28  1  0.74538295  0.90985798  0.35576381  1
  O  O29  1  0.66385840  0.47119495  0.08660238  1
  O  O30  1  0.66729721  0.38309037  0.93598511  1
  O  O31  1  0.74562169  0.11416385  0.13073981  1
  O  O32  1  0.05642254  0.53103996  0.21016209  1
  O  O33  1  0.33614160  0.52880505  0.91339762  1
  O  O34  1  0.92102859  0.71451567  0.15259919  1
  O  O35  1  0.75437831  0.88583615  0.63073981  1
  O  O36  1  0.83662175  0.09394731  0.45034187  1
  O  O37  1  0.49113846  0.13596894  0.30186813  1
  O  O38  1  0.00886154  0.86403106  0.80186813  1
  O  O39  1  0.83270279  0.61690963  0.43598511  1
  O  O40  1  0.25461705  0.09014202  0.64423619  1
  O  O41  1  0.24562169  0.11416385  0.36926019  1
  O  O42  1  0.07897141  0.28548433  0.84740081  1
  O  O43  1  0.33270279  0.61690963  0.06401489  1
  O  O44  1  0.33662175  0.09394731  0.04965813  1
  O  O45  1  0.44357746  0.46896004  0.71016209  1
  O  O46  1  0.55642254  0.53103996  0.28983791  1
  O  O47  1  0.42102859  0.71451567  0.34740081  1
  O  O48  1  0.75461705  0.09014202  0.85576381  1
  O  O49  1  0.16385840  0.47119495  0.41339762  1
  O  O50  1  0.16729721  0.38309037  0.56401489  1
  O  O51  1  0.83614160  0.52880505  0.58660238  1
  O  O52  1  0.16337825  0.90605269  0.54965813  1
  O  O53  1  0.66337825  0.90605269  0.95034187  1
  O  O54  1  0.94357746  0.46896004  0.78983791  1
  O  O55  1  0.25437831  0.88583615  0.86926019  1
  O  O56  1  0.50886154  0.86403106  0.69813187  1
  O  O57  1  0.24538295  0.90985798  0.14423619  1
  O  O58  1  0.57897141  0.28548433  0.65259919  1
  O  O59  1  0.99113846  0.13596894  0.19813187  1
