# generated using pymatgen
data_Pb4SeBr6
_symmetry_space_group_name_H-M   'P 1'
_cell_length_a   4.41363859
_cell_length_b   9.65043207
_cell_length_c   9.82203649
_cell_angle_alpha   62.97215914
_cell_angle_beta   77.02024661
_cell_angle_gamma   76.86371117
_symmetry_Int_Tables_number   1
_chemical_formula_structural   Pb4SeBr6
_chemical_formula_sum   'Pb4 Se1 Br6'
_cell_volume   359.34568439
_cell_formula_units_Z   1
loop_
 _symmetry_equiv_pos_site_id
 _symmetry_equiv_pos_as_xyz
  1  'x, y, z'
loop_
 _atom_site_type_symbol
 _atom_site_label
 _atom_site_symmetry_multiplicity
 _atom_site_fract_x
 _atom_site_fract_y
 _atom_site_fract_z
 _atom_site_occupancy
  Pb  Pb0  1  0.00207796  0.99602979  0.00187166  1
  Pb  Pb1  1  0.24312148  0.53059603  0.98134254  1
  Pb  Pb2  1  0.49661051  0.53362870  0.46420661  1
  Pb  Pb3  1  0.76020906  0.01386698  0.45919119  1
  Se  Se4  1  0.98938195  0.72188696  0.29256851  1
  Br  Br5  1  0.36351668  0.10618489  0.16402147  1
  Br  Br6  1  0.63300492  0.82991138  0.90020922  1
  Br  Br7  1  0.12277058  0.16827877  0.58129422  1
  Br  Br8  1  0.87354867  0.41344816  0.83139540  1
  Br  Br9  1  0.30534784  0.76434977  0.61714141  1
  Br  Br10  1  0.68784636  0.38810258  0.23211676  1
