# generated using pymatgen
data_Ba2CaTlCu2O7
_symmetry_space_group_name_H-M   'P 1'
_cell_length_a   3.84050310
_cell_length_b   3.84050137
_cell_length_c   13.04874803
_cell_angle_alpha   89.99998463
_cell_angle_beta   89.99997935
_cell_angle_gamma   90.00001283
_symmetry_Int_Tables_number   1
_chemical_formula_structural   Ba2CaTlCu2O7
_chemical_formula_sum   'Ba2 Ca1 Tl1 Cu2 O7'
_cell_volume   192.46195341
_cell_formula_units_Z   1
loop_
 _symmetry_equiv_pos_site_id
 _symmetry_equiv_pos_as_xyz
  1  'x, y, z'
loop_
 _atom_site_type_symbol
 _atom_site_label
 _atom_site_symmetry_multiplicity
 _atom_site_fract_x
 _atom_site_fract_y
 _atom_site_fract_z
 _atom_site_occupancy
  Ba  Ba0  1  0.00000000  0.99999900  0.70809696  1
  Ba  Ba1  1  0.99999900  1.00000000  0.29189271  1
  Ca  Ca2  1  0.00000000  0.00000000  0.00002288  1
  Tl  Tl3  1  0.49999800  0.50000000  0.49998496  1
  Cu  Cu4  1  0.50000000  0.50000000  0.86837850  1
  Cu  Cu5  1  0.49999900  0.50000000  0.13163313  1
  O  O6  1  0.50000000  1.00000000  0.87997345  1
  O  O7  1  1.00000000  0.49999900  0.87997145  1
  O  O8  1  0.50000000  0.00000000  0.12002664  1
  O  O9  1  0.99999900  0.50000100  0.12002564  1
  O  O10  1  0.50000000  0.49999900  0.66005958  1
  O  O11  1  0.50000100  0.50000300  0.33992154  1
  O  O12  1  0.00000300  1.00000000  0.50001155  1
