# generated using pymatgen
data_Zn(HO)2
_symmetry_space_group_name_H-M   'P 1'
_cell_length_a   12.61276669
_cell_length_b   12.59185014
_cell_length_c   12.61379440
_cell_angle_alpha   40.89770937
_cell_angle_beta   142.35758370
_cell_angle_gamma   164.72807714
_symmetry_Int_Tables_number   1
_chemical_formula_structural   Zn(HO)2
_chemical_formula_sum   'Zn6 H12 O12'
_cell_volume   321.86609876
_cell_formula_units_Z   6
loop_
 _symmetry_equiv_pos_site_id
 _symmetry_equiv_pos_as_xyz
  1  'x, y, z'
loop_
 _atom_site_type_symbol
 _atom_site_label
 _atom_site_symmetry_multiplicity
 _atom_site_fract_x
 _atom_site_fract_y
 _atom_site_fract_z
 _atom_site_occupancy
  Zn  Zn0  1  0.78956024  0.10813624  0.85709156  1
  Zn  Zn1  1  0.24140011  0.92662723  0.13714791  1
  Zn  Zn2  1  0.80317944  0.93341671  0.69627501  1
  Zn  Zn3  1  0.25801762  0.11321810  0.32605854  1
  Zn  Zn4  1  0.03172654  0.23787348  0.23160549  1
  Zn  Zn5  1  0.03422210  0.80481960  0.79345745  1
  H  H6  1  0.44744816  0.83903284  0.96116023  1
  H  H7  1  0.30424735  0.80389498  0.11664153  1
  H  H8  1  0.44836028  0.48718253  0.61002578  1
  H  H9  1  0.30341804  0.18502612  0.50447442  1
  H  H10  1  0.05580450  0.57721878  0.60663154  1
  H  H11  1  0.96220858  0.44925332  0.38515549  1
  H  H12  1  0.18987240  0.49684486  0.65278564  1
  H  H13  1  0.84041562  0.53038731  0.34217914  1
  H  H14  1  0.61124094  0.80318796  0.38803915  1
  H  H15  1  0.60697154  0.22232411  0.80620026  1
  H  H16  1  0.65564764  0.70527041  0.05797130  1
  H  H17  1  0.97833262  0.95573114  0.98812500  1
  O  O18  1  0.74932903  0.12259949  0.97259870  1
  O  O19  1  0.16878117  0.79362803  0.03321626  1
  O  O20  1  0.74933382  0.77824090  0.62693608  1
  O  O21  1  0.17371426  0.13780072  0.37852707  1
  O  O22  1  0.17863577  0.57389503  0.72776447  1
  O  O23  1  0.84159015  0.45627762  0.27206801  1
  O  O24  1  0.18052192  0.45176763  0.60466763  1
  O  O25  1  0.84849931  0.57321554  0.39272967  1
  O  O26  1  0.51459147  0.78042187  0.26443328  1
  O  O27  1  0.50835312  0.24761842  0.73019483  1
  O  O28  1  0.93781428  0.99803031  0.06056740  1
  O  O29  1  0.96839397  0.90571472  0.94494116  1
