# generated using pymatgen
data_TmMn4(CuO4)3
_symmetry_space_group_name_H-M   'P 1'
_cell_length_a   6.40317880
_cell_length_b   6.40315325
_cell_length_c   6.40319081
_cell_angle_alpha   109.45556532
_cell_angle_beta   109.47592857
_cell_angle_gamma   109.48298610
_symmetry_Int_Tables_number   1
_chemical_formula_structural   TmMn4(CuO4)3
_chemical_formula_sum   'Tm1 Mn4 Cu3 O12'
_cell_volume   202.09691012
_cell_formula_units_Z   1
loop_
 _symmetry_equiv_pos_site_id
 _symmetry_equiv_pos_as_xyz
  1  'x, y, z'
loop_
 _atom_site_type_symbol
 _atom_site_label
 _atom_site_symmetry_multiplicity
 _atom_site_fract_x
 _atom_site_fract_y
 _atom_site_fract_z
 _atom_site_occupancy
  Tm  Tm0  1  1.00000050  0.00000091  0.00000447  1
  Mn  Mn1  1  1.00000582  0.99999188  0.49996887  1
  Mn  Mn2  1  0.50001622  1.00004182  0.00004585  1
  Mn  Mn3  1  0.50000100  0.49995888  0.50001095  1
  Mn  Mn4  1  -0.00000229  0.50002735  0.00001587  1
  Cu  Cu5  1  0.49989691  -0.00004865  0.49993663  1
  Cu  Cu6  1  0.50005655  0.50002872  0.99998140  1
  Cu  Cu7  1  0.00002111  0.50000434  0.50001077  1
  O  O8  1  0.16921230  0.30053867  0.46975297  1
  O  O9  1  0.86893874  0.16932501  0.69961507  1
  O  O10  1  0.83078769  0.30053837  0.13132992  1
  O  O11  1  0.53028826  0.83067439  0.69961497  1
  O  O12  1  0.83078883  0.69946036  0.53025111  1
  O  O13  1  0.16921211  0.69945996  0.86867432  1
  O  O14  1  0.13106435  0.83067452  0.30039155  1
  O  O15  1  0.46971395  0.16932611  0.30039014  1
  O  O16  1  0.69953266  0.53021144  0.83067907  1
  O  O17  1  0.69953304  0.86885336  0.16932375  1
  O  O18  1  0.30046605  0.46978761  0.16932329  1
  O  O19  1  0.30046621  0.13114493  0.83067904  1
