# generated using pymatgen
data_PbWO4
_symmetry_space_group_name_H-M   'P 1'
_cell_length_a   7.18063340
_cell_length_b   7.49582432
_cell_length_c   12.85307883
_cell_angle_alpha   89.64942272
_cell_angle_beta   90.00000000
_cell_angle_gamma   90.00000000
_symmetry_Int_Tables_number   1
_chemical_formula_structural   PbWO4
_chemical_formula_sum   'Pb8 W8 O32'
_cell_volume   691.80101592
_cell_formula_units_Z   8
loop_
 _symmetry_equiv_pos_site_id
 _symmetry_equiv_pos_as_xyz
  1  'x, y, z'
loop_
 _atom_site_type_symbol
 _atom_site_label
 _atom_site_symmetry_multiplicity
 _atom_site_fract_x
 _atom_site_fract_y
 _atom_site_fract_z
 _atom_site_occupancy
  Pb  Pb0  1  0.79683413  0.66913087  0.34601311  1
  Pb  Pb1  1  0.70316587  0.16913087  0.84601311  1
  Pb  Pb2  1  0.20316587  0.33086913  0.65398689  1
  Pb  Pb3  1  0.29683413  0.83086913  0.15398689  1
  Pb  Pb4  1  0.53927670  0.12606702  0.35439939  1
  Pb  Pb5  1  0.96072330  0.62606702  0.85439939  1
  Pb  Pb6  1  0.46072330  0.87393298  0.64560061  1
  Pb  Pb7  1  0.03927670  0.37393298  0.14560061  1
  W  W8  1  0.33269444  0.58367123  0.41875033  1
  W  W9  1  0.16730556  0.08367123  0.91875033  1
  W  W10  1  0.66730556  0.41632877  0.58124967  1
  W  W11  1  0.83269444  0.91632877  0.08124967  1
  W  W12  1  0.04219536  0.15296616  0.41325040  1
  W  W13  1  0.45780464  0.65296616  0.91325040  1
  W  W14  1  0.95780464  0.84703384  0.58674960  1
  W  W15  1  0.54219536  0.34703384  0.08674960  1
  O  O16  1  0.48409185  0.78205007  0.39649183  1
  O  O17  1  0.01590815  0.28205007  0.89649183  1
  O  O18  1  0.51590815  0.21794993  0.60350817  1
  O  O19  1  0.98409185  0.71794993  0.10350817  1
  O  O20  1  0.91571660  0.27752516  0.31257536  1
  O  O21  1  0.58428340  0.77752516  0.81257536  1
  O  O22  1  0.08428340  0.72247484  0.68742464  1
  O  O23  1  0.41571660  0.22247484  0.18742464  1
  O  O24  1  0.85812700  0.96853104  0.44428436  1
  O  O25  1  0.64187300  0.46853104  0.94428436  1
  O  O26  1  0.14187300  0.03146896  0.55571564  1
  O  O27  1  0.35812700  0.53146896  0.05571564  1
  O  O28  1  0.24799250  0.56332746  0.28444666  1
  O  O29  1  0.25200750  0.06332746  0.78444666  1
  O  O30  1  0.75200750  0.43667254  0.71555334  1
  O  O31  1  0.74799250  0.93667254  0.21555334  1
  O  O32  1  0.22990269  0.32828443  0.44893463  1
  O  O33  1  0.27009731  0.82828443  0.94893463  1
  O  O34  1  0.77009731  0.67171557  0.55106537  1
  O  O35  1  0.72990269  0.17171557  0.05106537  1
  O  O36  1  0.19131552  0.02189704  0.33048696  1
  O  O37  1  0.30868448  0.52189704  0.83048696  1
  O  O38  1  0.80868448  0.97810296  0.66951304  1
  O  O39  1  0.69131552  0.47810296  0.16951304  1
  O  O40  1  0.12170839  0.69102643  0.47634886  1
  O  O41  1  0.37829161  0.19102643  0.97634886  1
  O  O42  1  0.87829161  0.30897357  0.52365114  1
  O  O43  1  0.62170839  0.80897357  0.02365114  1
  O  O44  1  0.57671711  0.44200871  0.41858241  1
  O  O45  1  0.92328289  0.94200871  0.91858241  1
  O  O46  1  0.42328289  0.55799129  0.58141759  1
  O  O47  1  0.07671711  0.05799129  0.08141759  1
