# generated using pymatgen
data_SbP2SN3Cl10
_symmetry_space_group_name_H-M   'P 1'
_cell_length_a   8.99715433
_cell_length_b   13.01560112
_cell_length_c   16.34346003
_cell_angle_alpha   90.00000000
_cell_angle_beta   90.00000000
_cell_angle_gamma   90.00000000
_symmetry_Int_Tables_number   1
_chemical_formula_structural   SbP2SN3Cl10
_chemical_formula_sum   'Sb4 P8 S4 N12 Cl40'
_cell_volume   1913.87427924
_cell_formula_units_Z   4
loop_
 _symmetry_equiv_pos_site_id
 _symmetry_equiv_pos_as_xyz
  1  'x, y, z'
loop_
 _atom_site_type_symbol
 _atom_site_label
 _atom_site_symmetry_multiplicity
 _atom_site_fract_x
 _atom_site_fract_y
 _atom_site_fract_z
 _atom_site_occupancy
  Sb  Sb0  1  0.50000000  0.50000000  0.50000000  1
  Sb  Sb1  1  0.50000000  0.50000000  0.00000000  1
  Sb  Sb2  1  0.00000000  0.00000000  0.50000000  1
  Sb  Sb3  1  0.00000000  0.00000000  0.00000000  1
  P  P4  1  0.97477640  0.62069925  0.75000000  1
  P  P5  1  0.02522360  0.37930075  0.25000000  1
  P  P6  1  0.54684216  0.09075744  0.25000000  1
  P  P7  1  0.52522360  0.12069925  0.75000000  1
  P  P8  1  0.47477640  0.87930075  0.25000000  1
  P  P9  1  0.45315784  0.90924256  0.75000000  1
  P  P10  1  0.95315784  0.59075744  0.25000000  1
  P  P11  1  0.04684216  0.40924256  0.75000000  1
  S  S12  1  0.27575581  0.55749254  0.75000000  1
  S  S13  1  0.77575581  0.94250746  0.25000000  1
  S  S14  1  0.22424419  0.05749254  0.75000000  1
  S  S15  1  0.72424419  0.44250746  0.25000000  1
  N  N16  1  0.72420154  0.05683282  0.25000000  1
  N  N17  1  0.06613428  0.49774771  0.25000000  1
  N  N18  1  0.93386572  0.50225229  0.75000000  1
  N  N19  1  0.43386572  0.99774771  0.25000000  1
  N  N20  1  0.34388928  0.14368002  0.75000000  1
  N  N21  1  0.84388928  0.35631998  0.25000000  1
  N  N22  1  0.15611072  0.64368002  0.75000000  1
  N  N23  1  0.56613428  0.00225229  0.75000000  1
  N  N24  1  0.27579846  0.94316718  0.75000000  1
  N  N25  1  0.22420154  0.44316718  0.75000000  1
  N  N26  1  0.65611072  0.85631998  0.25000000  1
  N  N27  1  0.77579846  0.55683282  0.25000000  1
  Cl  Cl28  1  0.12423185  0.83597892  0.51300902  1
  Cl  Cl29  1  0.39184240  0.80803843  0.15373825  1
  Cl  Cl30  1  0.87576815  0.16402108  0.01300902  1
  Cl  Cl31  1  0.27420895  0.58698276  0.95441871  1
  Cl  Cl32  1  0.37576815  0.33597892  0.51300902  1
  Cl  Cl33  1  0.51765434  0.18120019  0.15382579  1
  Cl  Cl34  1  0.77420895  0.91301724  0.04558129  1
  Cl  Cl35  1  0.10815760  0.30803843  0.34626175  1
  Cl  Cl36  1  0.62423185  0.66402108  0.48699098  1
  Cl  Cl37  1  0.89184240  0.69196157  0.65373825  1
  Cl  Cl38  1  0.60815760  0.19196157  0.84626175  1
  Cl  Cl39  1  0.58544098  0.48710725  0.86030185  1
  Cl  Cl40  1  0.22579105  0.08698276  0.54558129  1
  Cl  Cl41  1  0.01765434  0.31879981  0.65382579  1
  Cl  Cl42  1  0.77420895  0.91301724  0.45441871  1
  Cl  Cl43  1  0.48234566  0.81879981  0.65382579  1
  Cl  Cl44  1  0.91455902  0.98710725  0.63969815  1
  Cl  Cl45  1  0.91455902  0.98710725  0.86030185  1
  Cl  Cl46  1  0.08544098  0.01289275  0.36030185  1
  Cl  Cl47  1  0.72579105  0.41301724  0.04558129  1
  Cl  Cl48  1  0.08544098  0.01289275  0.13969815  1
  Cl  Cl49  1  0.48234566  0.81879981  0.84617421  1
  Cl  Cl50  1  0.41455902  0.51289275  0.36030185  1
  Cl  Cl51  1  0.01765434  0.31879981  0.84617421  1
  Cl  Cl52  1  0.22579105  0.08698276  0.95441871  1
  Cl  Cl53  1  0.89184240  0.69196157  0.84626175  1
  Cl  Cl54  1  0.98234566  0.68120019  0.15382579  1
  Cl  Cl55  1  0.72579105  0.41301724  0.45441871  1
  Cl  Cl56  1  0.39184240  0.80803843  0.34626175  1
  Cl  Cl57  1  0.58544098  0.48710725  0.63969815  1
  Cl  Cl58  1  0.87576815  0.16402108  0.48699098  1
  Cl  Cl59  1  0.41455902  0.51289275  0.13969815  1
  Cl  Cl60  1  0.27420895  0.58698276  0.54558129  1
  Cl  Cl61  1  0.51765434  0.18120019  0.34617421  1
  Cl  Cl62  1  0.37576815  0.33597892  0.98699098  1
  Cl  Cl63  1  0.62423185  0.66402108  0.01300902  1
  Cl  Cl64  1  0.10815760  0.30803843  0.15373825  1
  Cl  Cl65  1  0.60815760  0.19196157  0.65373825  1
  Cl  Cl66  1  0.98234566  0.68120019  0.34617421  1
  Cl  Cl67  1  0.12423185  0.83597892  0.98699098  1
