# generated using pymatgen
data_Sr(H8O5)2
_symmetry_space_group_name_H-M   'P 1'
_cell_length_a   6.13981186
_cell_length_b   6.50723323
_cell_length_c   11.48721373
_cell_angle_alpha   89.01822418
_cell_angle_beta   91.88504076
_cell_angle_gamma   90.64841603
_symmetry_Int_Tables_number   1
_chemical_formula_structural   Sr(H8O5)2
_chemical_formula_sum   'Sr2 H32 O20'
_cell_volume   458.60854717
_cell_formula_units_Z   2
loop_
 _symmetry_equiv_pos_site_id
 _symmetry_equiv_pos_as_xyz
  1  'x, y, z'
loop_
 _atom_site_type_symbol
 _atom_site_label
 _atom_site_symmetry_multiplicity
 _atom_site_fract_x
 _atom_site_fract_y
 _atom_site_fract_z
 _atom_site_occupancy
  Sr  Sr0  1  0.96801636  0.00620256  0.50139612  1
  Sr  Sr1  1  0.00526167  0.98214579  0.00251607  1
  H  H2  1  0.05579843  0.30793964  0.28922805  1
  H  H3  1  0.24412289  0.36931007  0.38879366  1
  H  H4  1  0.91386055  0.62154803  0.34227908  1
  H  H5  1  0.67633914  0.62340159  0.39483505  1
  H  H6  1  0.69708296  0.18666466  0.28957587  1
  H  H7  1  0.57658542  0.28058347  0.39511225  1
  H  H8  1  0.38621114  0.93308272  0.36128862  1
  H  H9  1  0.34892857  0.69831517  0.40321308  1
  H  H10  1  0.96515069  0.31663174  0.79206916  1
  H  H11  1  0.75018800  0.35694132  0.87279124  1
  H  H12  1  0.08307816  0.61182812  0.82961196  1
  H  H13  1  0.29939974  0.60293336  0.90852946  1
  H  H14  1  0.40052921  0.25544618  0.88861211  1
  H  H15  1  0.28651003  0.13296322  0.78412855  1
  H  H16  1  0.56581382  0.92607972  0.85641767  1
  H  H17  1  0.63225460  0.69451753  0.88796943  1
  H  H18  1  0.78936854  0.74926127  0.71495365  1
  H  H19  1  0.69676707  0.61731882  0.60784538  1
  H  H20  1  0.26147927  0.41165852  0.61826461  1
  H  H21  1  0.01873782  0.48053899  0.63558298  1
  H  H22  1  0.35364679  0.77451197  0.62999073  1
  H  H23  1  0.44778886  0.00095888  0.62822713  1
  H  H24  1  0.71827270  0.16851034  0.71054220  1
  H  H25  1  0.60090622  0.29232553  0.60211638  1
  H  H26  1  0.18461320  0.75328461  0.23354788  1
  H  H27  1  0.07035239  0.57855684  0.15399590  1
  H  H28  1  0.75384954  0.41667909  0.07324922  1
  H  H29  1  0.09395799  0.28808626  0.13158025  1
  H  H30  1  0.71224514  0.82802914  0.22067179  1
  H  H31  1  0.60944200  0.73065977  0.10818467  1
  H  H32  1  0.43822743  0.27164222  0.09744215  1
  H  H33  1  0.45395721  0.03669741  0.13337876  1
  O  O34  1  0.47852569  0.49593315  0.43875949  1
  O  O35  1  0.55307304  0.47503229  0.92789801  1
  O  O36  1  0.49209170  0.49225356  0.56875140  1
  O  O37  1  0.59673785  0.47469326  0.05572183  1
  O  O38  1  0.09863816  0.30235100  0.37442772  1
  O  O39  1  0.79951920  0.71624347  0.36251961  1
  O  O40  1  0.63677527  0.14705597  0.36450927  1
  O  O41  1  0.27117849  0.82812751  0.37202886  1
  O  O42  1  0.85879841  0.25264195  0.84416147  1
  O  O43  1  0.16133024  0.68037261  0.89267079  1
  O  O44  1  0.33316248  0.12014558  0.86601820  1
  O  O45  1  0.69330787  0.83355472  0.86101232  1
  O  O46  1  0.83399293  0.69537473  0.63920481  1
  O  O47  1  0.11633281  0.36047421  0.64911165  1
  O  O48  1  0.30799071  0.91859884  0.63227828  1
  O  O49  1  0.66613679  0.15020619  0.62863414  1
  O  O50  1  0.14034878  0.71775852  0.15214730  1
  O  O51  1  0.94370475  0.32444265  0.14808037  1
  O  O52  1  0.66133242  0.86500925  0.13984556  1
  O  O53  1  0.34659587  0.14898598  0.11652682  1
