# generated using pymatgen
data_H5IO6
_symmetry_space_group_name_H-M   'P 1'
_cell_length_a   5.46381511
_cell_length_b   18.32211109
_cell_length_c   4.94318067
_cell_angle_alpha   90.00000000
_cell_angle_beta   111.94805459
_cell_angle_gamma   90.00000000
_symmetry_Int_Tables_number   1
_chemical_formula_structural   H5IO6
_chemical_formula_sum   'H20 I4 O24'
_cell_volume   458.98947230
_cell_formula_units_Z   4
loop_
 _symmetry_equiv_pos_site_id
 _symmetry_equiv_pos_as_xyz
  1  'x, y, z'
loop_
 _atom_site_type_symbol
 _atom_site_label
 _atom_site_symmetry_multiplicity
 _atom_site_fract_x
 _atom_site_fract_y
 _atom_site_fract_z
 _atom_site_occupancy
  H  H0  1  0.14249043  0.49174487  0.84044435  1
  H  H1  1  0.76531021  0.94336495  0.12002941  1
  H  H2  1  0.73468979  0.44336495  0.37997059  1
  H  H3  1  0.35750957  0.99174487  0.65955565  1
  H  H4  1  0.87555082  0.52772306  0.16939488  1
  H  H5  1  0.62444918  0.02772306  0.33060512  1
  H  H6  1  0.39754713  0.52383652  0.42639791  1
  H  H7  1  0.10245287  0.02383652  0.07360209  1
  H  H8  1  0.28168594  0.73908381  0.28939422  1
  H  H9  1  0.77494795  0.76015816  0.79182017  1
  H  H10  1  0.72505205  0.26015816  0.70817983  1
  H  H11  1  0.21831406  0.23908381  0.21060578  1
  H  H12  1  0.62820486  0.63456841  0.03136227  1
  H  H13  1  0.12471177  0.86897047  0.53413433  1
  H  H14  1  0.37528823  0.36897047  0.96586567  1
  H  H15  1  0.87179514  0.13456841  0.46863773  1
  H  H16  1  0.03906880  0.68657208  0.58274368  1
  H  H17  1  0.54760856  0.81070137  0.09527090  1
  H  H18  1  0.95239144  0.31070137  0.40472910  1
  H  H19  1  0.46093120  0.18657208  0.91725632  1
  I  I20  1  0.18888472  0.61892783  0.04166894  1
  I  I21  1  0.68026016  0.88135027  0.55919612  1
  I  I22  1  0.81973984  0.38135027  0.94080388  1
  I  I23  1  0.31111528  0.11892783  0.45833106  1
  O  O24  1  0.18700456  0.54489719  0.77665370  1
  O  O25  1  0.67734127  0.95635700  0.26744064  1
  O  O26  1  0.82265873  0.45635700  0.23255936  1
  O  O27  1  0.31299544  0.04489719  0.72334630  1
  O  O28  1  0.88591829  0.58341459  0.10059042  1
  O  O29  1  0.36591379  0.91949713  0.56053917  1
  O  O30  1  0.13408621  0.41949713  0.93946083  1
  O  O31  1  0.61408171  0.08341459  0.39940958  1
  O  O32  1  0.45206674  0.57019493  0.36364227  1
  O  O33  1  0.88580759  0.93545256  0.87142725  1
  O  O34  1  0.61419241  0.43545256  0.62857275  1
  O  O35  1  0.04793326  0.07019493  0.13635773  1
  O  O36  1  0.17211052  0.69609249  0.30229188  1
  O  O37  1  0.65767981  0.80048224  0.80536640  1
  O  O38  1  0.84232019  0.30048224  0.69463360  1
  O  O39  1  0.32788948  0.19609249  0.19770812  1
  O  O40  1  0.47200876  0.66864352  0.98958998  1
  O  O41  1  0.96914070  0.83374804  0.49887290  1
  O  O42  1  0.53085930  0.33374804  0.00112710  1
  O  O43  1  0.02799124  0.16864352  0.51041002  1
  O  O44  1  0.95442890  0.67831750  0.72882242  1
  O  O45  1  0.45762522  0.81908700  0.23560882  1
  O  O46  1  0.04237478  0.31908700  0.26439118  1
  O  O47  1  0.54557110  0.17831750  0.77117758  1
