# generated using pymatgen
data_Mg6ZrTi
_symmetry_space_group_name_H-M   'P 1'
_cell_length_a   6.41640854
_cell_length_b   6.41640802
_cell_length_c   5.00034334
_cell_angle_alpha   90.00000000
_cell_angle_beta   90.00000000
_cell_angle_gamma   121.08466964
_symmetry_Int_Tables_number   1
_chemical_formula_structural   Mg6ZrTi
_chemical_formula_sum   'Mg6 Zr1 Ti1'
_cell_volume   176.30439267
_cell_formula_units_Z   1
loop_
 _symmetry_equiv_pos_site_id
 _symmetry_equiv_pos_as_xyz
  1  'x, y, z'
loop_
 _atom_site_type_symbol
 _atom_site_label
 _atom_site_symmetry_multiplicity
 _atom_site_fract_x
 _atom_site_fract_y
 _atom_site_fract_z
 _atom_site_occupancy
  Mg  Mg0  1  0.17883702  0.83930405  0.25000000  1
  Mg  Mg1  1  0.66069595  0.32116298  0.25000000  1
  Mg  Mg2  1  0.66604775  0.83395225  0.25000000  1
  Mg  Mg3  1  0.32545728  0.66348158  0.75000000  1
  Mg  Mg4  1  0.83651842  0.17454272  0.75000000  1
  Mg  Mg5  1  0.83293855  0.66706145  0.75000000  1
  Zr  Zr6  1  0.17845893  0.32154107  0.25000000  1
  Ti  Ti7  1  0.32104609  0.17895391  0.75000000  1
