# generated using pymatgen
data_Pr2SbO2
_symmetry_space_group_name_H-M   'P 1'
_cell_length_a   4.02713859
_cell_length_b   8.13900209
_cell_length_c   7.18963875
_cell_angle_alpha   104.92152183
_cell_angle_beta   104.95942863
_cell_angle_gamma   90.01133124
_symmetry_Int_Tables_number   1
_chemical_formula_structural   Pr2SbO2
_chemical_formula_sum   'Pr4 Sb2 O4'
_cell_volume   219.42865900
_cell_formula_units_Z   2
loop_
 _symmetry_equiv_pos_site_id
 _symmetry_equiv_pos_as_xyz
  1  'x, y, z'
loop_
 _atom_site_type_symbol
 _atom_site_label
 _atom_site_symmetry_multiplicity
 _atom_site_fract_x
 _atom_site_fract_y
 _atom_site_fract_z
 _atom_site_occupancy
  Pr  Pr0  1  0.33074893  0.16444515  0.67734639  1
  Pr  Pr1  1  0.33000397  0.66392550  0.67674830  1
  Pr  Pr2  1  0.66925107  0.33555485  0.32265361  1
  Pr  Pr3  1  0.66999603  0.83607450  0.32325170  1
  Sb  Sb4  1  0.00093367  0.00041662  0.00043776  1
  Sb  Sb5  1  0.99906633  0.49958338  0.99956224  1
  O  O6  1  0.24877864  0.37465094  0.49871716  1
  O  O7  1  0.24957792  0.87489867  0.49942677  1
  O  O8  1  0.75122136  0.12534906  0.50128284  1
  O  O9  1  0.75042208  0.62510133  0.50057323  1
