# generated using pymatgen
data_La10US16
_symmetry_space_group_name_H-M   'P 1'
_cell_length_a   15.02036354
_cell_length_b   8.68530375
_cell_length_c   8.64536399
_cell_angle_alpha   90.00000000
_cell_angle_beta   54.86000514
_cell_angle_gamma   54.67348461
_symmetry_Int_Tables_number   1
_chemical_formula_structural   La10US16
_chemical_formula_sum   'La10 U1 S16'
_cell_volume   652.15871984
_cell_formula_units_Z   1
loop_
 _symmetry_equiv_pos_site_id
 _symmetry_equiv_pos_as_xyz
  1  'x, y, z'
loop_
 _atom_site_type_symbol
 _atom_site_label
 _atom_site_symmetry_multiplicity
 _atom_site_fract_x
 _atom_site_fract_y
 _atom_site_fract_z
 _atom_site_occupancy
  La  La0  1  0.00535534  0.36242931  0.24015000  1
  La  La1  1  0.12782355  0.62673256  0.36048908  1
  La  La2  1  0.25000000  0.25000000  0.62488300  1
  La  La3  1  0.37217645  0.87326744  0.11613617  1
  La  La4  1  0.49544389  0.38237965  0.26624348  1
  La  La5  1  0.49464466  0.13757069  0.75086069  1
  La  La6  1  0.61778465  0.62686000  0.38671000  1
  La  La7  1  0.75000000  0.25000000  0.62511700  1
  La  La8  1  0.88221535  0.87314000  0.12227931  1
  La  La9  1  0.00455611  0.11762035  0.75713127  1
  U  U10  1  0.75000000  0.75000000  0.87500000  1
  S  S11  1  0.06885176  0.01030877  0.36856127  1
  S  S12  1  0.16914048  0.49868909  0.99847438  1
  S  S13  1  0.06892791  0.36046902  0.50634173  1
  S  S14  1  0.43107209  0.13953098  0.14419755  1
  S  S15  1  0.43114824  0.48969123  0.00626480  1
  S  S16  1  0.33085952  0.00131091  0.83675534  1
  S  S17  1  0.17083946  0.64801230  0.64174750  1
  S  S18  1  0.58028977  0.99536562  0.33783365  1
  S  S19  1  0.32916054  0.85198770  0.48342643  1
  S  S20  1  0.67939693  0.50167515  0.99533342  1
  S  S21  1  0.58217043  0.33697005  0.50021471  1
  S  S22  1  0.91782957  0.16302995  0.16455557  1
  S  S23  1  0.91971023  0.50463438  0.99841320  1
  S  S24  1  0.82060307  0.99832485  0.85412729  1
  S  S25  1  0.67434460  0.65594517  0.65753197  1
  S  S26  1  0.82565540  0.84405483  0.50622118  1
