# generated using pymatgen
data_Ba2PrF7
_symmetry_space_group_name_H-M   'P 1'
_cell_length_a   4.41989169
_cell_length_b   13.71770718
_cell_length_c   12.06917276
_cell_angle_alpha   18.22119579
_cell_angle_beta   54.10838047
_cell_angle_gamma   58.54398725
_symmetry_Int_Tables_number   1
_chemical_formula_structural   Ba2PrF7
_chemical_formula_sum   'Ba2 Pr1 F7'
_cell_volume   183.58796494
_cell_formula_units_Z   1
loop_
 _symmetry_equiv_pos_site_id
 _symmetry_equiv_pos_as_xyz
  1  'x, y, z'
loop_
 _atom_site_type_symbol
 _atom_site_label
 _atom_site_symmetry_multiplicity
 _atom_site_fract_x
 _atom_site_fract_y
 _atom_site_fract_z
 _atom_site_occupancy
  Ba  Ba0  1  0.99805014  0.99531066  0.01207319  1
  Ba  Ba1  1  0.00208623  0.66587795  0.01654443  1
  Pr  Pr2  1  0.94764343  0.27547613  0.04921957  1
  F  F3  1  0.30922442  0.27079256  0.24262320  1
  F  F4  1  0.25461238  0.58023219  0.25821933  1
  F  F5  1  0.75294788  0.07258286  0.76973390  1
  F  F6  1  0.35265941  0.40528149  0.66594656  1
  F  F7  1  0.58550645  0.33462788  0.90143525  1
  F  F8  1  0.01864607  0.82744427  0.41115142  1
  F  F9  1  0.79862358  0.80904001  0.69305315  1
