# generated using pymatgen
data_Sm2PbSe4
_symmetry_space_group_name_H-M   'P 1'
_cell_length_a   7.79991049
_cell_length_b   7.79991037
_cell_length_c   7.79991079
_cell_angle_alpha   109.42184586
_cell_angle_beta   109.42184553
_cell_angle_gamma   109.57001434
_symmetry_Int_Tables_number   1
_chemical_formula_structural   Sm2PbSe4
_chemical_formula_sum   'Sm4 Pb2 Se8'
_cell_volume   365.29692363
_cell_formula_units_Z   2
loop_
 _symmetry_equiv_pos_site_id
 _symmetry_equiv_pos_as_xyz
  1  'x, y, z'
loop_
 _atom_site_type_symbol
 _atom_site_label
 _atom_site_symmetry_multiplicity
 _atom_site_fract_x
 _atom_site_fract_y
 _atom_site_fract_z
 _atom_site_occupancy
  Sm  Sm0  1  0.11961812  0.75000000  0.86961812  1
  Sm  Sm1  1  0.25000000  0.61961812  0.36961812  1
  Sm  Sm2  1  0.38038188  0.25000000  0.63038188  1
  Sm  Sm3  1  0.75000000  0.88038188  0.13038188  1
  Pb  Pb4  1  0.62500000  0.37500000  0.25000000  1
  Pb  Pb5  1  0.87500000  0.12500000  0.75000000  1
  Se  Se6  1  0.00971977  0.85775189  0.49698205  1
  Se  Se7  1  0.14224811  0.13923017  0.15196789  1
  Se  Se8  1  0.48726228  0.99028023  0.34803211  1
  Se  Se9  1  0.35775189  0.50971977  0.99698205  1
  Se  Se10  1  0.63923017  0.64224811  0.65196789  1
  Se  Se11  1  0.49028023  0.98726228  0.84803211  1
  Se  Se12  1  0.86076983  0.51273772  0.00301795  1
  Se  Se13  1  0.01273772  0.36076983  0.50301795  1
