# generated using pymatgen
data_KNO3
_symmetry_space_group_name_H-M   'P 1'
_cell_length_a   5.60223479
_cell_length_b   6.40508468
_cell_length_c   9.26819602
_cell_angle_alpha   90.00000000
_cell_angle_beta   90.00000000
_cell_angle_gamma   90.00000000
_symmetry_Int_Tables_number   1
_chemical_formula_structural   KNO3
_chemical_formula_sum   'K4 N4 O12'
_cell_volume   332.56871503
_cell_formula_units_Z   4
loop_
 _symmetry_equiv_pos_site_id
 _symmetry_equiv_pos_as_xyz
  1  'x, y, z'
loop_
 _atom_site_type_symbol
 _atom_site_label
 _atom_site_symmetry_multiplicity
 _atom_site_fract_x
 _atom_site_fract_y
 _atom_site_fract_z
 _atom_site_occupancy
  K  K0  1  0.25000000  0.63596598  0.88995387  1
  K  K1  1  0.75000000  0.86403402  0.38995387  1
  K  K2  1  0.25000000  0.13596598  0.61004613  1
  K  K3  1  0.75000000  0.36403402  0.11004613  1
  N  N4  1  0.75000000  0.38537100  0.63414714  1
  N  N5  1  0.25000000  0.11462900  0.13414714  1
  N  N6  1  0.25000000  0.61462900  0.36585286  1
  N  N7  1  0.75000000  0.88537100  0.86585286  1
  O  O8  1  0.25000000  0.27409620  0.05169582  1
  O  O9  1  0.94628552  0.96398464  0.82576217  1
  O  O10  1  0.05371448  0.03601536  0.17423783  1
  O  O11  1  0.55371448  0.96398464  0.82576217  1
  O  O12  1  0.05371448  0.53601536  0.32576217  1
  O  O13  1  0.44628552  0.53601536  0.32576217  1
  O  O14  1  0.44628552  0.03601536  0.17423783  1
  O  O15  1  0.94628552  0.46398464  0.67423783  1
  O  O16  1  0.25000000  0.77409620  0.44830418  1
  O  O17  1  0.75000000  0.72590380  0.94830418  1
  O  O18  1  0.75000000  0.22590380  0.55169582  1
  O  O19  1  0.55371448  0.46398464  0.67423783  1
