# generated using pymatgen
data_Cr4FeCuS8
_symmetry_space_group_name_H-M   'P 1'
_cell_length_a   7.00877462
_cell_length_b   7.00877463
_cell_length_c   7.00877462
_cell_angle_alpha   60.00000003
_cell_angle_beta   60.00000000
_cell_angle_gamma   60.00000000
_symmetry_Int_Tables_number   1
_chemical_formula_structural   Cr4FeCuS8
_chemical_formula_sum   'Cr4 Fe1 Cu1 S8'
_cell_volume   243.45084520
_cell_formula_units_Z   1
loop_
 _symmetry_equiv_pos_site_id
 _symmetry_equiv_pos_as_xyz
  1  'x, y, z'
loop_
 _atom_site_type_symbol
 _atom_site_label
 _atom_site_symmetry_multiplicity
 _atom_site_fract_x
 _atom_site_fract_y
 _atom_site_fract_z
 _atom_site_occupancy
  S  S0  1  0.86708679  0.39873962  0.86708679  1
  S  S1  1  0.39873962  0.86708679  0.86708679  1
  S  S2  1  0.86708679  0.86708679  0.39873962  1
  S  S3  1  0.86708679  0.86708679  0.86708679  1
  S  S4  1  0.38291967  0.85124099  0.38291967  1
  S  S5  1  0.85124099  0.38291967  0.38291967  1
  S  S6  1  0.38291967  0.38291967  0.38291967  1
  S  S7  1  0.38291967  0.38291967  0.85124099  1
  Cr  Cr8  1  0.62265725  0.62265725  0.62265725  1
  Cr  Cr9  1  0.62265725  0.62265725  0.13202825  1
  Cr  Cr10  1  0.62265725  0.13202825  0.62265725  1
  Cr  Cr11  1  0.13202825  0.62265725  0.62265725  1
  Fe  Fe12  1  0.00000000  0.00000000  0.00000000  1
  Cu  Cu13  1  0.25000000  0.25000000  0.25000000  1
