# generated using pymatgen
data_Ba9(NdS6)2
_symmetry_space_group_name_H-M   'P 1'
_cell_length_a   13.43746256
_cell_length_b   7.76160346
_cell_length_c   17.83817346
_cell_angle_alpha   54.53831610
_cell_angle_beta   59.84040888
_cell_angle_gamma   29.99795500
_symmetry_Int_Tables_number   1
_chemical_formula_structural   Ba9(NdS6)2
_chemical_formula_sum   'Ba9 Nd2 S12'
_cell_volume   757.62675578
_cell_formula_units_Z   1
loop_
 _symmetry_equiv_pos_site_id
 _symmetry_equiv_pos_as_xyz
  1  'x, y, z'
loop_
 _atom_site_type_symbol
 _atom_site_label
 _atom_site_symmetry_multiplicity
 _atom_site_fract_x
 _atom_site_fract_y
 _atom_site_fract_z
 _atom_site_occupancy
  Ba  Ba0  1  0.00041795  0.00107843  0.23963768  1
  Ba  Ba1  1  0.00016848  0.99879914  0.50015453  1
  Ba  Ba2  1  0.00030325  0.99621531  0.76037257  1
  Ba  Ba3  1  0.32241936  0.99540977  0.76121178  1
  Ba  Ba4  1  0.32226285  0.03508501  0.23961211  1
  Ba  Ba5  1  0.33723620  0.99316811  0.50021017  1
  Ba  Ba6  1  0.67809678  0.00068183  0.23994582  1
  Ba  Ba7  1  0.66283042  0.00496295  0.50003206  1
  Ba  Ba8  1  0.67805167  0.96304445  0.76057374  1
  Nd  Nd9  1  0.33440711  0.99821330  0.00015285  1
  Nd  Nd10  1  0.66759673  0.99812258  0.00023810  1
  S  S11  1  0.00067218  0.48326486  0.10984729  1
  S  S12  1  0.00016308  0.50172336  0.37302336  1
  S  S13  1  0.36925848  0.48409241  0.10927608  1
  S  S14  1  0.00040536  0.49540286  0.62741474  1
  S  S15  1  0.33308490  0.50744768  0.36888055  1
  S  S16  1  0.00074569  0.51293421  0.89096727  1
  S  S17  1  0.63207640  0.58988349  0.10951406  1
  S  S18  1  0.33330523  0.49083960  0.63139681  1
  S  S19  1  0.66699862  0.50644471  0.36898160  1
  S  S20  1  0.36952355  0.40681789  0.89060878  1
  S  S21  1  0.66678017  0.49096888  0.63146398  1
  S  S22  1  0.63230754  0.51295917  0.89078507  1
