# generated using pymatgen
data_RbCuPO4
_symmetry_space_group_name_H-M   'P 1'
_cell_length_a   5.31324850
_cell_length_b   9.06370133
_cell_length_c   9.38145840
_cell_angle_alpha   89.99135832
_cell_angle_beta   90.03851707
_cell_angle_gamma   90.03998844
_symmetry_Int_Tables_number   1
_chemical_formula_structural   RbCuPO4
_chemical_formula_sum   'Rb4 Cu4 P4 O16'
_cell_volume   451.78921872
_cell_formula_units_Z   4
loop_
 _symmetry_equiv_pos_site_id
 _symmetry_equiv_pos_as_xyz
  1  'x, y, z'
loop_
 _atom_site_type_symbol
 _atom_site_label
 _atom_site_symmetry_multiplicity
 _atom_site_fract_x
 _atom_site_fract_y
 _atom_site_fract_z
 _atom_site_occupancy
  Rb  Rb0  1  0.50995558  0.80482944  0.48756383  1
  Rb  Rb1  1  0.01012352  0.30477761  0.01238496  1
  Rb  Rb2  1  0.00996888  0.19497930  0.51211606  1
  Rb  Rb3  1  0.50970215  0.69535770  0.98800784  1
  Cu  Cu4  1  0.52954158  0.08538301  0.83167767  1
  Cu  Cu5  1  0.02961345  0.91469581  0.16849715  1
  Cu  Cu6  1  0.52967318  0.41465323  0.33163946  1
  Cu  Cu7  1  0.02944604  0.58545285  0.66845583  1
  P  P8  1  0.51893663  0.09134952  0.19099791  1
  P  P9  1  0.01780510  0.90853708  0.80933044  1
  P  P10  1  0.01866709  0.59123562  0.30939282  1
  P  P11  1  0.51843535  0.40865076  0.69050427  1
  O  O12  1  0.17280361  0.05258842  0.78890540  1
  O  O13  1  0.17297349  0.44768124  0.28859729  1
  O  O14  1  0.49305004  0.36292777  0.53284527  1
  O  O15  1  0.15402423  0.71783200  0.23040419  1
  O  O16  1  0.49265441  0.13703456  0.03279142  1
  O  O17  1  0.75396893  0.56132729  0.24304172  1
  O  O18  1  0.67286082  0.55235541  0.71162900  1
  O  O19  1  0.67330955  0.94776379  0.21142989  1
  O  O20  1  0.65374668  0.28175097  0.76949563  1
  O  O21  1  0.75327283  0.93900712  0.74314147  1
  O  O22  1  0.25426633  0.06153355  0.25684497  1
  O  O23  1  0.15316507  0.78201529  0.73030117  1
  O  O24  1  0.25324947  0.43813835  0.75623556  1
  O  O25  1  0.99318031  0.63675908  0.46728038  1
  O  O26  1  0.65455360  0.21828287  0.26948017  1
  O  O27  1  0.99185209  0.86310036  0.96700824  1
