# generated using pymatgen
data_Ga11NO15
_symmetry_space_group_name_H-M   'P 1'
_cell_length_a   5.96112255
_cell_length_b   11.67073352
_cell_length_c   10.23373717
_cell_angle_alpha   30.18918590
_cell_angle_beta   54.23103872
_cell_angle_gamma   59.29833886
_symmetry_Int_Tables_number   1
_chemical_formula_structural   Ga11NO15
_chemical_formula_sum   'Ga11 N1 O15'
_cell_volume   290.46404492
_cell_formula_units_Z   1
loop_
 _symmetry_equiv_pos_site_id
 _symmetry_equiv_pos_as_xyz
  1  'x, y, z'
loop_
 _atom_site_type_symbol
 _atom_site_label
 _atom_site_symmetry_multiplicity
 _atom_site_fract_x
 _atom_site_fract_y
 _atom_site_fract_z
 _atom_site_occupancy
  Ga  Ga0  1  0.12680701  0.00541484  0.12350378  1
  Ga  Ga1  1  0.98121337  0.01768810  0.49567666  1
  Ga  Ga2  1  0.11605457  0.51945162  0.11608974  1
  Ga  Ga3  1  0.50674884  0.25602262  0.99450743  1
  Ga  Ga4  1  0.49237628  0.01828742  0.49632115  1
  Ga  Ga5  1  0.01146291  0.48186368  0.51444037  1
  Ga  Ga6  1  0.49897528  0.74869270  0.00157950  1
  Ga  Ga7  1  0.51040346  0.48218776  0.50413958  1
  Ga  Ga8  1  0.88049181  0.98156961  0.88423845  1
  Ga  Ga9  1  0.50784606  0.74409335  0.50609344  1
  Ga  Ga10  1  0.87222658  0.49479653  0.86986288  1
  N  N11  1  0.74062615  0.49983058  0.73517576  1
  O  O12  1  0.26606407  0.00120266  0.25908181  1
  O  O13  1  0.25071968  0.24258881  0.25726437  1
  O  O14  1  0.72653657  0.00010883  0.25925238  1
  O  O15  1  0.26387571  0.98155900  0.76031115  1
  O  O16  1  0.24081824  0.51763499  0.24709433  1
  O  O17  1  0.76522636  0.23006290  0.25633428  1
  O  O18  1  0.25969377  0.73735726  0.25703806  1
  O  O19  1  0.24753628  0.26390769  0.74408344  1
  O  O20  1  0.73456921  0.51704973  0.24069809  1
  O  O21  1  0.27115553  0.49968916  0.74082853  1
  O  O22  1  0.75082495  0.98228637  0.75767048  1
  O  O23  1  0.73173695  0.73329901  0.27544622  1
  O  O24  1  0.74441748  0.25312545  0.74672841  1
  O  O25  1  0.25707111  0.77431053  0.71742977  1
  O  O26  1  0.74452177  0.76591878  0.73910992  1
