# generated using pymatgen
data_MoCl3
_symmetry_space_group_name_H-M   'P 1'
_cell_length_a   6.38899708
_cell_length_b   6.38899715
_cell_length_c   25.16189738
_cell_angle_alpha   90.03178098
_cell_angle_beta   90.03178130
_cell_angle_gamma   120.00587660
_symmetry_Int_Tables_number   1
_chemical_formula_structural   MoCl3
_chemical_formula_sum   'Mo8 Cl24'
_cell_volume   889.43336071
_cell_formula_units_Z   8
loop_
 _symmetry_equiv_pos_site_id
 _symmetry_equiv_pos_as_xyz
  1  'x, y, z'
loop_
 _atom_site_type_symbol
 _atom_site_label
 _atom_site_symmetry_multiplicity
 _atom_site_fract_x
 _atom_site_fract_y
 _atom_site_fract_z
 _atom_site_occupancy
  Mo  Mo0  1  0.16709643  0.83416936  0.50057853  1
  Mo  Mo1  1  0.16583064  0.83290357  -0.00057853  1
  Mo  Mo2  1  0.16721893  0.83278107  0.25000000  1
  Mo  Mo3  1  0.49928932  0.50071067  0.75000000  1
  Mo  Mo4  1  0.50071068  0.49928933  0.25000000  1
  Mo  Mo5  1  0.83278107  0.16721893  0.75000000  1
  Mo  Mo6  1  0.83290357  0.16583064  0.49942147  1
  Mo  Mo7  1  0.83416936  0.16709643  0.00057853  1
  Cl  Cl8  1  0.16665545  0.47569738  0.80484121  1
  Cl  Cl9  1  0.14049230  0.50059282  0.55500761  1
  Cl  Cl10  1  0.19534595  0.52615461  0.30508353  1
  Cl  Cl11  1  0.14127801  0.50033814  0.05479361  1
  Cl  Cl12  1  0.16570811  0.19412916  0.69506984  1
  Cl  Cl13  1  0.13947141  0.13932717  0.94492293  1
  Cl  Cl14  1  0.19412916  0.16570811  0.19506984  1
  Cl  Cl15  1  0.13932717  0.13947141  0.44492293  1
  Cl  Cl16  1  0.49940718  0.85950770  0.94499239  1
  Cl  Cl17  1  0.52430262  0.83334455  0.69515879  1
  Cl  Cl18  1  0.49966186  0.85872199  0.44520639  1
  Cl  Cl19  1  0.47384539  0.80465405  0.19491647  1
  Cl  Cl20  1  0.52615461  0.19534595  0.80508353  1
  Cl  Cl21  1  0.50033814  0.14127801  0.55479361  1
  Cl  Cl22  1  0.47569738  0.16665545  0.30484121  1
  Cl  Cl23  1  0.50059282  0.14049230  0.05500761  1
  Cl  Cl24  1  0.86067283  0.86052859  0.55507707  1
  Cl  Cl25  1  0.80587084  0.83429189  0.80493016  1
  Cl  Cl26  1  0.86052859  0.86067283  0.05507707  1
  Cl  Cl27  1  0.83429189  0.80587084  0.30493016  1
  Cl  Cl28  1  0.85872199  0.49966186  0.94520639  1
  Cl  Cl29  1  0.80465405  0.47384539  0.69491647  1
  Cl  Cl30  1  0.85950770  0.49940718  0.44499239  1
  Cl  Cl31  1  0.83334455  0.52430262  0.19515879  1
