# generated using pymatgen
data_BaLaZnRuO6
_symmetry_space_group_name_H-M   'P 1'
_cell_length_a   5.65760902
_cell_length_b   5.65765486
_cell_length_c   5.74005527
_cell_angle_alpha   119.52619523
_cell_angle_beta   119.52217902
_cell_angle_gamma   89.99868158
_symmetry_Int_Tables_number   1
_chemical_formula_structural   BaLaZnRuO6
_chemical_formula_sum   'Ba1 La1 Zn1 Ru1 O6'
_cell_volume   131.76632342
_cell_formula_units_Z   1
loop_
 _symmetry_equiv_pos_site_id
 _symmetry_equiv_pos_as_xyz
  1  'x, y, z'
loop_
 _atom_site_type_symbol
 _atom_site_label
 _atom_site_symmetry_multiplicity
 _atom_site_fract_x
 _atom_site_fract_y
 _atom_site_fract_z
 _atom_site_occupancy
  Ba  Ba0  1  0.74999237  0.25000833  0.49999023  1
  La  La1  1  0.24999931  0.74996741  0.49999887  1
  Zn  Zn2  1  -0.00004065  0.00000743  -0.00001532  1
  Ru  Ru3  1  0.50017129  0.49988512  0.00011572  1
  O  O4  1  0.25738976  0.25746288  0.51478911  1
  O  O5  1  0.22633950  0.32922037  0.03999768  1
  O  O6  1  0.28915173  0.77369250  0.95997412  1
  O  O7  1  0.74260371  0.74256991  0.48513852  1
  O  O8  1  0.67071473  0.18636078  0.95995522  1
  O  O9  1  0.81367825  0.71082528  0.04005585  1
