# generated using pymatgen
data_Li11Nb12O36
_symmetry_space_group_name_H-M   'P 1'
_cell_length_a   5.58054003
_cell_length_b   5.58084501
_cell_length_c   33.48697076
_cell_angle_alpha   56.39567371
_cell_angle_beta   56.32546482
_cell_angle_gamma   56.29851646
_symmetry_Int_Tables_number   1
_chemical_formula_structural   Li11Nb12O36
_chemical_formula_sum   'Li11 Nb12 O36'
_cell_volume   675.02183295
_cell_formula_units_Z   1
loop_
 _symmetry_equiv_pos_site_id
 _symmetry_equiv_pos_as_xyz
  1  'x, y, z'
loop_
 _atom_site_type_symbol
 _atom_site_label
 _atom_site_symmetry_multiplicity
 _atom_site_fract_x
 _atom_site_fract_y
 _atom_site_fract_z
 _atom_site_occupancy
  Li  Li0  1  0.28307506  0.28111075  0.04679619  1
  Li  Li1  1  0.28145850  0.28165587  0.21359942  1
  Li  Li2  1  0.73018388  0.73107405  0.12130899  1
  Li  Li3  1  0.28030015  0.28204120  0.38039556  1
  Li  Li4  1  0.73038975  0.72954427  0.28830041  1
  Li  Li5  1  0.27894472  0.28136267  0.54711607  1
  Li  Li6  1  0.73140278  0.72810022  0.45505282  1
  Li  Li7  1  0.72769056  0.72938264  0.62096883  1
  Li  Li8  1  0.22631921  0.22628566  0.87084192  1
  Li  Li9  1  0.72186422  0.72525224  0.78887494  1
  Li  Li10  1  0.72820141  0.72870952  0.95395026  1
  Nb  Nb11  1  0.01201516  0.00834375  0.00107034  1
  Nb  Nb12  1  0.01165312  0.01003924  0.16830802  1
  Nb  Nb13  1  0.51144322  0.50792211  0.08509190  1
  Nb  Nb14  1  0.01101851  0.01009366  0.33531745  1
  Nb  Nb15  1  0.51145457  0.50980791  0.25196938  1
  Nb  Nb16  1  0.01070531  0.00783367  0.50213656  1
  Nb  Nb17  1  0.50951002  0.50968122  0.41887439  1
  Nb  Nb18  1  0.00362449  0.01394741  0.66849218  1
  Nb  Nb19  1  0.50592453  0.50888990  0.58587019  1
  Nb  Nb20  1  0.00085200  0.01631700  0.83339198  1
  Nb  Nb21  1  0.51722655  0.50912695  0.74679806  1
  Nb  Nb22  1  0.49704282  0.50597601  0.91824918  1
  O  O23  1  0.12487738  0.37133360  0.12310234  1
  O  O24  1  0.37037798  0.74085388  0.02067801  1
  O  O25  1  0.73970497  0.12621970  0.06137180  1
  O  O26  1  0.25475355  0.86905891  0.10405057  1
  O  O27  1  0.62483411  0.25431563  0.14481751  1
  O  O28  1  0.12478887  0.37008486  0.28997046  1
  O  O29  1  0.87091763  0.62576819  0.04231140  1
  O  O30  1  0.37111110  0.73992201  0.18737816  1
  O  O31  1  0.73978250  0.12504068  0.22839213  1
  O  O32  1  0.25330866  0.87134110  0.27070390  1
  O  O33  1  0.62389379  0.25413610  0.31184214  1
  O  O34  1  0.12629550  0.36901896  0.45654596  1
  O  O35  1  0.87014323  0.62464951  0.20900360  1
  O  O36  1  0.37146230  0.73961051  0.35400005  1
  O  O37  1  0.73968324  0.12462610  0.39519498  1
  O  O38  1  0.25287810  0.87152204  0.43737680  1
  O  O39  1  0.62425065  0.25585758  0.47846803  1
  O  O40  1  0.12647690  0.37344144  0.62323097  1
  O  O41  1  0.86875803  0.62524783  0.37566065  1
  O  O42  1  0.37314944  0.73882905  0.52074373  1
  O  O43  1  0.73957421  0.12433939  0.56191051  1
  O  O44  1  0.25946456  0.86614738  0.60569275  1
  O  O45  1  0.65655177  0.25388939  0.64099365  1
  O  O46  1  0.12333279  0.37208642  0.79273066  1
  O  O47  1  0.86596707  0.63219113  0.54114859  1
  O  O48  1  0.37826565  0.74491627  0.68727801  1
  O  O49  1  0.75460891  0.11920199  0.73006931  1
  O  O50  1  0.25329714  0.83222358  0.77780967  1
  O  O51  1  0.63568896  0.24847792  0.81100252  1
  O  O52  1  0.12431848  0.37378034  0.95820947  1
  O  O53  1  0.84595401  0.65516572  0.70946557  1
  O  O54  1  0.36932904  0.76030274  0.85498358  1
  O  O55  1  0.75334963  0.12778236  0.89557697  1
  O  O56  1  0.25264267  0.87012765  0.93797549  1
  O  O57  1  0.62821100  0.25922890  0.97761856  1
  O  O58  1  0.86749562  0.62856324  0.87688244  1
