# generated using pymatgen
data_Cd13(In13Se27)2
_symmetry_space_group_name_H-M   'P 1'
_cell_length_a   17.51999536
_cell_length_b   17.51264406
_cell_length_c   18.37230987
_cell_angle_alpha   90.00000000
_cell_angle_beta   90.00000000
_cell_angle_gamma   90.00000000
_symmetry_Int_Tables_number   1
_chemical_formula_structural   Cd13(In13Se27)2
_chemical_formula_sum   'Cd26 In52 Se108'
_cell_volume   5637.01861954
_cell_formula_units_Z   2
loop_
 _symmetry_equiv_pos_site_id
 _symmetry_equiv_pos_as_xyz
  1  'x, y, z'
loop_
 _atom_site_type_symbol
 _atom_site_label
 _atom_site_symmetry_multiplicity
 _atom_site_fract_x
 _atom_site_fract_y
 _atom_site_fract_z
 _atom_site_occupancy
  Cd  Cd0  1  0.33345554  0.83385763  0.16628788  1
  Cd  Cd1  1  0.83407359  0.00138411  0.83549205  1
  Cd  Cd2  1  0.83345554  0.66614237  0.83371212  1
  Cd  Cd3  1  0.33340648  0.50008572  0.49880486  1
  Cd  Cd4  1  0.16734602  0.66669818  0.83416467  1
  Cd  Cd5  1  0.50136880  0.33455746  0.83477562  1
  Cd  Cd6  1  0.16654446  0.33385763  0.83371212  1
  Cd  Cd7  1  0.33407359  0.49861589  0.16450795  1
  Cd  Cd8  1  0.49863120  0.66544254  0.83477562  1
  Cd  Cd9  1  0.16659352  0.00008572  0.50119514  1
  Cd  Cd10  1  0.16592641  0.99861589  0.83549205  1
  Cd  Cd11  1  0.83265398  0.33330182  0.83416467  1
  Cd  Cd12  1  0.00136880  0.16544254  0.16522438  1
  Cd  Cd13  1  0.66654446  0.16614237  0.16628788  1
  Cd  Cd14  1  0.00000000  0.50000000  0.16582833  1
  Cd  Cd15  1  0.00000000  0.50000000  0.49889764  1
  Cd  Cd16  1  0.99863120  0.83455746  0.16522438  1
  Cd  Cd17  1  0.66734602  0.83330182  0.16583533  1
  Cd  Cd18  1  0.50000000  0.00000000  0.50110236  1
  Cd  Cd19  1  0.50000000  0.50000000  0.00014102  1
  Cd  Cd20  1  0.83340648  0.99991428  0.50119514  1
  Cd  Cd21  1  0.33265398  0.16669818  0.16583533  1
  Cd  Cd22  1  0.66659352  0.49991428  0.49880486  1
  Cd  Cd23  1  0.00000000  0.00000000  0.99985898  1
  Cd  Cd24  1  0.66592641  0.50138411  0.16450795  1
  Cd  Cd25  1  0.50000000  0.00000000  0.83417167  1
  In  In26  1  0.83425070  0.83044197  0.66604066  1
  In  In27  1  0.16584555  0.16567609  0.00106117  1
  In  In28  1  0.16696864  0.49993078  0.66690006  1
  In  In29  1  0.83447771  0.16584917  0.99880326  1
  In  In30  1  0.66443022  0.66841172  0.66640284  1
  In  In31  1  0.49989463  0.16699948  0.99990598  1
  In  In32  1  0.00000000  0.00000000  0.66719964  1
  In  In33  1  0.33556978  0.33158828  0.66640284  1
  In  In34  1  0.83305431  0.49985049  0.00013729  1
  In  In35  1  0.16718735  0.83054116  0.66633344  1
  In  In36  1  0.00031948  0.66939713  0.33414412  1
  In  In37  1  0.66574930  0.33044197  0.33395934  1
  In  In38  1  0.00153583  0.33140723  0.66643730  1
  In  In39  1  0.33415445  0.66567609  0.99893883  1
  In  In40  1  0.50000000  0.50000000  0.33280036  1
  In  In41  1  0.66718735  0.66945884  0.33366656  1
  In  In42  1  0.16552229  0.83415083  0.99880326  1
  In  In43  1  0.16694569  0.50014951  0.00013729  1
  In  In44  1  0.33338738  0.00006909  0.66628214  1
  In  In45  1  0.33134858  0.66854962  0.66655973  1
  In  In46  1  0.83415445  0.83432391  0.00106117  1
  In  In47  1  0.33305431  0.00014951  0.99986271  1
  In  In48  1  0.16574930  0.16955803  0.66604066  1
  In  In49  1  0.99989463  0.33300052  0.00009402  1
  In  In50  1  0.83303136  0.50006922  0.66690006  1
  In  In51  1  0.66661262  0.99993091  0.66628214  1
  In  In52  1  0.33447771  0.33415083  0.00119674  1
  In  In53  1  0.83281265  0.16945884  0.66633344  1
  In  In54  1  0.50000000  0.50000000  0.66739749  1
  In  In55  1  0.83338738  0.49993091  0.33371786  1
  In  In56  1  0.66865142  0.33145038  0.66655973  1
  In  In57  1  0.00000000  0.00000000  0.33260251  1
  In  In58  1  0.49846417  0.83140723  0.33356270  1
  In  In59  1  0.16661262  0.50006909  0.33371786  1
  In  In60  1  0.16443022  0.83158828  0.33359716  1
  In  In61  1  0.33425070  0.66955803  0.33395934  1
  In  In62  1  0.50031948  0.83060287  0.66585588  1
  In  In63  1  0.99968052  0.33060287  0.33414412  1
  In  In64  1  0.66552229  0.66584917  0.00119674  1
  In  In65  1  0.16865142  0.16854962  0.33344027  1
  In  In66  1  0.50153583  0.16859277  0.33356270  1
  In  In67  1  0.83134858  0.83145038  0.33344027  1
  In  In68  1  0.66696864  0.00006922  0.33309994  1
  In  In69  1  0.99846417  0.66859277  0.66643730  1
  In  In70  1  0.50010537  0.83300052  0.99990598  1
  In  In71  1  0.33281265  0.33054116  0.33366656  1
  In  In72  1  0.83556978  0.16841172  0.33359716  1
  In  In73  1  0.00010537  0.66699948  0.00009402  1
  In  In74  1  0.66584555  0.33432391  0.99893883  1
  In  In75  1  0.49968052  0.16939713  0.66585588  1
  In  In76  1  0.33303136  0.99993078  0.33309994  1
  In  In77  1  0.66694569  0.99985049  0.99986271  1
  Se  Se78  1  0.40740632  0.09299152  0.42162138  1
  Se  Se79  1  0.25929249  0.57389621  0.75571129  1
  Se  Se80  1  0.92176176  0.24494520  0.42289073  1
  Se  Se81  1  0.75922627  0.07412863  0.08837657  1
  Se  Se82  1  0.59230705  0.24141225  0.75622094  1
  Se  Se83  1  0.09259368  0.59299152  0.57837862  1
  Se  Se84  1  0.59247393  0.57421654  0.75588119  1
  Se  Se85  1  0.07650580  0.09119221  0.75480827  1
  Se  Se86  1  0.92593404  0.57402166  0.75542890  1
  Se  Se87  1  0.59259368  0.90700848  0.42162138  1
  Se  Se88  1  0.24104140  0.59255394  0.08871702  1
  Se  Se89  1  0.90736634  0.59288881  0.42208712  1
  Se  Se90  1  0.07434210  0.24093931  0.91137009  1
  Se  Se91  1  0.42565790  0.74093931  0.08862991  1
  Se  Se92  1  0.24081819  0.59322654  0.42186003  1
  Se  Se93  1  0.92562863  0.42574047  0.91161878  1
  Se  Se94  1  0.92563559  0.24178002  0.75685005  1
  Se  Se95  1  0.90950590  0.40867129  0.24573902  1
  Se  Se96  1  0.42562863  0.07425953  0.08838122  1
  Se  Se97  1  0.74070751  0.42610379  0.75571129  1
  Se  Se98  1  0.59237025  0.75868532  0.91128915  1
  Se  Se99  1  0.07436441  0.75821998  0.75685005  1
  Se  Se100  1  0.24070751  0.07389621  0.24428871  1
  Se  Se101  1  0.25891820  0.90681105  0.42173008  1
  Se  Se102  1  0.24467889  0.74475786  0.57723320  1
  Se  Se103  1  0.90757732  0.59240704  0.08846894  1
  Se  Se104  1  0.07397634  0.90717305  0.57850104  1
  Se  Se105  1  0.90762975  0.25868532  0.08871085  1
  Se  Se106  1  0.09049410  0.59132871  0.24573902  1
  Se  Se107  1  0.09410775  0.07469719  0.08984301  1
  Se  Se108  1  0.25871067  0.24189071  0.75634572  1
  Se  Se109  1  0.75891820  0.59318895  0.57826992  1
  Se  Se110  1  0.57436441  0.74178002  0.24314995  1
  Se  Se111  1  0.40757732  0.90759296  0.91153106  1
  Se  Se112  1  0.42349420  0.59119221  0.24519173  1
  Se  Se113  1  0.42563559  0.25821998  0.24314995  1
  Se  Se114  1  0.09230705  0.25858775  0.24377906  1
  Se  Se115  1  0.57650580  0.40880779  0.24519173  1
  Se  Se116  1  0.90589225  0.92530281  0.08984301  1
  Se  Se117  1  0.75929249  0.92610379  0.24428871  1
  Se  Se118  1  0.42593404  0.92597834  0.24457110  1
  Se  Se119  1  0.57434210  0.25906069  0.08862991  1
  Se  Se120  1  0.24077373  0.92587137  0.08837657  1
  Se  Se121  1  0.09263366  0.40711119  0.42208712  1
  Se  Se122  1  0.24128933  0.74189071  0.24365428  1
  Se  Se123  1  0.24245209  0.40891189  0.24590219  1
  Se  Se124  1  0.57823824  0.74494520  0.57710927  1
  Se  Se125  1  0.42602366  0.40717305  0.42149896  1
  Se  Se126  1  0.90769295  0.74141225  0.24377906  1
  Se  Se127  1  0.75895860  0.40744606  0.08871702  1
  Se  Se128  1  0.40752607  0.42578346  0.75588119  1
  Se  Se129  1  0.09242268  0.40759296  0.08846894  1
  Se  Se130  1  0.40589225  0.57469719  0.91015699  1
  Se  Se131  1  0.57406596  0.07402166  0.24457110  1
  Se  Se132  1  0.75754791  0.59108811  0.24590219  1
  Se  Se133  1  0.40736634  0.90711119  0.57791288  1
  Se  Se134  1  0.92526617  0.09421354  0.90984184  1
  Se  Se135  1  0.59049410  0.90867129  0.75426098  1
  Se  Se136  1  0.91308078  0.74589252  0.57706914  1
  Se  Se137  1  0.90740632  0.40700848  0.57837862  1
  Se  Se138  1  0.07411248  0.09311222  0.42144026  1
  Se  Se139  1  0.42176176  0.25505480  0.57710927  1
  Se  Se140  1  0.41308078  0.75410748  0.42293086  1
  Se  Se141  1  0.07406596  0.42597834  0.75542890  1
  Se  Se142  1  0.40769295  0.75858775  0.75622094  1
  Se  Se143  1  0.92588752  0.90688778  0.42144026  1
  Se  Se144  1  0.74108180  0.09318895  0.42173008  1
  Se  Se145  1  0.74128933  0.75810929  0.75634572  1
  Se  Se146  1  0.25532111  0.24475786  0.42276680  1
  Se  Se147  1  0.07473383  0.90578646  0.90984184  1
  Se  Se148  1  0.74104140  0.90744606  0.91128298  1
  Se  Se149  1  0.25922627  0.42587137  0.91162343  1
  Se  Se150  1  0.57437137  0.92574047  0.08838122  1
  Se  Se151  1  0.92565790  0.75906069  0.91137009  1
  Se  Se152  1  0.24089829  0.25905642  0.08808996  1
  Se  Se153  1  0.25754791  0.90891189  0.75409781  1
  Se  Se154  1  0.25918181  0.09322654  0.57813997  1
  Se  Se155  1  0.07437137  0.57425953  0.91161878  1
  Se  Se156  1  0.75532111  0.25524214  0.57723320  1
  Se  Se157  1  0.74467889  0.75524214  0.42276680  1
  Se  Se158  1  0.92349420  0.90880779  0.75480827  1
  Se  Se159  1  0.75918181  0.40677346  0.42186003  1
  Se  Se160  1  0.75871067  0.25810929  0.24365428  1
  Se  Se161  1  0.40950590  0.09132871  0.75426098  1
  Se  Se162  1  0.75910171  0.74094358  0.08808996  1
  Se  Se163  1  0.40762975  0.24131468  0.91128915  1
  Se  Se164  1  0.08691922  0.25410748  0.57706914  1
  Se  Se165  1  0.09247393  0.92578346  0.24411881  1
  Se  Se166  1  0.74081819  0.90677346  0.57813997  1
  Se  Se167  1  0.57397634  0.59282695  0.42149896  1
  Se  Se168  1  0.42526617  0.40578646  0.09015816  1
  Se  Se169  1  0.25910171  0.75905642  0.91191004  1
  Se  Se170  1  0.57473383  0.59421354  0.09015816  1
  Se  Se171  1  0.42588752  0.59311222  0.57855974  1
  Se  Se172  1  0.74089829  0.24094358  0.91191004  1
  Se  Se173  1  0.07823824  0.75505480  0.42289073  1
  Se  Se174  1  0.59242268  0.09240704  0.91153106  1
  Se  Se175  1  0.90752607  0.07421654  0.24411881  1
  Se  Se176  1  0.74245209  0.09108811  0.75409781  1
  Se  Se177  1  0.57411248  0.40688778  0.57855974  1
  Se  Se178  1  0.74077373  0.57412863  0.91162343  1
  Se  Se179  1  0.92602366  0.09282695  0.57850104  1
  Se  Se180  1  0.25895860  0.09255394  0.91128298  1
  Se  Se181  1  0.09237025  0.74131468  0.08871085  1
  Se  Se182  1  0.59263366  0.09288881  0.57791288  1
  Se  Se183  1  0.58691922  0.24589252  0.42293086  1
  Se  Se184  1  0.24108180  0.40681105  0.57826992  1
  Se  Se185  1  0.59410775  0.42530281  0.91015699  1
