# generated using pymatgen
data_Yb2Ce8O19
_symmetry_space_group_name_H-M   'P 1'
_cell_length_a   3.86343538
_cell_length_b   38.42568480
_cell_length_c   36.63581167
_cell_angle_alpha   5.22866626
_cell_angle_beta   58.23607488
_cell_angle_gamma   59.87415763
_symmetry_Int_Tables_number   1
_chemical_formula_structural   Yb2Ce8O19
_chemical_formula_sum   'Yb2 Ce8 O19'
_cell_volume   403.52676416
_cell_formula_units_Z   1
loop_
 _symmetry_equiv_pos_site_id
 _symmetry_equiv_pos_as_xyz
  1  'x, y, z'
loop_
 _atom_site_type_symbol
 _atom_site_label
 _atom_site_symmetry_multiplicity
 _atom_site_fract_x
 _atom_site_fract_y
 _atom_site_fract_z
 _atom_site_occupancy
  Yb  Yb0  1  0.02372895  0.01528213  0.98054150  1
  Yb  Yb1  1  0.97816054  0.08613541  0.01823135  1
  Ce  Ce2  1  0.00732168  0.30481292  0.99359605  1
  Ce  Ce3  1  0.01475323  0.21518580  0.98161769  1
  Ce  Ce4  1  0.00550070  0.49900474  0.00075249  1
  Ce  Ce5  1  0.00591293  0.39965026  0.99971866  1
  Ce  Ce6  1  0.00785103  0.59911437  0.00065990  1
  Ce  Ce7  1  0.00357728  0.69843616  0.00180220  1
  Ce  Ce8  1  0.98834931  0.88695918  0.01622090  1
  Ce  Ce9  1  0.99589197  0.79547672  0.00574888  1
  O  O10  1  0.25408069  0.00610223  0.24268207  1
  O  O11  1  0.25343277  0.09931160  0.25010462  1
  O  O12  1  0.25419002  0.19767345  0.25222494  1
  O  O13  1  0.25618089  0.29984340  0.24976920  1
  O  O14  1  0.25880899  0.39778214  0.25228416  1
  O  O15  1  0.25062943  0.50006289  0.25004680  1
  O  O16  1  0.74899168  0.99837564  0.75203898  1
  O  O17  1  0.24817926  0.59532859  0.25588212  1
  O  O18  1  0.75068545  0.09743883  0.75328733  1
  O  O19  1  0.25281695  0.69841059  0.25177105  1
  O  O20  1  0.73796620  0.18731191  0.76574671  1
  O  O21  1  0.75000711  0.29726729  0.75285138  1
  O  O22  1  0.25114858  0.90505483  0.24465489  1
  O  O23  1  0.76433160  0.41564907  0.73140262  1
  O  O24  1  0.75311557  0.50568790  0.74332035  1
  O  O25  1  0.75282456  0.59875429  0.75081750  1
  O  O26  1  0.75555590  0.69850450  0.75117015  1
  O  O27  1  0.75462030  0.79814777  0.75183540  1
  O  O28  1  0.76096444  0.89924641  0.75038910  1
