# generated using pymatgen
data_BaMg6Zn
_symmetry_space_group_name_H-M   'P 1'
_cell_length_a   7.78733638
_cell_length_b   6.10984948
_cell_length_c   5.02102539
_cell_angle_alpha   90.00000000
_cell_angle_beta   90.00000000
_cell_angle_gamma   113.09731906
_symmetry_Int_Tables_number   1
_chemical_formula_structural   BaMg6Zn
_chemical_formula_sum   'Ba1 Mg6 Zn1'
_cell_volume   219.74757241
_cell_formula_units_Z   1
loop_
 _symmetry_equiv_pos_site_id
 _symmetry_equiv_pos_as_xyz
  1  'x, y, z'
loop_
 _atom_site_type_symbol
 _atom_site_label
 _atom_site_symmetry_multiplicity
 _atom_site_fract_x
 _atom_site_fract_y
 _atom_site_fract_z
 _atom_site_occupancy
  Ba  Ba0  1  0.08552917  0.79276359  0.25000000  1
  Mg  Mg1  1  0.62575164  0.30233775  0.25000000  1
  Mg  Mg2  1  0.62575164  0.82341289  0.25000000  1
  Mg  Mg3  1  0.35548623  0.18113786  0.75000000  1
  Mg  Mg4  1  0.35548623  0.67435037  0.75000000  1
  Mg  Mg5  1  0.90569156  0.20284628  0.75000000  1
  Mg  Mg6  1  0.75028182  0.62514141  0.75000000  1
  Zn  Zn7  1  0.29602170  0.39801085  0.25000000  1
