# generated using pymatgen
data_LiBiP2O7
_symmetry_space_group_name_H-M   'P 1'
_cell_length_a   6.78392346
_cell_length_b   6.78392400
_cell_length_c   13.89474276
_cell_angle_alpha   78.92267152
_cell_angle_beta   76.33138738
_cell_angle_gamma   97.03500347
_symmetry_Int_Tables_number   1
_chemical_formula_structural   LiBiP2O7
_chemical_formula_sum   'Li4 Bi4 P8 O28'
_cell_volume   600.24780022
_cell_formula_units_Z   4
loop_
 _symmetry_equiv_pos_site_id
 _symmetry_equiv_pos_as_xyz
  1  'x, y, z'
loop_
 _atom_site_type_symbol
 _atom_site_label
 _atom_site_symmetry_multiplicity
 _atom_site_fract_x
 _atom_site_fract_y
 _atom_site_fract_z
 _atom_site_occupancy
  Li  Li0  1  0.88010086  0.77066315  0.12461996  1
  Li  Li1  1  0.60471689  0.99527918  0.62461996  1
  Li  Li2  1  0.39528311  0.00472082  0.37538004  1
  Li  Li3  1  0.11989914  0.22933685  0.87538004  1
  Bi  Bi4  1  0.77950036  0.39505171  0.35931215  1
  Bi  Bi5  1  0.22049964  0.60494829  0.64068785  1
  Bi  Bi6  1  0.74563614  0.86118649  0.85931215  1
  Bi  Bi7  1  0.25436386  0.13881351  0.14068785  1
  P  P8  1  0.65685533  0.32133236  0.92797403  1
  P  P9  1  0.25069361  0.41517064  0.42797403  1
  P  P10  1  0.34314467  0.67866764  0.07202597  1
  P  P11  1  0.76042138  0.25229708  0.12888691  1
  P  P12  1  0.74930639  0.58482936  0.57202597  1
  P  P13  1  0.11881702  0.11069271  0.62888691  1
  P  P14  1  0.23957862  0.74770292  0.87111309  1
  P  P15  1  0.88118298  0.88930729  0.37111309  1
  O  O16  1  0.41977583  0.29909430  0.38559313  1
  O  O17  1  0.27955438  0.97646358  0.59725472  1
  O  O18  1  0.83218030  0.42348343  0.17784498  1
  O  O19  1  0.33054110  0.59947759  0.46701054  1
  O  O20  1  0.16781970  0.57651657  0.82215502  1
  O  O21  1  0.19257488  0.25111672  0.69356331  1
  O  O22  1  0.56648814  0.79755164  0.03298946  1
  O  O23  1  0.66945890  0.40052241  0.53298946  1
  O  O24  1  0.67278937  0.52411514  0.85622286  1
  O  O25  1  0.44468003  0.88613819  0.80643669  1
  O  O26  1  0.81531257  0.19463104  0.88559313  1
  O  O27  1  0.92628170  0.12319090  0.09725472  1
  O  O28  1  0.18468743  0.80536896  0.11440687  1
  O  O29  1  0.72044562  0.02353642  0.40274528  1
  O  O30  1  0.11966200  0.47098778  0.35622286  1
  O  O31  1  0.32721063  0.47588486  0.14377714  1
  O  O32  1  0.09295814  0.25175761  0.52624494  1
  O  O33  1  0.72199746  0.38079592  0.02624494  1
  O  O34  1  0.07371830  0.87680910  0.90274528  1
  O  O35  1  0.89867259  0.98997472  0.67784498  1
  O  O36  1  0.55531997  0.11386181  0.19356331  1
  O  O37  1  0.27800254  0.61920408  0.97375506  1
  O  O38  1  0.58022417  0.70090570  0.61440687  1
  O  O39  1  0.90704186  0.74824239  0.47375506  1
  O  O40  1  0.43351186  0.20244836  0.96701054  1
  O  O41  1  0.10132741  0.01002528  0.32215502  1
  O  O42  1  0.88033800  0.52901222  0.64377714  1
  O  O43  1  0.80742512  0.74888328  0.30643669  1
