# generated using pymatgen
data_NaPr2Cl6
_symmetry_space_group_name_H-M   'P 1'
_cell_length_a   7.97797342
_cell_length_b   15.95036905
_cell_length_c   3.96716563
_cell_angle_alpha   90.00000000
_cell_angle_beta   90.00000000
_cell_angle_gamma   120.09309930
_symmetry_Int_Tables_number   1
_chemical_formula_structural   NaPr2Cl6
_chemical_formula_sum   'Na2 Pr4 Cl12'
_cell_volume   436.78337091
_cell_formula_units_Z   2
loop_
 _symmetry_equiv_pos_site_id
 _symmetry_equiv_pos_as_xyz
  1  'x, y, z'
loop_
 _atom_site_type_symbol
 _atom_site_label
 _atom_site_symmetry_multiplicity
 _atom_site_fract_x
 _atom_site_fract_y
 _atom_site_fract_z
 _atom_site_occupancy
  Na  Na0  1  0.00000000  0.00000000  0.00000000  1
  Na  Na1  1  0.00000000  0.50000000  0.50000000  1
  Pr  Pr2  1  0.33413971  0.83374510  0.24994246  1
  Pr  Pr3  1  0.33413971  0.33374510  0.25005754  1
  Pr  Pr4  1  0.66586029  0.66625490  0.74994246  1
  Pr  Pr5  1  0.66586029  0.16625490  0.75005754  1
  Cl  Cl6  1  0.30187982  0.96137190  0.75048730  1
  Cl  Cl7  1  0.07780777  0.69025542  0.74886614  1
  Cl  Cl8  1  0.38009282  0.65139902  0.25125867  1
  Cl  Cl9  1  0.61990718  0.84860098  0.75125867  1
  Cl  Cl10  1  0.30187982  0.46137190  0.74951270  1
  Cl  Cl11  1  0.07780777  0.19025542  0.75113386  1
  Cl  Cl12  1  0.92219223  0.80974458  0.24886614  1
  Cl  Cl13  1  0.69812018  0.53862810  0.25048730  1
  Cl  Cl14  1  0.38009282  0.15139902  0.24874133  1
  Cl  Cl15  1  0.61990718  0.34860098  0.74874133  1
  Cl  Cl16  1  0.92219223  0.30974458  0.25113386  1
  Cl  Cl17  1  0.69812018  0.03862810  0.24951270  1
