# generated using pymatgen
data_Rb2Sn(GeO3)3
_symmetry_space_group_name_H-M   'P 1'
_cell_length_a   10.81055968
_cell_length_b   12.34441858
_cell_length_c   12.34559724
_cell_angle_alpha   120.00316099
_cell_angle_beta   90.00000000
_cell_angle_gamma   89.99694173
_symmetry_Int_Tables_number   1
_chemical_formula_structural   Rb2Sn(GeO3)3
_chemical_formula_sum   'Rb12 Sn6 Ge18 O54'
_cell_volume   1426.74946933
_cell_formula_units_Z   6
loop_
 _symmetry_equiv_pos_site_id
 _symmetry_equiv_pos_as_xyz
  1  'x, y, z'
loop_
 _atom_site_type_symbol
 _atom_site_label
 _atom_site_symmetry_multiplicity
 _atom_site_fract_x
 _atom_site_fract_y
 _atom_site_fract_z
 _atom_site_occupancy
  Rb  Rb0  1  0.97834866  0.34810239  0.98988830  1
  Rb  Rb1  1  0.97834202  0.01015061  0.35826796  1
  Rb  Rb2  1  0.97834504  0.64177362  0.65187514  1
  Rb  Rb3  1  0.47834866  0.34810239  0.35821409  1
  Rb  Rb4  1  0.47834504  0.64177362  0.98989849  1
  Rb  Rb5  1  0.47834202  0.01015061  0.65188265  1
  Rb  Rb6  1  0.02165134  0.65189761  0.01011170  1
  Rb  Rb7  1  0.02165798  0.98984939  0.64173204  1
  Rb  Rb8  1  0.02165496  0.35822638  0.34812486  1
  Rb  Rb9  1  0.52165134  0.65189761  0.64178591  1
  Rb  Rb10  1  0.52165496  0.35822638  0.01010151  1
  Rb  Rb11  1  0.52165798  0.98984939  0.34811735  1
  Sn  Sn12  1  0.50000000  0.00000000  0.00000000  1
  Sn  Sn13  1  -0.00000000  0.00000000  0.00000000  1
  Sn  Sn14  1  0.00075112  0.33333916  0.66667429  1
  Sn  Sn15  1  0.50075112  0.33333916  0.66666487  1
  Sn  Sn16  1  0.99924888  0.66666084  0.33332571  1
  Sn  Sn17  1  0.49924888  0.66666084  0.33333513  1
  Ge  Ge18  1  0.74999759  0.18178498  0.99999670  1
  Ge  Ge19  1  0.75000000  0.00000000  0.18177977  1
  Ge  Ge20  1  0.75000241  0.81821502  0.81821172  1
  Ge  Ge21  1  0.24999759  0.18178498  0.18178828  1
  Ge  Ge22  1  0.25000241  0.81821502  0.00000330  1
  Ge  Ge23  1  0.25000000  1.00000000  0.81822023  1
  Ge  Ge24  1  0.25575557  0.83356040  0.28484780  1
  Ge  Ge25  1  0.25577746  0.71514948  0.54871158  1
  Ge  Ge26  1  0.25579406  0.45126057  0.16640928  1
  Ge  Ge27  1  0.75575557  0.83356040  0.54871260  1
  Ge  Ge28  1  0.75579406  0.45126057  0.28485128  1
  Ge  Ge29  1  0.75577746  0.71514948  0.16643789  1
  Ge  Ge30  1  0.74424443  0.16643960  0.71515220  1
  Ge  Ge31  1  0.74422254  0.28485052  0.45128842  1
  Ge  Ge32  1  0.74420594  0.54873943  0.83359072  1
  Ge  Ge33  1  0.24424443  0.16643960  0.45128740  1
  Ge  Ge34  1  0.24420594  0.54873943  0.71514872  1
  Ge  Ge35  1  0.24422254  0.28485052  0.83356211  1
  O  O36  1  0.74998530  0.63158589  0.00001712  1
  O  O37  1  0.75000000  1.00000000  0.63163419  1
  O  O38  1  0.75001470  0.36841411  0.36843123  1
  O  O39  1  0.24998530  0.63158589  0.63156877  1
  O  O40  1  0.25001470  0.36841411  0.99998288  1
  O  O41  1  0.25000000  0.00000000  0.36836581  1
  O  O42  1  0.29402795  0.78925421  0.12618875  1
  O  O43  1  0.29406809  0.87380429  0.66308145  1
  O  O44  1  0.29405134  0.33691363  0.21069268  1
  O  O45  1  0.79402795  0.78925421  0.66306546  1
  O  O46  1  0.79405134  0.33691363  0.12622094  1
  O  O47  1  0.79406809  0.87380429  0.21072285  1
  O  O48  1  0.70597205  0.21074579  0.87381125  1
  O  O49  1  0.70593191  0.12619571  0.33691855  1
  O  O50  1  0.70594866  0.66308637  0.78930732  1
  O  O51  1  0.20597205  0.21074579  0.33693454  1
  O  O52  1  0.20594866  0.66308637  0.87377906  1
  O  O53  1  0.20593191  0.12619571  0.78927715  1
  O  O54  1  0.38593036  0.09579195  0.15597165  1
  O  O55  1  0.38593332  0.84402131  0.93983190  1
  O  O56  1  0.38592420  0.06016430  0.90416762  1
  O  O57  1  0.88593036  0.09579195  0.93982030  1
  O  O58  1  0.88592420  0.06016430  0.15599668  1
  O  O59  1  0.88593332  0.84402131  0.90418941  1
  O  O60  1  0.61406964  0.90420805  0.84402835  1
  O  O61  1  0.61406668  0.15597869  0.06016810  1
  O  O62  1  0.61407580  0.93983570  0.09583238  1
  O  O63  1  0.11406964  0.90420805  0.06017970  1
  O  O64  1  0.11407580  0.93983570  0.84400332  1
  O  O65  1  0.11406668  0.15597869  0.09581059  1
  O  O66  1  0.10650057  0.77773145  0.28502106  1
  O  O67  1  0.10651667  0.71501487  0.49270808  1
  O  O68  1  0.10653853  0.50728892  0.22227488  1
  O  O69  1  0.60650057  0.77773145  0.49271039  1
  O  O70  1  0.60653853  0.50728892  0.28501404  1
  O  O71  1  0.60651667  0.71501487  0.22230679  1
  O  O72  1  0.89349943  0.22226855  0.71497894  1
  O  O73  1  0.89348333  0.28498513  0.50729192  1
  O  O74  1  0.89346147  0.49271108  0.77772512  1
  O  O75  1  0.39349943  0.22226855  0.50728961  1
  O  O76  1  0.39346147  0.49271108  0.71498596  1
  O  O77  1  0.39348333  0.28498513  0.77769321  1
  O  O78  1  0.38079591  0.81245403  0.36356270  1
  O  O79  1  0.38083447  0.63640540  0.44888167  1
  O  O80  1  0.38082228  0.55110276  0.18749680  1
  O  O81  1  0.88079591  0.81245403  0.44889133  1
  O  O82  1  0.88082228  0.55110276  0.36360596  1
  O  O83  1  0.88083447  0.63640540  0.18752374  1
  O  O84  1  0.61920409  0.18754597  0.63643730  1
  O  O85  1  0.61916553  0.36359460  0.55111833  1
  O  O86  1  0.61917772  0.44889724  0.81250320  1
  O  O87  1  0.11920409  0.18754597  0.55110867  1
  O  O88  1  0.11917772  0.44889724  0.63639404  1
  O  O89  1  0.11916553  0.36359460  0.81247626  1
