# generated using pymatgen
data_RbAg4I5
_symmetry_space_group_name_H-M   'P 1'
_cell_length_a   11.80274337
_cell_length_b   11.81203736
_cell_length_c   11.75912996
_cell_angle_alpha   90.79169415
_cell_angle_beta   90.77584839
_cell_angle_gamma   88.11854815
_symmetry_Int_Tables_number   1
_chemical_formula_structural   RbAg4I5
_chemical_formula_sum   'Rb4 Ag16 I20'
_cell_volume   1638.21187985
_cell_formula_units_Z   4
loop_
 _symmetry_equiv_pos_site_id
 _symmetry_equiv_pos_as_xyz
  1  'x, y, z'
loop_
 _atom_site_type_symbol
 _atom_site_label
 _atom_site_symmetry_multiplicity
 _atom_site_fract_x
 _atom_site_fract_y
 _atom_site_fract_z
 _atom_site_occupancy
  Rb  Rb0  1  0.18982972  0.62411678  0.86762073  1
  Rb  Rb1  1  0.38088226  0.32274522  0.40436771  1
  Rb  Rb2  1  0.59485632  0.88210744  0.13419190  1
  Rb  Rb3  1  0.88945528  0.11626483  0.63540116  1
  Ag  Ag4  1  0.27239598  0.02928345  0.61281341  1
  Ag  Ag5  1  0.30720887  0.79553726  0.52932011  1
  Ag  Ag6  1  0.36544517  0.06985790  0.94666077  1
  Ag  Ag7  1  0.57812198  0.55262850  0.55681973  1
  Ag  Ag8  1  0.55950733  0.24290061  0.94996039  1
  Ag  Ag9  1  0.67442275  0.76152029  0.46267494  1
  Ag  Ag10  1  0.78425536  0.46768654  0.99904654  1
  Ag  Ag11  1  0.72263042  0.46661036  0.74386258  1
  Ag  Ag12  1  0.79052269  0.55438897  0.26187752  1
  Ag  Ag13  1  0.83272477  0.20817381  0.98002167  1
  Ag  Ag14  1  0.92394180  0.75327470  0.54825974  1
  Ag  Ag15  1  0.00525979  0.42194655  0.23872118  1
  Ag  Ag16  1  0.01862065  0.17218032  0.22662615  1
  Ag  Ag17  1  0.99989184  0.68402297  0.29658935  1
  Ag  Ag18  1  0.12575965  0.25713890  0.99917527  1
  Ag  Ag19  1  0.03681177  0.92650633  0.24632232  1
  I  I20  1  0.04131350  0.03684933  0.02907098  1
  I  I21  1  0.09684297  0.86294664  0.66955394  1
  I  I22  1  0.11954052  0.17091791  0.43828476  1
  I  I23  1  0.20642552  0.43609855  0.12839433  1
  I  I24  1  0.21524486  0.77501782  0.29235037  1
  I  I25  1  0.26471570  0.20838825  0.78071986  1
  I  I26  1  0.34242323  0.56966254  0.59960721  1
  I  I27  1  0.38937161  0.83785410  0.91762959  1
  I  I28  1  0.45729483  0.16040159  0.15035017  1
  I  I29  1  0.47626321  0.95648141  0.50010577  1
  I  I30  1  0.55596935  0.47600749  0.92583079  1
  I  I31  1  0.56599844  0.61442229  0.30746697  1
  I  I32  1  0.65266881  0.31725820  0.56733342  1
  I  I33  1  0.69225669  0.05824064  0.86759012  1
  I  I34  1  0.72924261  0.70919768  0.69280441  1
  I  I35  1  0.79844420  0.29892087  0.20698751  1
  I  I36  1  0.82998923  0.92321286  0.37276563  1
  I  I37  1  0.88188353  0.67798894  0.07496359  1
  I  I38  1  0.94517390  0.37104362  0.83522906  1
  I  I39  1  0.95129291  0.52109751  0.46212832  1
