# generated using pymatgen
data_Li4(CoO2)7
_symmetry_space_group_name_H-M   'P 1'
_cell_length_a   37.91520049
_cell_length_b   15.76736443
_cell_length_c   10.47972813
_cell_angle_alpha   13.60727114
_cell_angle_beta   15.06509818
_cell_angle_gamma   9.94853865
_symmetry_Int_Tables_number   1
_chemical_formula_structural   Li4(CoO2)7
_chemical_formula_sum   'Li4 Co7 O14'
_cell_volume   249.25869997
_cell_formula_units_Z   1
loop_
 _symmetry_equiv_pos_site_id
 _symmetry_equiv_pos_as_xyz
  1  'x, y, z'
loop_
 _atom_site_type_symbol
 _atom_site_label
 _atom_site_symmetry_multiplicity
 _atom_site_fract_x
 _atom_site_fract_y
 _atom_site_fract_z
 _atom_site_occupancy
  Li  Li0  1  0.14591038  0.02255659  0.95505650  1
  Li  Li1  1  0.04173343  0.31950244  0.40040341  1
  Li  Li2  1  0.53420486  0.67266435  0.59441741  1
  Li  Li3  1  0.66382555  0.63758877  0.69042395  1
  Co  Co4  1  0.14296998  0.49741522  0.50260488  1
  Co  Co5  1  0.28684705  0.49486332  0.50489858  1
  Co  Co6  1  0.42652218  0.50823604  0.49539782  1
  Co  Co7  1  0.57258358  0.49192396  0.49677611  1
  Co  Co8  1  0.72009613  0.48714998  0.48950618  1
  Co  Co9  1  0.85673362  0.50145538  0.49798162  1
  Co  Co10  1  0.99707909  0.50897375  0.50405737  1
  O  O11  1  0.07539157  0.22999971  0.23452762  1
  O  O12  1  0.22455750  0.21415800  0.24248314  1
  O  O13  1  0.36591878  0.22265344  0.23061050  1
  O  O14  1  0.06360000  0.77374816  0.77138489  1
  O  O15  1  0.51564313  0.21913145  0.20853530  1
  O  O16  1  0.20557005  0.78568914  0.76016761  1
  O  O17  1  0.65213236  0.22941015  0.21362951  1
  O  O18  1  0.34945057  0.76413271  0.78201596  1
  O  O19  1  0.78015104  0.25680646  0.22681738  1
  O  O20  1  0.49047808  0.77145778  0.77977387  1
  O  O21  1  0.93273600  0.22756850  0.24276611  1
  O  O22  1  0.63440974  0.78180836  0.75931940  1
  O  O23  1  0.78508053  0.76586600  0.75393542  1
  O  O24  1  0.92923079  0.74024035  0.78750946  1
