# generated using pymatgen
data_Mg6ZrZn
_symmetry_space_group_name_H-M   'P 1'
_cell_length_a   6.44737851
_cell_length_b   6.06954854
_cell_length_c   4.96991749
_cell_angle_alpha   90.00000000
_cell_angle_beta   90.00000000
_cell_angle_gamma   118.07968146
_symmetry_Int_Tables_number   1
_chemical_formula_structural   Mg6ZrZn
_chemical_formula_sum   'Mg6 Zr1 Zn1'
_cell_volume   171.59395462
_cell_formula_units_Z   1
loop_
 _symmetry_equiv_pos_site_id
 _symmetry_equiv_pos_as_xyz
  1  'x, y, z'
loop_
 _atom_site_type_symbol
 _atom_site_label
 _atom_site_symmetry_multiplicity
 _atom_site_fract_x
 _atom_site_fract_y
 _atom_site_fract_z
 _atom_site_occupancy
  Mg  Mg0  1  0.64972517  0.32464028  0.25000000  1
  Mg  Mg1  1  0.64972517  0.82508389  0.25000000  1
  Mg  Mg2  1  0.33828575  0.16541022  0.75000000  1
  Mg  Mg3  1  0.33828575  0.67287653  0.75000000  1
  Mg  Mg4  1  0.86470894  0.18235497  0.75000000  1
  Mg  Mg5  1  0.83748362  0.66874231  0.75000000  1
  Zr  Zr6  1  0.14550507  0.82275204  0.25000000  1
  Zn  Zn7  1  0.17628053  0.33813976  0.25000000  1
