# generated using pymatgen
data_Ba10Pr5Nb(Sn2O15)2
_symmetry_space_group_name_H-M   'P 1'
_cell_length_a   31.04356705
_cell_length_b   16.40762425
_cell_length_c   10.73766177
_cell_angle_alpha   29.36995857
_cell_angle_beta   30.13886625
_cell_angle_gamma   19.18259210
_symmetry_Int_Tables_number   1
_chemical_formula_structural   Ba10Pr5Nb(Sn2O15)2
_chemical_formula_sum   'Ba10 Pr5 Nb1 Sn4 O30'
_cell_volume   851.31405550
_cell_formula_units_Z   1
loop_
 _symmetry_equiv_pos_site_id
 _symmetry_equiv_pos_as_xyz
  1  'x, y, z'
loop_
 _atom_site_type_symbol
 _atom_site_label
 _atom_site_symmetry_multiplicity
 _atom_site_fract_x
 _atom_site_fract_y
 _atom_site_fract_z
 _atom_site_occupancy
  Ba  Ba0  1  0.09976393  0.25071962  0.25038430  1
  Ba  Ba1  1  0.29803764  0.25462811  0.24953077  1
  Ba  Ba2  1  0.10023607  0.74928038  0.74961570  1
  Ba  Ba3  1  0.49927193  0.24916803  0.25460538  1
  Ba  Ba4  1  0.29871062  0.75041810  0.75101450  1
  Ba  Ba5  1  0.70056844  0.24849987  0.24922707  1
  Ba  Ba6  1  0.49943156  0.75150013  0.75077293  1
  Ba  Ba7  1  0.90128938  0.24958190  0.24898550  1
  Ba  Ba8  1  0.70072807  0.75083197  0.74539462  1
  Ba  Ba9  1  0.90196236  0.74537189  0.75046923  1
  Pr  Pr10  1  0.99961335  0.00071752  -0.00015066  1
  Pr  Pr11  1  0.20038665  0.99928248  0.00015066  1
  Pr  Pr12  1  0.39911625  0.00092545  0.00119468  1
  Pr  Pr13  1  0.60000000  0.00000000  0.00000000  1
  Pr  Pr14  1  0.80088375  -0.00092545  0.99880532  1
  Nb  Nb15  1  0.60000000  0.50000000  0.50000000  1
  Sn  Sn16  1  0.99988963  0.50032738  0.49977325  1
  Sn  Sn17  1  0.20011037  0.49967262  0.50022675  1
  Sn  Sn18  1  0.39962184  0.50071191  0.50025310  1
  Sn  Sn19  1  0.80037816  0.49928809  0.49974690  1
  O  O20  1  0.99667963  0.22202526  0.30646365  1
  O  O21  1  0.19717409  0.22015550  0.30944431  1
  O  O22  1  0.07679208  0.26516461  0.77855058  1
  O  O23  1  0.02520796  0.69265584  0.26697776  1
  O  O24  1  0.17479204  0.30734416  0.73302224  1
  O  O25  1  0.12320792  0.73483539  0.22144942  1
  O  O26  1  0.39706967  0.22081168  0.30740357  1
  O  O27  1  0.27721884  0.26479270  0.77797445  1
  O  O28  1  0.22641970  0.69158532  0.26404686  1
  O  O29  1  0.37501067  0.30634283  0.73474682  1
  O  O30  1  0.32481324  0.73244979  0.22049008  1
  O  O31  1  0.20332037  0.77797474  0.69353635  1
  O  O32  1  0.59685451  0.22134986  0.30724792  1
  O  O33  1  0.47678136  0.26453631  0.77951161  1
  O  O34  1  0.42655532  0.69082342  0.26598975  1
  O  O35  1  0.57470505  0.31538400  0.72562529  1
  O  O36  1  0.52704289  0.72550755  0.22963013  1
  O  O37  1  0.40992853  0.77033810  0.68414444  1
  O  O38  1  0.79007147  0.22966190  0.31585556  1
  O  O39  1  0.67295711  0.27449245  0.77036987  1
  O  O40  1  0.62529495  0.68461600  0.27437471  1
  O  O41  1  0.77344468  0.30917658  0.73401025  1
  O  O42  1  0.72321864  0.73546369  0.22048839  1
  O  O43  1  0.60314549  0.77865014  0.69275208  1
  O  O44  1  0.87518676  0.26755021  0.77950992  1
  O  O45  1  0.82498933  0.69365717  0.26525318  1
  O  O46  1  0.97358030  0.30841468  0.73595314  1
  O  O47  1  0.92278116  0.73520730  0.22202555  1
  O  O48  1  0.80293033  0.77918832  0.69259643  1
  O  O49  1  0.00282591  0.77984450  0.69055569  1
