# generated using pymatgen
data_K2CoH2(SeO5)2
_symmetry_space_group_name_H-M   'P 1'
_cell_length_a   5.48360734
_cell_length_b   6.64174185
_cell_length_c   7.67151601
_cell_angle_alpha   108.57516834
_cell_angle_beta   95.51966786
_cell_angle_gamma   104.95739904
_symmetry_Int_Tables_number   1
_chemical_formula_structural   K2CoH2(SeO5)2
_chemical_formula_sum   'K2 Co1 H2 Se2 O10'
_cell_volume   250.97117162
_cell_formula_units_Z   1
loop_
 _symmetry_equiv_pos_site_id
 _symmetry_equiv_pos_as_xyz
  1  'x, y, z'
loop_
 _atom_site_type_symbol
 _atom_site_label
 _atom_site_symmetry_multiplicity
 _atom_site_fract_x
 _atom_site_fract_y
 _atom_site_fract_z
 _atom_site_occupancy
  K  K0  1  0.28519745  0.68325357  0.27334425  1
  K  K1  1  0.71480255  0.31674643  0.72665575  1
  Co  Co2  1  0.00000000  0.00000000  0.00000000  1
  H  H3  1  0.88598631  0.01633422  0.28555315  1
  H  H4  1  0.11401369  0.98366578  0.71444685  1
  Se  Se5  1  0.35675556  0.71306550  0.77418047  1
  Se  Se6  1  0.64324444  0.28693450  0.22581953  1
  O  O7  1  0.37642535  0.89203854  0.66195570  1
  O  O8  1  0.62357465  0.10796146  0.33804430  1
  O  O9  1  0.26199508  0.45001654  0.63355441  1
  O  O10  1  0.73800492  0.54998346  0.36644559  1
  O  O11  1  0.62583606  0.76431625  0.92927123  1
  O  O12  1  0.37416394  0.23568375  0.07072877  1
  O  O13  1  0.12690445  0.74020124  0.91393322  1
  O  O14  1  0.87309555  0.25979876  0.08606678  1
  O  O15  1  0.02444479  0.96818906  0.22431781  1
  O  O16  1  0.97555521  0.03181094  0.77568219  1
