# generated using pymatgen
data_K2P2H2O7
_symmetry_space_group_name_H-M   'P 1'
_cell_length_a   6.89560716
_cell_length_b   17.66883378
_cell_length_c   9.34575359
_cell_angle_alpha   90.00000000
_cell_angle_beta   107.46043699
_cell_angle_gamma   90.00000000
_symmetry_Int_Tables_number   1
_chemical_formula_structural   K2P2H2O7
_chemical_formula_sum   'K12 P12 H12 O42'
_cell_volume   1086.19716151
_cell_formula_units_Z   6
loop_
 _symmetry_equiv_pos_site_id
 _symmetry_equiv_pos_as_xyz
  1  'x, y, z'
loop_
 _atom_site_type_symbol
 _atom_site_label
 _atom_site_symmetry_multiplicity
 _atom_site_fract_x
 _atom_site_fract_y
 _atom_site_fract_z
 _atom_site_occupancy
  K  K0  1  0.22906864  0.04795204  0.40245463  1
  K  K1  1  0.77093136  0.54795204  0.59754537  1
  K  K2  1  0.77093136  0.95204796  0.59754537  1
  K  K3  1  0.22906864  0.45204796  0.40245463  1
  K  K4  1  0.36813635  0.91581789  0.84015366  1
  K  K5  1  0.63186365  0.41581789  0.15984634  1
  K  K6  1  0.63186365  0.08418211  0.15984634  1
  K  K7  1  0.36813635  0.58418211  0.84015366  1
  K  K8  1  0.26458396  0.25000000  0.43886578  1
  K  K9  1  0.73541604  0.75000000  0.56113422  1
  K  K10  1  0.37191636  0.75000000  0.15973563  1
  K  K11  1  0.62808364  0.25000000  0.84026437  1
  P  P12  1  0.88963345  0.66289174  0.96017199  1
  P  P13  1  0.11036655  0.16289174  0.03982801  1
  P  P14  1  0.11036655  0.33710826  0.03982801  1
  P  P15  1  0.88963345  0.83710826  0.96017199  1
  P  P16  1  0.83796603  0.61612087  0.25779678  1
  P  P17  1  0.16203397  0.11612087  0.74220322  1
  P  P18  1  0.16203397  0.38387913  0.74220322  1
  P  P19  1  0.83796603  0.88387913  0.25779678  1
  P  P20  1  0.20394820  0.66489940  0.48606517  1
  P  P21  1  0.79605180  0.16489940  0.51393483  1
  P  P22  1  0.79605180  0.33510060  0.51393483  1
  P  P23  1  0.20394820  0.83510060  0.48606517  1
  H  H24  1  0.24924819  0.94382239  0.12847311  1
  H  H25  1  0.75075181  0.44382239  0.87152689  1
  H  H26  1  0.75075181  0.05617761  0.87152689  1
  H  H27  1  0.24924819  0.55617761  0.12847311  1
  H  H28  1  0.46015426  0.93033506  0.24713899  1
  H  H29  1  0.53984574  0.43033506  0.75286101  1
  H  H30  1  0.53984574  0.06966494  0.75286101  1
  H  H31  1  0.46015426  0.56966494  0.24713899  1
  H  H32  1  0.49868171  0.75000000  0.83021313  1
  H  H33  1  0.50131829  0.25000000  0.16978687  1
  H  H34  1  0.26009354  0.75000000  0.78300282  1
  H  H35  1  0.73990646  0.25000000  0.21699718  1
  O  O36  1  0.94187698  0.75000000  0.01693585  1
  O  O37  1  0.05812302  0.25000000  0.98306415  1
  O  O38  1  0.77245753  0.63257752  0.07767810  1
  O  O39  1  0.22754247  0.13257752  0.92232190  1
  O  O40  1  0.22754247  0.36742248  0.92232190  1
  O  O41  1  0.77245753  0.86742248  0.07767810  1
  O  O42  1  0.73607321  0.66056046  0.80836975  1
  O  O43  1  0.26392679  0.16056046  0.19163025  1
  O  O44  1  0.26392679  0.33943954  0.19163025  1
  O  O45  1  0.73607321  0.83943954  0.80836975  1
  O  O46  1  0.09144202  0.62386143  0.98927125  1
  O  O47  1  0.90855798  0.12386143  0.01072875  1
  O  O48  1  0.90855798  0.37613857  0.01072875  1
  O  O49  1  0.09144202  0.87613857  0.98927125  1
  O  O50  1  0.88135762  0.53374620  0.28977489  1
  O  O51  1  0.11864238  0.03374620  0.71022511  1
  O  O52  1  0.11864238  0.46625380  0.71022511  1
  O  O53  1  0.88135762  0.96625380  0.28977489  1
  O  O54  1  0.67574035  0.65180683  0.31383166  1
  O  O55  1  0.32425965  0.15180683  0.68616834  1
  O  O56  1  0.32425965  0.34819317  0.68616834  1
  O  O57  1  0.67574035  0.84819317  0.31383166  1
  O  O58  1  0.05009855  0.66381628  0.31408987  1
  O  O59  1  0.94990145  0.16381628  0.68591013  1
  O  O60  1  0.94990145  0.33618372  0.68591013  1
  O  O61  1  0.05009855  0.83618372  0.31408987  1
  O  O62  1  0.08356010  0.66228095  0.59598848  1
  O  O63  1  0.91643990  0.16228095  0.40401152  1
  O  O64  1  0.91643990  0.33771905  0.40401152  1
  O  O65  1  0.08356010  0.83771905  0.59598848  1
  O  O66  1  0.37304145  0.60965724  0.50110354  1
  O  O67  1  0.62695855  0.10965724  0.49889646  1
  O  O68  1  0.62695855  0.39034276  0.49889646  1
  O  O69  1  0.37304145  0.89034276  0.50110354  1
  O  O70  1  0.30214332  0.75000000  0.48296333  1
  O  O71  1  0.69785668  0.25000000  0.51703667  1
  O  O72  1  0.37534915  0.97009057  0.18506772  1
  O  O73  1  0.62465085  0.47009057  0.81493228  1
  O  O74  1  0.62465085  0.02990943  0.81493228  1
  O  O75  1  0.37534915  0.52990943  0.18506772  1
  O  O76  1  0.38203371  0.75000000  0.87012337  1
  O  O77  1  0.61796629  0.25000000  0.12987663  1
