# generated using pymatgen
data_Ca19Si6S6(ClO24)2
_symmetry_space_group_name_H-M   'P 1'
_cell_length_a   9.75081731
_cell_length_b   9.72076228
_cell_length_c   13.78476241
_cell_angle_alpha   90.00000000
_cell_angle_beta   90.00000000
_cell_angle_gamma   119.82845689
_symmetry_Int_Tables_number   1
_chemical_formula_structural   Ca19Si6S6(ClO24)2
_chemical_formula_sum   'Ca19 Si6 S6 Cl2 O48'
_cell_volume   1133.49440483
_cell_formula_units_Z   1
loop_
 _symmetry_equiv_pos_site_id
 _symmetry_equiv_pos_as_xyz
  1  'x, y, z'
loop_
 _atom_site_type_symbol
 _atom_site_label
 _atom_site_symmetry_multiplicity
 _atom_site_fract_x
 _atom_site_fract_y
 _atom_site_fract_z
 _atom_site_occupancy
  Ca  Ca0  1  0.27440372  0.02021505  0.12500000  1
  Ca  Ca1  1  0.26014269  0.02072422  0.62500000  1
  Ca  Ca2  1  0.04311271  0.29272934  0.12500000  1
  Ca  Ca3  1  0.04228619  0.27811395  0.62500000  1
  Ca  Ca4  1  0.32905816  0.67152415  0.24827742  1
  Ca  Ca5  1  0.32905816  0.67152415  0.00172258  1
  Ca  Ca6  1  0.31438227  0.65763889  0.49355737  1
  Ca  Ca7  1  0.31438227  0.65763889  0.75644263  1
  Ca  Ca8  1  0.25178415  0.25771411  0.37600517  1
  Ca  Ca9  1  0.25178415  0.25771411  0.87399483  1
  Ca  Ca10  1  0.74077118  0.73182349  0.62500000  1
  Ca  Ca11  1  0.65260933  0.34084901  0.25286655  1
  Ca  Ca12  1  0.64502643  0.32625768  0.49487912  1
  Ca  Ca13  1  0.64502643  0.32625768  0.75512088  1
  Ca  Ca14  1  0.65260933  0.34084901  0.99713345  1
  Ca  Ca15  1  0.02499478  0.74785982  0.37366366  1
  Ca  Ca16  1  0.02499478  0.74785982  0.87633634  1
  Ca  Ca17  1  0.73182459  0.02407875  0.37473161  1
  Ca  Ca18  1  0.73182459  0.02407875  0.87526839  1
  Si  Si19  1  0.02229162  0.39093978  0.37557212  1
  Si  Si20  1  0.02229162  0.39093978  0.87442788  1
  Si  Si21  1  0.36899324  0.96696951  0.37561919  1
  Si  Si22  1  0.36899324  0.96696951  0.87438081  1
  Si  Si23  1  0.39278888  0.36800665  0.12500000  1
  Si  Si24  1  0.41478667  0.38630565  0.62500000  1
  S  S25  1  0.60952284  0.64464172  0.87267470  1
  S  S26  1  0.60952284  0.64464172  0.37732530  1
  S  S27  1  0.63705424  0.02572594  0.12500000  1
  S  S28  1  0.62584645  0.03155186  0.62500000  1
  S  S29  1  0.96597544  0.59976202  0.12500000  1
  S  S30  1  0.96139286  0.58093729  0.62500000  1
  Cl  Cl31  1  0.98540491  0.98980669  0.47737073  1
  Cl  Cl32  1  0.98540491  0.98980669  0.77262927  1
  O  O33  1  0.24375671  0.91448268  0.28341766  1
  O  O34  1  0.26199341  0.89743926  0.47577418  1
  O  O35  1  0.26199341  0.89743926  0.77422582  1
  O  O36  1  0.24375671  0.91448268  0.96658234  1
  O  O37  1  0.14055830  0.65524015  0.12500000  1
  O  O38  1  0.13413668  0.63954086  0.62500000  1
  O  O39  1  0.12666483  0.58538318  0.35916061  1
  O  O40  1  0.12666483  0.58538318  0.89083939  1
  O  O41  1  0.06256633  0.29829360  0.29031624  1
  O  O42  1  0.10371448  0.36870986  0.77521688  1
  O  O43  1  0.10371448  0.36870986  0.47478312  1
  O  O44  1  0.06256633  0.29829360  0.95968376  1
  O  O45  1  0.46562766  0.86667673  0.88315115  1
  O  O46  1  0.46562766  0.86667673  0.36684885  1
  O  O47  1  0.32164383  0.49239441  0.12500000  1
  O  O48  1  0.35255705  0.51492946  0.62500000  1
  O  O49  1  0.50820826  0.85827088  0.12500000  1
  O  O50  1  0.51789813  0.85810221  0.62500000  1
  O  O51  1  0.43348477  0.54654936  0.35972693  1
  O  O52  1  0.43348477  0.54654936  0.89027307  1
  O  O53  1  0.32321896  0.24448113  0.21861607  1
  O  O54  1  0.35685429  0.26680001  0.71974003  1
  O  O55  1  0.32321896  0.24448113  0.03138393  1
  O  O56  1  0.35685429  0.26680001  0.53025997  1
  O  O57  1  0.62973749  0.72192933  0.47388389  1
  O  O58  1  0.68738195  0.76667341  0.94720196  1
  O  O59  1  0.68738195  0.76667341  0.30279804  1
  O  O60  1  0.62973749  0.72192933  0.77611611  1
  O  O61  1  0.58467858  0.44483980  0.12500000  1
  O  O62  1  0.61064231  0.47079178  0.62500000  1
  O  O63  1  0.49394584  0.15815417  0.37386853  1
  O  O64  1  0.49394584  0.15815417  0.87613147  1
  O  O65  1  0.67692319  0.53541178  0.37905770  1
  O  O66  1  0.67692319  0.53541178  0.87094230  1
  O  O67  1  0.56036356  0.12848024  0.12500000  1
  O  O68  1  0.53549895  0.11976503  0.62500000  1
  O  O69  1  0.92224737  0.65384381  0.03658365  1
  O  O70  1  0.92224737  0.65384381  0.21341635  1
  O  O71  1  0.91560445  0.63931744  0.53779403  1
  O  O72  1  0.91560445  0.63931744  0.71220597  1
  O  O73  1  0.87969465  0.41967060  0.12500000  1
  O  O74  1  0.87287385  0.40362035  0.62500000  1
  O  O75  1  0.83010486  0.32248946  0.37910665  1
  O  O76  1  0.83010486  0.32248946  0.87089335  1
  O  O77  1  0.74145838  0.06771182  0.03934428  1
  O  O78  1  0.74145838  0.06771182  0.21065572  1
  O  O79  1  0.72986511  0.08400224  0.53850101  1
  O  O80  1  0.72986511  0.08400224  0.71149899  1
