# generated using pymatgen
data_Co8As3O16
_symmetry_space_group_name_H-M   'P 1'
_cell_length_a   9.91292149
_cell_length_b   9.96592056
_cell_length_c   9.96592023
_cell_angle_alpha   36.01756240
_cell_angle_beta   35.59378699
_cell_angle_gamma   35.59378861
_symmetry_Int_Tables_number   1
_chemical_formula_structural   Co8As3O16
_chemical_formula_sum   'Co8 As3 O16'
_cell_volume   300.20656049
_cell_formula_units_Z   1
loop_
 _symmetry_equiv_pos_site_id
 _symmetry_equiv_pos_as_xyz
  1  'x, y, z'
loop_
 _atom_site_type_symbol
 _atom_site_label
 _atom_site_symmetry_multiplicity
 _atom_site_fract_x
 _atom_site_fract_y
 _atom_site_fract_z
 _atom_site_occupancy
  Co  Co0  1  0.50000000  0.50000000  0.00000000  1
  Co  Co1  1  0.24473481  0.74560608  0.26491015  1
  Co  Co2  1  0.24473481  0.26491015  0.74560608  1
  Co  Co3  1  0.76276805  0.25217962  0.25217962  1
  Co  Co4  1  0.23723195  0.74782038  0.74782038  1
  Co  Co5  1  0.75526519  0.73508985  0.25439392  1
  Co  Co6  1  0.75526519  0.25439392  0.73508985  1
  Co  Co7  1  0.50000000  0.00000000  0.50000000  1
  As  As8  1  0.00000000  0.00000000  0.00000000  1
  As  As9  1  0.20272192  0.18918656  0.18918656  1
  As  As10  1  0.79727808  0.81081344  0.81081344  1
  O  O11  1  0.14030014  0.12543745  0.12543745  1
  O  O12  1  0.11292056  0.09636512  0.67447815  1
  O  O13  1  0.11292056  0.67447815  0.09636512  1
  O  O14  1  0.66719039  0.10796424  0.10796424  1
  O  O15  1  0.40116336  0.36707466  0.36707466  1
  O  O16  1  0.09860057  0.63493055  0.63493055  1
  O  O17  1  0.62744828  0.10361269  0.63434494  1
  O  O18  1  0.62744828  0.63434494  0.10361269  1
  O  O19  1  0.37255172  0.36565506  0.89638731  1
  O  O20  1  0.37255172  0.89638731  0.36565506  1
  O  O21  1  0.90139943  0.36506945  0.36506945  1
  O  O22  1  0.59883664  0.63292534  0.63292534  1
  O  O23  1  0.33280961  0.89203576  0.89203576  1
  O  O24  1  0.88707944  0.32552185  0.90363488  1
  O  O25  1  0.88707944  0.90363488  0.32552185  1
  O  O26  1  0.85969986  0.87456255  0.87456255  1
