# generated using pymatgen
data_Ca10Al6Si13N30
_symmetry_space_group_name_H-M   'P 1'
_cell_length_a   5.06709185
_cell_length_b   5.65538590
_cell_length_c   28.60616721
_cell_angle_alpha   120.98617294
_cell_angle_beta   90.26465501
_cell_angle_gamma   90.00041540
_symmetry_Int_Tables_number   1
_chemical_formula_structural   Ca10Al6Si13N30
_chemical_formula_sum   'Ca10 Al6 Si13 N30'
_cell_volume   702.75336369
_cell_formula_units_Z   1
loop_
 _symmetry_equiv_pos_site_id
 _symmetry_equiv_pos_as_xyz
  1  'x, y, z'
loop_
 _atom_site_type_symbol
 _atom_site_label
 _atom_site_symmetry_multiplicity
 _atom_site_fract_x
 _atom_site_fract_y
 _atom_site_fract_z
 _atom_site_occupancy
  Ca  Ca0  1  0.50121964  0.66669433  0.39398365  1
  Ca  Ca1  1  0.51170438  0.72052631  0.00875156  1
  Ca  Ca2  1  0.45260312  0.66359149  0.18614092  1
  Ca  Ca3  1  0.49494464  0.68627418  0.59978709  1
  Ca  Ca4  1  0.50429360  0.67603632  0.80027736  1
  Ca  Ca5  1  0.98608986  0.24482552  0.18889509  1
  Ca  Ca6  1  0.01726568  0.44530435  0.02856204  1
  Ca  Ca7  1  0.00068329  0.32244266  0.80395969  1
  Ca  Ca8  1  0.99225196  0.30882548  0.60119855  1
  Ca  Ca9  1  -0.00016401  0.33474269  0.40464553  1
  Al  Al10  1  0.02454524  0.66299687  0.53043460  1
  Al  Al11  1  0.51962645  0.32995090  0.67040489  1
  Al  Al12  1  0.52356947  0.98025079  0.32844726  1
  Al  Al13  1  0.52630103  0.97820480  0.52758417  1
  Al  Al14  1  0.53480987  0.99108712  0.93219149  1
  Al  Al15  1  0.52463124  0.98166396  0.73254666  1
  Si  Si16  1  0.99352685  0.04854788  0.06949590  1
  Si  Si17  1  0.01696745  0.99242082  0.26945046  1
  Si  Si18  1  0.02490621  0.00626480  0.46630568  1
  Si  Si19  1  0.02648127  0.66129152  0.32756854  1
  Si  Si20  1  0.02968826  0.01604506  0.67244018  1
  Si  Si21  1  0.03530852  0.02300749  0.87201452  1
  Si  Si22  1  0.03125419  0.67101611  0.73295947  1
  Si  Si23  1  0.04293101  0.68169878  0.93261748  1
  Si  Si24  1  0.50785973  0.35059758  0.06863098  1
  Si  Si25  1  0.51971547  0.32354864  0.46809055  1
  Si  Si26  1  0.51669388  0.30950584  0.26484409  1
  Si  Si27  1  0.50914984  0.97242332  0.12415353  1
  Si  Si28  1  0.53083956  0.33247623  0.87167151  1
  N  N29  1  0.33003737  0.13656511  0.09189836  1
  N  N30  1  0.36526255  0.07440418  0.47926924  1
  N  N31  1  0.36205878  0.09176250  0.28386333  1
  N  N32  1  0.36518074  0.07641457  0.68625333  1
  N  N33  1  0.37880491  0.08246576  0.88218850  1
  N  N34  1  0.36594258  0.63485080  0.30984517  1
  N  N35  1  0.35779872  0.66650673  0.10341224  1
  N  N36  1  0.36433443  0.66123033  0.72095041  1
  N  N37  1  0.38603387  0.64060342  0.51457711  1
  N  N38  1  0.38012727  0.64615232  0.91490670  1
  N  N39  1  0.46667378  0.25769281  0.00073004  1
  N  N40  1  0.48149121  0.25656893  0.40217240  1
  N  N41  1  0.49030193  0.20304995  0.19647584  1
  N  N42  1  0.49181318  0.25918812  0.59990879  1
  N  N43  1  0.50604404  0.26359569  0.80552636  1
  N  N44  1  0.86036175  0.33601718  0.28620696  1
  N  N45  1  0.82240230  0.32657848  0.08199718  1
  N  N46  1  0.82431387  0.90117464  0.09903786  1
  N  N47  1  0.88375489  0.34265791  0.69145671  1
  N  N48  1  0.86102244  0.31634044  0.48329394  1
  N  N49  1  0.88987494  0.90495701  0.71563937  1
  N  N50  1  0.89859886  0.89508173  0.91065647  1
  N  N51  1  0.88984814  0.90241722  0.50866719  1
  N  N52  1  0.89695352  0.93444620  0.32222390  1
  N  N53  1  0.87888188  0.34395561  0.88927190  1
  N  N54  1  0.96057700  0.71990609  0.20860382  1
  N  N55  1  0.00917838  0.77950422  0.99887575  1
  N  N56  1  0.98111983  0.77424615  0.80223499  1
  N  N57  1  0.97649344  0.77130530  0.60406828  1
  N  N58  1  0.99421572  0.74649879  0.39657442  1
