# generated using pymatgen
data_Sr7SmFe4(MoO6)4
_symmetry_space_group_name_H-M   'P 1'
_cell_length_a   5.63251593
_cell_length_b   22.51364373
_cell_length_c   5.67799012
_cell_angle_alpha   119.39302596
_cell_angle_beta   119.53525915
_cell_angle_gamma   90.45155568
_symmetry_Int_Tables_number   1
_chemical_formula_structural   Sr7SmFe4(MoO6)4
_chemical_formula_sum   'Sr7 Sm1 Fe4 Mo4 O24'
_cell_volume   515.31972035
_cell_formula_units_Z   1
loop_
 _symmetry_equiv_pos_site_id
 _symmetry_equiv_pos_as_xyz
  1  'x, y, z'
loop_
 _atom_site_type_symbol
 _atom_site_label
 _atom_site_symmetry_multiplicity
 _atom_site_fract_x
 _atom_site_fract_y
 _atom_site_fract_z
 _atom_site_occupancy
  Sr  Sr0  1  0.25651818  0.19125779  0.50982097  1
  Sr  Sr1  1  0.24937449  0.43644622  0.49559278  1
  Sr  Sr2  1  0.25693209  0.69616947  0.52306941  1
  Sr  Sr3  1  0.23043564  0.92500943  0.46627678  1
  Sr  Sr4  1  0.75783772  0.31334614  0.50147987  1
  Sr  Sr5  1  0.75497230  0.06370311  0.50973832  1
  Sr  Sr6  1  0.74236388  0.56127959  0.49439842  1
  Sm  Sm7  1  0.76877589  0.81326475  0.50109012  1
  Fe  Fe8  1  -0.00410929  0.24919693  -0.00129039  1
  Fe  Fe9  1  0.00066807  0.49980728  -0.00457949  1
  Fe  Fe10  1  -0.00107331  0.75075740  0.00316222  1
  Fe  Fe11  1  0.49276798  0.87064001  0.99438050  1
  Mo  Mo12  1  0.99659472  0.99734148  0.99723248  1
  Mo  Mo13  1  0.50499035  0.12661926  0.00615230  1
  Mo  Mo14  1  0.50455201  0.37581888  -0.00006988  1
  Mo  Mo15  1  0.49768475  0.62519530  -0.00142122  1
  O  O16  1  0.25442153  0.05972777  0.50073765  1
  O  O17  1  0.26167792  0.31537878  0.50328865  1
  O  O18  1  0.25896051  0.56486355  0.51182244  1
  O  O19  1  0.18164305  0.81158235  0.50678010  1
  O  O20  1  0.20849106  0.17649077  -0.00329142  1
  O  O21  1  0.21493816  0.43034178  0.00851306  1
  O  O22  1  0.21079190  0.67031614  -0.00151619  1
  O  O23  1  0.18425256  0.92224333  0.99362176  1
  O  O24  1  0.28319454  0.04762418  0.00150320  1
  O  O25  1  0.30275244  0.30791142  0.00588415  1
  O  O26  1  0.30246530  0.55250576  -0.00018297  1
  O  O27  1  0.34325324  0.80463506  0.06809105  1
  O  O28  1  0.76029774  0.18798359  0.50043763  1
  O  O29  1  0.75694456  0.44023483  0.50703364  1
  O  O30  1  0.74876746  0.68493867  0.47339607  1
  O  O31  1  0.76415458  0.93423154  0.50167130  1
  O  O32  1  0.70685831  0.20178493  0.00093511  1
  O  O33  1  0.71212934  0.44950672  0.01249405  1
  O  O34  1  0.68805750  0.69636100  -0.00478565  1
  O  O35  1  0.70316423  0.95195608  -0.00286480  1
  O  O36  1  0.80345487  0.07504090  0.00697621  1
  O  O37  1  0.79672717  0.32486116  -0.00274751  1
  O  O38  1  0.78447872  0.57392442  -0.00227432  1
  O  O39  1  0.75883784  0.81970222  0.91944360  1
