# generated using pymatgen
data_V5As3
_symmetry_space_group_name_H-M   'P 1'
_cell_length_a   4.94560829
_cell_length_b   7.13096885
_cell_length_c   7.13096934
_cell_angle_alpha   83.09351038
_cell_angle_beta   69.71012967
_cell_angle_gamma   69.71013205
_symmetry_Int_Tables_number   1
_chemical_formula_structural   V5As3
_chemical_formula_sum   'V10 As6'
_cell_volume   221.24651759
_cell_formula_units_Z   2
loop_
 _symmetry_equiv_pos_site_id
 _symmetry_equiv_pos_as_xyz
  1  'x, y, z'
loop_
 _atom_site_type_symbol
 _atom_site_label
 _atom_site_symmetry_multiplicity
 _atom_site_fract_x
 _atom_site_fract_y
 _atom_site_fract_z
 _atom_site_occupancy
  V  V0  1  0.57754330  0.69635838  0.14855502  1
  V  V1  1  0.25000000  0.50000000  0.50000000  1
  V  V2  1  0.07754330  0.14855502  0.69635838  1
  V  V3  1  0.75000000  0.50000000  0.50000000  1
  V  V4  1  0.72609832  0.85144498  0.69635838  1
  V  V5  1  0.42245670  0.30364162  0.85144498  1
  V  V6  1  0.92245670  0.85144498  0.30364162  1
  V  V7  1  0.77390168  0.30364162  0.14855502  1
  V  V8  1  0.27390168  0.14855502  0.30364162  1
  V  V9  1  0.22609832  0.69635838  0.85144498  1
  As  As10  1  0.16417903  0.50000000  0.17164193  1
  As  As11  1  0.83582097  0.50000000  0.82835807  1
  As  As12  1  0.25000000  -0.00000000  -0.00000000  1
  As  As13  1  0.66417903  0.17164193  0.50000000  1
  As  As14  1  0.33582097  0.82835807  0.50000000  1
  As  As15  1  0.75000000  0.00000000  -0.00000000  1
