# generated using pymatgen
data_K3HPdS2(ClO3)2
_symmetry_space_group_name_H-M   'P 1'
_cell_length_a   9.31997935
_cell_length_b   9.31997935
_cell_length_c   7.14402798
_cell_angle_alpha   90.00000000
_cell_angle_beta   90.00000000
_cell_angle_gamma   110.50807549
_symmetry_Int_Tables_number   1
_chemical_formula_structural   K3HPdS2(ClO3)2
_chemical_formula_sum   'K6 H2 Pd2 S4 Cl4 O12'
_cell_volume   581.21629571
_cell_formula_units_Z   2
loop_
 _symmetry_equiv_pos_site_id
 _symmetry_equiv_pos_as_xyz
  1  'x, y, z'
loop_
 _atom_site_type_symbol
 _atom_site_label
 _atom_site_symmetry_multiplicity
 _atom_site_fract_x
 _atom_site_fract_y
 _atom_site_fract_z
 _atom_site_occupancy
  K  K0  1  0.86361719  0.41850004  0.09527335  1
  K  K1  1  0.41850004  0.86361719  0.09527335  1
  K  K2  1  0.13638281  0.58149996  0.59527335  1
  K  K3  1  0.58149996  0.13638281  0.59527335  1
  K  K4  1  0.87888232  0.87888232  0.27317650  1
  K  K5  1  0.12111768  0.12111768  0.77317650  1
  H  H6  1  0.51124747  0.51124747  0.52177200  1
  H  H7  1  0.48875253  0.48875253  0.02177200  1
  Pd  Pd8  1  0.75198308  0.75198308  0.74997188  1
  Pd  Pd9  1  0.24801692  0.24801692  0.24997188  1
  S  S10  1  0.75724185  0.53903537  0.59194580  1
  S  S11  1  0.53903537  0.75724185  0.59194580  1
  S  S12  1  0.24275815  0.46096463  0.09194580  1
  S  S13  1  0.46096463  0.24275815  0.09194580  1
  Cl  Cl14  1  0.99101603  0.76896244  0.89917459  1
  Cl  Cl15  1  0.76896244  0.99101603  0.89917459  1
  Cl  Cl16  1  0.00898397  0.23103756  0.39917459  1
  Cl  Cl17  1  0.23103756  0.00898397  0.39917459  1
  O  O18  1  0.81670137  0.43726794  0.70250906  1
  O  O19  1  0.43726794  0.81670137  0.70250906  1
  O  O20  1  0.18329863  0.56273206  0.20250906  1
  O  O21  1  0.56273206  0.18329863  0.20250906  1
  O  O22  1  0.85421992  0.59740017  0.42274904  1
  O  O23  1  0.59740017  0.85421992  0.42274904  1
  O  O24  1  0.14578008  0.40259983  0.92274904  1
  O  O25  1  0.40259983  0.14578008  0.92274904  1
  O  O26  1  0.59467313  0.43766362  0.52803797  1
  O  O27  1  0.43766362  0.59467313  0.52803797  1
  O  O28  1  0.40532687  0.56233638  0.02803797  1
  O  O29  1  0.56233638  0.40532687  0.02803797  1
