# generated using pymatgen
data_LiFe4(PO4)3
_symmetry_space_group_name_H-M   'P 1'
_cell_length_a   6.38750645
_cell_length_b   14.36779666
_cell_length_c   9.99943348
_cell_angle_alpha   90.00000000
_cell_angle_beta   90.00000000
_cell_angle_gamma   90.00000000
_symmetry_Int_Tables_number   1
_chemical_formula_structural   LiFe4(PO4)3
_chemical_formula_sum   'Li4 Fe16 P12 O48'
_cell_volume   917.69194635
_cell_formula_units_Z   4
loop_
 _symmetry_equiv_pos_site_id
 _symmetry_equiv_pos_as_xyz
  1  'x, y, z'
loop_
 _atom_site_type_symbol
 _atom_site_label
 _atom_site_symmetry_multiplicity
 _atom_site_fract_x
 _atom_site_fract_y
 _atom_site_fract_z
 _atom_site_occupancy
  Li  Li0  1  0.05481202  0.25000000  0.74098097  1
  Li  Li1  1  0.44518798  0.75000000  0.24098097  1
  Li  Li2  1  0.94518798  0.75000000  0.25901903  1
  Li  Li3  1  0.55481202  0.25000000  0.75901903  1
  Fe  Fe4  1  0.85814930  0.38764418  0.15669724  1
  Fe  Fe5  1  0.14185070  0.61235582  0.84330276  1
  Fe  Fe6  1  0.64615174  0.59463689  0.05778229  1
  Fe  Fe7  1  0.35384826  0.09463689  0.94221771  1
  Fe  Fe8  1  0.14185070  0.88764418  0.84330276  1
  Fe  Fe9  1  0.85384826  0.09463689  0.55778229  1
  Fe  Fe10  1  0.14615174  0.90536311  0.44221771  1
  Fe  Fe11  1  0.14615174  0.59463689  0.44221771  1
  Fe  Fe12  1  0.64185070  0.88764418  0.65669724  1
  Fe  Fe13  1  0.64615174  0.90536311  0.05778229  1
  Fe  Fe14  1  0.35814930  0.38764418  0.34330276  1
  Fe  Fe15  1  0.64185070  0.61235582  0.65669724  1
  Fe  Fe16  1  0.85384826  0.40536311  0.55778229  1
  Fe  Fe17  1  0.35814930  0.11235582  0.34330276  1
  Fe  Fe18  1  0.85814930  0.11235582  0.15669724  1
  Fe  Fe19  1  0.35384826  0.40536311  0.94221771  1
  P  P20  1  0.14533245  0.57306108  0.13167920  1
  P  P21  1  0.85466755  0.42693892  0.86832080  1
  P  P22  1  0.35466755  0.07306108  0.63167920  1
  P  P23  1  0.64533245  0.92693892  0.36832080  1
  P  P24  1  0.64533245  0.57306108  0.36832080  1
  P  P25  1  0.35466755  0.42693892  0.63167920  1
  P  P26  1  0.49607861  0.25000000  0.09294512  1
  P  P27  1  0.00392139  0.75000000  0.59294512  1
  P  P28  1  0.50392139  0.75000000  0.90705488  1
  P  P29  1  0.14533245  0.92693892  0.13167920  1
  P  P30  1  0.85466755  0.07306108  0.86832080  1
  P  P31  1  0.99607861  0.25000000  0.40705488  1
  O  O32  1  0.71062811  0.85289305  0.26510245  1
  O  O33  1  0.21062811  0.85289305  0.23489755  1
  O  O34  1  0.47012905  0.60893062  0.46407814  1
  O  O35  1  0.92025791  0.98513787  0.78813068  1
  O  O36  1  0.55478842  0.75000000  0.05864551  1
  O  O37  1  0.94521158  0.25000000  0.55864551  1
  O  O38  1  0.52987095  0.39106938  0.53592186  1
  O  O39  1  0.89983653  0.15897619  0.35139622  1
  O  O40  1  0.39983653  0.15897619  0.14860378  1
  O  O41  1  0.10016347  0.65897619  0.64860378  1
  O  O42  1  0.73675974  0.25000000  0.11826912  1
  O  O43  1  0.02987095  0.10893062  0.96407814  1
  O  O44  1  0.47012905  0.89106938  0.46407814  1
  O  O45  1  0.97012905  0.60893062  0.03592186  1
  O  O46  1  0.02987095  0.39106938  0.96407814  1
  O  O47  1  0.42025791  0.51486213  0.71186932  1
  O  O48  1  0.44521158  0.25000000  0.94135449  1
  O  O49  1  0.05478842  0.75000000  0.44135449  1
  O  O50  1  0.78937189  0.35289305  0.76510245  1
  O  O51  1  0.60016347  0.84102381  0.85139622  1
  O  O52  1  0.57974209  0.48513787  0.28813068  1
  O  O53  1  0.39983653  0.34102381  0.14860378  1
  O  O54  1  0.17150533  0.44970867  0.52967624  1
  O  O55  1  0.89983653  0.34102381  0.35139622  1
  O  O56  1  0.57974209  0.01486213  0.28813068  1
  O  O57  1  0.21062811  0.64710695  0.23489755  1
  O  O58  1  0.10016347  0.84102381  0.64860378  1
  O  O59  1  0.67150533  0.44970867  0.97032376  1
  O  O60  1  0.23676074  0.25000000  0.38173088  1
  O  O61  1  0.07974209  0.01486213  0.21186932  1
  O  O62  1  0.82849467  0.94970867  0.47032376  1
  O  O63  1  0.92025791  0.51486213  0.78813068  1
  O  O64  1  0.07974209  0.48513787  0.21186932  1
  O  O65  1  0.97012905  0.89106938  0.03592186  1
  O  O66  1  0.67150533  0.05029133  0.97032376  1
  O  O67  1  0.32849467  0.94970867  0.02967624  1
  O  O68  1  0.60016347  0.65897619  0.85139622  1
  O  O69  1  0.26323926  0.75000000  0.88173088  1
  O  O70  1  0.28937189  0.35289305  0.73489755  1
  O  O71  1  0.76324026  0.75000000  0.61826912  1
  O  O72  1  0.52987095  0.10893062  0.53592186  1
  O  O73  1  0.42025791  0.98513787  0.71186932  1
  O  O74  1  0.28937189  0.14710695  0.73489755  1
  O  O75  1  0.82849467  0.55029133  0.47032376  1
  O  O76  1  0.78937189  0.14710695  0.76510245  1
  O  O77  1  0.32849467  0.55029133  0.02967624  1
  O  O78  1  0.71062811  0.64710695  0.26510245  1
  O  O79  1  0.17150533  0.05029133  0.52967624  1
