# generated using pymatgen
data_Li2Cr(PO3)5
_symmetry_space_group_name_H-M   'P 1'
_cell_length_a   12.47040483
_cell_length_b   9.59063399
_cell_length_c   5.26929503
_cell_angle_alpha   90.00000000
_cell_angle_beta   94.89733297
_cell_angle_gamma   90.00000000
_symmetry_Int_Tables_number   1
_chemical_formula_structural   Li2Cr(PO3)5
_chemical_formula_sum   'Li4 Cr2 P10 O30'
_cell_volume   627.90218247
_cell_formula_units_Z   2
loop_
 _symmetry_equiv_pos_site_id
 _symmetry_equiv_pos_as_xyz
  1  'x, y, z'
loop_
 _atom_site_type_symbol
 _atom_site_label
 _atom_site_symmetry_multiplicity
 _atom_site_fract_x
 _atom_site_fract_y
 _atom_site_fract_z
 _atom_site_occupancy
  Li  Li0  1  0.93689848  0.39441664  0.87240229  1
  Li  Li1  1  0.06829485  0.60132768  0.12309943  1
  Li  Li2  1  0.43689848  0.60558336  0.37240229  1
  Li  Li3  1  0.56829485  0.39867232  0.62309943  1
  Cr  Cr4  1  0.99627206  0.00264184  0.00592225  1
  Cr  Cr5  1  0.49627206  0.99735816  0.50592225  1
  P  P6  1  0.14152510  0.47986484  0.61545026  1
  P  P7  1  0.58191988  0.81841686  0.00400064  1
  P  P8  1  0.41215588  0.17720960  0.00679685  1
  P  P9  1  0.36176893  0.47784856  0.87865583  1
  P  P10  1  0.24635858  0.01668049  0.25981852  1
  P  P11  1  0.64152510  0.52013516  0.11545026  1
  P  P12  1  0.91215588  0.82279040  0.50679685  1
  P  P13  1  0.86176893  0.52215144  0.37865583  1
  P  P14  1  0.74635858  0.98331951  0.75981852  1
  P  P15  1  0.08191988  0.18158314  0.50400064  1
  O  O16  1  0.06771704  0.49929923  0.82196310  1
  O  O17  1  0.93781148  0.85414024  0.23773555  1
  O  O18  1  0.55211800  0.84267015  0.27279401  1
  O  O19  1  0.70003654  0.88348456  0.97279433  1
  O  O20  1  0.39855411  0.33895710  0.04405849  1
  O  O21  1  0.34740774  0.59202457  0.06242988  1
  O  O22  1  0.65204265  0.05920145  0.62475428  1
  O  O23  1  0.84740774  0.40797543  0.56242988  1
  O  O24  1  0.89855411  0.66104290  0.54405849  1
  O  O25  1  0.25159843  0.41769681  0.74528351  1
  O  O26  1  0.93616170  0.50426607  0.17299346  1
  O  O27  1  0.75159843  0.58230319  0.24528351  1
  O  O28  1  0.83982198  0.06261075  0.89075709  1
  O  O29  1  0.05211800  0.15732985  0.77279401  1
  O  O30  1  0.20003654  0.11651544  0.47279433  1
  O  O31  1  0.15204265  0.94079855  0.12475428  1
  O  O32  1  0.15701734  0.59297816  0.43090412  1
  O  O33  1  0.43616170  0.49573393  0.67299346  1
  O  O34  1  0.49220296  0.12994599  0.22026427  1
  O  O35  1  0.65701734  0.40702184  0.93090412  1
  O  O36  1  0.29280333  0.12078618  0.05342210  1
  O  O37  1  0.99220296  0.87005401  0.72026427  1
  O  O38  1  0.60189852  0.65882822  0.95319580  1
  O  O39  1  0.10189852  0.34117178  0.45319580  1
  O  O40  1  0.56771704  0.50070077  0.32196310  1
  O  O41  1  0.43781148  0.14585976  0.73773555  1
  O  O42  1  0.79280333  0.87921382  0.55342210  1
  O  O43  1  0.50201342  0.86443482  0.78950294  1
  O  O44  1  0.33982198  0.93738925  0.39075709  1
  O  O45  1  0.00201342  0.13556518  0.28950294  1
