# generated using pymatgen
data_LiVP2O7
_symmetry_space_group_name_H-M   'P 1'
_cell_length_a   6.46063205
_cell_length_b   10.62864949
_cell_length_c   9.33179299
_cell_angle_alpha   65.23274352
_cell_angle_beta   106.94610834
_cell_angle_gamma   94.10637370
_symmetry_Int_Tables_number   1
_chemical_formula_structural   LiVP2O7
_chemical_formula_sum   'Li4 V4 P8 O28'
_cell_volume   555.64569057
_cell_formula_units_Z   4
loop_
 _symmetry_equiv_pos_site_id
 _symmetry_equiv_pos_as_xyz
  1  'x, y, z'
loop_
 _atom_site_type_symbol
 _atom_site_label
 _atom_site_symmetry_multiplicity
 _atom_site_fract_x
 _atom_site_fract_y
 _atom_site_fract_z
 _atom_site_occupancy
  Li  Li0  1  0.12032996  0.91405567  0.07954333  1
  Li  Li1  1  0.57090652  0.02621385  0.51021104  1
  Li  Li2  1  0.96264468  0.48421020  0.86206729  1
  Li  Li3  1  0.65139471  0.40133501  0.06611588  1
  V  V4  1  0.72078465  0.77273891  0.09631449  1
  V  V5  1  0.63220090  0.75102797  0.49522261  1
  V  V6  1  0.35299718  0.26042636  0.49514010  1
  V  V7  1  0.28365087  0.21929210  0.89541349  1
  P  P8  1  0.11803826  0.70537398  0.44372897  1
  P  P9  1  0.92560798  0.79559794  0.80565567  1
  P  P10  1  0.31050382  0.95554560  0.80053574  1
  P  P11  1  0.41395646  0.46511867  0.69753614  1
  P  P12  1  0.07704510  0.20405214  0.17400615  1
  P  P13  1  0.88006868  0.30077453  0.55050205  1
  P  P14  1  0.58262118  0.53705367  0.30335144  1
  P  P15  1  0.69844266  0.04292227  0.18943560  1
  O  O16  1  0.36092281  0.43224014  0.85995136  1
  O  O17  1  0.92811235  0.08968436  0.27164315  1
  O  O18  1  0.60787590  0.95922646  0.33393565  1
  O  O19  1  0.39011359  0.05590599  0.65591422  1
  O  O20  1  0.94760255  0.72411809  0.51698466  1
  O  O21  1  0.57134745  0.68771083  0.29480037  1
  O  O22  1  0.71247009  0.83186553  0.66186750  1
  O  O23  1  0.38737405  0.45604560  0.33664557  1
  O  O24  1  0.78920989  0.46206473  0.45868293  1
  O  O25  1  0.73644409  0.96171394  0.09711687  1
  O  O26  1  0.56372674  0.18062254  0.07090488  1
  O  O27  1  0.28251915  0.20049377  0.30788666  1
  O  O28  1  0.01827787  0.65073445  0.87479657  1
  O  O29  1  0.13231399  0.14007045  0.06637237  1
  O  O30  1  0.26643819  0.02301328  0.90657212  1
  O  O31  1  0.02355104  0.72963891  0.26271175  1
  O  O32  1  0.03775894  0.28162301  0.46559192  1
  O  O33  1  0.20970156  0.54386378  0.54371734  1
  O  O34  1  0.61553523  0.54648705  0.67602861  1
  O  O35  1  0.89940863  0.84068836  0.93722960  1
  O  O36  1  0.31838158  0.78934045  0.46459009  1
  O  O37  1  0.94532887  0.34172901  0.07185431  1
  O  O38  1  0.45334747  0.82190314  0.91276775  1
  O  O39  1  0.42293520  0.31768925  0.69720729  1
  O  O40  1  0.67860929  0.21728998  0.52556480  1
  O  O41  1  0.08365346  0.90887515  0.71629888  1
  O  O42  1  0.99057899  0.28265926  0.72669415  1
  O  O43  1  0.64149942  0.55853762  0.14655567  1
