# generated using pymatgen
data_H12Pd(I2N)4
_symmetry_space_group_name_H-M   'P 1'
_cell_length_a   9.63508055
_cell_length_b   8.69690493
_cell_length_c   13.22117127
_cell_angle_alpha   90.00000000
_cell_angle_beta   100.96942028
_cell_angle_gamma   90.00000000
_symmetry_Int_Tables_number   1
_chemical_formula_structural   H12Pd(I2N)4
_chemical_formula_sum   'H24 Pd2 I16 N8'
_cell_volume   1087.63098490
_cell_formula_units_Z   2
loop_
 _symmetry_equiv_pos_site_id
 _symmetry_equiv_pos_as_xyz
  1  'x, y, z'
loop_
 _atom_site_type_symbol
 _atom_site_label
 _atom_site_symmetry_multiplicity
 _atom_site_fract_x
 _atom_site_fract_y
 _atom_site_fract_z
 _atom_site_occupancy
  H  H0  1  0.26214801  0.49508223  0.17033052  1
  H  H1  1  0.73785199  0.99508223  0.82966948  1
  H  H2  1  0.73785199  0.50491777  0.82966948  1
  H  H3  1  0.26214801  0.00491777  0.17033052  1
  H  H4  1  0.32894185  0.47216865  0.29534835  1
  H  H5  1  0.67105815  0.97216865  0.70465165  1
  H  H6  1  0.67105815  0.52783135  0.70465165  1
  H  H7  1  0.32894185  0.02783135  0.29534835  1
  H  H8  1  0.39475416  0.37525801  0.20660737  1
  H  H9  1  0.60524584  0.87525801  0.79339263  1
  H  H10  1  0.60524584  0.62474199  0.79339263  1
  H  H11  1  0.39475416  0.12474199  0.20660737  1
  H  H12  1  0.92834750  0.39464295  0.28102909  1
  H  H13  1  0.07165250  0.89464295  0.71897091  1
  H  H14  1  0.07165250  0.60535705  0.71897091  1
  H  H15  1  0.92834750  0.10535705  0.28102909  1
  H  H16  1  0.97034760  0.47471414  0.17727915  1
  H  H17  1  0.02965240  0.97471414  0.82272085  1
  H  H18  1  0.02965240  0.52528586  0.82272085  1
  H  H19  1  0.97034760  0.02528586  0.17727915  1
  H  H20  1  0.06314533  0.51513158  0.29283663  1
  H  H21  1  0.93685467  0.01513158  0.70716337  1
  H  H22  1  0.93685467  0.48486842  0.70716337  1
  H  H23  1  0.06314533  0.98486842  0.29283663  1
  Pd  Pd24  1  0.15429000  0.25000000  0.23605484  1
  Pd  Pd25  1  0.84571000  0.75000000  0.76394516  1
  I  I26  1  0.78933798  0.25000000  0.59291142  1
  I  I27  1  0.21066202  0.75000000  0.40708858  1
  I  I28  1  0.10491975  0.25000000  0.55442078  1
  I  I29  1  0.89508025  0.75000000  0.44557922  1
  I  I30  1  0.39087442  0.25000000  0.52885645  1
  I  I31  1  0.60912558  0.75000000  0.47114355  1
  I  I32  1  0.91839211  0.25000000  0.95544257  1
  I  I33  1  0.08160789  0.75000000  0.04455743  1
  I  I34  1  0.20769656  0.25000000  0.91021671  1
  I  I35  1  0.79230344  0.75000000  0.08978329  1
  I  I36  1  0.49883680  0.25000000  0.86865921  1
  I  I37  1  0.50116320  0.75000000  0.13134079  1
  I  I38  1  0.61114824  0.25000000  0.11743448  1
  I  I39  1  0.38885176  0.75000000  0.88256552  1
  I  I40  1  0.69245459  0.25000000  0.33738417  1
  I  I41  1  0.30754541  0.75000000  0.66261583  1
  N  N42  1  0.30277047  0.41645570  0.22564255  1
  N  N43  1  0.69722953  0.91645570  0.77435745  1
  N  N44  1  0.69722953  0.58354430  0.77435745  1
  N  N45  1  0.30277047  0.08354430  0.22564255  1
  N  N46  1  0.01234972  0.42762559  0.24756727  1
  N  N47  1  0.98765028  0.92762559  0.75243273  1
  N  N48  1  0.98765028  0.57237441  0.75243273  1
  N  N49  1  0.01234972  0.07237441  0.24756727  1
