# generated using pymatgen
data_LiCr(PO3)5
_symmetry_space_group_name_H-M   'P 1'
_cell_length_a   10.26466160
_cell_length_b   13.61028868
_cell_length_c   8.99530218
_cell_angle_alpha   90.00000000
_cell_angle_beta   100.83914600
_cell_angle_gamma   90.00000000
_symmetry_Int_Tables_number   1
_chemical_formula_structural   LiCr(PO3)5
_chemical_formula_sum   'Li4 Cr4 P20 O60'
_cell_volume   1234.26817234
_cell_formula_units_Z   4
loop_
 _symmetry_equiv_pos_site_id
 _symmetry_equiv_pos_as_xyz
  1  'x, y, z'
loop_
 _atom_site_type_symbol
 _atom_site_label
 _atom_site_symmetry_multiplicity
 _atom_site_fract_x
 _atom_site_fract_y
 _atom_site_fract_z
 _atom_site_occupancy
  Li  Li0  1  0.02672230  0.38995724  0.08909869  1
  Li  Li1  1  0.47327770  0.61004276  0.91090131  1
  Li  Li2  1  0.97327770  0.88995724  0.91090131  1
  Li  Li3  1  0.52672230  0.11004276  0.08909869  1
  Cr  Cr4  1  0.25000000  0.00000000  0.50000000  1
  Cr  Cr5  1  0.75000000  0.50000000  0.50000000  1
  Cr  Cr6  1  0.75000000  0.00000000  0.50000000  1
  Cr  Cr7  1  0.25000000  0.50000000  0.50000000  1
  P  P8  1  0.50006106  0.85894803  0.48013339  1
  P  P9  1  0.77178787  0.25098731  0.00368502  1
  P  P10  1  0.50280700  0.14103437  0.52194073  1
  P  P11  1  0.72821213  0.74901269  0.99631498  1
  P  P12  1  -0.00006106  0.14105197  0.51986661  1
  P  P13  1  0.49993894  0.35894803  0.51986661  1
  P  P14  1  0.67607373  0.08222990  0.81486229  1
  P  P15  1  0.27178787  0.24901269  0.00368502  1
  P  P16  1  0.32392627  0.58222990  0.18513771  1
  P  P17  1  0.83717803  0.57353193  0.19321497  1
  P  P18  1  0.33717803  0.92646807  0.19321497  1
  P  P19  1  0.00280700  0.35896563  0.52194073  1
  P  P20  1  0.66282197  0.42646807  0.80678503  1
  P  P21  1  0.00006106  0.64105197  0.48013339  1
  P  P22  1  0.82392627  0.91777010  0.18513771  1
  P  P23  1  0.16282197  0.07353193  0.80678503  1
  P  P24  1  0.99719300  0.85896563  0.47805927  1
  P  P25  1  0.49719300  0.64103437  0.47805927  1
  P  P26  1  0.22821213  0.75098731  0.99631498  1
  P  P27  1  0.17607373  0.41777010  0.81486229  1
  O  O28  1  0.97660592  0.74993374  0.53435470  1
  O  O29  1  0.85477800  0.37764417  0.49816829  1
  O  O30  1  0.24920327  0.02108923  0.70851796  1
  O  O31  1  0.85266285  0.12489470  0.49749313  1
  O  O32  1  0.24574101  0.48400814  0.71949923  1
  O  O33  1  0.14522200  0.87764417  0.50183171  1
  O  O34  1  0.09882554  0.76420967  0.88779859  1
  O  O35  1  0.75425899  0.98400814  0.28050077  1
  O  O36  1  0.08107108  0.07389475  0.43955712  1
  O  O37  1  0.06397215  0.35402251  0.69758355  1
  O  O38  1  0.78311136  0.16727350  0.87873297  1
  O  O39  1  0.75079673  0.52108923  0.29148204  1
  O  O40  1  0.09516526  0.00820869  0.89884740  1
  O  O41  1  0.64522200  0.62235583  0.50183171  1
  O  O42  1  0.58107108  0.42610525  0.43955712  1
  O  O43  1  0.94091473  0.64432121  0.30239176  1
  O  O44  1  0.41892892  0.92610525  0.56044288  1
  O  O45  1  0.76052459  0.34815186  0.89656467  1
  O  O46  1  0.44091473  0.85567879  0.30239176  1
  O  O47  1  0.47660592  0.75006626  0.53435470  1
  O  O48  1  0.88926876  0.95938251  0.06644550  1
  O  O49  1  0.41969889  0.57504209  0.56472295  1
  O  O50  1  0.35477800  0.12235583  0.49816829  1
  O  O51  1  0.91969889  0.92495791  0.56472295  1
  O  O52  1  0.84828282  0.76532122  0.92634697  1
  O  O53  1  0.23947541  0.84815186  0.10343533  1
  O  O54  1  0.25079673  0.97891077  0.29148204  1
  O  O55  1  0.08030111  0.42495791  0.43527705  1
  O  O56  1  0.43602785  0.64597749  0.30241645  1
  O  O57  1  0.65171718  0.23467878  0.07365303  1
  O  O58  1  0.55908527  0.35567879  0.69760824  1
  O  O59  1  0.11073124  0.45938251  0.93355450  1
  O  O60  1  0.61073124  0.04061749  0.93355450  1
  O  O61  1  0.74574101  0.01599186  0.71949923  1
  O  O62  1  0.73947541  0.65184814  0.10343533  1
  O  O63  1  0.90117446  0.26420967  0.11220141  1
  O  O64  1  0.64733715  0.87510530  0.50250687  1
  O  O65  1  0.71688864  0.83272650  0.12126703  1
  O  O66  1  0.90483474  0.50820869  0.10115260  1
  O  O67  1  0.38926876  0.54061749  0.06644550  1
  O  O68  1  0.14733715  0.62489470  0.50250687  1
  O  O69  1  0.52339408  0.25006626  0.46564530  1
  O  O70  1  0.58030111  0.07504209  0.43527705  1
  O  O71  1  0.28311136  0.33272650  0.87873297  1
  O  O72  1  0.59516526  0.49179131  0.89884740  1
  O  O73  1  0.02339408  0.24993374  0.46564530  1
  O  O74  1  0.25425899  0.51599186  0.28050077  1
  O  O75  1  0.59882554  0.73579033  0.88779859  1
  O  O76  1  0.15171718  0.26532122  0.07365303  1
  O  O77  1  0.21688864  0.66727350  0.12126703  1
  O  O78  1  0.26052459  0.15184814  0.89656467  1
  O  O79  1  0.74920327  0.47891077  0.70851796  1
  O  O80  1  0.34828282  0.73467878  0.92634697  1
  O  O81  1  0.93602785  0.85402251  0.30241645  1
  O  O82  1  0.40117446  0.23579033  0.11220141  1
  O  O83  1  0.05908527  0.14432121  0.69760824  1
  O  O84  1  0.56397215  0.14597749  0.69758355  1
  O  O85  1  0.35266285  0.37510530  0.49749313  1
  O  O86  1  0.91892892  0.57389475  0.56044288  1
  O  O87  1  0.40483474  0.99179131  0.10115260  1
