# generated using pymatgen
data_Mn9(Cu3O10)2
_symmetry_space_group_name_H-M   'P 1'
_cell_length_a   6.03159100
_cell_length_b   6.03159063
_cell_length_c   29.73572121
_cell_angle_alpha   60.58612736
_cell_angle_beta   60.58612937
_cell_angle_gamma   59.58707051
_symmetry_Int_Tables_number   1
_chemical_formula_structural   Mn9(Cu3O10)2
_chemical_formula_sum   'Mn18 Cu12 O40'
_cell_volume   769.16864058
_cell_formula_units_Z   2
loop_
 _symmetry_equiv_pos_site_id
 _symmetry_equiv_pos_as_xyz
  1  'x, y, z'
loop_
 _atom_site_type_symbol
 _atom_site_label
 _atom_site_symmetry_multiplicity
 _atom_site_fract_x
 _atom_site_fract_y
 _atom_site_fract_z
 _atom_site_occupancy
  Mn  Mn0  1  0.00707725  0.00707725  0.99944061  1
  Mn  Mn1  1  0.01067203  0.01067203  0.19749766  1
  Mn  Mn2  1  0.12590765  0.62372940  0.12500510  1
  Mn  Mn3  1  0.62372940  0.12590765  0.12500510  1
  Mn  Mn4  1  0.00466734  0.00466734  0.39896070  1
  Mn  Mn5  1  0.62568759  0.62568759  0.02512192  1
  Mn  Mn6  1  0.12699855  0.62443221  0.32493202  1
  Mn  Mn7  1  0.62443221  0.12699855  0.32493202  1
  Mn  Mn8  1  0.00561172  0.00561172  0.59999213  1
  Mn  Mn9  1  0.62473662  0.62473662  0.32482895  1
  Mn  Mn10  1  0.12742835  0.62415668  0.52496470  1
  Mn  Mn11  1  0.62415668  0.12742835  0.52496470  1
  Mn  Mn12  1  0.12454458  0.62198048  0.72586745  1
  Mn  Mn13  1  0.62198048  0.12454458  0.72586745  1
  Mn  Mn14  1  0.62273181  0.62273181  0.62586330  1
  Mn  Mn15  1  0.12736827  0.62766318  0.92373773  1
  Mn  Mn16  1  0.62766318  0.12736827  0.92373773  1
  Mn  Mn17  1  0.62604924  0.62604924  0.82461801  1
  Cu  Cu18  1  0.24770121  0.24770121  0.04929292  1
  Cu  Cu19  1  0.24810449  0.24810449  0.25056945  1
  Cu  Cu20  1  0.62480811  0.62480811  0.12509732  1
  Cu  Cu21  1  0.24105454  0.24105454  0.45208585  1
  Cu  Cu22  1  0.62679846  0.62679846  0.22478777  1
  Cu  Cu23  1  0.62276994  0.62276994  0.42596617  1
  Cu  Cu24  1  0.24438922  0.24438922  0.65094392  1
  Cu  Cu25  1  0.00279655  0.00279655  0.80007892  1
  Cu  Cu26  1  0.62434919  0.62434919  0.52473117  1
  Cu  Cu27  1  0.24787659  0.24787659  0.84935605  1
  Cu  Cu28  1  0.62341758  0.62341758  0.72560757  1
  Cu  Cu29  1  0.62668196  0.62668196  0.92395873  1
  O  O30  1  0.37807333  0.37807333  0.07863348  1
  O  O31  1  0.37632647  0.37632647  0.16935037  1
  O  O32  1  0.37922057  0.83420805  0.07703765  1
  O  O33  1  0.83420805  0.37922057  0.07703765  1
  O  O34  1  0.37614382  0.37614382  0.28125728  1
  O  O35  1  0.41795897  0.87467647  0.17084698  1
  O  O36  1  0.87467647  0.41795897  0.17084698  1
  O  O37  1  0.38172796  0.83556374  0.27975260  1
  O  O38  1  0.37986235  0.37986235  0.37153425  1
  O  O39  1  0.87171931  0.87171931  0.08154998  1
  O  O40  1  0.83556374  0.38172796  0.27975260  1
  O  O41  1  0.87645480  0.87645480  0.16883418  1
  O  O42  1  0.36997895  0.36997895  0.48187599  1
  O  O43  1  0.41794116  0.86655071  0.37039304  1
  O  O44  1  0.86655071  0.41794116  0.37039304  1
  O  O45  1  0.37474769  0.37474769  0.56963581  1
  O  O46  1  0.37313412  0.83336514  0.47945372  1
  O  O47  1  0.86826893  0.86826893  0.27967453  1
  O  O48  1  0.83336514  0.37313412  0.47945372  1
  O  O49  1  0.87316565  0.87316565  0.36853676  1
  O  O50  1  0.41910192  0.86738302  0.57282317  1
  O  O51  1  0.37678845  0.37678845  0.67837089  1
  O  O52  1  0.38038294  0.38038294  0.76803507  1
  O  O53  1  0.86738302  0.41910192  0.57282317  1
  O  O54  1  0.87241845  0.87241845  0.48157724  1
  O  O55  1  0.37800005  0.83399125  0.67712234  1
  O  O56  1  0.83399125  0.37800005  0.67712234  1
  O  O57  1  0.86987786  0.86987786  0.57092860  1
  O  O58  1  0.41276620  0.87072261  0.77349329  1
  O  O59  1  0.38164187  0.38164187  0.87697313  1
  O  O60  1  0.38023701  0.38023701  0.96768724  1
  O  O61  1  0.87072261  0.41276620  0.77349329  1
  O  O62  1  0.86685850  0.86685850  0.68336777  1
  O  O63  1  0.37986249  0.83729419  0.87657412  1
  O  O64  1  0.83729419  0.37986249  0.87657412  1
  O  O65  1  0.86862002  0.86862002  0.77316772  1
  O  O66  1  0.41909947  0.86990416  0.97224179  1
  O  O67  1  0.86990416  0.41909947  0.97224179  1
  O  O68  1  0.87180968  0.87180968  0.88100773  1
  O  O69  1  0.87196090  0.87196090  0.97071147  1
