# generated using pymatgen
data_LiMo2P3O13
_symmetry_space_group_name_H-M   'P 1'
_cell_length_a   6.48859181
_cell_length_b   18.77440470
_cell_length_c   9.64801370
_cell_angle_alpha   90.00000000
_cell_angle_beta   107.44675242
_cell_angle_gamma   90.00000000
_symmetry_Int_Tables_number   1
_chemical_formula_structural   LiMo2P3O13
_chemical_formula_sum   'Li4 Mo8 P12 O52'
_cell_volume   1121.24648252
_cell_formula_units_Z   4
loop_
 _symmetry_equiv_pos_site_id
 _symmetry_equiv_pos_as_xyz
  1  'x, y, z'
loop_
 _atom_site_type_symbol
 _atom_site_label
 _atom_site_symmetry_multiplicity
 _atom_site_fract_x
 _atom_site_fract_y
 _atom_site_fract_z
 _atom_site_occupancy
  Li  Li0  1  0.23796003  0.15554236  0.03190995  1
  Li  Li1  1  0.81507014  0.43908888  0.38195446  1
  Li  Li2  1  0.18492986  0.93908888  0.61804554  1
  Li  Li3  1  0.76203997  0.65554236  0.96809005  1
  Mo  Mo4  1  0.86882302  0.99683079  0.92492016  1
  Mo  Mo5  1  0.37052098  0.82033157  0.93924556  1
  Mo  Mo6  1  0.43914502  0.53093066  0.61936863  1
  Mo  Mo7  1  0.62947902  0.32033157  0.06075444  1
  Mo  Mo8  1  0.13117698  0.49683079  0.07507984  1
  Mo  Mo9  1  0.06663958  0.78853443  0.39437633  1
  Mo  Mo10  1  0.56085498  0.03093066  0.38063137  1
  Mo  Mo11  1  0.93336042  0.28853443  0.60562367  1
  P  P12  1  0.47684601  0.25332537  0.69379612  1
  P  P13  1  0.25525834  0.62723064  0.30852386  1
  P  P14  1  0.75349004  0.19182763  0.29820545  1
  P  P15  1  0.90821716  0.82955505  0.03102449  1
  P  P16  1  0.97782176  0.56510492  0.70093942  1
  P  P17  1  0.40813605  0.98945714  0.02281823  1
  P  P18  1  0.59186395  0.48945714  0.97718177  1
  P  P19  1  0.24650996  0.69182763  0.70179455  1
  P  P20  1  0.52315399  0.75332537  0.30620388  1
  P  P21  1  0.09178284  0.32955505  0.96897551  1
  P  P22  1  0.74474166  0.12723064  0.69147614  1
  P  P23  1  0.02217824  0.06510492  0.29906058  1
  O  O24  1  0.85307427  0.10258750  0.84979994  1
  O  O25  1  0.17500613  0.75744976  0.60727296  1
  O  O26  1  0.43654680  0.50958348  0.06461696  1
  O  O27  1  0.76068663  0.76144031  0.39523254  1
  O  O28  1  0.40018124  0.64335553  0.65533049  1
  O  O29  1  0.31752978  0.30439417  0.06454546  1
  O  O30  1  0.37943667  0.79159916  0.38210332  1
  O  O31  1  0.44690688  0.44088411  0.59672093  1
  O  O32  1  0.70448033  0.37457838  0.21371337  1
  O  O33  1  0.68247022  0.80439417  0.93545454  1
  O  O34  1  0.59981876  0.14335553  0.34466951  1
  O  O35  1  0.65109635  0.21591073  0.13899803  1
  O  O36  1  0.11959004  0.52586504  0.62401142  1
  O  O37  1  0.54948830  0.53903404  0.84312369  1
  O  O38  1  0.56345320  0.00958348  0.93538304  1
  O  O39  1  0.62056333  0.29159916  0.61789668  1
  O  O40  1  0.47528393  0.66850636  0.31182975  1
  O  O41  1  0.98379023  0.04950089  0.13868032  1
  O  O42  1  0.19820987  0.44542132  0.22836091  1
  O  O43  1  0.01620977  0.54950089  0.86131968  1
  O  O44  1  0.23931337  0.26144031  0.60476746  1
  O  O45  1  0.34890365  0.71591073  0.86100197  1
  O  O46  1  0.88040996  0.02586504  0.37598858  1
  O  O47  1  0.52471607  0.16850636  0.68817025  1
  O  O48  1  0.52289563  0.27104297  0.85441139  1
  O  O49  1  0.45051170  0.03903404  0.15687631  1
  O  O50  1  0.67257642  0.06166397  0.59551427  1
  O  O51  1  0.93525903  0.30412587  0.05179281  1
  O  O52  1  0.97457090  0.14974270  0.30684313  1
  O  O53  1  0.57532388  0.41065789  0.92942384  1
  O  O54  1  0.92091730  0.91005221  0.06229349  1
  O  O55  1  0.10627700  0.67713383  0.35740528  1
  O  O56  1  0.89372300  0.17713383  0.64259472  1
  O  O57  1  0.47710437  0.77104297  0.14558861  1
  O  O58  1  0.95653871  0.78883788  0.17584684  1
  O  O59  1  0.18221691  0.00976046  0.92027423  1
  O  O60  1  0.06474097  0.80412587  0.94820719  1
  O  O61  1  0.32742358  0.56166397  0.40448573  1
  O  O62  1  0.25750682  0.05552010  0.39360594  1
  O  O63  1  0.55309312  0.94088411  0.40327907  1
  O  O64  1  0.80179013  0.94542132  0.77163909  1
  O  O65  1  0.07791609  0.87702591  0.44796662  1
  O  O66  1  0.42467612  0.91065789  0.07057616  1
  O  O67  1  0.04346129  0.28883788  0.82415316  1
  O  O68  1  0.02542910  0.64974270  0.69315687  1
  O  O69  1  0.07908270  0.41005221  0.93770651  1
  O  O70  1  0.82499387  0.25744976  0.39272704  1
  O  O71  1  0.14692573  0.60258750  0.15020006  1
  O  O72  1  0.81778309  0.50976046  0.07972577  1
  O  O73  1  0.29551967  0.87457838  0.78628663  1
  O  O74  1  0.92208391  0.37702591  0.55203338  1
  O  O75  1  0.74249318  0.55552010  0.60639406  1
