# generated using pymatgen
data_LiFe3P3O11
_symmetry_space_group_name_H-M   'P 1'
_cell_length_a   10.02009580
_cell_length_b   9.78638842
_cell_length_c   10.11889909
_cell_angle_alpha   90.00000000
_cell_angle_beta   62.10723704
_cell_angle_gamma   90.00000000
_symmetry_Int_Tables_number   1
_chemical_formula_structural   LiFe3P3O11
_chemical_formula_sum   'Li4 Fe12 P12 O44'
_cell_volume   876.98817054
_cell_formula_units_Z   4
loop_
 _symmetry_equiv_pos_site_id
 _symmetry_equiv_pos_as_xyz
  1  'x, y, z'
loop_
 _atom_site_type_symbol
 _atom_site_label
 _atom_site_symmetry_multiplicity
 _atom_site_fract_x
 _atom_site_fract_y
 _atom_site_fract_z
 _atom_site_occupancy
  Li  Li0  1  0.50532283  0.82896381  0.19413570  1
  Li  Li1  1  0.99467717  0.32896381  0.30586430  1
  Li  Li2  1  0.00532283  0.67103619  0.69413570  1
  Li  Li3  1  0.49467717  0.17103619  0.80586430  1
  Fe  Fe4  1  0.98644321  0.12335001  0.11442110  1
  Fe  Fe5  1  0.31336406  0.62795061  0.77002876  1
  Fe  Fe6  1  0.63879060  0.86837334  0.63923910  1
  Fe  Fe7  1  0.68663594  0.37204939  0.22997124  1
  Fe  Fe8  1  0.13879060  0.63162666  0.13923910  1
  Fe  Fe9  1  0.51355679  0.62335001  0.38557890  1
  Fe  Fe10  1  0.48644321  0.37664999  0.61442110  1
  Fe  Fe11  1  0.81336406  0.87204939  0.27002876  1
  Fe  Fe12  1  0.86120940  0.36837334  0.86076090  1
  Fe  Fe13  1  0.18663594  0.12795061  0.72997124  1
  Fe  Fe14  1  0.01355679  0.87664999  0.88557890  1
  Fe  Fe15  1  0.36120940  0.13162666  0.36076090  1
  P  P16  1  0.80254768  0.57793844  0.43760370  1
  P  P17  1  0.64749078  0.56614251  0.76373159  1
  P  P18  1  0.85250922  0.06614251  0.73626841  1
  P  P19  1  0.69745232  0.07793844  0.06239630  1
  P  P20  1  0.16609033  0.33842779  0.93970608  1
  P  P21  1  0.33390967  0.83842779  0.56029392  1
  P  P22  1  0.35250922  0.43385749  0.23626841  1
  P  P23  1  0.30254768  0.92206156  0.93760370  1
  P  P24  1  0.66609033  0.16157221  0.43970608  1
  P  P25  1  0.14749078  0.93385749  0.26373159  1
  P  P26  1  0.19745232  0.42206156  0.56239630  1
  P  P27  1  0.83390967  0.66157221  0.06029392  1
  O  O28  1  0.45105963  0.97902643  0.81830309  1
  O  O29  1  0.99541712  0.01779086  0.74706613  1
  O  O30  1  0.95883133  0.72667765  0.09669195  1
  O  O31  1  0.04116867  0.27332235  0.90330805  1
  O  O32  1  0.78836786  0.53040148  0.59409539  1
  O  O33  1  0.68494470  0.47817504  0.86371004  1
  O  O34  1  0.28836786  0.96959852  0.09409539  1
  O  O35  1  0.83256138  0.00688361  0.07605897  1
  O  O36  1  0.81555666  0.22714840  0.31430235  1
  O  O37  1  0.62622608  0.21428452  0.59727613  1
  O  O38  1  0.17033068  0.49580345  0.93370231  1
  O  O39  1  0.21533752  0.26636940  0.55838767  1
  O  O40  1  0.71533752  0.23363060  0.05838767  1
  O  O41  1  0.85578947  0.21928513  0.71594933  1
  O  O42  1  0.31555666  0.27285160  0.81430235  1
  O  O43  1  0.78466248  0.73363060  0.44161233  1
  O  O44  1  0.64421053  0.71928513  0.78405067  1
  O  O45  1  0.18494470  0.02182496  0.36371004  1
  O  O46  1  0.82966932  0.50419655  0.06629769  1
  O  O47  1  0.31505530  0.52182496  0.13628996  1
  O  O48  1  0.81505530  0.97817504  0.63628996  1
  O  O49  1  0.37377392  0.78571548  0.40272387  1
  O  O50  1  0.54116867  0.22667865  0.40330805  1
  O  O51  1  0.45883133  0.77332235  0.59669195  1
  O  O52  1  0.12622608  0.28571548  0.09727613  1
  O  O53  1  0.18444334  0.77285160  0.68569765  1
  O  O54  1  0.50458288  0.51779086  0.75293387  1
  O  O55  1  0.95105963  0.52097357  0.31830309  1
  O  O56  1  0.32966932  0.99580345  0.56629769  1
  O  O57  1  0.33256138  0.49311639  0.57605897  1
  O  O58  1  0.00458288  0.98220914  0.25293387  1
  O  O59  1  0.16743862  0.99311639  0.92394103  1
  O  O60  1  0.87377392  0.71428452  0.90272387  1
  O  O61  1  0.68444334  0.72714840  0.18569765  1
  O  O62  1  0.49541712  0.48220914  0.24706613  1
  O  O63  1  0.71163214  0.03040148  0.90590461  1
  O  O64  1  0.35578947  0.28071487  0.21594933  1
  O  O65  1  0.04894037  0.47902643  0.68169691  1
  O  O66  1  0.21163214  0.46959852  0.40590461  1
  O  O67  1  0.14421053  0.78071487  0.28405067  1
  O  O68  1  0.67033068  0.00419655  0.43370231  1
  O  O69  1  0.28466248  0.76636940  0.94161233  1
  O  O70  1  0.66743862  0.50688361  0.42394103  1
  O  O71  1  0.54894037  0.02097357  0.18169691  1
