# generated using pymatgen
data_Li2V18O39
_symmetry_space_group_name_H-M   'P 1'
_cell_length_a   3.74332453
_cell_length_b   11.28599739
_cell_length_c   17.50622222
_cell_angle_alpha   104.64713170
_cell_angle_beta   90.01647998
_cell_angle_gamma   99.55766197
_symmetry_Int_Tables_number   1
_chemical_formula_structural   Li2V18O39
_chemical_formula_sum   'Li2 V18 O39'
_cell_volume   704.92692820
_cell_formula_units_Z   1
loop_
 _symmetry_equiv_pos_site_id
 _symmetry_equiv_pos_as_xyz
  1  'x, y, z'
loop_
 _atom_site_type_symbol
 _atom_site_label
 _atom_site_symmetry_multiplicity
 _atom_site_fract_x
 _atom_site_fract_y
 _atom_site_fract_z
 _atom_site_occupancy
  Li  Li0  1  0.74691981  0.47542144  0.34058734  1
  Li  Li1  1  0.26397141  0.52607774  0.65998503  1
  V  V2  1  0.79446914  0.59688717  0.55075132  1
  V  V3  1  0.64025697  0.27641806  0.65466807  1
  V  V4  1  0.19787049  0.40284572  0.44914546  1
  V  V5  1  0.13455437  0.23849371  0.23769107  1
  V  V6  1  0.44999722  0.89437046  0.89970449  1
  V  V7  1  0.30847859  0.61655028  0.97833279  1
  V  V8  1  0.06791285  0.13106639  0.52785343  1
  V  V9  1  0.41309583  0.82243581  0.17587517  1
  V  V10  1  0.89640826  0.75957996  0.76132503  1
  V  V11  1  0.02266397  0.04336697  0.69117887  1
  V  V12  1  0.59021401  0.17772721  0.82501946  1
  V  V13  1  0.74022223  0.47920148  0.84820850  1
  V  V14  1  0.97960960  0.95630226  0.30953948  1
  V  V15  1  0.54975213  0.10189358  0.09726723  1
  V  V16  1  0.36312323  0.72357508  0.34570534  1
  V  V17  1  0.69304442  0.38335772  0.02217557  1
  V  V18  1  0.94204603  0.86896755  0.47273918  1
  V  V19  1  0.26339781  0.52060214  0.15199930  1
  O  O20  1  0.62635387  0.25232081  0.05424070  1
  O  O21  1  0.13755111  0.27309178  0.48122048  1
  O  O22  1  0.79935461  0.59652545  0.80337806  1
  O  O23  1  0.00811792  0.01348811  0.42851119  1
  O  O24  1  0.06509562  0.12812502  0.12418203  1
  O  O25  1  0.91722074  0.83181614  0.20422105  1
  O  O26  1  0.38463579  0.77756789  0.78645090  1
  O  O27  1  0.75940343  0.51364976  0.12533075  1
  O  O28  1  0.60937289  0.21957609  0.21218306  1
  O  O29  1  0.57944664  0.15570293  0.54577427  1
  O  O30  1  0.52593644  0.05172806  0.86131406  1
  O  O31  1  0.86301233  0.72663239  0.51867180  1
  O  O32  1  0.15958938  0.34231252  0.33388282  1
  O  O33  1  0.08493281  0.16780142  0.79655713  1
  O  O34  1  0.11373041  0.22350559  0.64565022  1
  O  O35  1  0.29338477  0.58505183  0.36808657  1
  O  O36  1  0.95409284  0.90592104  0.71757602  1
  O  O37  1  0.99491078  0.98650226  0.57217382  1
  O  O38  1  0.34812243  0.69259101  0.09285528  1
  O  O39  1  0.88947990  0.77640616  0.35492273  1
  O  O40  1  0.67215604  0.34265864  0.76987628  1
  O  O41  1  0.47507380  0.94985750  0.14092450  1
  O  O42  1  0.55066235  0.09914552  0.70308954  1
  O  O43  1  0.45147373  0.90015395  0.29781706  1
  O  O44  1  0.77933931  0.55802209  0.96735213  1
  O  O45  1  0.50269832  0.00337034  0.00332905  1
  O  O46  1  0.42350749  0.84410451  0.45463710  1
  O  O47  1  0.37249603  0.74790429  0.94685415  1
  O  O48  1  0.05091520  0.09356288  0.28322490  1
  O  O49  1  0.33060652  0.65717598  0.23034205  1
  O  O50  1  0.65574267  0.30863693  0.90765395  1
  O  O51  1  0.26777278  0.54081894  0.54852203  1
  O  O52  1  0.71145105  0.41418920  0.63170186  1
  O  O53  1  0.81648642  0.65525939  0.66493109  1
  O  O54  1  0.20652431  0.40315008  0.19643847  1
  O  O55  1  0.72683543  0.45873096  0.45132291  1
  O  O56  1  0.24359111  0.48662345  0.87465914  1
  O  O57  1  0.22241670  0.44185273  0.03286320  1
  O  O58  1  0.93584966  0.87460860  0.87903349  1
