# generated using pymatgen
data_Li3Ti4O8
_symmetry_space_group_name_H-M   'P 1'
_cell_length_a   5.98489723
_cell_length_b   5.94278679
_cell_length_c   5.98641745
_cell_angle_alpha   90.01763059
_cell_angle_beta   59.60594952
_cell_angle_gamma   60.21549273
_symmetry_Int_Tables_number   1
_chemical_formula_structural   Li3Ti4O8
_chemical_formula_sum   'Li3 Ti4 O8'
_cell_volume   150.12140319
_cell_formula_units_Z   1
loop_
 _symmetry_equiv_pos_site_id
 _symmetry_equiv_pos_as_xyz
  1  'x, y, z'
loop_
 _atom_site_type_symbol
 _atom_site_label
 _atom_site_symmetry_multiplicity
 _atom_site_fract_x
 _atom_site_fract_y
 _atom_site_fract_z
 _atom_site_occupancy
  Li  Li0  1  0.50000000  0.50000000  0.00000000  1
  Li  Li1  1  0.00000000  0.50000000  0.50000000  1
  Li  Li2  1  0.00000000  0.00000000  0.50000000  1
  Ti  Ti3  1  0.50000000  0.00000000  0.50000000  1
  Ti  Ti4  1  0.50000000  0.00000000  0.00000000  1
  Ti  Ti5  1  0.00000000  0.50000000  0.00000000  1
  Ti  Ti6  1  0.00000000  0.00000000  0.00000000  1
  O  O7  1  0.97508220  0.76215718  0.77760391  1
  O  O8  1  0.98907599  0.75584997  0.24496957  1
  O  O9  1  0.48447554  0.77780595  0.76224171  1
  O  O10  1  0.51535524  0.76222172  0.23727745  1
  O  O11  1  0.48464476  0.23777828  0.76272255  1
  O  O12  1  0.51552446  0.22219405  0.23775829  1
  O  O13  1  0.01092401  0.24415003  0.75503043  1
  O  O14  1  0.02491780  0.23784282  0.22239609  1
