# generated using pymatgen
data_KCaP3(HO2)6
_symmetry_space_group_name_H-M   'P 1'
_cell_length_a   7.36773000
_cell_length_b   12.04954127
_cell_length_c   12.50899683
_cell_angle_alpha   90.00000000
_cell_angle_beta   102.75930018
_cell_angle_gamma   90.00000000
_symmetry_Int_Tables_number   1
_chemical_formula_structural   KCaP3(HO2)6
_chemical_formula_sum   'K4 Ca4 P12 H24 O48'
_cell_volume   1083.09813890
_cell_formula_units_Z   4
loop_
 _symmetry_equiv_pos_site_id
 _symmetry_equiv_pos_as_xyz
  1  'x, y, z'
loop_
 _atom_site_type_symbol
 _atom_site_label
 _atom_site_symmetry_multiplicity
 _atom_site_fract_x
 _atom_site_fract_y
 _atom_site_fract_z
 _atom_site_occupancy
  K  K0  1  0.63002933  0.59186025  0.40286778  1
  K  K1  1  0.13002933  0.90813975  0.90286778  1
  K  K2  1  0.36997067  0.40813975  0.59713222  1
  K  K3  1  0.86997067  0.09186025  0.09713222  1
  Ca  Ca4  1  0.07733788  0.78878115  0.20246418  1
  Ca  Ca5  1  0.57733788  0.71121885  0.70246418  1
  Ca  Ca6  1  0.92266212  0.21121885  0.79753582  1
  Ca  Ca7  1  0.42266212  0.28878115  0.29753582  1
  P  P8  1  0.17273339  0.67792178  0.47927517  1
  P  P9  1  0.67273339  0.82207822  0.97927517  1
  P  P10  1  0.82726661  0.32207822  0.52072483  1
  P  P11  1  0.32726661  0.17792178  0.02072483  1
  P  P12  1  0.90610177  0.49037551  0.68697457  1
  P  P13  1  0.40610177  0.00962449  0.18697457  1
  P  P14  1  0.09389823  0.50962449  0.31302543  1
  P  P15  1  0.59389823  0.99037551  0.81302543  1
  P  P16  1  0.07364131  0.71149289  0.68679758  1
  P  P17  1  0.57364131  0.78850711  0.18679758  1
  P  P18  1  0.92635869  0.28850711  0.31320242  1
  P  P19  1  0.42635869  0.21149289  0.81320242  1
  H  H20  1  0.40986755  0.53559660  0.18860910  1
  H  H21  1  0.90986755  0.96440340  0.68860910  1
  H  H22  1  0.59013245  0.46440340  0.81139090  1
  H  H23  1  0.09013245  0.03559660  0.31139090  1
  H  H24  1  0.92317452  0.98162063  0.35344650  1
  H  H25  1  0.42317452  0.51837937  0.85344650  1
  H  H26  1  0.07682548  0.01837937  0.64655350  1
  H  H27  1  0.57682548  0.48162063  0.14655350  1
  H  H28  1  0.03772924  0.29629127  0.03816772  1
  H  H29  1  0.53772924  0.20370873  0.53816772  1
  H  H30  1  0.96227076  0.70370873  0.96183228  1
  H  H31  1  0.46227076  0.79629127  0.46183228  1
  H  H32  1  0.66116332  0.85011753  0.48365197  1
  H  H33  1  0.16116332  0.64988247  0.98365197  1
  H  H34  1  0.33883668  0.14988247  0.51634803  1
  H  H35  1  0.83883668  0.35011753  0.01634803  1
  H  H36  1  0.63365552  0.03099062  0.38904634  1
  H  H37  1  0.13365552  0.46900938  0.88904634  1
  H  H38  1  0.36634448  0.96900938  0.61095366  1
  H  H39  1  0.86634448  0.53099062  0.11095366  1
  H  H40  1  0.26225714  0.46108849  0.00671972  1
  H  H41  1  0.76225714  0.03891151  0.50671972  1
  H  H42  1  0.73774286  0.53891151  0.99328028  1
  H  H43  1  0.23774286  0.96108849  0.49328028  1
  O  O44  1  0.19968396  0.76737259  0.40046301  1
  O  O45  1  0.69968396  0.73262741  0.90046301  1
  O  O46  1  0.80031604  0.23262741  0.59953699  1
  O  O47  1  0.30031604  0.26737259  0.09953699  1
  O  O48  1  0.84369616  0.87252202  0.05100582  1
  O  O49  1  0.34369616  0.62747798  0.55100582  1
  O  O50  1  0.15630384  0.12747798  0.94899418  1
  O  O51  1  0.65630384  0.37252202  0.44899418  1
  O  O52  1  0.04085150  0.58062061  0.41310239  1
  O  O53  1  0.54085150  0.91937939  0.91310239  1
  O  O54  1  0.95914850  0.41937939  0.58689761  1
  O  O55  1  0.45914850  0.08062061  0.08689761  1
  O  O56  1  0.43364780  0.08169764  0.28727581  1
  O  O57  1  0.93364780  0.41830236  0.78727581  1
  O  O58  1  0.56635220  0.91830236  0.71272419  1
  O  O59  1  0.06635220  0.58169764  0.21272419  1
  O  O60  1  0.27711959  0.45247977  0.35548605  1
  O  O61  1  0.77711959  0.04752023  0.85548605  1
  O  O62  1  0.72288041  0.54752023  0.64451395  1
  O  O63  1  0.22288041  0.95247977  0.14451395  1
  O  O64  1  0.57591367  0.92280452  0.20540551  1
  O  O65  1  0.07591367  0.57719548  0.70540551  1
  O  O66  1  0.42408633  0.07719548  0.79459449  1
  O  O67  1  0.92408633  0.42280452  0.29459449  1
  O  O68  1  0.73412194  0.24874342  0.26288049  1
  O  O69  1  0.23412194  0.25125658  0.76288049  1
  O  O70  1  0.26587806  0.75125658  0.73711951  1
  O  O71  1  0.76587806  0.74874342  0.23711951  1
  O  O72  1  0.40921233  0.73713181  0.21992812  1
  O  O73  1  0.90921233  0.76286819  0.71992812  1
  O  O74  1  0.59078767  0.26286819  0.78007188  1
  O  O75  1  0.09078767  0.23713181  0.28007188  1
  O  O76  1  0.96796577  0.27955007  0.44713919  1
  O  O77  1  0.46796577  0.22044993  0.94713919  1
  O  O78  1  0.03203423  0.72044993  0.55286081  1
  O  O79  1  0.53203423  0.77955007  0.05286081  1
  O  O80  1  0.00537843  0.97207731  0.30145406  1
  O  O81  1  0.50537843  0.52792269  0.80145406  1
  O  O82  1  0.99462157  0.02792269  0.69854594  1
  O  O83  1  0.49462157  0.47207731  0.19854594  1
  O  O84  1  0.90959301  0.28776786  0.99447886  1
  O  O85  1  0.40959301  0.21223214  0.49447886  1
  O  O86  1  0.09040699  0.71223214  0.00552114  1
  O  O87  1  0.59040699  0.78776786  0.50552114  1
  O  O88  1  0.73969396  0.99419743  0.43982806  1
  O  O89  1  0.23969396  0.50580257  0.93982806  1
  O  O90  1  0.26030604  0.00580257  0.56017194  1
  O  O91  1  0.76030604  0.49419743  0.06017194  1
