# generated using pymatgen
data_Rb2CaH8(N3O)4
_symmetry_space_group_name_H-M   'P 1'
_cell_length_a   11.30211105
_cell_length_b   11.30211105
_cell_length_c   6.32673694
_cell_angle_alpha   90.00000000
_cell_angle_beta   90.00000000
_cell_angle_gamma   120.41540237
_symmetry_Int_Tables_number   1
_chemical_formula_structural   Rb2CaH8(N3O)4
_chemical_formula_sum   'Rb4 Ca2 H16 N24 O8'
_cell_volume   696.94159938
_cell_formula_units_Z   2
loop_
 _symmetry_equiv_pos_site_id
 _symmetry_equiv_pos_as_xyz
  1  'x, y, z'
loop_
 _atom_site_type_symbol
 _atom_site_label
 _atom_site_symmetry_multiplicity
 _atom_site_fract_x
 _atom_site_fract_y
 _atom_site_fract_z
 _atom_site_occupancy
  Rb  Rb0  1  0.08144593  0.41855407  0.75000000  1
  Rb  Rb1  1  0.91855407  0.58144593  0.25000000  1
  Rb  Rb2  1  0.58144593  0.91855407  0.25000000  1
  Rb  Rb3  1  0.41855407  0.08144593  0.75000000  1
  Ca  Ca4  1  0.75000000  0.75000000  0.75000000  1
  Ca  Ca5  1  0.25000000  0.25000000  0.25000000  1
  H  H6  1  0.62610455  0.46811194  0.60225984  1
  H  H7  1  0.96811194  0.12610455  0.10225984  1
  H  H8  1  0.53188806  0.37389545  0.10225984  1
  H  H9  1  0.87389545  0.03188806  0.60225984  1
  H  H10  1  0.37389545  0.53188806  0.39774016  1
  H  H11  1  0.03188806  0.87389545  0.89774016  1
  H  H12  1  0.46811194  0.62610455  0.89774016  1
  H  H13  1  0.12610455  0.96811194  0.39774016  1
  H  H14  1  0.74833083  0.47746858  0.73432091  1
  H  H15  1  0.97746858  0.24833083  0.23432091  1
  H  H16  1  0.52253142  0.25166917  0.23432091  1
  H  H17  1  0.75166917  0.02253142  0.73432091  1
  H  H18  1  0.25166917  0.52253142  0.26567909  1
  H  H19  1  0.02253142  0.75166917  0.76567909  1
  H  H20  1  0.47746858  0.74833083  0.76567909  1
  H  H21  1  0.24833083  0.97746858  0.26567909  1
  N  N22  1  0.79419059  0.36983809  0.89959948  1
  N  N23  1  0.86983809  0.29419059  0.39959948  1
  N  N24  1  0.63016191  0.20580941  0.39959948  1
  N  N25  1  0.70580941  0.13016191  0.89959948  1
  N  N26  1  0.20580941  0.63016191  0.10040052  1
  N  N27  1  0.13016191  0.70580941  0.60040052  1
  N  N28  1  0.36983809  0.79419059  0.60040052  1
  N  N29  1  0.29419059  0.86983809  0.10040052  1
  N  N30  1  0.75000000  0.25000000  0.89847464  1
  N  N31  1  0.75000000  0.25000000  0.39847464  1
  N  N32  1  0.25000000  0.75000000  0.10152536  1
  N  N33  1  0.25000000  0.75000000  0.60152536  1
  N  N34  1  0.34712596  0.41769720  0.90216913  1
  N  N35  1  0.91769720  0.84712596  0.40216913  1
  N  N36  1  0.58230280  0.65287404  0.40216913  1
  N  N37  1  0.15287404  0.08230280  0.90216913  1
  N  N38  1  0.65287404  0.58230280  0.09783087  1
  N  N39  1  0.08230280  0.15287404  0.59783087  1
  N  N40  1  0.41769720  0.34712596  0.59783087  1
  N  N41  1  0.84712596  0.91769720  0.09783087  1
  N  N42  1  0.88225978  0.88225978  0.25000000  1
  N  N43  1  0.38225978  0.38225978  0.75000000  1
  N  N44  1  0.11774022  0.11774022  0.75000000  1
  N  N45  1  0.61774022  0.61774022  0.25000000  1
  O  O46  1  0.72267339  0.53185960  0.64127003  1
  O  O47  1  0.03185960  0.22267339  0.14127003  1
  O  O48  1  0.46814040  0.27732661  0.14127003  1
  O  O49  1  0.77732661  0.96814040  0.64127003  1
  O  O50  1  0.27732661  0.46814040  0.35872997  1
  O  O51  1  0.96814040  0.77732661  0.85872997  1
  O  O52  1  0.53185960  0.72267339  0.85872997  1
  O  O53  1  0.22267339  0.03185960  0.35872997  1
