# generated using pymatgen
data_MnH12C2NCl3O2
_symmetry_space_group_name_H-M   'P 1'
_cell_length_a   10.64589870
_cell_length_b   10.64589870
_cell_length_c   9.24874162
_cell_angle_alpha   90.70336693
_cell_angle_beta   89.29663307
_cell_angle_gamma   109.83221073
_symmetry_Int_Tables_number   1
_chemical_formula_structural   MnH12C2NCl3O2
_chemical_formula_sum   'Mn4 H48 C8 N4 Cl12 O8'
_cell_volume   985.92765136
_cell_formula_units_Z   4
loop_
 _symmetry_equiv_pos_site_id
 _symmetry_equiv_pos_as_xyz
  1  'x, y, z'
loop_
 _atom_site_type_symbol
 _atom_site_label
 _atom_site_symmetry_multiplicity
 _atom_site_fract_x
 _atom_site_fract_y
 _atom_site_fract_z
 _atom_site_occupancy
  Mn  Mn0  1  0.73445893  0.23829542  0.78577706  1
  Mn  Mn1  1  0.23829542  0.73445893  0.71422294  1
  Mn  Mn2  1  0.26554107  0.76170458  0.21422294  1
  Mn  Mn3  1  0.76170458  0.26554107  0.28577706  1
  H  H4  1  0.14207484  0.38837461  0.58358830  1
  H  H5  1  0.38837461  0.14207484  0.91641170  1
  H  H6  1  0.85792516  0.61162539  0.41641170  1
  H  H7  1  0.61162539  0.85792516  0.08358830  1
  H  H8  1  0.09498758  0.33516227  0.41427251  1
  H  H9  1  0.33516227  0.09498758  0.08572749  1
  H  H10  1  0.90501242  0.66483773  0.58572749  1
  H  H11  1  0.66483773  0.90501242  0.91427251  1
  H  H12  1  0.94282996  0.25577908  0.96865133  1
  H  H13  1  0.25577908  0.94282996  0.53134867  1
  H  H14  1  0.05717004  0.74422092  0.03134867  1
  H  H15  1  0.74422092  0.05717004  0.46865133  1
  H  H16  1  0.00876591  0.35416328  0.84320259  1
  H  H17  1  0.35416328  0.00876591  0.65679741  1
  H  H18  1  0.99123409  0.64583672  0.15679741  1
  H  H19  1  0.64583672  0.99123409  0.34320259  1
  H  H20  1  0.77499198  0.45407209  0.97188217  1
  H  H21  1  0.45407209  0.77499198  0.52811783  1
  H  H22  1  0.22500802  0.54592791  0.02811783  1
  H  H23  1  0.54592791  0.22500802  0.47188217  1
  H  H24  1  0.84672835  0.51873483  0.82825849  1
  H  H25  1  0.51873483  0.84672835  0.67174151  1
  H  H26  1  0.15327165  0.48126517  0.17174151  1
  H  H27  1  0.48126517  0.15327165  0.32825849  1
  H  H28  1  0.17986106  0.17003442  0.62161910  1
  H  H29  1  0.17003442  0.17986106  0.87838090  1
  H  H30  1  0.82013894  0.82996558  0.37838090  1
  H  H31  1  0.82996558  0.82013894  0.12161910  1
  H  H32  1  0.10123094  0.12207106  0.45063997  1
  H  H33  1  0.12207106  0.10123094  0.04936003  1
  H  H34  1  0.89876906  0.87792894  0.54936003  1
  H  H35  1  0.87792894  0.89876906  0.95063997  1
  H  H36  1  0.00945159  0.16151632  0.59943400  1
  H  H37  1  0.16151632  0.00945159  0.90056600  1
  H  H38  1  0.99054841  0.83848368  0.40056600  1
  H  H39  1  0.83848368  0.99054841  0.09943400  1
  H  H40  1  0.31667421  0.30394239  0.38043615  1
  H  H41  1  0.30394239  0.31667421  0.11956385  1
  H  H42  1  0.68332579  0.69605761  0.61956385  1
  H  H43  1  0.69605761  0.68332579  0.88043615  1
  H  H44  1  0.35854390  0.38474147  0.55244681  1
  H  H45  1  0.38474147  0.35854390  0.94755319  1
  H  H46  1  0.64145610  0.61525853  0.44755319  1
  H  H47  1  0.61525853  0.64145610  0.05244681  1
  H  H48  1  0.32167597  0.47387586  0.40403435  1
  H  H49  1  0.47387586  0.32167597  0.09596565  1
  H  H50  1  0.67832403  0.52612414  0.59596565  1
  H  H51  1  0.52612414  0.67832403  0.90403435  1
  C  C52  1  0.10744568  0.18505706  0.54680751  1
  C  C53  1  0.18505706  0.10744568  0.95319249  1
  C  C54  1  0.89255432  0.81494294  0.45319249  1
  C  C55  1  0.81494294  0.89255432  0.04680751  1
  C  C56  1  0.29813750  0.37634359  0.45543324  1
  C  C57  1  0.37634359  0.29813750  0.04456676  1
  C  C58  1  0.70186250  0.62365641  0.54456676  1
  C  C59  1  0.62365641  0.70186250  0.95543324  1
  N  N60  1  0.15465339  0.32706409  0.49985961  1
  N  N61  1  0.32706409  0.15465339  0.00014039  1
  N  N62  1  0.84534661  0.67293591  0.50014039  1
  N  N63  1  0.67293591  0.84534661  -0.00014039  1
  Cl  Cl64  1  0.84153506  0.34311816  0.54595308  1
  Cl  Cl65  1  0.34311816  0.84153506  0.95404692  1
  Cl  Cl66  1  0.15846494  0.65688184  0.45404692  1
  Cl  Cl67  1  0.65688184  0.15846494  0.04595308  1
  Cl  Cl68  1  0.71641203  0.00221801  0.70256080  1
  Cl  Cl69  1  0.00221801  0.71641203  0.79743920  1
  Cl  Cl70  1  0.28358797  0.99778199  0.29743920  1
  Cl  Cl71  1  0.99778199  0.28358797  0.20256080  1
  Cl  Cl72  1  0.50031503  0.21040319  0.70350394  1
  Cl  Cl73  1  0.21040319  0.50031503  0.79649606  1
  Cl  Cl74  1  0.49968497  0.78959681  0.29649606  1
  Cl  Cl75  1  0.78959681  0.49968497  0.20350394  1
  O  O76  1  0.94032983  0.26628794  0.86242159  1
  O  O77  1  0.26628794  0.94032983  0.63757841  1
  O  O78  1  0.05967017  0.73371206  0.13757841  1
  O  O79  1  0.73371206  0.05967017  0.36242159  1
  O  O80  1  0.76805100  0.44549583  0.86483042  1
  O  O81  1  0.44549583  0.76805100  0.63516958  1
  O  O82  1  0.23194900  0.55450417  0.13516958  1
  O  O83  1  0.55450417  0.23194900  0.36483042  1
