# generated using pymatgen
data_CoP2H18(NF2)6
_symmetry_space_group_name_H-M   'P 1'
_cell_length_a   8.30361165
_cell_length_b   8.39367432
_cell_length_c   8.50439656
_cell_angle_alpha   58.89480102
_cell_angle_beta   60.31672721
_cell_angle_gamma   61.18946088
_symmetry_Int_Tables_number   1
_chemical_formula_structural   CoP2H18(NF2)6
_chemical_formula_sum   'Co1 P2 H18 N6 F12'
_cell_volume   420.05757253
_cell_formula_units_Z   1
loop_
 _symmetry_equiv_pos_site_id
 _symmetry_equiv_pos_as_xyz
  1  'x, y, z'
loop_
 _atom_site_type_symbol
 _atom_site_label
 _atom_site_symmetry_multiplicity
 _atom_site_fract_x
 _atom_site_fract_y
 _atom_site_fract_z
 _atom_site_occupancy
  Co  Co0  1  0.99124376  0.99919063  0.99845084  1
  P  P1  1  0.24759209  0.25095815  0.24930198  1
  P  P2  1  0.74737323  0.75136607  0.74827741  1
  H  H3  1  0.11718213  0.30514386  0.70342600  1
  H  H4  1  0.30647347  0.12228413  0.75461777  1
  H  H5  1  0.26426991  0.67655190  0.17711148  1
  H  H6  1  0.17138078  0.25959913  0.88626909  1
  H  H7  1  0.12825712  0.81025739  0.31312093  1
  H  H8  1  0.30677236  0.87553602  0.11662528  1
  H  H9  1  0.75111558  0.27894815  0.12689361  1
  H  H10  1  0.15599449  0.72309822  0.86694652  1
  H  H11  1  0.87548867  0.11760284  0.27815948  1
  H  H12  1  0.26945392  0.88955681  0.71145912  1
  H  H13  1  0.69109050  0.15540102  0.81793008  1
  H  H14  1  0.68477726  0.85657986  0.17399845  1
  H  H15  1  0.88205843  0.68593609  0.11503834  1
  H  H16  1  0.05022130  0.93154875  0.72316638  1
  H  H17  1  0.67124572  0.31982209  0.87997787  1
  H  H18  1  0.70370754  0.07228071  0.28010851  1
  H  H19  1  0.82937855  0.29966008  0.67296588  1
  H  H20  1  0.82554917  0.71886715  0.31090890  1
  N  N21  1  0.16528759  0.19450664  0.81624075  1
  N  N22  1  0.19843017  0.81716385  0.17217719  1
  N  N23  1  0.13735174  0.86976108  0.80562116  1
  N  N24  1  0.81456277  0.13281242  0.19014811  1
  N  N25  1  0.82697850  0.79216733  0.17000191  1
  N  N26  1  0.77014958  0.21985611  0.81526421  1
  F  F27  1  0.12102979  0.39297973  0.09938769  1
  F  F28  1  0.10292935  0.11584290  0.37880426  1
  F  F29  1  0.38841137  0.11433636  0.11594171  1
  F  F30  1  0.10717165  0.38707473  0.38283137  1
  F  F31  1  0.37621490  0.10877513  0.39661811  1
  F  F32  1  0.39100840  0.38811653  0.11947124  1
  F  F33  1  0.61425337  0.60487080  0.89744022  1
  F  F34  1  0.59783001  0.88474318  0.62154643  1
  F  F35  1  0.87730230  0.61910315  0.61052715  1
  F  F36  1  0.61744854  0.88702031  0.88290990  1
  F  F37  1  0.89642401  0.61854048  0.87440576  1
  F  F38  1  0.88079001  0.89894021  0.59910892  1
