# generated using pymatgen
data_Sc5Cu5O13
_symmetry_space_group_name_H-M   'P 1'
_cell_length_a   6.00210719
_cell_length_b   5.82982043
_cell_length_c   8.80917143
_cell_angle_alpha   109.35355064
_cell_angle_beta   77.54642053
_cell_angle_gamma   80.74370261
_symmetry_Int_Tables_number   1
_chemical_formula_structural   Sc5Cu5O13
_chemical_formula_sum   'Sc5 Cu5 O13'
_cell_volume   274.80540305
_cell_formula_units_Z   1
loop_
 _symmetry_equiv_pos_site_id
 _symmetry_equiv_pos_as_xyz
  1  'x, y, z'
loop_
 _atom_site_type_symbol
 _atom_site_label
 _atom_site_symmetry_multiplicity
 _atom_site_fract_x
 _atom_site_fract_y
 _atom_site_fract_z
 _atom_site_occupancy
  Sc  Sc0  1  0.53787753  0.18925988  0.88951549  1
  Sc  Sc1  1  0.49200510  0.60134337  0.70295043  1
  Sc  Sc2  1  0.49497250  0.00244768  0.50014060  1
  Sc  Sc3  1  0.45258770  0.41038776  0.30885122  1
  Sc  Sc4  1  0.53855002  0.79429179  0.09644719  1
  Cu  Cu5  1  0.99989051  0.39510079  0.82583940  1
  Cu  Cu6  1  0.99682627  0.80268015  0.59058713  1
  Cu  Cu7  1  0.99088421  0.19777822  0.39466812  1
  Cu  Cu8  1  0.00405742  0.60932515  0.20471912  1
  Cu  Cu9  1  0.00010155  0.98821329  0.98649442  1
  O  O10  1  0.94795490  0.06899045  0.79453313  1
  O  O11  1  0.33554550  0.92262494  0.93514055  1
  O  O12  1  0.67577908  0.49770350  0.85498752  1
  O  O13  1  0.67104043  0.86868583  0.65045617  1
  O  O14  1  0.33056165  0.31171862  0.73951986  1
  O  O15  1  0.32002047  0.72580246  0.54729190  1
  O  O16  1  0.66132109  0.28258237  0.46428570  1
  O  O17  1  0.05194463  0.52618327  0.38656234  1
  O  O18  1  0.32025329  0.08525666  0.33273273  1
  O  O19  1  0.66970135  0.67566147  0.27804900  1
  O  O20  1  0.95288088  0.69173149  0.02539442  1
  O  O21  1  0.66526550  0.11359883  0.08113537  1
  O  O22  1  0.33670141  0.51952103  0.12041520  1
