# generated using pymatgen
data_MgCdH4(N2O5)2
_symmetry_space_group_name_H-M   'P 1'
_cell_length_a   6.78675430
_cell_length_b   6.78675430
_cell_length_c   12.22924944
_cell_angle_alpha   88.62148922
_cell_angle_beta   91.37851078
_cell_angle_gamma   117.00999540
_symmetry_Int_Tables_number   1
_chemical_formula_structural   MgCdH4(N2O5)2
_chemical_formula_sum   'Mg2 Cd2 H8 N8 O20'
_cell_volume   501.64144616
_cell_formula_units_Z   2
loop_
 _symmetry_equiv_pos_site_id
 _symmetry_equiv_pos_as_xyz
  1  'x, y, z'
loop_
 _atom_site_type_symbol
 _atom_site_label
 _atom_site_symmetry_multiplicity
 _atom_site_fract_x
 _atom_site_fract_y
 _atom_site_fract_z
 _atom_site_occupancy
  Mg  Mg0  1  0.00000000  0.50000000  0.50000000  1
  Mg  Mg1  1  0.50000000  0.00000000  0.00000000  1
  Cd  Cd2  1  0.98627594  0.98627594  0.75000000  1
  Cd  Cd3  1  0.01372406  0.01372406  0.25000000  1
  H  H4  1  0.22536265  0.59115120  0.93846114  1
  H  H5  1  0.59115120  0.22536265  0.56153886  1
  H  H6  1  0.77463735  0.40884880  0.06153886  1
  H  H7  1  0.40884880  0.77463735  0.43846114  1
  H  H8  1  0.22959396  0.57944204  0.06716807  1
  H  H9  1  0.57944204  0.22959396  0.43283193  1
  H  H10  1  0.77040604  0.42055796  0.93283193  1
  H  H11  1  0.42055796  0.77040604  0.56716807  1
  N  N12  1  0.26707887  0.28605721  0.57927953  1
  N  N13  1  0.28605721  0.26707887  0.92072047  1
  N  N14  1  0.73292113  0.71394279  0.42072047  1
  N  N15  1  0.71394279  0.73292113  0.07927953  1
  N  N16  1  0.86735763  0.51056668  0.72875445  1
  N  N17  1  0.51056668  0.86735763  0.77124555  1
  N  N18  1  0.13264237  0.48943332  0.27124555  1
  N  N19  1  0.48943332  0.13264237  0.22875445  1
  O  O20  1  0.31525803  0.15991106  0.63901093  1
  O  O21  1  0.15991106  0.31525803  0.86098907  1
  O  O22  1  0.68474197  0.84008894  0.36098907  1
  O  O23  1  0.84008894  0.68474197  0.13901093  1
  O  O24  1  0.07565696  0.27172868  0.59823518  1
  O  O25  1  0.27172868  0.07565696  0.90176482  1
  O  O26  1  0.92434304  0.72827132  0.40176482  1
  O  O27  1  0.72827132  0.92434304  0.09823518  1
  O  O28  1  0.85344857  0.60692757  0.81328534  1
  O  O29  1  0.60692757  0.85344857  0.68671466  1
  O  O30  1  0.14655143  0.39307243  0.18671466  1
  O  O31  1  0.39307243  0.14655143  0.31328534  1
  O  O32  1  0.95022626  0.64204841  0.64729596  1
  O  O33  1  0.64204841  0.95022626  0.85270404  1
  O  O34  1  0.04977374  0.35795159  0.35270404  1
  O  O35  1  0.35795159  0.04977374  0.14729596  1
  O  O36  1  0.25399789  0.68176871  0.00420971  1
  O  O37  1  0.68176871  0.25399789  0.49579029  1
  O  O38  1  0.74600211  0.31823129  0.99579029  1
  O  O39  1  0.31823129  0.74600211  0.50420971  1
