# generated using pymatgen
data_Ca2La8Ti5Cr5O30
_symmetry_space_group_name_H-M   'P 1'
_cell_length_a   5.52203293
_cell_length_b   5.52281647
_cell_length_c   27.61961256
_cell_angle_alpha   60.67660893
_cell_angle_beta   60.70783911
_cell_angle_gamma   60.68657523
_symmetry_Int_Tables_number   1
_chemical_formula_structural   Ca2La8Ti5Cr5O30
_chemical_formula_sum   'Ca2 La8 Ti5 Cr5 O30'
_cell_volume   604.89106033
_cell_formula_units_Z   1
loop_
 _symmetry_equiv_pos_site_id
 _symmetry_equiv_pos_as_xyz
  1  'x, y, z'
loop_
 _atom_site_type_symbol
 _atom_site_label
 _atom_site_symmetry_multiplicity
 _atom_site_fract_x
 _atom_site_fract_y
 _atom_site_fract_z
 _atom_site_occupancy
  Ca  Ca0  1  0.25188906  0.25328929  0.04762931  1
  Ca  Ca1  1  0.74811094  0.74671071  0.35237069  1
  La  La2  1  0.24694914  0.24559522  0.25222432  1
  La  La3  1  0.75305086  0.75440478  0.14777568  1
  La  La4  1  0.25207181  0.25080453  0.45076167  1
  La  La5  1  0.24901592  0.25127091  0.64996926  1
  La  La6  1  0.74859166  0.75061411  0.55074138  1
  La  La7  1  0.25140834  0.24938589  0.84925862  1
  La  La8  1  0.75098408  0.74872909  0.75003074  1
  La  La9  1  0.74792819  0.74919547  0.94923833  1
  Ti  Ti10  1  -0.00194258  0.99721149  0.00059300  1
  Ti  Ti11  1  0.00000000  0.00000000  0.20000000  1
  Ti  Ti12  1  0.50455856  0.50007798  0.09935149  1
  Ti  Ti13  1  0.00194258  0.00278851  0.39940700  1
  Ti  Ti14  1  0.49544144  0.49992202  0.30064851  1
  Cr  Cr15  1  0.99961325  0.00072835  0.59982697  1
  Cr  Cr16  1  0.50178817  0.50191578  0.49920552  1
  Cr  Cr17  1  0.00038675  0.99927165  0.80017303  1
  Cr  Cr18  1  0.50000000  0.50000000  0.70000000  1
  Cr  Cr19  1  0.49821183  0.49808422  0.90079448  1
  O  O20  1  0.19027971  0.74998966  0.06181452  1
  O  O21  1  0.31207109  0.18902493  0.15140775  1
  O  O22  1  0.75349822  0.30766907  0.03769966  1
  O  O23  1  0.25274013  0.68343410  0.16308165  1
  O  O24  1  0.68446256  0.81799156  0.05016310  1
  O  O25  1  0.18333787  0.74919805  0.26328119  1
  O  O26  1  0.81666213  0.25080195  0.13671881  1
  O  O27  1  0.31553744  0.18200844  0.34983690  1
  O  O28  1  0.74725987  0.31656590  0.23691835  1
  O  O29  1  0.24650178  0.69233093  0.36230034  1
  O  O30  1  0.68792891  0.81097507  0.24859225  1
  O  O31  1  0.18179084  0.75305577  0.46317746  1
  O  O32  1  0.80972029  0.25001034  0.33818548  1
  O  O33  1  0.32263645  0.17949980  0.54883979  1
  O  O34  1  0.75229138  0.31696038  0.43589969  1
  O  O35  1  0.25010189  0.67913039  0.56377871  1
  O  O36  1  0.68634680  0.81748773  0.45036852  1
  O  O37  1  0.17825538  0.75015070  0.66404166  1
  O  O38  1  0.82293287  0.25125287  0.53506938  1
  O  O39  1  0.32251427  0.17651605  0.75064512  1
  O  O40  1  0.75038613  0.32144847  0.63554955  1
  O  O41  1  0.24961387  0.67855153  0.76445045  1
  O  O42  1  0.67748573  0.82348395  0.64935488  1
  O  O43  1  0.17706713  0.74874713  0.86493062  1
  O  O44  1  0.82174462  0.24984930  0.73595834  1
  O  O45  1  0.31365320  0.18251227  0.94963148  1
  O  O46  1  0.74989811  0.32086961  0.83622129  1
  O  O47  1  0.24770862  0.68303962  0.96410031  1
  O  O48  1  0.67736355  0.82050020  0.85116021  1
  O  O49  1  0.81820916  0.24694423  0.93682254  1
