# generated using pymatgen
data_Li2Cu2F5
_symmetry_space_group_name_H-M   'P 1'
_cell_length_a   3.00633185
_cell_length_b   6.93589545
_cell_length_c   10.14976472
_cell_angle_alpha   93.18906452
_cell_angle_beta   90.03107945
_cell_angle_gamma   97.00646911
_symmetry_Int_Tables_number   1
_chemical_formula_structural   Li2Cu2F5
_chemical_formula_sum   'Li4 Cu4 F10'
_cell_volume   209.72739973
_cell_formula_units_Z   2
loop_
 _symmetry_equiv_pos_site_id
 _symmetry_equiv_pos_as_xyz
  1  'x, y, z'
loop_
 _atom_site_type_symbol
 _atom_site_label
 _atom_site_symmetry_multiplicity
 _atom_site_fract_x
 _atom_site_fract_y
 _atom_site_fract_z
 _atom_site_occupancy
  Li  Li0  1  0.30806917  0.80404325  0.68454922  1
  Li  Li1  1  0.23924935  0.41318126  0.10932883  1
  Li  Li2  1  0.76075065  0.58681874  0.89067117  1
  Li  Li3  1  0.69193083  0.19595675  0.31545078  1
  Cu  Cu4  1  0.24679457  0.90416061  0.11359433  1
  Cu  Cu5  1  0.23833294  0.34833546  0.61537714  1
  Cu  Cu6  1  0.76166706  0.65166454  0.38462286  1
  Cu  Cu7  1  0.75320543  0.09583939  0.88640567  1
  F  F8  1  0.16793874  0.15122460  0.18007415  1
  F  F9  1  0.29097752  0.66639807  0.02464163  1
  F  F10  1  0.23553420  0.52366778  0.76233594  1
  F  F11  1  0.21132567  0.26828709  0.43799892  1
  F  F12  1  0.54530382  0.86634120  0.29251672  1
  F  F13  1  0.45469618  0.13365880  0.70748328  1
  F  F14  1  0.78867433  0.73171291  0.56200108  1
  F  F15  1  0.76446580  0.47633222  0.23766406  1
  F  F16  1  0.70902248  0.33360193  0.97535837  1
  F  F17  1  0.83206126  0.84877540  0.81992585  1
