# generated using pymatgen
data_Mg6MnGa
_symmetry_space_group_name_H-M   'P 1'
_cell_length_a   6.19984764
_cell_length_b   6.19984715
_cell_length_c   4.88649490
_cell_angle_alpha   90.00000000
_cell_angle_beta   90.00000000
_cell_angle_gamma   119.80263116
_symmetry_Int_Tables_number   1
_chemical_formula_structural   Mg6MnGa
_chemical_formula_sum   'Mg6 Mn1 Ga1'
_cell_volume   162.98603071
_cell_formula_units_Z   1
loop_
 _symmetry_equiv_pos_site_id
 _symmetry_equiv_pos_as_xyz
  1  'x, y, z'
loop_
 _atom_site_type_symbol
 _atom_site_label
 _atom_site_symmetry_multiplicity
 _atom_site_fract_x
 _atom_site_fract_y
 _atom_site_fract_z
 _atom_site_occupancy
  Mg  Mg0  1  0.16938054  0.83958508  0.25000000  1
  Mg  Mg1  1  0.66041492  0.33061946  0.25000000  1
  Mg  Mg2  1  0.66628970  0.83371030  0.25000000  1
  Mg  Mg3  1  0.32992356  0.65494399  0.75000000  1
  Mg  Mg4  1  0.84505601  0.17007644  0.75000000  1
  Mg  Mg5  1  0.83240487  0.66759513  0.75000000  1
  Mn  Mn6  1  0.17179862  0.32820138  0.25000000  1
  Ga  Ga7  1  0.32473177  0.17526823  0.75000000  1
