# generated using pymatgen
data_Li2Cu3F8
_symmetry_space_group_name_H-M   'P 1'
_cell_length_a   6.12803878
_cell_length_b   6.19449474
_cell_length_c   9.15462872
_cell_angle_alpha   89.73389488
_cell_angle_beta   90.13449722
_cell_angle_gamma   120.35938914
_symmetry_Int_Tables_number   1
_chemical_formula_structural   Li2Cu3F8
_chemical_formula_sum   'Li4 Cu6 F16'
_cell_volume   299.85402592
_cell_formula_units_Z   2
loop_
 _symmetry_equiv_pos_site_id
 _symmetry_equiv_pos_as_xyz
  1  'x, y, z'
loop_
 _atom_site_type_symbol
 _atom_site_label
 _atom_site_symmetry_multiplicity
 _atom_site_fract_x
 _atom_site_fract_y
 _atom_site_fract_z
 _atom_site_occupancy
  Li  Li0  1  0.33278634  0.66839824  0.53917920  1
  Li  Li1  1  0.33559732  0.66771604  0.91623779  1
  Li  Li2  1  0.66721366  0.33561091  0.03917920  1
  Li  Li3  1  0.66440268  0.33211872  0.41623779  1
  Cu  Cu4  1  0.16227171  0.83179966  0.24983770  1
  Cu  Cu5  1  0.16779435  0.33013952  0.24979401  1
  Cu  Cu6  1  0.32962104  0.16732777  0.74726352  1
  Cu  Cu7  1  0.67037896  0.83770673  0.24726352  1
  Cu  Cu8  1  0.83772829  0.66952695  0.74983770  1
  Cu  Cu9  1  0.83220565  0.16234517  0.74979401  1
  F  F10  1  0.13821805  0.80081481  0.63815449  1
  F  F11  1  0.02766961  0.48519200  0.37252794  1
  F  F12  1  0.45372936  0.97397538  0.37617799  1
  F  F13  1  0.34403898  0.67408852  0.12842564  1
  F  F14  1  0.01102703  0.00368644  0.86217572  1
  F  F15  1  0.18739152  0.33354933  0.64031557  1
  F  F16  1  0.51108690  0.53996286  0.37203249  1
  F  F17  1  0.33269422  0.19016415  0.14177794  1
  F  F18  1  0.66730578  0.85746992  0.64177794  1
  F  F19  1  0.54627064  0.52024602  0.87617799  1
  F  F20  1  0.48891310  0.02887596  0.87203249  1
  F  F21  1  0.65596102  0.33004953  0.62842564  1
  F  F22  1  0.98897297  0.99265941  0.36217572  1
  F  F23  1  0.86178195  0.66259576  0.13815449  1
  F  F24  1  0.97233039  0.45752238  0.87252794  1
  F  F25  1  0.81260848  0.14615781  0.14031557  1
