# generated using pymatgen
data_TiOF
_symmetry_space_group_name_H-M   'P 1'
_cell_length_a   5.17381422
_cell_length_b   4.77031506
_cell_length_c   5.70201244
_cell_angle_alpha   90.00000000
_cell_angle_beta   92.11765398
_cell_angle_gamma   90.00000000
_symmetry_Int_Tables_number   1
_chemical_formula_structural   TiOF
_chemical_formula_sum   'Ti4 O4 F4'
_cell_volume   140.63368417
_cell_formula_units_Z   4
loop_
 _symmetry_equiv_pos_site_id
 _symmetry_equiv_pos_as_xyz
  1  'x, y, z'
loop_
 _atom_site_type_symbol
 _atom_site_label
 _atom_site_symmetry_multiplicity
 _atom_site_fract_x
 _atom_site_fract_y
 _atom_site_fract_z
 _atom_site_occupancy
  Ti  Ti0  1  0.21477453  0.48439321  0.64034184  1
  Ti  Ti1  1  0.21477453  0.01560679  0.14034184  1
  Ti  Ti2  1  0.78522547  0.98439321  0.85965816  1
  Ti  Ti3  1  0.78522547  0.51560679  0.35965816  1
  O  O4  1  0.08868267  0.23461190  0.86867051  1
  O  O5  1  0.08868267  0.26538810  0.36867051  1
  O  O6  1  0.91131733  0.73461190  0.63132949  1
  O  O7  1  0.91131733  0.76538810  0.13132949  1
  F  F8  1  0.41738469  0.76973663  0.87834680  1
  F  F9  1  0.41738469  0.73026337  0.37834680  1
  F  F10  1  0.58261531  0.26973663  0.62165320  1
  F  F11  1  0.58261531  0.23026337  0.12165320  1
