# generated using pymatgen
data_TiSnO4
_symmetry_space_group_name_H-M   'P 1'
_cell_length_a   7.44589442
_cell_length_b   5.68486807
_cell_length_c   5.68486807
_cell_angle_alpha   72.14343979
_cell_angle_beta   71.94077911
_cell_angle_gamma   71.94077911
_symmetry_Int_Tables_number   1
_chemical_formula_structural   TiSnO4
_chemical_formula_sum   'Ti3 Sn3 O12'
_cell_volume   211.52710006
_cell_formula_units_Z   3
loop_
 _symmetry_equiv_pos_site_id
 _symmetry_equiv_pos_as_xyz
  1  'x, y, z'
loop_
 _atom_site_type_symbol
 _atom_site_label
 _atom_site_symmetry_multiplicity
 _atom_site_fract_x
 _atom_site_fract_y
 _atom_site_fract_z
 _atom_site_occupancy
  Ti  Ti0  1  0.68574319  0.32397233  0.32397233  1
  Ti  Ti1  1  0.18072296  0.34503045  0.34503045  1
  Ti  Ti2  1  -0.00029997  0.00517019  0.00517019  1
  Sn  Sn3  1  0.83379125  0.66314053  0.66314053  1
  Sn  Sn4  1  0.32892759  0.66783195  0.66783195  1
  Sn  Sn5  1  0.49822440  0.00138959  0.00138959  1
  O  O6  1  0.32269710  0.36660961  0.98383002  1
  O  O7  1  0.66096707  0.03347811  0.62657073  1
  O  O8  1  0.28468733  0.90631592  0.90631592  1
  O  O9  1  0.63302580  0.55279427  0.55279427  1
  O  O10  1  0.95593041  0.22905227  0.22905227  1
  O  O11  1  0.71109447  0.10055529  0.10055529  1
  O  O12  1  0.37190793  0.42861186  0.42861186  1
  O  O13  1  0.02577307  0.77970741  0.77970741  1
  O  O14  1  0.66096707  0.62657073  0.03347811  1
  O  O15  1  0.01157112  0.29523061  0.69070786  1
  O  O16  1  0.32269710  0.98383002  0.36660961  1
  O  O17  1  0.01157112  0.69070786  0.29523061  1
