# generated using pymatgen
data_ZrTiO4
_symmetry_space_group_name_H-M   'P 1'
_cell_length_a   4.85301851
_cell_length_b   5.66443819
_cell_length_c   10.19072259
_cell_angle_alpha   90.33367962
_cell_angle_beta   91.72898038
_cell_angle_gamma   90.09382240
_symmetry_Int_Tables_number   1
_chemical_formula_structural   ZrTiO4
_chemical_formula_sum   'Zr4 Ti4 O16'
_cell_volume   280.00637679
_cell_formula_units_Z   4
loop_
 _symmetry_equiv_pos_site_id
 _symmetry_equiv_pos_as_xyz
  1  'x, y, z'
loop_
 _atom_site_type_symbol
 _atom_site_label
 _atom_site_symmetry_multiplicity
 _atom_site_fract_x
 _atom_site_fract_y
 _atom_site_fract_z
 _atom_site_occupancy
  Zr  Zr0  1  0.00407814  0.69958937  0.87362868  1
  Zr  Zr1  1  0.99200492  0.29998050  0.11796008  1
  Zr  Zr2  1  0.99835774  0.69431312  0.37672344  1
  Zr  Zr3  1  0.49157372  0.18749912  0.38282088  1
  Ti  Ti4  1  0.99947991  0.30849211  0.63039561  1
  Ti  Ti5  1  0.49996657  0.17850782  0.86960687  1
  Ti  Ti6  1  0.50126435  0.82303646  0.12368911  1
  Ti  Ti7  1  0.50315600  0.80960637  0.62708716  1
  O  O8  1  0.23475694  0.61593978  0.04428384  1
  O  O9  1  0.24939437  0.60628147  0.54583914  1
  O  O10  1  0.21068774  0.39938719  0.28886608  1
  O  O11  1  0.23235864  0.37776265  0.78934344  1
  O  O12  1  0.30725488  0.88910460  0.78379937  1
  O  O13  1  0.26904903  0.89937047  0.27432407  1
  O  O14  1  0.24462298  0.10278416  0.54461465  1
  O  O15  1  0.28543230  0.10685273  0.02361306  1
  O  O16  1  0.70102731  0.88511393  0.47125669  1
  O  O17  1  0.72882459  0.90458025  0.97202682  1
  O  O18  1  0.74396443  0.11568883  0.71454184  1
  O  O19  1  0.72484807  0.09445334  0.21904632  1
  O  O20  1  0.74580160  0.60818644  0.20609612  1
  O  O21  1  0.79646210  0.38770766  0.46998410  1
  O  O22  1  0.76046122  0.39207581  0.94835556  1
  O  O23  1  0.77517245  0.61368482  0.70209807  1
