# generated using pymatgen
data_La5Cu5O13
_symmetry_space_group_name_H-M   'P 1'
_cell_length_a   8.56540916
_cell_length_b   3.88753511
_cell_length_c   8.55194144
_cell_angle_alpha   90.00000000
_cell_angle_beta   90.21723144
_cell_angle_gamma   90.00000000
_symmetry_Int_Tables_number   1
_chemical_formula_structural   La5Cu5O13
_chemical_formula_sum   'La5 Cu5 O13'
_cell_volume   284.76331163
_cell_formula_units_Z   1
loop_
 _symmetry_equiv_pos_site_id
 _symmetry_equiv_pos_as_xyz
  1  'x, y, z'
loop_
 _atom_site_type_symbol
 _atom_site_label
 _atom_site_symmetry_multiplicity
 _atom_site_fract_x
 _atom_site_fract_y
 _atom_site_fract_z
 _atom_site_occupancy
  La  La0  1  0.13995414  0.50000000  0.27380586  1
  La  La1  1  0.27407637  0.50000000  0.86127083  1
  La  La2  1  0.50000000  0.50000000  0.50000000  1
  La  La3  1  0.72592363  0.50000000  0.13872917  1
  La  La4  1  0.86004586  0.50000000  0.72619414  1
  Cu  Cu5  1  0.00000000  0.00000000  0.00000000  1
  Cu  Cu6  1  0.16852157  0.00000000  0.57343419  1
  Cu  Cu7  1  0.42514166  0.00000000  0.16595521  1
  Cu  Cu8  1  0.57485834  0.00000000  0.83404479  1
  Cu  Cu9  1  0.83147843  0.00000000  0.42656581  1
  O  O10  1  0.00000000  0.50000000  0.00000000  1
  O  O11  1  0.04251029  0.00000000  0.75725242  1
  O  O12  1  0.18017419  0.50000000  0.57092313  1
  O  O13  1  0.23573489  0.00000000  0.04672120  1
  O  O14  1  0.29961600  0.00000000  0.39392263  1
  O  O15  1  0.38942581  0.00000000  0.71126905  1
  O  O16  1  0.42664475  0.50000000  0.17674579  1
  O  O17  1  0.57335525  0.50000000  0.82325421  1
  O  O18  1  0.61057419  0.00000000  0.28873095  1
  O  O19  1  0.70038400  0.00000000  0.60607737  1
  O  O20  1  0.76426511  0.00000000  0.95327880  1
  O  O21  1  0.81982581  0.50000000  0.42907687  1
  O  O22  1  0.95748971  0.00000000  0.24274758  1
