# generated using pymatgen
data_SrCaI4
_symmetry_space_group_name_H-M   'P 1'
_cell_length_a   7.19542111
_cell_length_b   18.83531628
_cell_length_c   7.94285832
_cell_angle_alpha   90.00000000
_cell_angle_beta   90.00000000
_cell_angle_gamma   90.00000000
_symmetry_Int_Tables_number   1
_chemical_formula_structural   SrCaI4
_chemical_formula_sum   'Sr4 Ca4 I16'
_cell_volume   1076.47995954
_cell_formula_units_Z   4
loop_
 _symmetry_equiv_pos_site_id
 _symmetry_equiv_pos_as_xyz
  1  'x, y, z'
loop_
 _atom_site_type_symbol
 _atom_site_label
 _atom_site_symmetry_multiplicity
 _atom_site_fract_x
 _atom_site_fract_y
 _atom_site_fract_z
 _atom_site_occupancy
  Sr  Sr0  1  0.00000000  0.07085191  0.25000000  1
  Sr  Sr1  1  0.00000000  0.92914809  0.75000000  1
  Sr  Sr2  1  0.50000000  0.42914809  0.75000000  1
  Sr  Sr3  1  0.50000000  0.57085191  0.25000000  1
  Ca  Ca4  1  0.00000000  0.31767935  0.25000000  1
  Ca  Ca5  1  0.00000000  0.68232065  0.75000000  1
  Ca  Ca6  1  0.50000000  0.81767935  0.25000000  1
  Ca  Ca7  1  0.50000000  0.18232065  0.75000000  1
  I  I8  1  0.25791521  0.05916155  0.59143532  1
  I  I9  1  0.25791521  0.94083845  0.09143532  1
  I  I10  1  0.25276843  0.19812717  0.08623201  1
  I  I11  1  0.25276843  0.80187283  0.58623201  1
  I  I12  1  0.24723157  0.30187283  0.58623201  1
  I  I13  1  0.24723157  0.69812717  0.08623201  1
  I  I14  1  0.24208479  0.44083845  0.09143532  1
  I  I15  1  0.24208479  0.55916155  0.59143532  1
  I  I16  1  0.75791521  0.44083845  0.40856468  1
  I  I17  1  0.75791521  0.55916155  0.90856468  1
  I  I18  1  0.75276843  0.69812717  0.41376799  1
  I  I19  1  0.75276843  0.30187283  0.91376799  1
  I  I20  1  0.74723157  0.19812717  0.41376799  1
  I  I21  1  0.74723157  0.80187283  0.91376799  1
  I  I22  1  0.74208479  0.05916155  0.90856468  1
  I  I23  1  0.74208479  0.94083845  0.40856468  1
