# generated using pymatgen
data_Na3(CuO2)2
_symmetry_space_group_name_H-M   'P 1'
_cell_length_a   5.62437784
_cell_length_b   5.62437784
_cell_length_c   8.16685787
_cell_angle_alpha   66.70764137
_cell_angle_beta   113.29235863
_cell_angle_gamma   150.22916171
_symmetry_Int_Tables_number   1
_chemical_formula_structural   Na3(CuO2)2
_chemical_formula_sum   'Na3 Cu2 O4'
_cell_volume   117.04904788
_cell_formula_units_Z   1
loop_
 _symmetry_equiv_pos_site_id
 _symmetry_equiv_pos_as_xyz
  1  'x, y, z'
loop_
 _atom_site_type_symbol
 _atom_site_label
 _atom_site_symmetry_multiplicity
 _atom_site_fract_x
 _atom_site_fract_y
 _atom_site_fract_z
 _atom_site_occupancy
  Na  Na0  1  0.37789912  0.62210088  0.11649164  1
  Na  Na1  1  0.00000000  0.00000000  0.50000000  1
  Na  Na2  1  0.62210088  0.37789912  0.88350836  1
  Cu  Cu3  1  0.17131283  0.82868717  0.27938302  1
  Cu  Cu4  1  0.82868717  0.17131283  0.72061698  1
  O  O5  1  0.25188668  0.74811332  0.80364854  1
  O  O6  1  0.41510679  0.58489321  0.65485854  1
  O  O7  1  0.58489321  0.41510679  0.34514146  1
  O  O8  1  0.74811332  0.25188668  0.19635146  1
