# generated using pymatgen
data_Li5BiS4
_symmetry_space_group_name_H-M   'P 1'
_cell_length_a   3.94732086
_cell_length_b   7.89156740
_cell_length_c   7.23067244
_cell_angle_alpha   63.04581387
_cell_angle_beta   90.00000000
_cell_angle_gamma   75.51672455
_symmetry_Int_Tables_number   1
_chemical_formula_structural   Li5BiS4
_chemical_formula_sum   'Li5 Bi1 S4'
_cell_volume   192.70682261
_cell_formula_units_Z   1
loop_
 _symmetry_equiv_pos_site_id
 _symmetry_equiv_pos_as_xyz
  1  'x, y, z'
loop_
 _atom_site_type_symbol
 _atom_site_label
 _atom_site_symmetry_multiplicity
 _atom_site_fract_x
 _atom_site_fract_y
 _atom_site_fract_z
 _atom_site_occupancy
  Li  Li0  1  0.18016807  0.63966285  0.97511778  1
  Li  Li1  1  0.17640714  0.64718572  0.39005673  1
  Li  Li2  1  0.82359286  0.35281428  0.60994327  1
  Li  Li3  1  0.81983193  0.36033715  0.02488222  1
  Li  Li4  1  0.50000000  0.00000000  0.50000000  1
  Bi  Bi5  1  0.50000000  0.00000000  0.00000000  1
  S  S6  1  0.99743840  0.00512220  0.27229159  1
  S  S7  1  0.71365376  0.57269249  0.21571917  1
  S  S8  1  0.28634624  0.42730751  0.78428083  1
  S  S9  1  0.00256160  0.99487780  0.72770841  1
