# generated using pymatgen
data_BaLaBr5
_symmetry_space_group_name_H-M   'P 1'
_cell_length_a   8.35173201
_cell_length_b   4.69248640
_cell_length_c   13.83565161
_cell_angle_alpha   90.00000000
_cell_angle_beta   91.41141901
_cell_angle_gamma   90.00000000
_symmetry_Int_Tables_number   1
_chemical_formula_structural   BaLaBr5
_chemical_formula_sum   'Ba2 La2 Br10'
_cell_volume   542.06005652
_cell_formula_units_Z   2
loop_
 _symmetry_equiv_pos_site_id
 _symmetry_equiv_pos_as_xyz
  1  'x, y, z'
loop_
 _atom_site_type_symbol
 _atom_site_label
 _atom_site_symmetry_multiplicity
 _atom_site_fract_x
 _atom_site_fract_y
 _atom_site_fract_z
 _atom_site_occupancy
  Ba  Ba0  1  0.06209253  0.75000000  0.84497305  1
  Ba  Ba1  1  0.93790747  0.25000000  0.15502695  1
  La  La2  1  0.43209010  0.25000000  0.65237854  1
  La  La3  1  0.56790990  0.75000000  0.34762146  1
  Br  Br4  1  0.07795119  0.25000000  0.66167585  1
  Br  Br5  1  0.15886823  0.75000000  0.07420808  1
  Br  Br6  1  0.32418811  0.75000000  0.51749890  1
  Br  Br7  1  0.36221226  0.25000000  0.85915180  1
  Br  Br8  1  0.36305173  0.25000000  0.28646294  1
  Br  Br9  1  0.63694827  0.75000000  0.71353706  1
  Br  Br10  1  0.63778774  0.75000000  0.14084820  1
  Br  Br11  1  0.67581189  0.25000000  0.48250110  1
  Br  Br12  1  0.84113177  0.25000000  0.92579192  1
  Br  Br13  1  0.92204881  0.75000000  0.33832415  1
