# generated using pymatgen
data_Gd2HfO5
_symmetry_space_group_name_H-M   'P 1'
_cell_length_a   5.54755751
_cell_length_b   6.59035692
_cell_length_c   7.72926308
_cell_angle_alpha   69.44720322
_cell_angle_beta   90.00000000
_cell_angle_gamma   65.10956085
_symmetry_Int_Tables_number   1
_chemical_formula_structural   Gd2HfO5
_chemical_formula_sum   'Gd4 Hf2 O10'
_cell_volume   236.36086201
_cell_formula_units_Z   2
loop_
 _symmetry_equiv_pos_site_id
 _symmetry_equiv_pos_as_xyz
  1  'x, y, z'
loop_
 _atom_site_type_symbol
 _atom_site_label
 _atom_site_symmetry_multiplicity
 _atom_site_fract_x
 _atom_site_fract_y
 _atom_site_fract_z
 _atom_site_occupancy
  Gd  Gd0  1  0.63356751  0.71984140  0.75021022  1
  Gd  Gd1  1  0.64659108  0.71984140  0.25021022  1
  Gd  Gd2  1  0.35340892  0.28015860  0.74978978  1
  Gd  Gd3  1  0.36643249  0.28015860  0.24978978  1
  Hf  Hf4  1  0.00000000  0.00000000  0.50000000  1
  Hf  Hf5  1  0.00000000  0.00000000  0.00000000  1
  O  O6  1  0.75032843  0.85325454  0.95611946  1
  O  O7  1  0.39641704  0.85325454  0.45611946  1
  O  O8  1  0.02186244  0.65659184  0.64144606  1
  O  O9  1  0.67845428  0.34340816  0.85855394  1
  O  O10  1  0.32154572  0.65659184  0.14144606  1
  O  O11  1  0.97813756  0.34340816  0.35855394  1
  O  O12  1  0.60358296  0.14674546  0.54388054  1
  O  O13  1  0.17130347  0.00000000  0.75000000  1
  O  O14  1  0.24967157  0.14674546  0.04388054  1
  O  O15  1  0.82869653  0.00000000  0.25000000  1
