# generated using pymatgen
data_KCaMg14
_symmetry_space_group_name_H-M   'P 1'
_cell_length_a   6.63481178
_cell_length_b   6.61819962
_cell_length_c   10.77601292
_cell_angle_alpha   90.00000000
_cell_angle_beta   90.00000000
_cell_angle_gamma   119.91721568
_symmetry_Int_Tables_number   1
_chemical_formula_structural   KCaMg14
_chemical_formula_sum   'K1 Ca1 Mg14'
_cell_volume   410.12749375
_cell_formula_units_Z   1
loop_
 _symmetry_equiv_pos_site_id
 _symmetry_equiv_pos_as_xyz
  1  'x, y, z'
loop_
 _atom_site_type_symbol
 _atom_site_label
 _atom_site_symmetry_multiplicity
 _atom_site_fract_x
 _atom_site_fract_y
 _atom_site_fract_z
 _atom_site_occupancy
  K  K0  1  0.16773363  0.83386632  0.12500000  1
  Ca  Ca1  1  0.17200501  0.33600201  0.12500000  1
  Mg  Mg2  1  0.16572333  0.33286117  0.62500000  1
  Mg  Mg3  1  0.16620795  0.83310348  0.62500000  1
  Mg  Mg4  1  0.66424889  0.33033702  0.12500000  1
  Mg  Mg5  1  0.66748696  0.33403918  0.62500000  1
  Mg  Mg6  1  0.66424889  0.83391088  0.12500000  1
  Mg  Mg7  1  0.66748696  0.83344678  0.62500000  1
  Mg  Mg8  1  0.34140693  0.17503321  0.39260897  1
  Mg  Mg9  1  0.34140693  0.17503321  0.85739103  1
  Mg  Mg10  1  0.34140693  0.66637472  0.39260897  1
  Mg  Mg11  1  0.34140693  0.66637472  0.85739103  1
  Mg  Mg12  1  0.82800895  0.16400498  0.37808125  1
  Mg  Mg13  1  0.82800895  0.16400498  0.87191875  1
  Mg  Mg14  1  0.82160636  0.66080368  0.38405246  1
  Mg  Mg15  1  0.82160636  0.66080368  0.86594754  1
