# generated using pymatgen
data_Ba2LaCl7
_symmetry_space_group_name_H-M   'P 1'
_cell_length_a   8.16703222
_cell_length_b   9.21618191
_cell_length_c   9.75244339
_cell_angle_alpha   115.27222243
_cell_angle_beta   114.77500058
_cell_angle_gamma   63.70163897
_symmetry_Int_Tables_number   1
_chemical_formula_structural   Ba2LaCl7
_chemical_formula_sum   'Ba4 La2 Cl14'
_cell_volume   570.66220562
_cell_formula_units_Z   2
loop_
 _symmetry_equiv_pos_site_id
 _symmetry_equiv_pos_as_xyz
  1  'x, y, z'
loop_
 _atom_site_type_symbol
 _atom_site_label
 _atom_site_symmetry_multiplicity
 _atom_site_fract_x
 _atom_site_fract_y
 _atom_site_fract_z
 _atom_site_occupancy
  Ba  Ba0  1  0.69273796  0.90765278  0.28640257  1
  Ba  Ba1  1  0.31407443  0.59249004  0.21385082  1
  Ba  Ba2  1  0.68592571  0.40752003  0.78615216  1
  Ba  Ba3  1  0.30726493  0.09233663  0.71358843  1
  La  La4  1  0.01154663  0.25007877  0.24993944  1
  La  La5  1  0.98844675  0.74992874  0.75006781  1
  Cl  Cl6  1  0.31363003  0.96809464  0.35863170  1
  Cl  Cl7  1  0.11689984  0.79461599  0.53047156  1
  Cl  Cl8  1  0.38133156  0.70532280  0.96951909  1
  Cl  Cl9  1  0.07695969  0.46805339  0.85876137  1
  Cl  Cl10  1  0.93205428  0.90682264  0.08102677  1
  Cl  Cl11  1  0.62362076  0.74982114  0.74958166  1
  Cl  Cl12  1  0.24184702  0.40679377  0.58107677  1
  Cl  Cl13  1  0.75813371  0.59322810  0.41892416  1
  Cl  Cl14  1  0.37637074  0.25018471  0.25041463  1
  Cl  Cl15  1  0.06794894  0.09314859  0.91897794  1
  Cl  Cl16  1  0.92303421  0.53195951  0.14124754  1
  Cl  Cl17  1  0.61869085  0.29467430  0.03048370  1
  Cl  Cl18  1  0.88311351  0.20535625  0.46951653  1
  Cl  Cl19  1  0.68636746  0.03191919  0.64136435  1
