# generated using pymatgen
data_Ba2Hf7O16
_symmetry_space_group_name_H-M   'P 1'
_cell_length_a   6.46740844
_cell_length_b   9.77802703
_cell_length_c   6.46740814
_cell_angle_alpha   109.31195405
_cell_angle_beta   59.99999338
_cell_angle_gamma   109.31195228
_symmetry_Int_Tables_number   1
_chemical_formula_structural   Ba2Hf7O16
_chemical_formula_sum   'Ba2 Hf7 O16'
_cell_volume   327.35231553
_cell_formula_units_Z   1
loop_
 _symmetry_equiv_pos_site_id
 _symmetry_equiv_pos_as_xyz
  1  'x, y, z'
loop_
 _atom_site_type_symbol
 _atom_site_label
 _atom_site_symmetry_multiplicity
 _atom_site_fract_x
 _atom_site_fract_y
 _atom_site_fract_z
 _atom_site_occupancy
  Ba  Ba0  1  0.33391676  0.00175128  0.33391676  1
  Ba  Ba1  1  0.66608324  0.99824872  0.66608324  1
  Hf  Hf2  1  0.00000000  0.00000000  0.00000000  1
  Hf  Hf3  1  0.24821577  0.65008517  0.51591070  1
  Hf  Hf4  1  0.11404130  0.34991483  0.75178423  1
  Hf  Hf5  1  0.48408930  0.34991483  0.11404130  1
  Hf  Hf6  1  0.51591070  0.65008517  0.88595870  1
  Hf  Hf7  1  0.88595870  0.65008517  0.24821577  1
  Hf  Hf8  1  0.75178423  0.34991483  0.48408930  1
  O  O9  1  0.23320435  0.69961206  0.23320435  1
  O  O10  1  0.21553921  0.86401355  0.68738226  1
  O  O11  1  0.15028225  0.41215222  0.41081502  1
  O  O12  1  0.14894504  0.58784778  0.84971775  1
  O  O13  1  0.03890792  0.13598645  0.78446079  1
  O  O14  1  0.31261774  0.13598645  0.03890792  1
  O  O15  1  0.58918498  0.58784778  0.14894504  1
  O  O16  1  0.43301611  0.29904832  0.43301611  1
  O  O17  1  0.56698389  0.70095168  0.56698389  1
  O  O18  1  0.41081502  0.41215222  0.85105496  1
  O  O19  1  0.68738226  0.86401355  0.96109208  1
  O  O20  1  0.96109208  0.86401355  0.21553921  1
  O  O21  1  0.85105496  0.41215222  0.15028225  1
  O  O22  1  0.84971775  0.58784778  0.58918498  1
  O  O23  1  0.78446079  0.13598645  0.31261774  1
  O  O24  1  0.76679565  0.30038794  0.76679565  1
