# generated using pymatgen
data_Sb2OF8
_symmetry_space_group_name_H-M   'P 1'
_cell_length_a   9.24858123
_cell_length_b   5.54724038
_cell_length_c   15.62123820
_cell_angle_alpha   90.00000000
_cell_angle_beta   104.28440639
_cell_angle_gamma   90.00000000
_symmetry_Int_Tables_number   1
_chemical_formula_structural   Sb2OF8
_chemical_formula_sum   'Sb8 O4 F32'
_cell_volume   776.65562967
_cell_formula_units_Z   4
loop_
 _symmetry_equiv_pos_site_id
 _symmetry_equiv_pos_as_xyz
  1  'x, y, z'
loop_
 _atom_site_type_symbol
 _atom_site_label
 _atom_site_symmetry_multiplicity
 _atom_site_fract_x
 _atom_site_fract_y
 _atom_site_fract_z
 _atom_site_occupancy
  Sb  Sb0  1  0.09937163  0.19524087  0.87482760  1
  Sb  Sb1  1  0.09937163  0.80475913  0.37482760  1
  Sb  Sb2  1  0.46535268  0.93129273  0.84338825  1
  Sb  Sb3  1  0.53464732  0.93129273  0.65661175  1
  Sb  Sb4  1  0.46535268  0.06870727  0.34338825  1
  Sb  Sb5  1  0.53464732  0.06870727  0.15661175  1
  Sb  Sb6  1  0.90062837  0.19524087  0.62517240  1
  Sb  Sb7  1  0.90062837  0.80475913  0.12517240  1
  O  O8  1  0.28609204  0.05387936  0.85418356  1
  O  O9  1  0.28609204  0.94612064  0.35418356  1
  O  O10  1  0.71390796  0.05387936  0.64581644  1
  O  O11  1  0.71390796  0.94612064  0.14581644  1
  F  F12  1  0.00000000  0.05229604  0.75000000  1
  F  F13  1  0.06191842  0.88812940  0.91718776  1
  F  F14  1  0.20158001  0.32105342  0.98566421  1
  F  F15  1  0.14090233  0.46706886  0.81153916  1
  F  F16  1  0.09350612  0.30353740  0.62310166  1
  F  F17  1  0.00000000  0.94770396  0.25000000  1
  F  F18  1  0.06191842  0.11187060  0.41718776  1
  F  F19  1  0.20158001  0.67894658  0.48566421  1
  F  F20  1  0.14090233  0.53293114  0.31153916  1
  F  F21  1  0.09350612  0.69646260  0.12310166  1
  F  F22  1  0.36732621  0.80683224  0.71591556  1
  F  F23  1  0.48002060  0.62283668  0.89352735  1
  F  F24  1  0.39240179  0.09412357  0.56956197  1
  F  F25  1  0.50000000  0.18592244  0.75000000  1
  F  F26  1  0.36732621  0.19316776  0.21591456  1
  F  F27  1  0.60759821  0.09412357  0.93043803  1
  F  F28  1  0.48002060  0.37716332  0.39352735  1
  F  F29  1  0.51997940  0.62283668  0.60647265  1
  F  F30  1  0.39240179  0.90587643  0.06956197  1
  F  F31  1  0.63267379  0.80683224  0.78408444  1
  F  F32  1  0.50000000  0.81407756  0.25000000  1
  F  F33  1  0.60759821  0.90587643  0.43043803  1
  F  F34  1  0.51997940  0.37716332  0.10647265  1
  F  F35  1  0.63267379  0.19316776  0.28408544  1
  F  F36  1  0.90649388  0.30353740  0.87689834  1
  F  F37  1  0.85909767  0.46706886  0.68846084  1
  F  F38  1  0.79841999  0.32105342  0.51433579  1
  F  F39  1  0.93808158  0.88812940  0.58281224  1
  F  F40  1  0.90649388  0.69646260  0.37689834  1
  F  F41  1  0.85909767  0.53293114  0.18846084  1
  F  F42  1  0.79841999  0.67894658  0.01433579  1
  F  F43  1  0.93808158  0.11187060  0.08281224  1
