# generated using pymatgen
data_Li3Sn2(PO4)3
_symmetry_space_group_name_H-M   'P 1'
_cell_length_a   8.94112311
_cell_length_b   13.13915895
_cell_length_c   9.12966342
_cell_angle_alpha   90.00000000
_cell_angle_beta   90.00000000
_cell_angle_gamma   87.72381559
_symmetry_Int_Tables_number   1
_chemical_formula_structural   Li3Sn2(PO4)3
_chemical_formula_sum   'Li12 Sn8 P12 O48'
_cell_volume   1071.69600087
_cell_formula_units_Z   4
loop_
 _symmetry_equiv_pos_site_id
 _symmetry_equiv_pos_as_xyz
  1  'x, y, z'
loop_
 _atom_site_type_symbol
 _atom_site_label
 _atom_site_symmetry_multiplicity
 _atom_site_fract_x
 _atom_site_fract_y
 _atom_site_fract_z
 _atom_site_occupancy
  Li  Li0  1  0.08640573  0.71216235  0.07524865  1
  Li  Li1  1  0.21835644  0.17440299  0.77688046  1
  Li  Li2  1  0.19521796  0.80714421  0.74577879  1
  Li  Li3  1  0.28164356  0.32559701  0.27688046  1
  Li  Li4  1  0.30478204  0.69285579  0.24577879  1
  Li  Li5  1  0.41359427  0.78783765  0.57524865  1
  Li  Li6  1  0.58640573  0.21216235  0.42475135  1
  Li  Li7  1  0.71835644  0.67440299  0.72311954  1
  Li  Li8  1  0.69521796  0.30714421  0.75422121  1
  Li  Li9  1  0.80478204  0.19285579  0.25422121  1
  Li  Li10  1  0.78164356  0.82559701  0.22311954  1
  Li  Li11  1  0.91359427  0.28783765  0.92475135  1
  Sn  Sn12  1  0.26240290  0.91277170  0.05073825  1
  Sn  Sn13  1  0.24603709  0.10499498  0.44187278  1
  Sn  Sn14  1  0.25396291  0.39500502  0.94187278  1
  Sn  Sn15  1  0.23759710  0.58722830  0.55073825  1
  Sn  Sn16  1  0.76240290  0.41277170  0.44926175  1
  Sn  Sn17  1  0.74603709  0.60499498  0.05812722  1
  Sn  Sn18  1  0.73759710  0.08722830  0.94926175  1
  Sn  Sn19  1  0.75396291  0.89500502  0.55812722  1
  P  P20  1  0.06718372  0.51004961  0.23534751  1
  P  P21  1  0.11724453  0.17016892  0.09333562  1
  P  P22  1  0.10764470  0.86061549  0.40185137  1
  P  P23  1  0.38275547  0.32983108  0.59333562  1
  P  P24  1  0.39235530  0.63938451  0.90185137  1
  P  P25  1  0.43281628  0.98995039  0.73534751  1
  P  P26  1  0.56718372  0.01004961  0.26465249  1
  P  P27  1  0.60764470  0.36061549  0.09814863  1
  P  P28  1  0.61724453  0.67016892  0.40666438  1
  P  P29  1  0.89235530  0.13938451  0.59814863  1
  P  P30  1  0.88275547  0.82983108  0.90666438  1
  P  P31  1  0.93281628  0.48995039  0.76465249  1
  O  O32  1  0.03245687  0.42171878  0.87117602  1
  O  O33  1  0.02237610  0.54613207  0.65102496  1
  O  O34  1  0.06756376  0.14373013  0.57741404  1
  O  O35  1  0.04893586  0.79944644  0.89435183  1
  O  O36  1  0.17884200  0.58124487  0.30529553  1
  O  O37  1  0.15921019  0.42562363  0.14729823  1
  O  O38  1  0.14861115  0.06377915  0.03109042  1
  O  O39  1  0.14892491  0.97522070  0.36904892  1
  O  O40  1  0.19720461  0.18575227  0.24510450  1
  O  O41  1  0.13916294  0.79917618  0.26124803  1
  O  O42  1  0.18519024  0.24388058  0.97557413  1
  O  O43  1  0.19262320  0.82039947  0.53603620  1
  O  O44  1  0.31480976  0.25611942  0.47557413  1
  O  O45  1  0.30737680  0.67960053  0.03603620  1
  O  O46  1  0.36083706  0.70082382  0.76124803  1
  O  O47  1  0.30279539  0.31424773  0.74510450  1
  O  O48  1  0.35138885  0.43622085  0.53109042  1
  O  O49  1  0.35107509  0.52477930  0.86904892  1
  O  O50  1  0.34078981  0.07437637  0.64729823  1
  O  O51  1  0.32115800  0.91875513  0.80529553  1
  O  O52  1  0.43243624  0.35626987  0.07741404  1
  O  O53  1  0.45106414  0.70055356  0.39435183  1
  O  O54  1  0.46754313  0.07828122  0.37117602  1
  O  O55  1  0.47762390  0.95386793  0.15102496  1
  O  O56  1  0.53245687  0.92171878  0.62882398  1
  O  O57  1  0.52237610  0.04613207  0.84897504  1
  O  O58  1  0.54893586  0.29944644  0.60564817  1
  O  O59  1  0.56756376  0.64373013  0.92258596  1
  O  O60  1  0.67884200  0.08124487  0.19470447  1
  O  O61  1  0.65921019  0.92562363  0.35270177  1
  O  O62  1  0.64892491  0.47522070  0.13095108  1
  O  O63  1  0.64861115  0.56377915  0.46890958  1
  O  O64  1  0.63916294  0.29917618  0.23875197  1
  O  O65  1  0.69720461  0.68575227  0.25489550  1
  O  O66  1  0.69262320  0.32039947  0.96396380  1
  O  O67  1  0.68519024  0.74388058  0.52442587  1
  O  O68  1  0.80737680  0.17960053  0.46396380  1
  O  O69  1  0.81480976  0.75611942  0.02442587  1
  O  O70  1  0.86083706  0.20082382  0.73875197  1
  O  O71  1  0.80279539  0.81424773  0.75489550  1
  O  O72  1  0.85107509  0.02477930  0.63095108  1
  O  O73  1  0.85138885  0.93622085  0.96890958  1
  O  O74  1  0.82115800  0.41875513  0.69470447  1
  O  O75  1  0.84078981  0.57437637  0.85270177  1
  O  O76  1  0.93243624  0.85626987  0.42258596  1
  O  O77  1  0.95106414  0.20055356  0.10564817  1
  O  O78  1  0.97762390  0.45386793  0.34897504  1
  O  O79  1  0.96754313  0.57828122  0.12882398  1
