# generated using pymatgen
data_SrLaBr5
_symmetry_space_group_name_H-M   'P 1'
_cell_length_a   8.65464768
_cell_length_b   4.47242132
_cell_length_c   14.08298552
_cell_angle_alpha   90.00000000
_cell_angle_beta   87.19989171
_cell_angle_gamma   90.00000000
_symmetry_Int_Tables_number   1
_chemical_formula_structural   SrLaBr5
_chemical_formula_sum   'Sr2 La2 Br10'
_cell_volume   544.46253033
_cell_formula_units_Z   2
loop_
 _symmetry_equiv_pos_site_id
 _symmetry_equiv_pos_as_xyz
  1  'x, y, z'
loop_
 _atom_site_type_symbol
 _atom_site_label
 _atom_site_symmetry_multiplicity
 _atom_site_fract_x
 _atom_site_fract_y
 _atom_site_fract_z
 _atom_site_occupancy
  Sr  Sr0  1  0.07769735  0.75000000  0.85768418  1
  Sr  Sr1  1  0.92230265  0.25000000  0.14231582  1
  La  La2  1  0.42330060  0.25000000  0.65227352  1
  La  La3  1  0.57669940  0.75000000  0.34772648  1
  Br  Br4  1  0.08060379  0.25000000  0.67985286  1
  Br  Br5  1  0.14268528  0.75000000  0.07284153  1
  Br  Br6  1  0.32376633  0.75000000  0.51814830  1
  Br  Br7  1  0.34690160  0.25000000  0.86069766  1
  Br  Br8  1  0.37596563  0.25000000  0.29121107  1
  Br  Br9  1  0.62403437  0.75000000  0.70878893  1
  Br  Br10  1  0.65309840  0.75000000  0.13930234  1
  Br  Br11  1  0.67623367  0.25000000  0.48185170  1
  Br  Br12  1  0.85731472  0.25000000  0.92715847  1
  Br  Br13  1  0.91939621  0.75000000  0.32014714  1
