# generated using pymatgen
data_Nb(PO3)4
_symmetry_space_group_name_H-M   'P 1'
_cell_length_a   7.47981895
_cell_length_b   7.47901548
_cell_length_c   10.01039509
_cell_angle_alpha   81.34712091
_cell_angle_beta   70.13621722
_cell_angle_gamma   110.10637104
_symmetry_Int_Tables_number   1
_chemical_formula_structural   Nb(PO3)4
_chemical_formula_sum   'Nb2 P8 O24'
_cell_volume   471.39466683
_cell_formula_units_Z   2
loop_
 _symmetry_equiv_pos_site_id
 _symmetry_equiv_pos_as_xyz
  1  'x, y, z'
loop_
 _atom_site_type_symbol
 _atom_site_label
 _atom_site_symmetry_multiplicity
 _atom_site_fract_x
 _atom_site_fract_y
 _atom_site_fract_z
 _atom_site_occupancy
  Nb  Nb0  1  0.00000000  0.50000000  0.00000000  1
  Nb  Nb1  1  0.00000000  0.00000000  0.50000000  1
  P  P2  1  0.99366143  0.32009892  0.69492087  1
  P  P3  1  0.27208464  0.72662506  0.46891590  1
  P  P4  1  0.69541212  0.74106942  0.03114965  1
  P  P5  1  0.48529416  0.31142599  0.19476904  1
  P  P6  1  0.51470584  0.68857401  0.80523096  1
  P  P7  1  0.30458788  0.25893058  0.96885035  1
  P  P8  1  0.72791536  0.27337494  0.53108410  1
  P  P9  1  0.00633857  0.67990108  0.30507913  1
  O  O10  1  0.04557993  0.65828306  0.15217591  1
  O  O11  1  0.13973348  0.33060603  0.05496184  1
  O  O12  1  0.11416201  0.80511932  0.55514623  1
  O  O13  1  0.19640822  0.66820142  0.33887837  1
  O  O14  1  0.20193632  0.50512204  0.57339651  1
  O  O15  1  0.01485343  0.13156903  0.67096326  1
  O  O16  1  0.42144314  0.22454974  0.07346478  1
  O  O17  1  0.31028824  0.19757151  0.34786834  1
  O  O18  1  0.49774289  0.84315353  0.41044315  1
  O  O19  1  0.50701371  0.53519339  0.16108314  1
  O  O20  1  0.30263246  0.68585634  0.82889286  1
  O  O21  1  0.75325879  0.90828696  0.08954557  1
  O  O22  1  0.24674121  0.09171304  0.91045443  1
  O  O23  1  0.69736754  0.31414366  0.17110714  1
  O  O24  1  0.49298629  0.46480661  0.83891686  1
  O  O25  1  0.50225711  0.15684647  0.58955685  1
  O  O26  1  0.68971176  0.80242849  0.65213166  1
  O  O27  1  0.57855686  0.77545026  0.92653522  1
  O  O28  1  0.98514657  0.86843097  0.32903674  1
  O  O29  1  0.79806368  0.49487796  0.42660349  1
  O  O30  1  0.80359178  0.33179858  0.66112163  1
  O  O31  1  0.88583799  0.19488068  0.44485377  1
  O  O32  1  0.86026652  0.66939397  0.94503816  1
  O  O33  1  0.95442007  0.34171694  0.84782409  1
