# generated using pymatgen
data_Mg6MnCd
_symmetry_space_group_name_H-M   'P 1'
_cell_length_a   6.25522827
_cell_length_b   6.25522779
_cell_length_c   5.00481696
_cell_angle_alpha   90.00000000
_cell_angle_beta   90.00000000
_cell_angle_gamma   120.19441375
_symmetry_Int_Tables_number   1
_chemical_formula_structural   Mg6MnCd
_chemical_formula_sum   'Mg6 Mn1 Cd1'
_cell_volume   169.25869340
_cell_formula_units_Z   1
loop_
 _symmetry_equiv_pos_site_id
 _symmetry_equiv_pos_as_xyz
  1  'x, y, z'
loop_
 _atom_site_type_symbol
 _atom_site_label
 _atom_site_symmetry_multiplicity
 _atom_site_fract_x
 _atom_site_fract_y
 _atom_site_fract_z
 _atom_site_occupancy
  Mg  Mg0  1  0.16732216  0.83383419  0.25000000  1
  Mg  Mg1  1  0.66616581  0.33267784  0.25000000  1
  Mg  Mg2  1  0.66657216  0.83342784  0.25000000  1
  Mg  Mg3  1  0.33050010  0.65819440  0.75000000  1
  Mg  Mg4  1  0.84180560  0.16949990  0.75000000  1
  Mg  Mg5  1  0.83242401  0.66757599  0.75000000  1
  Mn  Mn6  1  0.16593043  0.33406957  0.25000000  1
  Cd  Cd7  1  0.32927974  0.17072026  0.75000000  1
