# generated using pymatgen
data_Na5Ti3O8
_symmetry_space_group_name_H-M   'P 1'
_cell_length_a   6.47711600
_cell_length_b   6.16841222
_cell_length_c   6.16841222
_cell_angle_alpha   60.00000000
_cell_angle_beta   90.00000000
_cell_angle_gamma   118.43553369
_symmetry_Int_Tables_number   1
_chemical_formula_structural   Na5Ti3O8
_chemical_formula_sum   'Na5 Ti3 O8'
_cell_volume   178.27409512
_cell_formula_units_Z   1
loop_
 _symmetry_equiv_pos_site_id
 _symmetry_equiv_pos_as_xyz
  1  'x, y, z'
loop_
 _atom_site_type_symbol
 _atom_site_label
 _atom_site_symmetry_multiplicity
 _atom_site_fract_x
 _atom_site_fract_y
 _atom_site_fract_z
 _atom_site_occupancy
  Na  Na0  1  0.12500000  0.25000000  0.12500000  1
  Na  Na1  1  0.62500000  0.75000000  0.12500000  1
  Na  Na2  1  0.12500000  0.75000000  0.12500000  1
  Na  Na3  1  0.12500000  0.25000000  0.62500000  1
  Na  Na4  1  0.12500000  0.75000000  0.62500000  1
  Ti  Ti5  1  0.62500000  0.25000000  0.12500000  1
  Ti  Ti6  1  0.62500000  0.25000000  0.62500000  1
  Ti  Ti7  1  0.62500000  0.75000000  0.62500000  1
  O  O8  1  0.83198804  0.22132536  0.38933732  1
  O  O9  1  0.82504670  0.70097627  0.42309417  1
  O  O10  1  0.82504670  0.24814187  0.87592957  1
  O  O11  1  0.42495330  0.25185813  0.37407043  1
  O  O12  1  0.42495330  0.79902373  0.37407043  1
  O  O13  1  0.41801196  0.27867464  0.86066268  1
  O  O14  1  0.82504670  0.70097627  0.87592957  1
  O  O15  1  0.42495330  0.79902373  0.82690583  1
