# generated using pymatgen
data_CaGd4O7
_symmetry_space_group_name_H-M   'P 1'
_cell_length_a   11.63720145
_cell_length_b   9.20806888
_cell_length_c   7.21579971
_cell_angle_alpha   90.05177208
_cell_angle_beta   80.98595995
_cell_angle_gamma   107.49542051
_symmetry_Int_Tables_number   1
_chemical_formula_structural   CaGd4O7
_chemical_formula_sum   'Ca4 Gd16 O28'
_cell_volume   727.46506021
_cell_formula_units_Z   4
loop_
 _symmetry_equiv_pos_site_id
 _symmetry_equiv_pos_as_xyz
  1  'x, y, z'
loop_
 _atom_site_type_symbol
 _atom_site_label
 _atom_site_symmetry_multiplicity
 _atom_site_fract_x
 _atom_site_fract_y
 _atom_site_fract_z
 _atom_site_occupancy
  Ca  Ca0  1  0.16007223  0.07029957  0.96017442  1
  Ca  Ca1  1  0.43639063  0.32419512  0.13984417  1
  Ca  Ca2  1  0.56360937  0.67580488  0.36015583  1
  Ca  Ca3  1  0.83992777  0.92970043  0.53982558  1
  Gd  Gd4  1  0.07088817  0.71744204  0.23079135  1
  Gd  Gd5  1  0.06978167  0.71588696  0.73393463  1
  Gd  Gd6  1  0.24055039  0.49931704  0.43769110  1
  Gd  Gd7  1  0.23942051  0.49624238  0.94139520  1
  Gd  Gd8  1  0.15546803  0.06550057  0.46089999  1
  Gd  Gd9  1  0.37543488  0.86988764  0.15726282  1
  Gd  Gd10  1  0.37318214  0.86927866  0.65576193  1
  Gd  Gd11  1  0.43745435  0.32629215  0.64114179  1
  Gd  Gd12  1  0.56254565  0.67370785  0.85885821  1
  Gd  Gd13  1  0.62681786  0.13072134  0.84423807  1
  Gd  Gd14  1  0.62456512  0.13011236  0.34273718  1
  Gd  Gd15  1  0.84453197  0.93449943  0.03910001  1
  Gd  Gd16  1  0.75944961  0.50068296  0.06230890  1
  Gd  Gd17  1  0.76057949  0.50375762  0.55860480  1
  Gd  Gd18  1  0.92911183  0.28255796  0.26920865  1
  Gd  Gd19  1  0.93021833  0.28411304  0.76606537  1
  O  O20  1  0.00061718  0.17703593  0.99949194  1
  O  O21  1  0.00649097  0.18101480  0.49797717  1
  O  O22  1  0.21688410  0.97545550  0.19999607  1
  O  O23  1  0.21846255  0.97842645  0.69074933  1
  O  O24  1  0.11443144  0.47455737  0.22318484  1
  O  O25  1  0.11506882  0.47543500  0.71914639  1
  O  O26  1  0.23024925  0.73759920  0.44379683  1
  O  O27  1  0.22723611  0.73771872  0.94125727  1
  O  O28  1  0.31216811  0.29386321  0.91540216  1
  O  O29  1  0.30945243  0.29064599  0.42808117  1
  O  O30  1  0.39902476  0.58735035  0.14204146  1
  O  O31  1  0.40248269  0.58003505  0.65709209  1
  O  O32  1  0.49778522  0.88363300  0.37737857  1
  O  O33  1  0.50070040  0.88107805  0.87254218  1
  O  O34  1  0.49929960  0.11892195  0.62745782  1
  O  O35  1  0.50221478  0.11636700  0.12262143  1
  O  O36  1  0.60097524  0.41264965  0.35795854  1
  O  O37  1  0.59751731  0.41996495  0.84290791  1
  O  O38  1  0.69054757  0.70935401  0.07191883  1
  O  O39  1  0.68783189  0.70613679  0.58459784  1
  O  O40  1  0.77276389  0.26228128  0.55874273  1
  O  O41  1  0.76975075  0.26240080  0.05620317  1
  O  O42  1  0.88556856  0.52544263  0.27681516  1
  O  O43  1  0.88493118  0.52456500  0.78085361  1
  O  O44  1  0.78311590  0.02454450  0.30000393  1
  O  O45  1  0.78153745  0.02157355  0.80925067  1
  O  O46  1  0.99938282  0.82296407  0.50050806  1
  O  O47  1  0.99350903  0.81898520  0.00202283  1
