# generated using pymatgen
data_Li2Cu2F7
_symmetry_space_group_name_H-M   'P 1'
_cell_length_a   7.49047531
_cell_length_b   12.91262351
_cell_length_c   5.06350116
_cell_angle_alpha   90.00000000
_cell_angle_beta   90.00000000
_cell_angle_gamma   97.56873289
_symmetry_Int_Tables_number   1
_chemical_formula_structural   Li2Cu2F7
_chemical_formula_sum   'Li8 Cu8 F28'
_cell_volume   485.48346002
_cell_formula_units_Z   4
loop_
 _symmetry_equiv_pos_site_id
 _symmetry_equiv_pos_as_xyz
  1  'x, y, z'
loop_
 _atom_site_type_symbol
 _atom_site_label
 _atom_site_symmetry_multiplicity
 _atom_site_fract_x
 _atom_site_fract_y
 _atom_site_fract_z
 _atom_site_occupancy
  Li  Li0  1  0.14173779  0.55627496  0.26477665  1
  Li  Li1  1  0.22217013  0.90206111  0.77509452  1
  Li  Li2  1  0.29070999  0.13653677  0.24115989  1
  Li  Li3  1  0.39552198  0.42829804  0.79918986  1
  Li  Li4  1  0.60447802  0.57170196  0.29918986  1
  Li  Li5  1  0.70929001  0.86346323  0.74115889  1
  Li  Li6  1  0.77782987  0.09793889  0.27509452  1
  Li  Li7  1  0.85826221  0.44372504  0.76477665  1
  Cu  Cu8  1  0.02472941  0.10640699  0.76234632  1
  Cu  Cu9  1  0.07962898  0.31842624  0.25393728  1
  Cu  Cu10  1  0.41536733  0.68299712  0.77030170  1
  Cu  Cu11  1  0.47271112  0.89118989  0.26552605  1
  Cu  Cu12  1  0.52728888  0.10881011  0.76552605  1
  Cu  Cu13  1  0.58463267  0.31700288  0.27030170  1
  Cu  Cu14  1  0.92037102  0.68157376  0.75393728  1
  Cu  Cu15  1  0.97527059  0.89359301  0.26234632  1
  F  F16  1  0.01770466  0.81327736  0.94524255  1
  F  F17  1  0.05640486  0.41326208  0.52827007  1
  F  F18  1  0.16557619  0.66716508  0.62190613  1
  F  F19  1  0.22732669  0.88068020  0.40282963  1
  F  F20  1  0.07234458  0.02080631  0.07395655  1
  F  F21  1  0.12147507  0.22202725  0.97440529  1
  F  F22  1  0.17894101  0.43054107  0.04077648  1
  F  F23  1  0.38951056  0.82073022  0.92984788  1
  F  F24  1  0.36728344  0.61618163  0.09551209  1
  F  F25  1  0.27789959  0.08601557  0.61931569  1
  F  F26  1  0.32099286  0.29183619  0.38737641  1
  F  F27  1  0.43731986  0.55529774  0.59540526  1
  F  F28  1  0.51842096  0.76701053  0.46891038  1
  F  F29  1  0.56908895  0.97494203  0.57640332  1
  F  F30  1  0.43091105  0.02505797  0.07640332  1
  F  F31  1  0.48157904  0.23298947  0.96891038  1
  F  F32  1  0.56268014  0.44470226  0.09540526  1
  F  F33  1  0.67900714  0.70816381  0.88737641  1
  F  F34  1  0.72210041  0.91398443  0.11931569  1
  F  F35  1  0.63271656  0.38381837  0.59551209  1
  F  F36  1  0.61048944  0.17926978  0.42984788  1
  F  F37  1  0.82105899  0.56945893  0.54077648  1
  F  F38  1  0.87852493  0.77797275  0.47440529  1
  F  F39  1  0.92765542  0.97919369  0.57395655  1
  F  F40  1  0.77267331  0.11931980  0.90282963  1
  F  F41  1  0.83442381  0.33283492  0.12190613  1
  F  F42  1  0.94359514  0.58673792  0.02827007  1
  F  F43  1  0.98229534  0.18672264  0.44524255  1
