# generated using pymatgen
data_LiCrPO4
_symmetry_space_group_name_H-M   'P 1'
_cell_length_a   9.48267925
_cell_length_b   6.59956525
_cell_length_c   16.43414872
_cell_angle_alpha   90.00000000
_cell_angle_beta   90.58665612
_cell_angle_gamma   90.00000000
_symmetry_Int_Tables_number   1
_chemical_formula_structural   LiCrPO4
_chemical_formula_sum   'Li12 Cr12 P12 O48'
_cell_volume   1028.42075998
_cell_formula_units_Z   12
loop_
 _symmetry_equiv_pos_site_id
 _symmetry_equiv_pos_as_xyz
  1  'x, y, z'
loop_
 _atom_site_type_symbol
 _atom_site_label
 _atom_site_symmetry_multiplicity
 _atom_site_fract_x
 _atom_site_fract_y
 _atom_site_fract_z
 _atom_site_occupancy
  Li  Li0  1  0.24731741  0.02869507  0.91851289  1
  Li  Li1  1  0.24685122  0.98201422  0.58084419  1
  Li  Li2  1  0.24870646  0.84647305  0.24946080  1
  Li  Li3  1  0.25129354  0.34647305  0.25053920  1
  Li  Li4  1  0.25314878  0.48201422  0.91915581  1
  Li  Li5  1  0.25268259  0.52869507  0.58148711  1
  Li  Li6  1  0.74731741  0.47130493  0.41851289  1
  Li  Li7  1  0.74685122  0.51798578  0.08084419  1
  Li  Li8  1  0.74870646  0.65352695  0.74946080  1
  Li  Li9  1  0.75129354  0.15352695  0.75053920  1
  Li  Li10  1  0.75314878  0.01798578  0.41915581  1
  Li  Li11  1  0.75268259  0.97130493  0.08148711  1
  Cr  Cr12  1  0.99675266  0.74277088  0.39131483  1
  Cr  Cr13  1  0.08827064  0.75577761  0.80551443  1
  Cr  Cr14  1  0.16388766  0.75563611  0.05403281  1
  Cr  Cr15  1  0.33611234  0.25563611  0.44596719  1
  Cr  Cr16  1  0.41172936  0.25577761  0.69448557  1
  Cr  Cr17  1  0.50324734  0.24277088  0.10868517  1
  Cr  Cr18  1  0.49675266  0.75722912  0.89131483  1
  Cr  Cr19  1  0.58827064  0.74422239  0.30551443  1
  Cr  Cr20  1  0.66388766  0.74436389  0.55403281  1
  Cr  Cr21  1  0.83611234  0.24436389  0.94596719  1
  Cr  Cr22  1  0.91172936  0.24422239  0.19448557  1
  Cr  Cr23  1  0.00324734  0.25722912  0.60868517  1
  P  P24  1  0.04327547  0.24670225  0.40697335  1
  P  P25  1  0.08824737  0.25739895  0.77599798  1
  P  P26  1  0.11852746  0.25113854  0.06926706  1
  P  P27  1  0.38147254  0.75113854  0.43073294  1
  P  P28  1  0.41175263  0.75739895  0.72400202  1
  P  P29  1  0.45672453  0.74670225  0.09302665  1
  P  P30  1  0.54327547  0.25329775  0.90697335  1
  P  P31  1  0.58824737  0.24260105  0.27599798  1
  P  P32  1  0.61852746  0.24886146  0.56926706  1
  P  P33  1  0.88147254  0.74886146  0.93073294  1
  P  P34  1  0.91175263  0.74260105  0.22400202  1
  P  P35  1  0.95672453  0.75329775  0.59302665  1
  O  O36  1  0.05192220  0.56772079  0.61219835  1
  O  O37  1  0.04522744  0.94514386  0.61282889  1
  O  O38  1  0.04100537  0.76341484  0.95304284  1
  O  O39  1  0.10148590  0.06765338  0.83149961  1
  O  O40  1  0.10544577  0.44540755  0.83201831  1
  O  O41  1  0.05787248  0.74104971  0.26937472  1
  O  O42  1  0.09452267  0.24864457  0.49747405  1
  O  O43  1  0.12466316  0.25286733  0.16437947  1
  O  O44  1  0.18780180  0.44382881  0.03327775  1
  O  O45  1  0.20001518  0.25687207  0.70741849  1
  O  O46  1  0.18092201  0.25188786  0.35536733  1
  O  O47  1  0.20106302  0.06684493  0.03523675  1
  O  O48  1  0.29893698  0.56684493  0.46476325  1
  O  O49  1  0.31907799  0.75188786  0.14463267  1
  O  O50  1  0.29998482  0.75687207  0.79258151  1
  O  O51  1  0.31219820  0.94382881  0.46672225  1
  O  O52  1  0.37533684  0.75286733  0.33562053  1
  O  O53  1  0.40547733  0.74864457  0.00252595  1
  O  O54  1  0.39455423  0.94540755  0.66798169  1
  O  O55  1  0.44212752  0.24104971  0.23062528  1
  O  O56  1  0.39851410  0.56765338  0.66850039  1
  O  O57  1  0.45899463  0.26341484  0.54695716  1
  O  O58  1  0.45477256  0.44514386  0.88717111  1
  O  O59  1  0.44807780  0.06772079  0.88780165  1
  O  O60  1  0.55192220  0.93227921  0.11219835  1
  O  O61  1  0.54522744  0.55485614  0.11282889  1
  O  O62  1  0.54100537  0.73658516  0.45304284  1
  O  O63  1  0.60148590  0.43234662  0.33149961  1
  O  O64  1  0.55787248  0.75895029  0.76937472  1
  O  O65  1  0.60544577  0.05459245  0.33201831  1
  O  O66  1  0.59452267  0.25135543  0.99747405  1
  O  O67  1  0.62466316  0.24713267  0.66437947  1
  O  O68  1  0.68780180  0.05617119  0.53327775  1
  O  O69  1  0.70001518  0.24312793  0.20741849  1
  O  O70  1  0.68092201  0.24811214  0.85536733  1
  O  O71  1  0.70106302  0.43315507  0.53523675  1
  O  O72  1  0.79893698  0.93315507  0.96476325  1
  O  O73  1  0.81907799  0.74811214  0.64463267  1
  O  O74  1  0.79998482  0.74312793  0.29258151  1
  O  O75  1  0.81219820  0.55617119  0.96672225  1
  O  O76  1  0.87533684  0.74713267  0.83562053  1
  O  O77  1  0.90547733  0.75135543  0.50252595  1
  O  O78  1  0.94212752  0.25895029  0.73062528  1
  O  O79  1  0.89455423  0.55459245  0.16798169  1
  O  O80  1  0.89851410  0.93234662  0.16850039  1
  O  O81  1  0.95899463  0.23658516  0.04695716  1
  O  O82  1  0.95477256  0.05485614  0.38717111  1
  O  O83  1  0.94807780  0.43227921  0.38780165  1
