# generated using pymatgen
data_Li2Cu3F8
_symmetry_space_group_name_H-M   'P 1'
_cell_length_a   8.53190259
_cell_length_b   8.53190259
_cell_length_c   8.53190259
_cell_angle_alpha   90.00000000
_cell_angle_beta   90.00000000
_cell_angle_gamma   90.00000000
_symmetry_Int_Tables_number   1
_chemical_formula_structural   Li2Cu3F8
_chemical_formula_sum   'Li8 Cu12 F32'
_cell_volume   621.06587212
_cell_formula_units_Z   4
loop_
 _symmetry_equiv_pos_site_id
 _symmetry_equiv_pos_as_xyz
  1  'x, y, z'
loop_
 _atom_site_type_symbol
 _atom_site_label
 _atom_site_symmetry_multiplicity
 _atom_site_fract_x
 _atom_site_fract_y
 _atom_site_fract_z
 _atom_site_occupancy
  Li  Li0  1  0.00710069  0.49289931  0.50710069  1
  Li  Li1  1  0.24289931  0.74289931  0.75710069  1
  Li  Li2  1  0.25710069  0.25710069  0.25710069  1
  Li  Li3  1  0.49289931  0.50710069  0.00710069  1
  Li  Li4  1  0.50710069  0.00710069  0.49289931  1
  Li  Li5  1  0.74289931  0.75710069  0.24289931  1
  Li  Li6  1  0.75710069  0.24289931  0.74289931  1
  Li  Li7  1  0.99289931  0.99289931  0.99289931  1
  Cu  Cu8  1  0.10959109  0.62500000  0.14040891  1
  Cu  Cu9  1  0.12500000  0.35959109  0.89040891  1
  Cu  Cu10  1  0.14040891  0.10959109  0.62500000  1
  Cu  Cu11  1  0.35959109  0.89040891  0.12500000  1
  Cu  Cu12  1  0.37500000  0.64040891  0.39040891  1
  Cu  Cu13  1  0.39040891  0.37500000  0.64040891  1
  Cu  Cu14  1  0.60959109  0.87500000  0.85959109  1
  Cu  Cu15  1  0.62500000  0.14040891  0.10959109  1
  Cu  Cu16  1  0.64040891  0.39040891  0.37500000  1
  Cu  Cu17  1  0.85959109  0.60959109  0.87500000  1
  Cu  Cu18  1  0.87500000  0.85959109  0.60959109  1
  Cu  Cu19  1  0.89040891  0.12500000  0.35959109  1
  F  F20  1  0.10553761  0.87376911  0.63145607  1
  F  F21  1  0.11198798  0.61198798  0.88801202  1
  F  F22  1  0.11854393  0.12376911  0.85553761  1
  F  F23  1  0.12623089  0.13145607  0.39446239  1
  F  F24  1  0.12376911  0.85553761  0.11854393  1
  F  F25  1  0.13145607  0.39446239  0.12623089  1
  F  F26  1  0.13801202  0.36198798  0.63801202  1
  F  F27  1  0.14446239  0.61854393  0.37623089  1
  F  F28  1  0.35553761  0.38145607  0.87623089  1
  F  F29  1  0.36198798  0.63801202  0.13801202  1
  F  F30  1  0.36854393  0.60553761  0.62623089  1
  F  F31  1  0.37623089  0.14446239  0.61854393  1
  F  F32  1  0.37376911  0.86854393  0.89446239  1
  F  F33  1  0.38145607  0.87623089  0.35553761  1
  F  F34  1  0.38801202  0.38801202  0.38801202  1
  F  F35  1  0.39446239  0.12623089  0.13145607  1
  F  F36  1  0.60553761  0.62623089  0.36854393  1
  F  F37  1  0.61198798  0.88801202  0.11198798  1
  F  F38  1  0.61854393  0.37623089  0.14446239  1
  F  F39  1  0.62623089  0.36854393  0.60553761  1
  F  F40  1  0.62376911  0.64446239  0.88145607  1
  F  F41  1  0.63145607  0.10553761  0.87376911  1
  F  F42  1  0.63801202  0.13801202  0.36198798  1
  F  F43  1  0.64446239  0.88145607  0.62376911  1
  F  F44  1  0.85553761  0.11854393  0.12376911  1
  F  F45  1  0.86198798  0.86198798  0.86198798  1
  F  F46  1  0.86854393  0.89446239  0.37376911  1
  F  F47  1  0.87623089  0.35553761  0.38145607  1
  F  F48  1  0.87376911  0.63145607  0.10553761  1
  F  F49  1  0.88145607  0.62376911  0.64446239  1
  F  F50  1  0.88801202  0.11198798  0.61198798  1
  F  F51  1  0.89446239  0.37376911  0.86854393  1
