# generated using pymatgen
data_Li3V(PO4)2
_symmetry_space_group_name_H-M   'P 1'
_cell_length_a   8.44951606
_cell_length_b   8.49050360
_cell_length_c   7.16176122
_cell_angle_alpha   90.40410875
_cell_angle_beta   89.53194224
_cell_angle_gamma   119.96794977
_symmetry_Int_Tables_number   1
_chemical_formula_structural   Li3V(PO4)2
_chemical_formula_sum   'Li9 V3 P6 O24'
_cell_volume   445.08081660
_cell_formula_units_Z   3
loop_
 _symmetry_equiv_pos_site_id
 _symmetry_equiv_pos_as_xyz
  1  'x, y, z'
loop_
 _atom_site_type_symbol
 _atom_site_label
 _atom_site_symmetry_multiplicity
 _atom_site_fract_x
 _atom_site_fract_y
 _atom_site_fract_z
 _atom_site_occupancy
  Li  Li0  1  0.34201416  0.03126036  0.66434640  1
  Li  Li1  1  0.96386112  0.30683740  0.66290238  1
  Li  Li2  1  0.00204157  0.00163350  0.49650287  1
  Li  Li3  1  0.33430196  0.66325293  0.50757335  1
  Li  Li4  1  0.30634494  0.34525716  0.33163091  1
  Li  Li5  1  0.69429714  0.65499588  0.66806554  1
  Li  Li6  1  0.66623141  0.33704008  0.49347875  1
  Li  Li7  1  0.03627637  0.69321258  0.33802155  1
  Li  Li8  1  0.65791037  0.96871139  0.33564387  1
  V  V9  1  0.99981726  0.99957090  0.99969403  1
  V  V10  1  0.33458476  0.66643314  0.07633760  1
  V  V11  1  0.66582685  0.33284415  0.92462044  1
  P  P12  1  0.03988381  0.68685481  0.76673987  1
  P  P13  1  0.31060648  0.34951659  0.76668075  1
  P  P14  1  0.64725326  0.95741155  0.76477725  1
  P  P15  1  0.35200576  0.04191185  0.23569047  1
  P  P16  1  0.68931574  0.65061447  0.23376702  1
  P  P17  1  0.96041918  0.31309309  0.23434627  1
  O  O18  1  0.14020997  0.93954122  0.20654864  1
  O  O19  1  0.15884845  0.75880335  0.58723500  1
  O  O20  1  0.16426443  0.71542878  0.93115874  1
  O  O21  1  0.40961314  0.89335627  0.24830269  1
  O  O22  1  0.11275692  0.51668878  0.26034612  1
  O  O23  1  0.06101393  0.20247215  0.20129564  1
  O  O24  1  0.55230620  0.82157367  0.92266749  1
  O  O25  1  0.27784676  0.44532313  0.93039725  1
  O  O26  1  0.20267324  0.13879261  0.79900356  1
  O  O27  1  0.23858128  0.39298398  0.58665757  1
  O  O28  1  0.60192202  0.84683382  0.58057073  1
  O  O29  1  0.48368794  0.59573353  0.25849215  1
  O  O30  1  0.51623423  0.40370330  0.74146452  1
  O  O31  1  0.39844881  0.15335263  0.41943991  1
  O  O32  1  0.76179570  0.60708091  0.41330528  1
  O  O33  1  0.79713009  0.86114436  0.20068836  1
  O  O34  1  0.72035897  0.55465882  0.06842287  1
  O  O35  1  0.44616065  0.17716927  0.07643686  1
  O  O36  1  0.93859414  0.79721502  0.79928334  1
  O  O37  1  0.88708627  0.48311853  0.73915146  1
  O  O38  1  0.59061429  0.10678487  0.75101731  1
  O  O39  1  0.83669879  0.28652200  0.06864623  1
  O  O40  1  0.84139261  0.24095402  0.41345168  1
  O  O41  1  0.85896604  0.06030716  0.79519926  1
