# generated using pymatgen
data_LiMg6Mn
_symmetry_space_group_name_H-M   'P 1'
_cell_length_a   6.23608152
_cell_length_b   6.23608104
_cell_length_c   5.01037890
_cell_angle_alpha   90.00000000
_cell_angle_beta   90.00000000
_cell_angle_gamma   120.17386536
_symmetry_Int_Tables_number   1
_chemical_formula_structural   LiMg6Mn
_chemical_formula_sum   'Li1 Mg6 Mn1'
_cell_volume   168.44618898
_cell_formula_units_Z   1
loop_
 _symmetry_equiv_pos_site_id
 _symmetry_equiv_pos_as_xyz
  1  'x, y, z'
loop_
 _atom_site_type_symbol
 _atom_site_label
 _atom_site_symmetry_multiplicity
 _atom_site_fract_x
 _atom_site_fract_y
 _atom_site_fract_z
 _atom_site_occupancy
  Li  Li0  1  0.33028909  0.16971091  0.75000000  1
  Mg  Mg1  1  0.17015266  0.83890766  0.25000000  1
  Mg  Mg2  1  0.66109234  0.32984734  0.25000000  1
  Mg  Mg3  1  0.66583409  0.83416591  0.25000000  1
  Mg  Mg4  1  0.32855958  0.65467819  0.75000000  1
  Mg  Mg5  1  0.84532181  0.17144042  0.75000000  1
  Mg  Mg6  1  0.83335154  0.66664846  0.75000000  1
  Mn  Mn7  1  0.16539888  0.33460112  0.25000000  1
