# generated using pymatgen
data_CoH8(IO5)2
_symmetry_space_group_name_H-M   'P 1'
_cell_length_a   8.77174127
_cell_length_b   6.06091417
_cell_length_c   8.63928971
_cell_angle_alpha   90.00000000
_cell_angle_beta   100.45155433
_cell_angle_gamma   90.00000000
_symmetry_Int_Tables_number   1
_chemical_formula_structural   CoH8(IO5)2
_chemical_formula_sum   'Co2 H16 I4 O20'
_cell_volume   451.68535134
_cell_formula_units_Z   2
loop_
 _symmetry_equiv_pos_site_id
 _symmetry_equiv_pos_as_xyz
  1  'x, y, z'
loop_
 _atom_site_type_symbol
 _atom_site_label
 _atom_site_symmetry_multiplicity
 _atom_site_fract_x
 _atom_site_fract_y
 _atom_site_fract_z
 _atom_site_occupancy
  Co  Co0  1  0.50000000  0.50000000  0.50000000  1
  Co  Co1  1  0.50000000  0.00000000  0.00000000  1
  H  H2  1  0.20316399  0.29501997  0.98976948  1
  H  H3  1  0.22791117  0.07223369  0.77533725  1
  H  H4  1  0.20316399  0.20498003  0.48976948  1
  H  H5  1  0.22791117  0.42776631  0.27533725  1
  H  H6  1  0.34529517  0.48409156  0.73065342  1
  H  H7  1  0.34529517  0.01590844  0.23065342  1
  H  H8  1  0.51345772  0.38692558  0.80117573  1
  H  H9  1  0.48654228  0.88692558  0.69882427  1
  H  H10  1  0.51345772  0.11307442  0.30117573  1
  H  H11  1  0.48654228  0.61307442  0.19882427  1
  H  H12  1  0.65470483  0.98409156  0.76934658  1
  H  H13  1  0.65470483  0.51590844  0.26934658  1
  H  H14  1  0.77208883  0.57223369  0.72466275  1
  H  H15  1  0.79683601  0.79501997  0.51023052  1
  H  H16  1  0.77208883  0.92776631  0.22466275  1
  H  H17  1  0.79683601  0.70498003  0.01023052  1
  I  I18  1  0.17944430  0.71392646  0.94980461  1
  I  I19  1  0.17944430  0.78607354  0.44980461  1
  I  I20  1  0.82055570  0.21392646  0.55019539  1
  I  I21  1  0.82055570  0.28607354  0.05019539  1
  O  O22  1  0.16852901  0.61327238  0.74898401  1
  O  O23  1  0.15369464  0.08539725  0.54404057  1
  O  O24  1  0.25389328  0.04569234  0.89030332  1
  O  O25  1  0.16852901  0.88672762  0.24898401  1
  O  O26  1  0.15369464  0.41460275  0.04404057  1
  O  O27  1  0.25389328  0.45430766  0.39030332  1
  O  O28  1  0.38935885  0.80473382  0.52468847  1
  O  O29  1  0.43509161  0.40238724  0.70293799  1
  O  O30  1  0.38935885  0.69526618  0.02468847  1
  O  O31  1  0.43509161  0.09761276  0.20293799  1
  O  O32  1  0.56490839  0.90238724  0.79706201  1
  O  O33  1  0.61064115  0.30473382  0.97531153  1
  O  O34  1  0.56490839  0.59761276  0.29706201  1
  O  O35  1  0.61064115  0.19526618  0.47531153  1
  O  O36  1  0.74610672  0.54569234  0.60969668  1
  O  O37  1  0.84630536  0.58539725  0.95595943  1
  O  O38  1  0.83147099  0.11327238  0.75101599  1
  O  O39  1  0.74610672  0.95430766  0.10969668  1
  O  O40  1  0.84630536  0.91460275  0.45595943  1
  O  O41  1  0.83147099  0.38672762  0.25101599  1
