# generated using pymatgen
data_Ti9SnO20
_symmetry_space_group_name_H-M   'P 1'
_cell_length_a   7.59857904
_cell_length_b   6.61005542
_cell_length_c   7.25883793
_cell_angle_alpha   90.00000000
_cell_angle_beta   85.96741149
_cell_angle_gamma   64.21767204
_symmetry_Int_Tables_number   1
_chemical_formula_structural   Ti9SnO20
_chemical_formula_sum   'Ti9 Sn1 O20'
_cell_volume   327.29329506
_cell_formula_units_Z   1
loop_
 _symmetry_equiv_pos_site_id
 _symmetry_equiv_pos_as_xyz
  1  'x, y, z'
loop_
 _atom_site_type_symbol
 _atom_site_label
 _atom_site_symmetry_multiplicity
 _atom_site_fract_x
 _atom_site_fract_y
 _atom_site_fract_z
 _atom_site_occupancy
  Ti  Ti0  1  0.00470050  0.99764975  0.00184108  1
  Ti  Ti1  1  0.00878180  0.99560910  0.49584033  1
  Ti  Ti2  1  0.19529950  0.40235025  0.39815892  1
  Ti  Ti3  1  0.60000000  0.20000000  0.20000000  1
  Ti  Ti4  1  0.19121820  0.40439090  0.90415967  1
  Ti  Ti5  1  0.40202430  0.79898735  0.29762583  1
  Ti  Ti6  1  0.79797570  0.60101265  0.10237417  1
  Ti  Ti7  1  0.39951106  0.80024497  0.79791734  1
  Ti  Ti8  1  0.80048894  0.59975503  0.60208266  1
  Sn  Sn9  1  0.60000000  0.20000000  0.70000000  1
  O  O10  1  0.99776056  0.30669403  0.00098049  1
  O  O11  1  0.99776056  0.69554641  0.00098049  1
  O  O12  1  0.20223944  0.09330597  0.39901951  1
  O  O13  1  0.32213724  0.33893138  0.14368111  1
  O  O14  1  0.07995411  0.46002345  0.65309410  1
  O  O15  1  0.47456206  0.26271897  0.44977615  1
  O  O16  1  0.27667228  0.86166386  0.05940966  1
  O  O17  1  0.87786276  0.06106862  0.25631889  1
  O  O18  1  0.20223944  0.70445359  0.39901951  1
  O  O19  1  0.60000000  0.50599065  0.20000000  1
  O  O20  1  0.38829919  0.10460482  0.80633545  1
  O  O21  1  0.38829919  0.50709598  0.80633545  1
  O  O22  1  0.60000000  0.89400935  0.20000000  1
  O  O23  1  0.81170081  0.29539518  0.59366455  1
  O  O24  1  0.12004589  0.93997655  0.74690590  1
  O  O25  1  0.92332772  0.53833614  0.34059034  1
  O  O26  1  0.72543794  0.13728103  0.95022385  1
  O  O27  1  0.52211458  0.73894221  0.54525485  1
  O  O28  1  0.67788542  0.66105779  0.85474515  1
  O  O29  1  0.81170081  0.89290402  0.59366455  1
