# generated using pymatgen
data_Li2CoP2O7
_symmetry_space_group_name_H-M   'P 1'
_cell_length_a   5.60409366
_cell_length_b   7.77322141
_cell_length_c   7.90444528
_cell_angle_alpha   64.34380344
_cell_angle_beta   90.00000000
_cell_angle_gamma   68.87066655
_symmetry_Int_Tables_number   1
_chemical_formula_structural   Li2CoP2O7
_chemical_formula_sum   'Li4 Co2 P4 O14'
_cell_volume   284.48502527
_cell_formula_units_Z   2
loop_
 _symmetry_equiv_pos_site_id
 _symmetry_equiv_pos_as_xyz
  1  'x, y, z'
loop_
 _atom_site_type_symbol
 _atom_site_label
 _atom_site_symmetry_multiplicity
 _atom_site_fract_x
 _atom_site_fract_y
 _atom_site_fract_z
 _atom_site_occupancy
  Li  Li0  1  0.06399550  0.55774308  0.80725431  1
  Li  Li1  1  0.62173858  0.44225692  0.69274569  1
  Li  Li2  1  0.37826142  0.55774308  0.30725431  1
  Li  Li3  1  0.93600450  0.44225692  0.19274569  1
  Co  Co4  1  0.00000000  0.00000000  0.50000000  1
  Co  Co5  1  0.00000000  0.00000000  0.00000000  1
  P  P6  1  0.46811445  0.77586581  0.85786955  1
  P  P7  1  0.75601974  0.77586581  0.35786955  1
  P  P8  1  0.24398026  0.22413419  0.64213045  1
  P  P9  1  0.53188555  0.22413419  0.14213045  1
  O  O10  1  0.29567905  0.76347035  0.71335062  1
  O  O11  1  0.74175723  0.61095310  0.92044350  1
  O  O12  1  0.88690239  0.77900546  0.52816233  1
  O  O13  1  0.94085160  0.76347035  0.21335062  1
  O  O14  1  0.64728867  0.61095310  0.42044350  1
  O  O15  1  0.33409114  0.77900546  0.02816233  1
  O  O16  1  0.66590886  0.22099454  0.97183767  1
  O  O17  1  0.35271133  0.38904690  0.57955650  1
  O  O18  1  0.05914840  0.23652965  0.78664938  1
  O  O19  1  0.11309761  0.22099454  0.47183767  1
  O  O20  1  0.25824277  0.38904690  0.07955650  1
  O  O21  1  0.70432095  0.23652965  0.28664938  1
  O  O22  1  0.49257545  0.00000000  0.75000000  1
  O  O23  1  0.50742455  1.00000000  0.25000000  1
