# generated using pymatgen
data_U6O11
_symmetry_space_group_name_H-M   'P 1'
_cell_length_a   6.66442649
_cell_length_b   6.66172596
_cell_length_c   6.66291187
_cell_angle_alpha   120.00589709
_cell_angle_beta   109.45710309
_cell_angle_gamma   80.41095864
_symmetry_Int_Tables_number   1
_chemical_formula_structural   U6O11
_chemical_formula_sum   'U6 O11'
_cell_volume   241.53495623
_cell_formula_units_Z   1
loop_
 _symmetry_equiv_pos_site_id
 _symmetry_equiv_pos_as_xyz
  1  'x, y, z'
loop_
 _atom_site_type_symbol
 _atom_site_label
 _atom_site_symmetry_multiplicity
 _atom_site_fract_x
 _atom_site_fract_y
 _atom_site_fract_z
 _atom_site_occupancy
  U  U0  1  0.49762368  0.33230573  0.16565904  1
  U  U1  1  0.49762368  0.66769427  0.83335331  1
  U  U2  1  0.99660450  0.64865576  0.33038425  1
  U  U3  1  0.99608924  0.00000000  0.98515511  1
  U  U4  1  0.51458341  0.00000000  0.50383447  1
  U  U5  1  0.99660450  0.35134424  0.68172849  1
  O  O6  1  0.62496921  0.65655156  0.20273314  1
  O  O7  1  0.88688551  0.31888138  0.29578032  1
  O  O8  1  0.88688551  0.68111862  0.97689894  1
  O  O9  1  0.62496921  0.34344844  0.54618158  1
  O  O10  1  0.36530764  0.00000000  0.13728979  1
  O  O11  1  0.12555480  0.33202655  0.04101759  1
  O  O12  1  0.36347465  0.68161816  0.45411543  1
  O  O13  1  0.88381166  0.00000000  0.61373929  1
  O  O14  1  0.36347465  0.31838184  0.77249727  1
  O  O15  1  0.12555480  0.66797345  0.70899104  1
  O  O16  1  0.62498334  0.00000000  0.87564092  1
