# generated using pymatgen
data_Li3V2(PO4)3
_symmetry_space_group_name_H-M   'P 1'
_cell_length_a   9.81814815
_cell_length_b   9.81814815
_cell_length_c   9.79098657
_cell_angle_alpha   86.33122857
_cell_angle_beta   93.66877143
_cell_angle_gamma   94.58231043
_symmetry_Int_Tables_number   1
_chemical_formula_structural   Li3V2(PO4)3
_chemical_formula_sum   'Li12 V8 P12 O48'
_cell_volume   937.22154807
_cell_formula_units_Z   4
loop_
 _symmetry_equiv_pos_site_id
 _symmetry_equiv_pos_as_xyz
  1  'x, y, z'
loop_
 _atom_site_type_symbol
 _atom_site_label
 _atom_site_symmetry_multiplicity
 _atom_site_fract_x
 _atom_site_fract_y
 _atom_site_fract_z
 _atom_site_occupancy
  Li  Li0  1  0.01456653  0.50484167  0.24043918  1
  Li  Li1  1  0.37914558  0.75002496  0.80554545  1
  Li  Li2  1  0.21839232  0.56354399  0.46738106  1
  Li  Li3  1  0.23470419  0.73402278  0.17975658  1
  Li  Li4  1  0.70255685  0.92437310  0.97543204  1
  Li  Li5  1  0.99750949  0.25641740  0.38759923  1
  Li  Li6  1  0.25641740  0.99750949  0.61240077  1
  Li  Li7  1  0.92437310  0.70255685  0.02456796  1
  Li  Li8  1  0.73402278  0.23470419  0.82024342  1
  Li  Li9  1  0.56354399  0.21839232  0.53261894  1
  Li  Li10  1  0.75002496  0.37914558  0.19445455  1
  Li  Li11  1  0.50484167  0.01456653  0.75956082  1
  V  V12  1  0.02950437  0.24913582  0.78244515  1
  V  V13  1  0.74653251  0.96616575  0.28092039  1
  V  V14  1  0.74849291  0.74849291  0.50000000  1
  V  V15  1  0.53143214  0.53143214  0.50000000  1
  V  V16  1  0.24874799  0.24874799  0.00000000  1
  V  V17  1  0.46819263  0.46819263  0.00000000  1
  V  V18  1  0.96616575  0.74653251  0.71907961  1
  V  V19  1  0.24913582  0.02950437  0.21755485  1
  P  P20  1  0.17407705  0.94547534  0.90288542  1
  P  P21  1  0.05026994  0.82144256  0.40485651  1
  P  P22  1  0.15619879  0.55241567  0.92860666  1
  P  P23  1  0.44226342  0.83783816  0.42923031  1
  P  P24  1  0.65180862  0.68143754  0.80349007  1
  P  P25  1  0.34080860  0.31899334  0.69777906  1
  P  P26  1  0.31899334  0.34080860  0.30222094  1
  P  P27  1  0.68143754  0.65180862  0.19650993  1
  P  P28  1  0.83783816  0.44226342  0.57076969  1
  P  P29  1  0.55241567  0.15619879  0.07139334  1
  P  P30  1  0.82144256  0.05026994  0.59514349  1
  P  P31  1  0.94547534  0.17407705  0.09711458  1
  O  O32  1  0.03208091  0.87235952  0.86869675  1
  O  O33  1  0.11161163  0.96040491  0.34435704  1
  O  O34  1  0.08144521  0.82074066  0.56317212  1
  O  O35  1  0.20839049  0.90829111  0.05820453  1
  O  O36  1  0.28503852  0.91155530  0.81059439  1
  O  O37  1  0.10305388  0.69761918  0.34251161  1
  O  O38  1  0.09035802  0.61237086  0.79250302  1
  O  O39  1  0.40313929  0.90732807  0.55258673  1
  O  O40  1  0.37060620  0.88034538  0.28965181  1
  O  O41  1  0.09778612  0.60259283  0.05685084  1
  O  O42  1  0.12311021  0.39145668  0.92488095  1
  O  O43  1  0.31306985  0.59009438  0.92734484  1
  O  O44  1  0.57804234  0.80311903  0.84457471  1
  O  O45  1  0.40647586  0.67776200  0.44487684  1
  O  O46  1  0.60349478  0.87046936  0.41716293  1
  O  O47  1  0.19353010  0.40455688  0.34883292  1
  O  O48  1  0.18317088  0.31211975  0.66884174  1
  O  O49  1  0.70305766  0.80806352  0.15568424  1
  O  O50  1  0.39387294  0.45749243  0.63028562  1
  O  O51  1  0.62234782  0.67121804  0.64239572  1
  O  O52  1  0.82398010  0.88952303  0.62990227  1
  O  O53  1  0.16378225  0.10593230  0.87560323  1
  O  O54  1  0.54133869  0.59799139  0.13387099  1
  O  O55  1  0.37859100  0.32668364  0.85951248  1
  O  O56  1  0.32668364  0.37859100  0.14048752  1
  O  O57  1  0.59799139  0.54133869  0.86612901  1
  O  O58  1  0.10593230  0.16378225  0.12439677  1
  O  O59  1  0.88952303  0.82398010  0.37009773  1
  O  O60  1  0.67121804  0.62234782  0.35760428  1
  O  O61  1  0.45749243  0.39387294  0.36971438  1
  O  O62  1  0.80806352  0.70305766  0.84431576  1
  O  O63  1  0.31211975  0.18317088  0.33115826  1
  O  O64  1  0.40455688  0.19353010  0.65116708  1
  O  O65  1  0.87046936  0.60349478  0.58283707  1
  O  O66  1  0.67776200  0.40647586  0.55512316  1
  O  O67  1  0.80311903  0.57804234  0.15542529  1
  O  O68  1  0.59009438  0.31306985  0.07265516  1
  O  O69  1  0.39145668  0.12311021  0.07511905  1
  O  O70  1  0.60259283  0.09778612  0.94314916  1
  O  O71  1  0.88034538  0.37060620  0.71034819  1
  O  O72  1  0.90732807  0.40313929  0.44741327  1
  O  O73  1  0.61237086  0.09035802  0.20749698  1
  O  O74  1  0.69761918  0.10305388  0.65748839  1
  O  O75  1  0.91155530  0.28503852  0.18940561  1
  O  O76  1  0.90829111  0.20839049  0.94179547  1
  O  O77  1  0.82074066  0.08144521  0.43682788  1
  O  O78  1  0.96040491  0.11161163  0.65564296  1
  O  O79  1  0.87235952  0.03208091  0.13130325  1
