# generated using pymatgen
data_Li3Mn2CoO6
_symmetry_space_group_name_H-M   'P 1'
_cell_length_a   15.38539618
_cell_length_b   9.87620746
_cell_length_c   9.87620761
_cell_angle_alpha   17.43936256
_cell_angle_beta   16.75330560
_cell_angle_gamma   16.75330438
_symmetry_Int_Tables_number   1
_chemical_formula_structural   Li3Mn2CoO6
_chemical_formula_sum   'Li3 Mn2 Co1 O6'
_cell_volume   111.55246805
_cell_formula_units_Z   1
loop_
 _symmetry_equiv_pos_site_id
 _symmetry_equiv_pos_as_xyz
  1  'x, y, z'
loop_
 _atom_site_type_symbol
 _atom_site_label
 _atom_site_symmetry_multiplicity
 _atom_site_fract_x
 _atom_site_fract_y
 _atom_site_fract_z
 _atom_site_occupancy
  Li  Li0  1  0.16666700  0.50000000  0.50000000  1
  Li  Li1  1  0.50383755  0.49915625  0.49915625  1
  Li  Li2  1  0.82949545  0.50084375  0.50084375  1
  Mn  Mn3  1  0.00820353  0.99271489  0.99271489  1
  Mn  Mn4  1  0.32512947  0.00728511  0.00728511  1
  Co  Co5  1  0.66666700  0.00000000  0.00000000  1
  O  O6  1  0.21975544  0.27626588  0.27626588  1
  O  O7  1  0.58696818  0.25483944  0.25483944  1
  O  O8  1  0.11357856  0.72373412  0.72373412  1
  O  O9  1  0.94176616  0.23666592  0.23666592  1
  O  O10  1  0.39156684  0.76333408  0.76333408  1
  O  O11  1  0.74636482  0.74516056  0.74516056  1
