# generated using pymatgen
data_Li2CoP2O7
_symmetry_space_group_name_H-M   'P 1'
_cell_length_a   8.11099932
_cell_length_b   5.11947871
_cell_length_c   14.17029031
_cell_angle_alpha   90.00000000
_cell_angle_beta   112.24856971
_cell_angle_gamma   90.00000000
_symmetry_Int_Tables_number   1
_chemical_formula_structural   Li2CoP2O7
_chemical_formula_sum   'Li8 Co4 P8 O28'
_cell_volume   544.60135659
_cell_formula_units_Z   4
loop_
 _symmetry_equiv_pos_site_id
 _symmetry_equiv_pos_as_xyz
  1  'x, y, z'
loop_
 _atom_site_type_symbol
 _atom_site_label
 _atom_site_symmetry_multiplicity
 _atom_site_fract_x
 _atom_site_fract_y
 _atom_site_fract_z
 _atom_site_occupancy
  Li  Li0  1  0.02407607  0.81706952  0.67842355  1
  Li  Li1  1  0.02407607  0.68293048  0.17842355  1
  Li  Li2  1  0.57458751  0.28082324  0.83821307  1
  Li  Li3  1  0.42541249  0.78082324  0.66178693  1
  Li  Li4  1  0.57458751  0.21917676  0.33821307  1
  Li  Li5  1  0.42541249  0.71917676  0.16178693  1
  Li  Li6  1  0.97592393  0.31706952  0.82157645  1
  Li  Li7  1  0.97592393  0.18293048  0.32157645  1
  Co  Co8  1  0.27654952  0.71323474  0.87814160  1
  Co  Co9  1  0.27654952  0.78676526  0.37814160  1
  Co  Co10  1  0.72345048  0.21323474  0.62185840  1
  Co  Co11  1  0.72345048  0.28676526  0.12185840  1
  P  P12  1  0.18758997  0.29343563  0.69243064  1
  P  P13  1  0.30116847  0.28862978  0.52134161  1
  P  P14  1  0.18758997  0.20656437  0.19243064  1
  P  P15  1  0.69883153  0.78862978  0.97865839  1
  P  P16  1  0.30116847  0.21137022  0.02134161  1
  P  P17  1  0.81241003  0.79343563  0.80756936  1
  P  P18  1  0.69883153  0.71137022  0.47865839  1
  P  P19  1  0.81241003  0.70656437  0.30756936  1
  O  O20  1  0.99725280  0.72947994  0.80646976  1
  O  O21  1  0.99725280  0.77052006  0.30646976  1
  O  O22  1  0.21637714  0.34425979  0.91778647  1
  O  O23  1  0.15391384  0.24786177  0.57274428  1
  O  O24  1  0.23706031  0.58329184  0.71606924  1
  O  O25  1  0.32999043  0.10379243  0.75706553  1
  O  O26  1  0.32375192  0.58476032  0.51328323  1
  O  O27  1  0.21637714  0.15574021  0.41778647  1
  O  O28  1  0.15391384  0.25213823  0.07274428  1
  O  O29  1  0.53301392  0.64492968  0.90667610  1
  O  O30  1  0.23706031  0.91670816  0.21606924  1
  O  O31  1  0.32999043  0.39620757  0.25706553  1
  O  O32  1  0.46698608  0.14492968  0.59332390  1
  O  O33  1  0.32375192  0.91523968  0.01328323  1
  O  O34  1  0.67624808  0.08476032  0.98671677  1
  O  O35  1  0.53301392  0.85507032  0.40667610  1
  O  O36  1  0.67000957  0.60379243  0.74293447  1
  O  O37  1  0.76293969  0.08329184  0.78393076  1
  O  O38  1  0.46698608  0.35507032  0.09332390  1
  O  O39  1  0.84608616  0.74786177  0.92725572  1
  O  O40  1  0.78362286  0.84425979  0.58221353  1
  O  O41  1  0.67624808  0.41523968  0.48671677  1
  O  O42  1  0.67000957  0.89620757  0.24293447  1
  O  O43  1  0.76293969  0.41670816  0.28393076  1
  O  O44  1  0.84608616  0.75213823  0.42725572  1
  O  O45  1  0.78362286  0.65574021  0.08221353  1
  O  O46  1  0.00274720  0.22947994  0.69353024  1
  O  O47  1  0.00274720  0.27052006  0.19353024  1
