# generated using pymatgen
data_Li3V3P8O29
_symmetry_space_group_name_H-M   'P 1'
_cell_length_a   9.79758020
_cell_length_b   9.72873733
_cell_length_c   14.24013099
_cell_angle_alpha   89.40489321
_cell_angle_beta   90.00115957
_cell_angle_gamma   59.76677309
_symmetry_Int_Tables_number   1
_chemical_formula_structural   Li3V3P8O29
_chemical_formula_sum   'Li6 V6 P16 O58'
_cell_volume   1172.63543556
_cell_formula_units_Z   2
loop_
 _symmetry_equiv_pos_site_id
 _symmetry_equiv_pos_as_xyz
  1  'x, y, z'
loop_
 _atom_site_type_symbol
 _atom_site_label
 _atom_site_symmetry_multiplicity
 _atom_site_fract_x
 _atom_site_fract_y
 _atom_site_fract_z
 _atom_site_occupancy
  Li  Li0  1  0.90548634  0.76327404  0.05790732  1
  Li  Li1  1  0.66905529  0.23679725  0.44216685  1
  Li  Li2  1  0.33127692  0.76326231  0.55790970  1
  Li  Li3  1  0.09404671  0.23678349  0.94217899  1
  Li  Li4  1  0.00259639  0.99792883  0.00006368  1
  Li  Li5  1  0.99958057  0.99800613  0.50005604  1
  V  V6  1  0.56344667  0.43939374  0.23999612  1
  V  V7  1  0.43656980  0.56065627  0.75989751  1
  V  V8  1  0.56320522  0.00003643  0.75001506  1
  V  V9  1  0.43678928  0.00003919  0.25000332  1
  V  V10  1  0.00278912  0.56064421  0.25992754  1
  V  V11  1  0.99717367  0.43937912  0.73999379  1
  P  P12  1  0.91300521  0.77307919  0.84105235  1
  P  P13  1  0.77637915  0.91791590  0.34289362  1
  P  P14  1  0.91190061  0.30090312  0.34002480  1
  P  P15  1  0.67189821  0.67081982  0.13297879  1
  P  P16  1  0.65728706  0.67084525  0.63297682  1
  P  P17  1  0.78717751  0.30090476  0.83999716  1
  P  P18  1  0.68603429  0.22696832  0.65900594  1
  P  P19  1  0.30572673  0.91790356  0.84287421  1
  P  P20  1  0.69436938  0.08205213  0.15713140  1
  P  P21  1  0.31389105  0.77308490  0.34104493  1
  P  P22  1  0.21271952  0.69939580  0.15997074  1
  P  P23  1  0.34272320  0.32923009  0.36697950  1
  P  P24  1  0.32802466  0.32926199  0.86697321  1
  P  P25  1  0.08788569  0.69936900  0.66001659  1
  P  P26  1  0.22360752  0.08205005  0.65713969  1
  P  P27  1  0.08697222  0.22696863  0.15901778  1
  O  O28  1  0.00840513  0.79921689  0.57619735  1
  O  O29  1  0.91068076  0.74043790  0.33567188  1
  O  O30  1  0.79502681  0.99750340  0.07502951  1
  O  O31  1  0.73992326  0.91079000  0.82848367  1
  O  O32  1  0.91725662  0.61442648  0.82257086  1
  O  O33  1  0.82010061  0.66856467  0.17599806  1
  O  O34  1  0.91993909  0.45824222  0.33000115  1
  O  O35  1  0.02061195  0.21835250  0.06667384  1
  O  O36  1  0.91870848  0.34549252  0.83337188  1
  O  O37  1  0.65964265  0.81412505  0.68023695  1
  O  O38  1  0.61689345  0.92371685  0.33154281  1
  O  O39  1  0.81094178  0.52037791  0.67577041  1
  O  O40  1  0.67243113  0.67316207  0.02896012  1
  O  O41  1  0.65433913  0.67322327  0.52895976  1
  O  O42  1  0.66871236  0.52035036  0.17578817  1
  O  O43  1  0.45940417  0.92368396  0.83152493  1
  O  O44  1  0.52626115  0.81412363  0.18023155  1
  O  O45  1  0.73579095  0.34548271  0.33338060  1
  O  O46  1  0.80436296  0.20654087  0.74329089  1
  O  O47  1  0.76101965  0.21832993  0.56661552  1
  O  O48  1  0.80738721  0.20138569  0.92392358  1
  O  O49  1  0.62181333  0.45825211  0.82996627  1
  O  O50  1  0.51133886  0.66857971  0.67599328  1
  O  O51  1  0.65118339  0.25958881  0.16430841  1
  O  O52  1  0.46827102  0.61441337  0.32255958  1
  O  O53  1  0.34930610  0.91076175  0.32843507  1
  O  O54  1  0.79920860  0.00008638  0.25007153  1
  O  O55  1  0.79273987  0.00227575  0.42508972  1
  O  O56  1  0.20743246  0.99746835  0.57501145  1
  O  O57  1  0.65068526  0.08926172  0.67160373  1
  O  O58  1  0.53162888  0.38564218  0.67740209  1
  O  O59  1  0.34886593  0.74043325  0.83565208  1
  O  O60  1  0.48854207  0.33154265  0.32381752  1
  O  O61  1  0.37823389  0.54221454  0.16978007  1
  O  O62  1  0.19230833  0.79923688  0.07622682  1
  O  O63  1  0.23889254  0.78160649  0.43337229  1
  O  O64  1  0.19548805  0.79363728  0.25672747  1
  O  O65  1  0.26402203  0.65460223  0.66652008  1
  O  O66  1  0.47366804  0.18594366  0.81973120  1
  O  O67  1  0.54054062  0.07645077  0.16857289  1
  O  O68  1  0.33137283  0.47965358  0.82419692  1
  O  O69  1  0.32738212  0.32676453  0.97096688  1
  O  O70  1  0.34584356  0.32680450  0.47098838  1
  O  O71  1  0.18896716  0.47965451  0.32422353  1
  O  O72  1  0.38302897  0.07639231  0.66853875  1
  O  O73  1  0.34032734  0.18592892  0.31976628  1
  O  O74  1  0.08137577  0.65455822  0.16650858  1
  O  O75  1  0.01080447  0.79365996  0.75671884  1
  O  O76  1  0.97954089  0.78158136  0.93338172  1
  O  O77  1  0.07958466  0.54219203  0.66981154  1
  O  O78  1  0.17985652  0.33159267  0.82383276  1
  O  O79  1  0.08272471  0.38564330  0.17744803  1
  O  O80  1  0.26006725  0.08928404  0.17161170  1
  O  O81  1  0.20501923  0.00225768  0.92509290  1
  O  O82  1  0.20069517  0.00010209  0.75006660  1
  O  O83  1  0.08924663  0.25957550  0.66429306  1
  O  O84  1  0.99119677  0.20137034  0.42395570  1
  O  O85  1  0.98912239  0.20651217  0.24333429  1
