# generated using pymatgen
data_Li2CrCo3O8
_symmetry_space_group_name_H-M   'P 1'
_cell_length_a   5.71561346
_cell_length_b   5.71561378
_cell_length_c   5.78540478
_cell_angle_alpha   60.39825353
_cell_angle_beta   119.60174913
_cell_angle_gamma   120.00000883
_symmetry_Int_Tables_number   1
_chemical_formula_structural   Li2CrCo3O8
_chemical_formula_sum   'Li2 Cr1 Co3 O8'
_cell_volume   134.44128570
_cell_formula_units_Z   1
loop_
 _symmetry_equiv_pos_site_id
 _symmetry_equiv_pos_as_xyz
  1  'x, y, z'
loop_
 _atom_site_type_symbol
 _atom_site_label
 _atom_site_symmetry_multiplicity
 _atom_site_fract_x
 _atom_site_fract_y
 _atom_site_fract_z
 _atom_site_occupancy
  Li  Li0  1  0.87694567  0.12305433  0.63083600  1
  Li  Li1  1  0.12305433  0.87694567  0.36916400  1
  Cr  Cr2  1  0.50000000  0.50000000  0.50000000  1
  Co  Co3  1  0.50000000  0.50000000  0.00000000  1
  Co  Co4  1  0.50000000  0.00000000  0.00000000  1
  Co  Co5  1  0.00000000  0.50000000  0.00000000  1
  O  O6  1  0.74463033  0.70743650  0.78182416  1
  O  O7  1  0.74463033  0.25536967  0.78182416  1
  O  O8  1  0.26294738  0.73705262  0.78884414  1
  O  O9  1  0.29256350  0.25536967  0.78182416  1
  O  O10  1  0.70743650  0.74463033  0.21817584  1
  O  O11  1  0.73705262  0.26294738  0.21115586  1
  O  O12  1  0.25536967  0.74463033  0.21817584  1
  O  O13  1  0.25536967  0.29256350  0.21817584  1
