# generated using pymatgen
data_CaHfMg6
_symmetry_space_group_name_H-M   'P 1'
_cell_length_a   6.42957101
_cell_length_b   9.02911589
_cell_length_c   4.66748044
_cell_angle_alpha   90.00000000
_cell_angle_beta   90.00000000
_cell_angle_gamma   134.60019438
_symmetry_Int_Tables_number   1
_chemical_formula_structural   CaHfMg6
_chemical_formula_sum   'Ca1 Hf1 Mg6'
_cell_volume   192.93195230
_cell_formula_units_Z   1
loop_
 _symmetry_equiv_pos_site_id
 _symmetry_equiv_pos_as_xyz
  1  'x, y, z'
loop_
 _atom_site_type_symbol
 _atom_site_label
 _atom_site_symmetry_multiplicity
 _atom_site_fract_x
 _atom_site_fract_y
 _atom_site_fract_z
 _atom_site_occupancy
  Ca  Ca0  1  0.25323212  0.37661506  0.25000000  1
  Hf  Hf1  1  0.24780174  0.87390037  0.25000000  1
  Mg  Mg2  1  0.74989918  0.37334040  0.25000000  1
  Mg  Mg3  1  0.74989918  0.87655778  0.25000000  1
  Mg  Mg4  1  0.24972369  0.11078712  0.75000000  1
  Mg  Mg5  1  0.24972369  0.63893857  0.75000000  1
  Mg  Mg6  1  0.71918237  0.10959168  0.75000000  1
  Mg  Mg7  1  0.78053704  0.64026902  0.75000000  1
