# generated using pymatgen
data_LiCoPO4
_symmetry_space_group_name_H-M   'P 1'
_cell_length_a   8.66611472
_cell_length_b   15.01678072
_cell_length_c   7.96233606
_cell_angle_alpha   90.00000000
_cell_angle_beta   90.00000000
_cell_angle_gamma   90.42523219
_symmetry_Int_Tables_number   1
_chemical_formula_structural   LiCoPO4
_chemical_formula_sum   'Li12 Co12 P12 O48'
_cell_volume   1036.16714030
_cell_formula_units_Z   12
loop_
 _symmetry_equiv_pos_site_id
 _symmetry_equiv_pos_as_xyz
  1  'x, y, z'
loop_
 _atom_site_type_symbol
 _atom_site_label
 _atom_site_symmetry_multiplicity
 _atom_site_fract_x
 _atom_site_fract_y
 _atom_site_fract_z
 _atom_site_occupancy
  Li  Li0  1  0.23028075  0.93972799  0.96829494  1
  Li  Li1  1  0.21950911  0.59253631  0.04719246  1
  Li  Li2  1  0.25228956  0.24989567  0.83198905  1
  Li  Li3  1  0.24771044  0.25010433  0.33198905  1
  Li  Li4  1  0.28049089  0.90746369  0.54719246  1
  Li  Li5  1  0.26971925  0.56027201  0.46829494  1
  Li  Li6  1  0.73028075  0.43972799  0.53170506  1
  Li  Li7  1  0.71950911  0.09253631  0.45280754  1
  Li  Li8  1  0.75228956  0.74989567  0.66801095  1
  Li  Li9  1  0.74771044  0.75010433  0.16801095  1
  Li  Li10  1  0.78049089  0.40746369  0.95280754  1
  Li  Li11  1  0.76971925  0.06027201  0.03170506  1
  Co  Co12  1  0.04111245  0.40509366  0.27251171  1
  Co  Co13  1  0.08249312  0.77286518  0.21628415  1
  Co  Co14  1  0.11097944  0.07208012  0.28039865  1
  Co  Co15  1  0.38902056  0.42791988  0.78039865  1
  Co  Co16  1  0.41750688  0.72713482  0.71628415  1
  Co  Co17  1  0.45888755  0.09490634  0.77251171  1
  Co  Co18  1  0.54111245  0.90509366  0.22748829  1
  Co  Co19  1  0.58249312  0.27286518  0.28371585  1
  Co  Co20  1  0.61097944  0.57208012  0.21960135  1
  Co  Co21  1  0.88902056  0.92791988  0.71960135  1
  Co  Co22  1  0.91750688  0.22713482  0.78371585  1
  Co  Co23  1  0.95888755  0.59490634  0.72748829  1
  P  P24  1  0.05442662  0.40912618  0.67115169  1
  P  P25  1  0.09204911  0.77397052  0.82756449  1
  P  P26  1  0.11609374  0.07236555  0.67284331  1
  P  P27  1  0.38390626  0.42763445  0.17284331  1
  P  P28  1  0.40795089  0.72602948  0.32756449  1
  P  P29  1  0.44557338  0.09087382  0.17115169  1
  P  P30  1  0.55442662  0.90912618  0.82884831  1
  P  P31  1  0.59204911  0.27397052  0.67243551  1
  P  P32  1  0.61609374  0.57236555  0.82715669  1
  P  P33  1  0.88390626  0.92763445  0.32715669  1
  P  P34  1  0.90795089  0.22602948  0.17243551  1
  P  P35  1  0.94557338  0.59087382  0.32884831  1
  O  O36  1  0.03596633  0.60653437  0.49446740  1
  O  O37  1  0.09470861  0.67205702  0.86683309  1
  O  O38  1  0.08322439  0.98978450  0.78674755  1
  O  O39  1  0.03375900  0.87483596  0.36015074  1
  O  O40  1  0.04858225  0.53349916  0.21106109  1
  O  O41  1  0.09766903  0.82831267  0.99362167  1
  O  O42  1  0.08661361  0.31839903  0.75828122  1
  O  O43  1  0.05900617  0.20253152  0.26760959  1
  O  O44  1  0.18551544  0.03812883  0.50493877  1
  O  O45  1  0.21131930  0.45732830  0.63525161  1
  O  O46  1  0.26834506  0.69796642  0.21782367  1
  O  O47  1  0.26215244  0.36782780  0.26294549  1
  O  O48  1  0.23165494  0.80203358  0.71782367  1
  O  O49  1  0.23784756  0.13217220  0.76294549  1
  O  O50  1  0.28868070  0.04267170  0.13525161  1
  O  O51  1  0.31448456  0.46187117  0.00493877  1
  O  O52  1  0.44099383  0.29746848  0.76760959  1
  O  O53  1  0.40233097  0.67168733  0.49362167  1
  O  O54  1  0.41338639  0.18160097  0.25828122  1
  O  O55  1  0.45141775  0.96650084  0.71106109  1
  O  O56  1  0.46624100  0.62516404  0.86015074  1
  O  O57  1  0.41677561  0.51021550  0.28674755  1
  O  O58  1  0.40529139  0.82794298  0.36683309  1
  O  O59  1  0.46403367  0.89346563  0.99446740  1
  O  O60  1  0.53596633  0.10653437  0.00553260  1
  O  O61  1  0.59470861  0.17205702  0.63316691  1
  O  O62  1  0.58322439  0.48978450  0.71325245  1
  O  O63  1  0.53375900  0.37483596  0.13984926  1
  O  O64  1  0.54858225  0.03349916  0.28893891  1
  O  O65  1  0.58661361  0.81839903  0.74171878  1
  O  O66  1  0.59766903  0.32831267  0.50637833  1
  O  O67  1  0.55900617  0.70253152  0.23239041  1
  O  O68  1  0.68551544  0.53812883  0.99506123  1
  O  O69  1  0.71131930  0.95732830  0.86474839  1
  O  O70  1  0.76215244  0.86782780  0.23705451  1
  O  O71  1  0.76834506  0.19796642  0.28217633  1
  O  O72  1  0.73784756  0.63217220  0.73705451  1
  O  O73  1  0.73165494  0.30203358  0.78217633  1
  O  O74  1  0.78868070  0.54267170  0.36474839  1
  O  O75  1  0.81448456  0.96187117  0.49506123  1
  O  O76  1  0.94099383  0.79746848  0.73239041  1
  O  O77  1  0.91338639  0.68160097  0.24171878  1
  O  O78  1  0.90233097  0.17168733  0.00637833  1
  O  O79  1  0.95141775  0.46650084  0.78893891  1
  O  O80  1  0.96624100  0.12516404  0.63984926  1
  O  O81  1  0.91677561  0.01021550  0.21325245  1
  O  O82  1  0.90529139  0.32794298  0.13316691  1
  O  O83  1  0.96403367  0.39346563  0.50553260  1
