# generated using pymatgen
data_Li2NbCo3O8
_symmetry_space_group_name_H-M   'P 1'
_cell_length_a   5.77598451
_cell_length_b   5.78280495
_cell_length_c   9.40659365
_cell_angle_alpha   90.03776168
_cell_angle_beta   89.98109404
_cell_angle_gamma   120.03907197
_symmetry_Int_Tables_number   1
_chemical_formula_structural   Li2NbCo3O8
_chemical_formula_sum   'Li4 Nb2 Co6 O16'
_cell_volume   271.99214489
_cell_formula_units_Z   2
loop_
 _symmetry_equiv_pos_site_id
 _symmetry_equiv_pos_as_xyz
  1  'x, y, z'
loop_
 _atom_site_type_symbol
 _atom_site_label
 _atom_site_symmetry_multiplicity
 _atom_site_fract_x
 _atom_site_fract_y
 _atom_site_fract_z
 _atom_site_occupancy
  Li  Li0  1  0.33438098  0.66791051  0.89600192  1
  Li  Li1  1  0.99879765  0.99708599  0.99606131  1
  Li  Li2  1  0.00120235  0.99828835  0.49606131  1
  Li  Li3  1  0.66561902  0.33352953  0.39600192  1
  Nb  Nb4  1  0.33318912  0.66641350  0.49648749  1
  Nb  Nb5  1  0.66681088  0.33322438  0.99648749  1
  Co  Co6  1  0.16995733  0.83036493  0.21583893  1
  Co  Co7  1  0.16977367  0.33993364  0.21552102  1
  Co  Co8  1  0.66031623  0.83047417  0.21578588  1
  Co  Co9  1  0.33968377  0.17015693  0.71578588  1
  Co  Co10  1  0.83004267  0.66040860  0.71583893  1
  Co  Co11  1  0.83022633  0.17016097  0.71552102  1
  O  O12  1  0.16572457  0.83588796  0.59965767  1
  O  O13  1  0.03793965  0.51949398  0.33408154  1
  O  O14  1  0.33307718  0.66670182  0.11227431  1
  O  O15  1  0.00055071  0.00079869  0.30777833  1
  O  O16  1  0.99944929  0.00024797  0.80777833  1
  O  O17  1  0.16446570  0.32806016  0.59803734  1
  O  O18  1  0.48143009  0.96269421  0.33404034  1
  O  O19  1  0.48111549  0.51974655  0.33394354  1
  O  O20  1  0.32804380  0.16396300  0.09840838  1
  O  O21  1  0.67195620  0.83592020  0.59840838  1
  O  O22  1  0.51856991  0.48126412  0.83404034  1
  O  O23  1  0.51888451  0.03863105  0.83394354  1
  O  O24  1  0.66692282  0.33362464  0.61227431  1
  O  O25  1  0.83427543  0.67016338  0.09965767  1
  O  O26  1  0.96206035  0.48155433  0.83408154  1
  O  O27  1  0.83553430  0.16359446  0.09803734  1
