# generated using pymatgen
data_LiFeCO4
_symmetry_space_group_name_H-M   'P 1'
_cell_length_a   9.35478568
_cell_length_b   9.34797842
_cell_length_c   3.16310915
_cell_angle_alpha   90.00000000
_cell_angle_beta   90.00000000
_cell_angle_gamma   90.00000000
_symmetry_Int_Tables_number   1
_chemical_formula_structural   LiFeCO4
_chemical_formula_sum   'Li4 Fe4 C4 O16'
_cell_volume   276.60862752
_cell_formula_units_Z   4
loop_
 _symmetry_equiv_pos_site_id
 _symmetry_equiv_pos_as_xyz
  1  'x, y, z'
loop_
 _atom_site_type_symbol
 _atom_site_label
 _atom_site_symmetry_multiplicity
 _atom_site_fract_x
 _atom_site_fract_y
 _atom_site_fract_z
 _atom_site_occupancy
  Li  Li0  1  0.09874608  0.69156645  0.75000000  1
  Li  Li1  1  0.40125392  0.19156645  0.25000000  1
  Li  Li2  1  0.59874608  0.80843355  0.75000000  1
  Li  Li3  1  0.90125392  0.30843355  0.25000000  1
  Fe  Fe4  1  0.11458529  0.06991838  0.75000000  1
  Fe  Fe5  1  0.38541471  0.56991838  0.25000000  1
  Fe  Fe6  1  0.61458529  0.43008162  0.75000000  1
  Fe  Fe7  1  0.88541471  0.93008162  0.25000000  1
  C  C8  1  0.16355078  0.37331290  0.75000000  1
  C  C9  1  0.33644922  0.87331290  0.25000000  1
  C  C10  1  0.66355078  0.12668710  0.75000000  1
  C  C11  1  0.83644922  0.62668710  0.25000000  1
  O  O12  1  0.00413964  0.88490973  0.75000000  1
  O  O13  1  0.02947180  0.37240915  0.75000000  1
  O  O14  1  0.23583306  0.49761241  0.75000000  1
  O  O15  1  0.23900337  0.25451776  0.75000000  1
  O  O16  1  0.26099663  0.75451776  0.25000000  1
  O  O17  1  0.26416694  0.99761241  0.25000000  1
  O  O18  1  0.47052820  0.87240915  0.25000000  1
  O  O19  1  0.49586036  0.38490973  0.25000000  1
  O  O20  1  0.50413964  0.61509027  0.75000000  1
  O  O21  1  0.52947180  0.12759085  0.75000000  1
  O  O22  1  0.73583306  0.00238759  0.75000000  1
  O  O23  1  0.73900337  0.24548224  0.75000000  1
  O  O24  1  0.76099663  0.74548224  0.25000000  1
  O  O25  1  0.76416694  0.50238759  0.25000000  1
  O  O26  1  0.97052820  0.62759085  0.25000000  1
  O  O27  1  0.99586036  0.11509027  0.25000000  1
