# generated using pymatgen
data_Li3V3P8O29
_symmetry_space_group_name_H-M   'P 1'
_cell_length_a   9.72102969
_cell_length_b   9.73752270
_cell_length_c   14.36266432
_cell_angle_alpha   90.30254763
_cell_angle_beta   90.56500736
_cell_angle_gamma   60.29453316
_symmetry_Int_Tables_number   1
_chemical_formula_structural   Li3V3P8O29
_chemical_formula_sum   'Li6 V6 P16 O58'
_cell_volume   1180.82773551
_cell_formula_units_Z   2
loop_
 _symmetry_equiv_pos_site_id
 _symmetry_equiv_pos_as_xyz
  1  'x, y, z'
loop_
 _atom_site_type_symbol
 _atom_site_label
 _atom_site_symmetry_multiplicity
 _atom_site_fract_x
 _atom_site_fract_y
 _atom_site_fract_z
 _atom_site_occupancy
  Li  Li0  1  0.76853945  0.32366848  0.05381912  1
  Li  Li1  1  0.32147097  0.90785674  0.05584665  1
  Li  Li2  1  0.32794410  0.77082136  0.56197791  1
  Li  Li3  1  0.08572613  0.67982987  0.44377332  1
  Li  Li4  1  0.98011152  0.96366718  0.99414876  1
  Li  Li5  1  0.95038411  0.07535219  0.50343707  1
  V  V6  1  0.56624723  0.43249799  0.25200950  1
  V  V7  1  0.43663953  0.56136278  0.75296700  1
  V  V8  1  0.56606585  0.99776575  0.74884131  1
  V  V9  1  0.44027358  0.00254738  0.25315008  1
  V  V10  1  0.99674365  0.56340504  0.24524499  1
  V  V11  1  0.00080767  0.43508806  0.74806744  1
  P  P12  1  0.91671709  0.78025467  0.83506170  1
  P  P13  1  0.78458946  0.91545325  0.34156993  1
  P  P14  1  0.91815992  0.30611720  0.34297443  1
  P  P15  1  0.66126145  0.66587873  0.13290678  1
  P  P16  1  0.66429380  0.66736202  0.63223296  1
  P  P17  1  0.77949231  0.31141363  0.84207946  1
  P  P18  1  0.69121586  0.22122747  0.66307313  1
  P  P19  1  0.31184751  0.91252619  0.84390820  1
  P  P20  1  0.69745728  0.08265557  0.15741891  1
  P  P21  1  0.31886687  0.77241114  0.34224211  1
  P  P22  1  0.22226585  0.69122494  0.16261177  1
  P  P23  1  0.33021987  0.33844699  0.36598620  1
  P  P24  1  0.33429454  0.32983915  0.86560953  1
  P  P25  1  0.08920439  0.68717271  0.65547722  1
  P  P26  1  0.21687016  0.08491183  0.66369596  1
  P  P27  1  0.08628817  0.21885250  0.16132316  1
  O  O28  1  0.02010464  0.76475391  0.56442138  1
  O  O29  1  0.91840364  0.73896473  0.33418206  1
  O  O30  1  0.79110257  0.00700180  0.07332619  1
  O  O31  1  0.74084716  0.91470655  0.82872653  1
  O  O32  1  0.92333813  0.61853736  0.82587967  1
  O  O33  1  0.81118311  0.66492237  0.17952975  1
  O  O34  1  0.92211512  0.46201366  0.32783252  1
  O  O35  1  0.99266042  0.21486283  0.08021158  1
  O  O36  1  0.91712603  0.34624052  0.83011357  1
  O  O37  1  0.66328419  0.81475343  0.67894560  1
  O  O38  1  0.62080524  0.91973382  0.32712156  1
  O  O39  1  0.81330453  0.52334547  0.67779109  1
  O  O40  1  0.66165453  0.66379087  0.02963737  1
  O  O41  1  0.65980020  0.67224372  0.52883530  1
  O  O42  1  0.66938229  0.51233639  0.17300993  1
  O  O43  1  0.46741271  0.91539019  0.82957766  1
  O  O44  1  0.51353796  0.81413002  0.17524082  1
  O  O45  1  0.74281747  0.34490000  0.32727034  1
  O  O46  1  0.79374356  0.19738759  0.75783483  1
  O  O47  1  0.78649331  0.20941383  0.58106684  1
  O  O48  1  0.78903339  0.23319738  0.93270696  1
  O  O49  1  0.62097947  0.46944456  0.82647712  1
  O  O50  1  0.51337017  0.66859369  0.67198710  1
  O  O51  1  0.65628224  0.25941475  0.16453648  1
  O  O52  1  0.47767901  0.61780523  0.32436229  1
  O  O53  1  0.34641825  0.91532738  0.33192763  1
  O  O54  1  0.80151991  0.99872560  0.24924933  1
  O  O55  1  0.80248797  0.99315060  0.42556425  1
  O  O56  1  0.19804059  0.99549578  0.58429576  1
  O  O57  1  0.64963406  0.08683765  0.66837260  1
  O  O58  1  0.53649484  0.38188490  0.67464659  1
  O  O59  1  0.34651216  0.73942625  0.82789388  1
  O  O60  1  0.47839126  0.33715081  0.31971770  1
  O  O61  1  0.38225381  0.53612112  0.17270359  1
  O  O62  1  0.20635803  0.79491757  0.08283737  1
  O  O63  1  0.24346528  0.76878986  0.43192108  1
  O  O64  1  0.20106176  0.78885799  0.25878674  1
  O  O65  1  0.26281133  0.65560990  0.66336855  1
  O  O66  1  0.47829880  0.18387412  0.82028273  1
  O  O67  1  0.54045850  0.07749797  0.17276575  1
  O  O68  1  0.33793620  0.47725994  0.81990599  1
  O  O69  1  0.33442705  0.33433972  0.96857745  1
  O  O70  1  0.33347514  0.33937855  0.46889259  1
  O  O71  1  0.18306834  0.48818590  0.32465449  1
  O  O72  1  0.37952909  0.07652654  0.67131141  1
  O  O73  1  0.33287744  0.18894870  0.31896990  1
  O  O74  1  0.08510695  0.65266836  0.16742463  1
  O  O75  1  0.99571432  0.80166980  0.74056754  1
  O  O76  1  0.99818385  0.80020714  0.91710514  1
  O  O77  1  0.08743270  0.53115582  0.67202759  1
  O  O78  1  0.18514447  0.33430442  0.81984042  1
  O  O79  1  0.08510104  0.37965841  0.17410391  1
  O  O80  1  0.26080394  0.08173671  0.16159143  1
  O  O81  1  0.23270173  0.97373905  0.93509967  1
  O  O82  1  0.19395682  0.01262144  0.76060170  1
  O  O83  1  0.08340654  0.26030515  0.66578016  1
  O  O84  1  0.98638598  0.21672063  0.42947884  1
  O  O85  1  0.01195145  0.19560374  0.25544243  1
