# generated using pymatgen
data_LiCuF3
_symmetry_space_group_name_H-M   'P 1'
_cell_length_a   5.05728622
_cell_length_b   5.05692901
_cell_length_c   14.61170152
_cell_angle_alpha   90.00025864
_cell_angle_beta   90.00008819
_cell_angle_gamma   59.99241146
_symmetry_Int_Tables_number   1
_chemical_formula_structural   LiCuF3
_chemical_formula_sum   'Li6 Cu6 F18'
_cell_volume   323.59559382
_cell_formula_units_Z   6
loop_
 _symmetry_equiv_pos_site_id
 _symmetry_equiv_pos_as_xyz
  1  'x, y, z'
loop_
 _atom_site_type_symbol
 _atom_site_label
 _atom_site_symmetry_multiplicity
 _atom_site_fract_x
 _atom_site_fract_y
 _atom_site_fract_z
 _atom_site_occupancy
  Li  Li0  1  0.05859552  0.05853460  0.41665123  1
  Li  Li1  1  0.05850540  0.88296244  0.08333604  1
  Li  Li2  1  0.11712297  0.94143822  0.25000966  1
  Li  Li3  1  0.88298790  0.05849359  0.74999987  1
  Li  Li4  1  0.94142010  0.11717388  0.58333175  1
  Li  Li5  1  0.94131804  0.94138681  0.91665075  1
  Cu  Cu6  1  0.28605677  0.28613255  0.91671695  1
  Cu  Cu7  1  0.28610313  0.42780274  0.58329114  1
  Cu  Cu8  1  0.42789414  0.28605504  0.24999027  1
  Cu  Cu9  1  0.57232470  0.71382093  0.74999875  1
  Cu  Cu10  1  0.71378312  0.57241318  0.08330726  1
  Cu  Cu11  1  0.71389603  0.71379924  0.41670430  1
  F  F12  1  0.99986981  0.24101351  0.00001001  1
  F  F13  1  0.10958106  0.29891927  0.32368469  1
  F  F14  1  0.29896102  0.10941210  0.50964127  1
  F  F15  1  0.99994855  0.75907385  0.49997381  1
  F  F16  1  0.10957324  0.59162614  0.17630549  1
  F  F17  1  0.29873444  0.59171905  0.99034500  1
  F  F18  1  0.24098301  0.75919124  0.66663323  1
  F  F19  1  0.59147145  0.10965232  0.65703993  1
  F  F20  1  0.24093531  0.99982770  0.83336958  1
  F  F21  1  0.59140712  0.29876547  0.84296866  1
  F  F22  1  0.40873877  0.70096486  0.34295447  1
  F  F23  1  0.75911706  0.00001984  0.33339418  1
  F  F24  1  0.40868324  0.89046460  0.15709591  1
  F  F25  1  0.75911560  0.24089331  0.16660798  1
  F  F26  1  0.70105695  0.40841229  0.49034469  1
  F  F27  1  0.89052161  0.40852193  0.67627532  1
  F  F28  1  0.70081388  0.89067181  0.00962686  1
  F  F29  1  0.89051608  0.70081149  0.82372695  1
