# generated using pymatgen
data_LiMnPO4
_symmetry_space_group_name_H-M   'P 1'
_cell_length_a   9.82746896
_cell_length_b   9.82746906
_cell_length_c   23.34180614
_cell_angle_alpha   90.00000000
_cell_angle_beta   90.00000000
_cell_angle_gamma   120.00000304
_symmetry_Int_Tables_number   1
_chemical_formula_structural   LiMnPO4
_chemical_formula_sum   'Li24 Mn24 P24 O96'
_cell_volume   1952.30848670
_cell_formula_units_Z   24
loop_
 _symmetry_equiv_pos_site_id
 _symmetry_equiv_pos_as_xyz
  1  'x, y, z'
loop_
 _atom_site_type_symbol
 _atom_site_label
 _atom_site_symmetry_multiplicity
 _atom_site_fract_x
 _atom_site_fract_y
 _atom_site_fract_z
 _atom_site_occupancy
  Li  Li0  1  0.10138496  0.81340124  0.27228228  1
  Li  Li1  1  0.09529218  0.76472940  0.92147879  1
  Li  Li2  1  0.12581125  0.76060928  0.59541034  1
  Li  Li3  1  0.31361226  0.66429525  0.75538562  1
  Li  Li4  1  0.33570475  0.64931701  0.08871862  1
  Li  Li5  1  0.35068299  0.68638774  0.42205162  1
  Li  Li6  1  0.18659876  0.28798373  0.60561628  1
  Li  Li7  1  0.23939072  0.36520197  0.92874334  1
  Li  Li8  1  0.23527060  0.33056378  0.25481179  1
  Li  Li9  1  0.63479803  0.87418875  0.26207634  1
  Li  Li10  1  0.66943622  0.90470782  0.58814579  1
  Li  Li11  1  0.28798373  0.10138496  0.43894928  1
  Li  Li12  1  0.71201627  0.89861504  0.93894928  1
  Li  Li13  1  0.33056378  0.09529218  0.08814579  1
  Li  Li14  1  0.36520197  0.12581125  0.76207634  1
  Li  Li15  1  0.76472940  0.66943622  0.75481179  1
  Li  Li16  1  0.76060928  0.63479803  0.42874334  1
  Li  Li17  1  0.81340124  0.71201627  0.10561628  1
  Li  Li18  1  0.64931701  0.31361226  0.92205162  1
  Li  Li19  1  0.66429525  0.35068299  0.58871862  1
  Li  Li20  1  0.68638774  0.33570475  0.25538562  1
  Li  Li21  1  0.87418875  0.23939072  0.09541034  1
  Li  Li22  1  0.90470782  0.23527060  0.42147879  1
  Li  Li23  1  0.89861504  0.18659876  0.77228228  1
  Mn  Mn24  1  0.99439097  0.01683191  0.70746580  1
  Mn  Mn25  1  0.02196254  0.55901419  0.04272799  1
  Mn  Mn26  1  0.04403548  0.46689185  0.19579633  1
  Mn  Mn27  1  0.06203494  0.50175409  0.85111498  1
  Mn  Mn28  1  0.42285537  0.95596452  0.86246333  1
  Mn  Mn29  1  0.43971915  0.93796506  0.51778198  1
  Mn  Mn30  1  0.98316809  0.97755906  0.04079880  1
  Mn  Mn31  1  0.97755906  0.99439097  0.87413180  1
  Mn  Mn32  1  0.53705165  0.97803746  0.70939399  1
  Mn  Mn33  1  0.44098581  0.46294835  0.37606099  1
  Mn  Mn34  1  0.49824591  0.56028085  0.18444898  1
  Mn  Mn35  1  0.53310815  0.57714463  0.52912933  1
  Mn  Mn36  1  0.46689185  0.42285537  0.02912933  1
  Mn  Mn37  1  0.50175409  0.43971915  0.68444898  1
  Mn  Mn38  1  0.55901419  0.53705165  0.87606099  1
  Mn  Mn39  1  0.46294835  0.02196254  0.20939399  1
  Mn  Mn40  1  0.02244094  0.00560903  0.37413180  1
  Mn  Mn41  1  0.01683191  0.02244094  0.54079880  1
  Mn  Mn42  1  0.56028085  0.06203494  0.01778198  1
  Mn  Mn43  1  0.57714463  0.04403548  0.36246333  1
  Mn  Mn44  1  0.93796506  0.49824591  0.35111498  1
  Mn  Mn45  1  0.95596452  0.53310815  0.69579633  1
  Mn  Mn46  1  0.97803746  0.44098581  0.54272799  1
  Mn  Mn47  1  0.00560903  0.98316809  0.20746580  1
  P  P48  1  0.09258275  0.79462275  0.79231569  1
  P  P49  1  0.08241847  0.75877549  0.46705866  1
  P  P50  1  0.13661094  0.79330636  0.13651105  1
  P  P51  1  0.29428647  0.65623809  0.29162835  1
  P  P52  1  0.36195162  0.70571353  0.95829535  1
  P  P53  1  0.34376191  0.63804838  0.62496135  1
  P  P54  1  0.20669364  0.34330458  0.46984405  1
  P  P55  1  0.20537725  0.29796000  0.12564869  1
  P  P56  1  0.24122451  0.32364298  0.80039166  1
  P  P57  1  0.65669542  0.86338906  0.80317705  1
  P  P58  1  0.67635702  0.91758153  0.13372466  1
  P  P59  1  0.70204000  0.90741725  0.45898269  1
  P  P60  1  0.29796000  0.09258275  0.95898269  1
  P  P61  1  0.32364298  0.08241847  0.63372466  1
  P  P62  1  0.34330458  0.13661094  0.30317705  1
  P  P63  1  0.75877549  0.67635702  0.30039166  1
  P  P64  1  0.79462275  0.70204000  0.62564869  1
  P  P65  1  0.79330636  0.65669542  0.96984405  1
  P  P66  1  0.65623809  0.36195162  0.12496135  1
  P  P67  1  0.63804838  0.29428647  0.45829535  1
  P  P68  1  0.70571353  0.34376191  0.79162835  1
  P  P69  1  0.86338906  0.20669364  0.63651105  1
  P  P70  1  0.91758153  0.24122451  0.96705866  1
  P  P71  1  0.90741725  0.20537725  0.29231569  1
  O  O72  1  0.04422807  0.79272463  0.08230923  1
  O  O73  1  0.08577287  0.92161876  0.46920538  1
  O  O74  1  0.01304209  0.69173834  0.84578142  1
  O  O75  1  0.13493367  0.97868316  0.93158287  1
  O  O76  1  0.03905549  0.78760443  0.18980725  1
  O  O77  1  0.01654835  0.67139030  0.52412298  1
  O  O78  1  0.24406019  0.94562953  0.81019453  1
  O  O79  1  0.13109106  0.64636547  0.29671275  1
  O  O80  1  0.12707418  0.69183807  0.75068603  1
  O  O81  1  0.31079272  0.97276434  0.58332469  1
  O  O82  1  0.30614548  0.93352790  0.13879649  1
  O  O83  1  0.14793140  0.63946554  0.13267015  1
  O  O84  1  0.25273595  0.79081595  0.45868181  1
  O  O85  1  0.17094812  0.59209834  0.61188122  1
  O  O86  1  0.06647210  0.37261758  0.47212949  1
  O  O87  1  0.26742890  0.72068387  0.90629369  1
  O  O88  1  0.02723566  0.33802938  0.91665769  1
  O  O89  1  0.05437047  0.29843066  0.14352753  1
  O  O90  1  0.02131684  0.15625051  0.26491587  1
  O  O91  1  0.07838124  0.16415411  0.80253838  1
  O  O92  1  0.26440433  0.66777315  0.01372066  1
  O  O93  1  0.27931613  0.54674503  0.23962669  1
  O  O94  1  0.33222685  0.59663117  0.34705466  1
  O  O95  1  0.20918405  0.46192000  0.79201581  1
  O  O96  1  0.40336883  0.73559567  0.68038766  1
  O  O97  1  0.42115022  0.82905188  0.27854822  1
  O  O98  1  0.49153415  0.85206860  0.79933715  1
  O  O99  1  0.30816193  0.43523611  0.08401903  1
  O  O100  1  0.35363453  0.48472459  0.63004675  1
  O  O101  1  0.36053446  0.50846585  0.46600415  1
  O  O102  1  0.21239557  0.25145206  0.52314125  1
  O  O103  1  0.40790166  0.57884978  0.94521422  1
  O  O104  1  0.45325497  0.73257110  0.57295969  1
  O  O105  1  0.51527541  0.86890894  0.96337975  1
  O  O106  1  0.56476389  0.87292582  0.41735203  1
  O  O107  1  0.15625051  0.13493367  0.09824987  1
  O  O108  1  0.20727537  0.25150345  0.41564223  1
  O  O109  1  0.30826166  0.32130475  0.17911442  1
  O  O110  1  0.16415411  0.08577287  0.63587138  1
  O  O111  1  0.32860970  0.34515805  0.85745698  1
  O  O112  1  0.53808000  0.74726405  0.12534881  1
  O  O113  1  0.29843066  0.24406019  0.97686053  1
  O  O114  1  0.65484195  0.98345165  0.19078998  1
  O  O115  1  0.33802938  0.31079272  0.74999169  1
  O  O116  1  0.37261758  0.30614548  0.30546249  1
  O  O117  1  0.67869525  0.98695791  0.51244742  1
  O  O118  1  0.74854794  0.96094451  0.85647425  1
  O  O119  1  0.25150345  0.04422807  0.24897623  1
  O  O120  1  0.74849655  0.95577193  0.74897623  1
  O  O121  1  0.25145206  0.03905549  0.35647425  1
  O  O122  1  0.32130475  0.01304209  0.01244742  1
  O  O123  1  0.62738242  0.69385452  0.80546249  1
  O  O124  1  0.66197062  0.68920728  0.24999169  1
  O  O125  1  0.34515805  0.01654835  0.69078998  1
  O  O126  1  0.70156934  0.75593981  0.47686053  1
  O  O127  1  0.46192000  0.25273595  0.62534881  1
  O  O128  1  0.67139030  0.65484195  0.35745698  1
  O  O129  1  0.83584589  0.91422713  0.13587138  1
  O  O130  1  0.69173834  0.67869525  0.67911442  1
  O  O131  1  0.79272463  0.74849655  0.91564223  1
  O  O132  1  0.84374949  0.86506633  0.59824987  1
  O  O133  1  0.43523611  0.12707418  0.91735203  1
  O  O134  1  0.48472459  0.13109106  0.46337975  1
  O  O135  1  0.54674503  0.26742890  0.07295969  1
  O  O136  1  0.59209834  0.42115022  0.44521422  1
  O  O137  1  0.78760443  0.74854794  0.02314125  1
  O  O138  1  0.63946554  0.49153415  0.96600415  1
  O  O139  1  0.64636547  0.51527541  0.13004675  1
  O  O140  1  0.69183807  0.56476389  0.58401903  1
  O  O141  1  0.50846585  0.14793140  0.29933715  1
  O  O142  1  0.57884978  0.17094812  0.77854822  1
  O  O143  1  0.59663117  0.26440433  0.18038766  1
  O  O144  1  0.79081595  0.53808000  0.29201581  1
  O  O145  1  0.66777315  0.40336883  0.84705466  1
  O  O146  1  0.72068387  0.45325497  0.73962669  1
  O  O147  1  0.73559567  0.33222685  0.51372066  1
  O  O148  1  0.92161876  0.83584589  0.30253838  1
  O  O149  1  0.97868316  0.84374949  0.76491587  1
  O  O150  1  0.94562953  0.70156934  0.64352753  1
  O  O151  1  0.97276434  0.66197062  0.41665769  1
  O  O152  1  0.73257110  0.27931613  0.40629369  1
  O  O153  1  0.93352790  0.62738242  0.97212949  1
  O  O154  1  0.82905188  0.40790166  0.11188122  1
  O  O155  1  0.74726405  0.20918405  0.95868181  1
  O  O156  1  0.85206860  0.36053446  0.63267015  1
  O  O157  1  0.69385452  0.06647210  0.63879649  1
  O  O158  1  0.68920728  0.02723566  0.08332469  1
  O  O159  1  0.87292582  0.30816193  0.25068603  1
  O  O160  1  0.86890894  0.35363453  0.79671275  1
  O  O161  1  0.75593981  0.05437047  0.31019453  1
  O  O162  1  0.98345165  0.32860970  0.02412298  1
  O  O163  1  0.96094451  0.21239557  0.68980725  1
  O  O164  1  0.86506633  0.02131684  0.43158287  1
  O  O165  1  0.98695791  0.30826166  0.34578142  1
  O  O166  1  0.91422713  0.07838124  0.96920538  1
  O  O167  1  0.95577193  0.20727537  0.58230923  1
