# generated using pymatgen
data_Li6V3Cr(PO4)6
_symmetry_space_group_name_H-M   'P 1'
_cell_length_a   8.61660102
_cell_length_b   8.65312280
_cell_length_c   8.64386241
_cell_angle_alpha   61.35678294
_cell_angle_beta   61.27926247
_cell_angle_gamma   61.28622712
_symmetry_Int_Tables_number   1
_chemical_formula_structural   Li6V3Cr(PO4)6
_chemical_formula_sum   'Li6 V3 Cr1 P6 O24'
_cell_volume   469.11595142
_cell_formula_units_Z   1
loop_
 _symmetry_equiv_pos_site_id
 _symmetry_equiv_pos_as_xyz
  1  'x, y, z'
loop_
 _atom_site_type_symbol
 _atom_site_label
 _atom_site_symmetry_multiplicity
 _atom_site_fract_x
 _atom_site_fract_y
 _atom_site_fract_z
 _atom_site_occupancy
  Li  Li0  1  0.02645224  0.00656284  0.99697291  1
  Li  Li1  1  0.75008007  0.15104027  0.35046901  1
  Li  Li2  1  0.47494437  0.50080965  0.49290678  1
  Li  Li3  1  0.24144231  0.85096046  0.65224389  1
  Li  Li4  1  0.65469474  0.24368626  0.84621011  1
  Li  Li5  1  0.84675448  0.65493836  0.24389946  1
  V  V6  1  0.14277185  0.14505949  0.13768391  1
  V  V7  1  0.35581061  0.36281240  0.35510677  1
  V  V8  1  0.64568635  0.64570890  0.64491938  1
  Cr  Cr9  1  0.85471661  0.85386431  0.85515300  1
  P  P10  1  0.04738347  0.75057422  0.45328591  1
  P  P11  1  0.45466344  0.04969698  0.74806520  1
  P  P12  1  0.74938837  0.45609612  0.04606429  1
  P  P13  1  0.24834266  0.54385662  0.95763696  1
  P  P14  1  0.54443662  0.96243218  0.24890430  1
  P  P15  1  0.95578204  0.24711169  0.53914269  1
  O  O16  1  0.12564797  0.28746054  0.50154618  1
  O  O17  1  0.29822691  0.51336307  0.11888037  1
  O  O18  1  0.04166196  0.92169505  0.27293028  1
  O  O19  1  0.52859805  0.12211179  0.29458204  1
  O  O20  1  0.23840728  0.59422410  0.42811925  1
  O  O21  1  0.01859312  0.80239776  0.61556254  1
  O  O22  1  0.26379981  0.07236940  0.90607633  1
  O  O23  1  0.45461684  0.23157228  0.57684716  1
  O  O24  1  0.59404821  0.43217655  0.23958845  1
  O  O25  1  0.20224167  0.38181224  0.98638976  1
  O  O26  1  0.08509130  0.73574418  0.93578399  1
  O  O27  1  0.37306195  0.99865888  0.21090546  1
  O  O28  1  0.61498840  0.01732980  0.80566788  1
  O  O29  1  0.90662284  0.26248177  0.06902763  1
  O  O30  1  0.80539119  0.61515344  0.01643130  1
  O  O31  1  0.40843897  0.57304054  0.76384097  1
  O  O32  1  0.57193843  0.77004344  0.40724129  1
  O  O33  1  0.73283062  0.93816006  0.08285585  1
  O  O34  1  0.97251157  0.20068752  0.37935906  1
  O  O35  1  0.76529836  0.40828011  0.56849390  1
  O  O36  1  0.48639213  0.88877708  0.69376583  1
  O  O37  1  0.93575076  0.08401373  0.73019798  1
  O  O38  1  0.69394285  0.48504584  0.88772724  1
  O  O39  1  0.88854859  0.68719006  0.49051868  1
