# generated using pymatgen
data_LaMg6Al
_symmetry_space_group_name_H-M   'P 1'
_cell_length_a   7.34266753
_cell_length_b   6.13317771
_cell_length_c   4.91133912
_cell_angle_alpha   90.00000000
_cell_angle_beta   90.00000000
_cell_angle_gamma   114.68566221
_symmetry_Int_Tables_number   1
_chemical_formula_structural   LaMg6Al
_chemical_formula_sum   'La1 Mg6 Al1'
_cell_volume   200.96394420
_cell_formula_units_Z   1
loop_
 _symmetry_equiv_pos_site_id
 _symmetry_equiv_pos_as_xyz
  1  'x, y, z'
loop_
 _atom_site_type_symbol
 _atom_site_label
 _atom_site_symmetry_multiplicity
 _atom_site_fract_x
 _atom_site_fract_y
 _atom_site_fract_z
 _atom_site_occupancy
  La  La0  1  0.10543131  0.80271465  0.25000000  1
  Mg  Mg1  1  0.62750975  0.30663457  0.25000000  1
  Mg  Mg2  1  0.62750975  0.82087518  0.25000000  1
  Mg  Mg3  1  0.35335984  0.17618449  0.75000000  1
  Mg  Mg4  1  0.35335984  0.67717636  0.75000000  1
  Mg  Mg5  1  0.92432810  0.21216455  0.75000000  1
  Mg  Mg6  1  0.77207341  0.63603770  0.75000000  1
  Al  Al7  1  0.23642800  0.36821350  0.25000000  1
