# generated using pymatgen
data_Li3V3P8O29
_symmetry_space_group_name_H-M   'P 1'
_cell_length_a   9.78453460
_cell_length_b   9.73619722
_cell_length_c   14.27289969
_cell_angle_alpha   89.83022615
_cell_angle_beta   90.15148069
_cell_angle_gamma   60.03657057
_symmetry_Int_Tables_number   1
_chemical_formula_structural   Li3V3P8O29
_chemical_formula_sum   'Li6 V6 P16 O58'
_cell_volume   1177.94626137
_cell_formula_units_Z   2
loop_
 _symmetry_equiv_pos_site_id
 _symmetry_equiv_pos_as_xyz
  1  'x, y, z'
loop_
 _atom_site_type_symbol
 _atom_site_label
 _atom_site_symmetry_multiplicity
 _atom_site_fract_x
 _atom_site_fract_y
 _atom_site_fract_z
 _atom_site_occupancy
  Li  Li0  1  0.91723975  0.77691485  0.05525933  1
  Li  Li1  1  0.77352361  0.31090534  0.05848851  1
  Li  Li2  1  0.31756165  0.90777502  0.05659251  1
  Li  Li3  1  0.32467340  0.76810932  0.55931595  1
  Li  Li4  1  0.08993086  0.22640094  0.93704220  1
  Li  Li5  1  0.94570896  0.03724338  0.50445733  1
  V  V6  1  0.56428598  0.43323813  0.25305444  1
  V  V7  1  0.43466227  0.56328646  0.75286179  1
  V  V8  1  0.57010949  0.99727800  0.74639505  1
  V  V9  1  0.43789118  0.00241614  0.25517399  1
  V  V10  1  0.00127428  0.56353084  0.25686962  1
  V  V11  1  0.99449165  0.43984313  0.73800604  1
  P  P12  1  0.91228079  0.76930068  0.84037820  1
  P  P13  1  0.77842818  0.91830538  0.34374332  1
  P  P14  1  0.91725997  0.30145992  0.34034133  1
  P  P15  1  0.66820132  0.66561110  0.13394949  1
  P  P16  1  0.65898410  0.67044622  0.62905066  1
  P  P17  1  0.77436641  0.31793481  0.84192691  1
  P  P18  1  0.69323689  0.22380780  0.66132174  1
  P  P19  1  0.32065174  0.91113307  0.84213635  1
  P  P20  1  0.68609179  0.08605288  0.15932061  1
  P  P21  1  0.31499455  0.77266515  0.34285590  1
  P  P22  1  0.22576065  0.68607592  0.16273560  1
  P  P23  1  0.33421531  0.33385607  0.36923843  1
  P  P24  1  0.33013167  0.32830815  0.86510945  1
  P  P25  1  0.08530106  0.69829055  0.65940505  1
  P  P26  1  0.22450671  0.08257709  0.66072180  1
  P  P27  1  0.09024519  0.22957558  0.15823679  1
  O  O28  1  0.00481045  0.79839203  0.57722513  1
  O  O29  1  0.91210166  0.74258219  0.33055477  1
  O  O30  1  0.77013995  0.99320473  0.07560924  1
  O  O31  1  0.74397833  0.91443173  0.82884711  1
  O  O32  1  0.90451584  0.61770028  0.81515816  1
  O  O33  1  0.81923645  0.66032626  0.17722052  1
  O  O34  1  0.92038946  0.46082450  0.32970825  1
  O  O35  1  0.00481785  0.24148591  0.06819536  1
  O  O36  1  0.92076146  0.33973613  0.83321018  1
  O  O37  1  0.66776879  0.81216354  0.67523331  1
  O  O38  1  0.61792658  0.91966807  0.33015607  1
  O  O39  1  0.80962353  0.51693599  0.67126881  1
  O  O40  1  0.66801964  0.66692081  0.02969050  1
  O  O41  1  0.65516429  0.67321721  0.52527359  1
  O  O42  1  0.66561660  0.51530299  0.17339287  1
  O  O43  1  0.47929957  0.90279373  0.82332178  1
  O  O44  1  0.52158742  0.81676562  0.17632342  1
  O  O45  1  0.74193517  0.34349419  0.32857646  1
  O  O46  1  0.79115611  0.20250281  0.75757088  1
  O  O47  1  0.79059305  0.20699479  0.57899327  1
  O  O48  1  0.76760904  0.25150893  0.93419673  1
  O  O49  1  0.62110344  0.47920436  0.82068423  1
  O  O50  1  0.50871661  0.67423636  0.67124667  1
  O  O51  1  0.65940454  0.25747051  0.15998035  1
  O  O52  1  0.47455513  0.61666022  0.32435164  1
  O  O53  1  0.34414895  0.91424951  0.32777943  1
  O  O54  1  0.79215454  0.00633626  0.25195737  1
  O  O55  1  0.79594817  0.99279379  0.42908565  1
  O  O56  1  0.20781498  0.99296596  0.58185419  1
  O  O57  1  0.65200023  0.08878842  0.66800554  1
  O  O58  1  0.53727111  0.38453524  0.67276347  1
  O  O59  1  0.34315037  0.74221774  0.83377286  1
  O  O60  1  0.48300033  0.33064121  0.32354557  1
  O  O61  1  0.38019679  0.52532384  0.17897149  1
  O  O62  1  0.23233345  0.77614301  0.08069666  1
  O  O63  1  0.24540666  0.77563072  0.43510590  1
  O  O64  1  0.20037559  0.78666876  0.25876165  1
  O  O65  1  0.26199474  0.65574139  0.66458676  1
  O  O66  1  0.47361163  0.18106571  0.81884679  1
  O  O67  1  0.52568742  0.09387624  0.17885969  1
  O  O68  1  0.34098005  0.47388402  0.82073698  1
  O  O69  1  0.33175182  0.32692353  0.96895300  1
  O  O70  1  0.33471792  0.33422887  0.47253708  1
  O  O71  1  0.18713979  0.48409538  0.32442524  1
  O  O72  1  0.38404428  0.07809852  0.66890653  1
  O  O73  1  0.33054355  0.18751198  0.32352822  1
  O  O74  1  0.08129802  0.66058123  0.16238828  1
  O  O75  1  0.01326204  0.78816208  0.75751315  1
  O  O76  1  0.98605092  0.75895189  0.93250351  1
  O  O77  1  0.08213591  0.53816002  0.66846397  1
  O  O78  1  0.17767239  0.33710749  0.82354063  1
  O  O79  1  0.09661538  0.38178042  0.17979221  1
  O  O80  1  0.25847063  0.08272814  0.16067291  1
  O  O81  1  0.24593859  0.99331956  0.93235267  1
  O  O82  1  0.20113388  0.01194677  0.75909696  1
  O  O83  1  0.08850687  0.25871739  0.66413142  1
  O  O84  1  0.99385125  0.20329410  0.42371217  1
  O  O85  1  0.99667942  0.20667503  0.24385735  1
