# generated using pymatgen
data_LiNiPO4
_symmetry_space_group_name_H-M   'P 1'
_cell_length_a   9.86315129
_cell_length_b   4.83325963
_cell_length_c   6.39743847
_cell_angle_alpha   90.00000000
_cell_angle_beta   90.00000000
_cell_angle_gamma   90.00000000
_symmetry_Int_Tables_number   1
_chemical_formula_structural   LiNiPO4
_chemical_formula_sum   'Li4 Ni4 P4 O16'
_cell_volume   304.97338297
_cell_formula_units_Z   4
loop_
 _symmetry_equiv_pos_site_id
 _symmetry_equiv_pos_as_xyz
  1  'x, y, z'
loop_
 _atom_site_type_symbol
 _atom_site_label
 _atom_site_symmetry_multiplicity
 _atom_site_fract_x
 _atom_site_fract_y
 _atom_site_fract_z
 _atom_site_occupancy
  Li  Li0  1  0.16914945  0.43085046  0.77228885  1
  Li  Li1  1  0.33085055  0.56914954  0.27228885  1
  Li  Li2  1  0.66914945  0.06914954  0.22771115  1
  Li  Li3  1  0.83085055  0.93085046  0.72771115  1
  Ni  Ni4  1  0.02143871  0.98225031  0.04224566  1
  Ni  Ni5  1  0.47856129  0.01774969  0.54224566  1
  Ni  Ni6  1  0.52143871  0.51774969  0.95775434  1
  Ni  Ni7  1  0.97856129  0.48225031  0.45775434  1
  P  P8  1  0.15412483  0.91299850  0.49807743  1
  P  P9  1  0.34587517  0.08700150  0.99807743  1
  P  P10  1  0.65412483  0.58700150  0.50192257  1
  P  P11  1  0.84587517  0.41299850  0.00192257  1
  O  O12  1  0.07578932  0.76571337  0.67941560  1
  O  O13  1  0.08792771  0.78131799  0.29748542  1
  O  O14  1  0.14189079  0.22993906  0.50468303  1
  O  O15  1  0.19610520  0.17990718  0.00039576  1
  O  O16  1  0.30389480  0.82009282  0.50039576  1
  O  O17  1  0.35810921  0.77006094  0.00468303  1
  O  O18  1  0.41207229  0.21868201  0.79748542  1
  O  O19  1  0.42421068  0.23428663  0.17941560  1
  O  O20  1  0.57578932  0.73428663  0.32058440  1
  O  O21  1  0.58792771  0.71868201  0.70251458  1
  O  O22  1  0.64189079  0.27006094  0.49531697  1
  O  O23  1  0.69610520  0.32009282  0.99960424  1
  O  O24  1  0.80389480  0.67990718  0.49960424  1
  O  O25  1  0.85810921  0.72993906  0.99531697  1
  O  O26  1  0.91207229  0.28131799  0.20251458  1
  O  O27  1  0.92421068  0.26571337  0.82058440  1
