# generated using pymatgen
data_Li4Mn7O12
_symmetry_space_group_name_H-M   'P 1'
_cell_length_a   5.24574041
_cell_length_b   13.88344558
_cell_length_c   10.02083985
_cell_angle_alpha   98.54937619
_cell_angle_beta   95.40025001
_cell_angle_gamma   101.74778377
_symmetry_Int_Tables_number   1
_chemical_formula_structural   Li4Mn7O12
_chemical_formula_sum   'Li12 Mn21 O36'
_cell_volume   700.72547871
_cell_formula_units_Z   3
loop_
 _symmetry_equiv_pos_site_id
 _symmetry_equiv_pos_as_xyz
  1  'x, y, z'
loop_
 _atom_site_type_symbol
 _atom_site_label
 _atom_site_symmetry_multiplicity
 _atom_site_fract_x
 _atom_site_fract_y
 _atom_site_fract_z
 _atom_site_occupancy
  Li  Li0  1  0.78166520  0.30538560  0.24895989  1
  Li  Li1  1  0.94905621  0.89145217  0.49353430  1
  Li  Li2  1  0.60870128  0.21811010  0.49852144  1
  Li  Li3  1  0.71843510  0.44549509  0.48835162  1
  Li  Li4  1  0.27183806  0.05026221  0.00944119  1
  Li  Li5  1  0.73307027  0.94692861  0.00792828  1
  Li  Li6  1  0.39953204  0.28514355  0.00614874  1
  Li  Li7  1  0.45062617  0.63914909  0.24832112  1
  Li  Li8  1  0.27599322  0.55503454  0.49880086  1
  Li  Li9  1  0.36710432  0.78353360  0.48877043  1
  Li  Li10  1  0.05940768  0.61134297  0.00555970  1
  Li  Li11  1  0.11247439  0.97402631  0.25803325  1
  Mn  Mn12  1  0.88660795  0.02517430  0.74904917  1
  Mn  Mn13  1  0.83618164  0.17042131  0.00840155  1
  Mn  Mn14  1  0.90319601  0.52447524  0.24840412  1
  Mn  Mn15  1  0.67765318  0.08310632  0.25012521  1
  Mn  Mn16  1  0.82764134  0.66981627  0.49147834  1
  Mn  Mn17  1  0.56727085  0.36194218  0.75209592  1
  Mn  Mn18  1  0.66187688  0.58443556  0.75050482  1
  Mn  Mn19  1  0.77017005  0.80794372  0.75456567  1
  Mn  Mn20  1  0.49294745  0.49830516  0.00865812  1
  Mn  Mn21  1  0.42898306  0.13763631  0.74911830  1
  Mn  Mn22  1  0.56142743  0.86152870  0.24474118  1
  Mn  Mn23  1  0.23722673  0.19136611  0.25391215  1
  Mn  Mn24  1  0.32888429  0.41637458  0.24899974  1
  Mn  Mn25  1  0.49451068  0.00337790  0.49373594  1
  Mn  Mn26  1  0.15736136  0.33108365  0.49293941  1
  Mn  Mn27  1  0.21985259  0.69202255  0.74835239  1
  Mn  Mn28  1  0.32608093  0.91389201  0.75048051  1
  Mn  Mn29  1  0.99936659  0.24998416  0.75119483  1
  Mn  Mn30  1  0.15745679  0.83321876  0.00698177  1
  Mn  Mn31  1  0.10756823  0.47300636  0.75175528  1
  Mn  Mn32  1  0.99527105  0.75285153  0.24710579  1
  O  O33  1  0.94748808  0.07423822  0.13011110  1
  O  O34  1  0.93537221  0.20645771  0.36221030  1
  O  O35  1  0.86227743  0.35535386  0.63379971  1
  O  O36  1  0.69973996  0.12277548  0.62902115  1
  O  O37  1  0.98446052  0.58116170  0.62352621  1
  O  O38  1  0.76144658  0.60562766  0.12487823  1
  O  O39  1  0.67764377  0.24590197  0.87137266  1
  O  O40  1  0.88792709  0.84431066  0.13313914  1
  O  O41  1  0.52611759  0.16967043  0.13871448  1
  O  O42  1  0.80242192  0.48722824  0.85080175  1
  O  O43  1  0.93632111  0.70075835  0.86037740  1
  O  O44  1  0.60216591  0.03280784  0.86666369  1
  O  O45  1  0.59455698  0.40832977  0.13065649  1
  O  O46  1  0.70729756  0.76904226  0.35558332  1
  O  O47  1  0.40061575  0.09912493  0.36166140  1
  O  O48  1  0.60893022  0.54095586  0.36961907  1
  O  O49  1  0.77687815  0.98427800  0.35482031  1
  O  O50  1  0.45804768  0.33043586  0.36777171  1
  O  O51  1  0.52055572  0.67764358  0.63995242  1
  O  O52  1  0.19404482  0.01145596  0.64689611  1
  O  O53  1  0.39381047  0.46577551  0.63423024  1
  O  O54  1  0.65142844  0.91301362  0.62458058  1
  O  O55  1  0.32274885  0.25314152  0.63441887  1
  O  O56  1  0.43879235  0.95386918  0.13048913  1
  O  O57  1  0.34404486  0.57975138  0.88083736  1
  O  O58  1  0.10792536  0.28143520  0.13457162  1
  O  O59  1  0.20133587  0.51011858  0.14606121  1
  O  O60  1  0.42941306  0.81694944  0.86300856  1
  O  O61  1  0.13321699  0.14212607  0.86278282  1
  O  O62  1  0.29648658  0.37691547  0.87243877  1
  O  O63  1  0.28438327  0.75040978  0.13604963  1
  O  O64  1  0.04665698  0.43378683  0.36309092  1
  O  O65  1  0.26722248  0.88563413  0.38257776  1
  O  O66  1  0.12167308  0.66735028  0.36445908  1
  O  O67  1  0.07731852  0.79678454  0.62533475  1
  O  O68  1  0.02640376  0.92281360  0.89088600  1
