# generated using pymatgen
data_LiFe(PO3)3
_symmetry_space_group_name_H-M   'P 1'
_cell_length_a   7.31154057
_cell_length_b   12.23496211
_cell_length_c   9.15363756
_cell_angle_alpha   90.00000000
_cell_angle_beta   90.00000000
_cell_angle_gamma   90.00000000
_symmetry_Int_Tables_number   1
_chemical_formula_structural   LiFe(PO3)3
_chemical_formula_sum   'Li4 Fe4 P12 O36'
_cell_volume   818.85166293
_cell_formula_units_Z   4
loop_
 _symmetry_equiv_pos_site_id
 _symmetry_equiv_pos_as_xyz
  1  'x, y, z'
loop_
 _atom_site_type_symbol
 _atom_site_label
 _atom_site_symmetry_multiplicity
 _atom_site_fract_x
 _atom_site_fract_y
 _atom_site_fract_z
 _atom_site_occupancy
  Li  Li0  1  0.25000000  0.99763532  0.04735813  1
  Li  Li1  1  0.25000000  0.50236468  0.54735813  1
  Li  Li2  1  0.75000000  0.49763532  0.45264187  1
  Li  Li3  1  0.75000000  0.00236468  0.95264187  1
  Fe  Fe4  1  0.25000000  0.71724177  0.47152324  1
  Fe  Fe5  1  0.25000000  0.78275823  0.97152324  1
  Fe  Fe6  1  0.75000000  0.21724177  0.02847676  1
  Fe  Fe7  1  0.75000000  0.28275823  0.52847676  1
  P  P8  1  0.04519538  0.35122538  0.25211457  1
  P  P9  1  0.04519538  0.14877462  0.75211457  1
  P  P10  1  0.25000000  0.95741943  0.69119752  1
  P  P11  1  0.25000000  0.54258057  0.19119752  1
  P  P12  1  0.45480462  0.14877462  0.75211457  1
  P  P13  1  0.45480462  0.35122538  0.25211457  1
  P  P14  1  0.54519538  0.64877462  0.74788543  1
  P  P15  1  0.54519538  0.85122538  0.24788543  1
  P  P16  1  0.75000000  0.45741943  0.80880248  1
  P  P17  1  0.75000000  0.04258057  0.30880248  1
  P  P18  1  0.95480462  0.64877462  0.74788543  1
  P  P19  1  0.95480462  0.85122538  0.24788543  1
  O  O20  1  0.02687606  0.76386872  0.34553873  1
  O  O21  1  0.02687606  0.73613128  0.84553873  1
  O  O22  1  0.05982486  0.88283334  0.11154337  1
  O  O23  1  0.05982486  0.61716666  0.61154337  1
  O  O24  1  0.08004044  0.03928603  0.65622406  1
  O  O25  1  0.08004044  0.46071397  0.15622406  1
  O  O26  1  0.25000000  0.31841808  0.30523867  1
  O  O27  1  0.25000000  0.63359437  0.08581589  1
  O  O28  1  0.25000000  0.86640563  0.58581589  1
  O  O29  1  0.25000000  0.93639869  0.85434927  1
  O  O30  1  0.25000000  0.18158192  0.80523867  1
  O  O31  1  0.25000000  0.56360131  0.35434927  1
  O  O32  1  0.41995956  0.03928603  0.65622406  1
  O  O33  1  0.41995956  0.46071397  0.15622406  1
  O  O34  1  0.44017514  0.88283334  0.11154337  1
  O  O35  1  0.44017514  0.61716666  0.61154337  1
  O  O36  1  0.47312394  0.76386872  0.34553873  1
  O  O37  1  0.47312394  0.73613128  0.84553873  1
  O  O38  1  0.52687606  0.26386872  0.15446127  1
  O  O39  1  0.52687606  0.23613128  0.65446127  1
  O  O40  1  0.55982486  0.11716666  0.88845663  1
  O  O41  1  0.55982486  0.38283334  0.38845663  1
  O  O42  1  0.58004044  0.53928603  0.84377594  1
  O  O43  1  0.58004044  0.96071397  0.34377594  1
  O  O44  1  0.75000000  0.06360131  0.14565073  1
  O  O45  1  0.75000000  0.13359437  0.41418411  1
  O  O46  1  0.75000000  0.43639869  0.64565073  1
  O  O47  1  0.75000000  0.36640563  0.91418411  1
  O  O48  1  0.75000000  0.68158192  0.69476133  1
  O  O49  1  0.75000000  0.81841808  0.19476133  1
  O  O50  1  0.91995956  0.53928603  0.84377594  1
  O  O51  1  0.91995956  0.96071397  0.34377594  1
  O  O52  1  0.94017514  0.38283334  0.38845663  1
  O  O53  1  0.94017514  0.11716666  0.88845663  1
  O  O54  1  0.97312394  0.23613128  0.65446127  1
  O  O55  1  0.97312394  0.26386872  0.15446127  1
