# generated using pymatgen
data_LiFePO4
_symmetry_space_group_name_H-M   'P 1'
_cell_length_a   5.21548936
_cell_length_b   7.74731971
_cell_length_c   8.34986156
_cell_angle_alpha   92.54521296
_cell_angle_beta   90.43913422
_cell_angle_gamma   77.76667950
_symmetry_Int_Tables_number   1
_chemical_formula_structural   LiFePO4
_chemical_formula_sum   'Li4 Fe4 P4 O16'
_cell_volume   329.39817540
_cell_formula_units_Z   4
loop_
 _symmetry_equiv_pos_site_id
 _symmetry_equiv_pos_as_xyz
  1  'x, y, z'
loop_
 _atom_site_type_symbol
 _atom_site_label
 _atom_site_symmetry_multiplicity
 _atom_site_fract_x
 _atom_site_fract_y
 _atom_site_fract_z
 _atom_site_occupancy
  Li  Li0  1  0.29007534  0.18332193  0.89668676  1
  Li  Li1  1  0.31872207  0.66679466  0.57439380  1
  Li  Li2  1  0.68127793  0.33320534  0.42560620  1
  Li  Li3  1  0.70992466  0.81667807  0.10331324  1
  Fe  Fe4  1  0.15218914  0.94566515  0.30760690  1
  Fe  Fe5  1  0.19201199  0.45820564  0.21558597  1
  Fe  Fe6  1  0.80798801  0.54179436  0.78441403  1
  Fe  Fe7  1  0.84781086  0.05433485  0.69239310  1
  P  P8  1  0.24161890  0.28030685  0.56394960  1
  P  P9  1  0.22154486  0.78144405  0.91712406  1
  P  P10  1  0.77845514  0.21855595  0.08287594  1
  P  P11  1  0.75838110  0.71969315  0.43605040  1
  O  O12  1  0.05260600  0.16959326  0.48290527  1
  O  O13  1  0.03827202  0.28786505  0.06977274  1
  O  O14  1  0.12404961  0.34630444  0.73236054  1
  O  O15  1  0.26667541  0.43821606  0.46012894  1
  O  O16  1  0.16673968  0.95831725  0.82786251  1
  O  O17  1  0.42146029  0.64330213  0.81518853  1
  O  O18  1  0.33372836  0.81020900  0.08657093  1
  O  O19  1  0.52126782  0.17164008  0.58095914  1
  O  O20  1  0.47873218  0.82835992  0.41904086  1
  O  O21  1  0.66627164  0.18979100  0.91342907  1
  O  O22  1  0.57853971  0.35669787  0.18481147  1
  O  O23  1  0.83326032  0.04168275  0.17213749  1
  O  O24  1  0.73332459  0.56178394  0.53987106  1
  O  O25  1  0.87595039  0.65369556  0.26763946  1
  O  O26  1  0.96172798  0.71213495  0.93022726  1
  O  O27  1  0.94739400  0.83040674  0.51709473  1
