# generated using pymatgen
data_LiFeP2O7
_symmetry_space_group_name_H-M   'P 1'
_cell_length_a   6.95849498
_cell_length_b   8.41612625
_cell_length_c   9.38860138
_cell_angle_alpha   90.00000000
_cell_angle_beta   112.25883004
_cell_angle_gamma   90.00000000
_symmetry_Int_Tables_number   1
_chemical_formula_structural   LiFeP2O7
_chemical_formula_sum   'Li4 Fe4 P8 O28'
_cell_volume   508.85787660
_cell_formula_units_Z   4
loop_
 _symmetry_equiv_pos_site_id
 _symmetry_equiv_pos_as_xyz
  1  'x, y, z'
loop_
 _atom_site_type_symbol
 _atom_site_label
 _atom_site_symmetry_multiplicity
 _atom_site_fract_x
 _atom_site_fract_y
 _atom_site_fract_z
 _atom_site_occupancy
  Li  Li0  1  0.10315599  0.57589849  0.91095833  1
  Li  Li1  1  0.39684401  0.07589849  0.58904167  1
  Li  Li2  1  0.60315599  0.92410151  0.41095833  1
  Li  Li3  1  0.89684401  0.42410151  0.08904167  1
  Fe  Fe4  1  0.11735088  0.93208058  0.80720554  1
  Fe  Fe5  1  0.38264912  0.43208058  0.69279446  1
  Fe  Fe6  1  0.61735088  0.56791942  0.30720554  1
  Fe  Fe7  1  0.88264912  0.06791942  0.19279446  1
  P  P8  1  0.05703525  0.71792918  0.52997219  1
  P  P9  1  0.44296475  0.21792918  0.97002781  1
  P  P10  1  0.17416627  0.73698434  0.24194763  1
  P  P11  1  0.32583373  0.23698434  0.25805237  1
  P  P12  1  0.67416627  0.76301566  0.74194763  1
  P  P13  1  0.82583373  0.26301566  0.75805237  1
  P  P14  1  0.55703525  0.78207082  0.02997219  1
  P  P15  1  0.94296475  0.28207082  0.47002781  1
  O  O16  1  0.14577391  0.58268595  0.64547618  1
  O  O17  1  0.12935796  0.88166580  0.60748761  1
  O  O18  1  0.31785859  0.78120906  0.95152684  1
  O  O19  1  0.18214141  0.28120906  0.54847316  1
  O  O20  1  0.37064204  0.38166580  0.89251239  1
  O  O21  1  0.15302690  0.69174468  0.40367676  1
  O  O22  1  0.35422609  0.08268595  0.85452382  1
  O  O23  1  0.08701711  0.24383598  0.20895014  1
  O  O24  1  0.07599598  0.90254791  0.19584655  1
  O  O25  1  0.07458977  0.60987974  0.12490894  1
  O  O26  1  0.65302690  0.80825532  0.90367676  1
  O  O27  1  0.42541023  0.10987974  0.37509106  1
  O  O28  1  0.58701711  0.25616402  0.70895014  1
  O  O29  1  0.57599598  0.59745209  0.69584655  1
  O  O30  1  0.42400402  0.40254791  0.30415345  1
  O  O31  1  0.41298289  0.74383598  0.29104986  1
  O  O32  1  0.57458977  0.89012026  0.62490894  1
  O  O33  1  0.34697310  0.19174468  0.09632324  1
  O  O34  1  0.92541023  0.39012026  0.87509106  1
  O  O35  1  0.92400402  0.09745209  0.80415345  1
  O  O36  1  0.91298289  0.75616402  0.79104986  1
  O  O37  1  0.64577391  0.91731405  0.14547618  1
  O  O38  1  0.84697310  0.30825532  0.59632324  1
  O  O39  1  0.62935796  0.61833420  0.10748761  1
  O  O40  1  0.81785859  0.71879094  0.45152684  1
  O  O41  1  0.68214141  0.21879094  0.04847316  1
  O  O42  1  0.87064204  0.11833420  0.39251239  1
  O  O43  1  0.85422609  0.41731405  0.35452382  1
