# generated using pymatgen
data_Li4Nb2Co3Ni3O16
_symmetry_space_group_name_H-M   'P 1'
_cell_length_a   5.86584001
_cell_length_b   5.78983361
_cell_length_c   9.51853644
_cell_angle_alpha   90.28880492
_cell_angle_beta   91.62602486
_cell_angle_gamma   119.42680601
_symmetry_Int_Tables_number   1
_chemical_formula_structural   Li4Nb2Co3Ni3O16
_chemical_formula_sum   'Li4 Nb2 Co3 Ni3 O16'
_cell_volume   281.38342811
_cell_formula_units_Z   1
loop_
 _symmetry_equiv_pos_site_id
 _symmetry_equiv_pos_as_xyz
  1  'x, y, z'
loop_
 _atom_site_type_symbol
 _atom_site_label
 _atom_site_symmetry_multiplicity
 _atom_site_fract_x
 _atom_site_fract_y
 _atom_site_fract_z
 _atom_site_occupancy
  Li  Li0  1  0.32126542  0.66105523  0.89939072  1
  Li  Li1  1  0.00375548  0.00225919  0.99336951  1
  Li  Li2  1  0.00826799  0.00276663  0.49345106  1
  Li  Li3  1  0.66414000  0.33470823  0.39602755  1
  Nb  Nb4  1  0.33765090  0.66339401  0.49699812  1
  Nb  Nb5  1  0.65378977  0.32528946  0.99508570  1
  Co  Co6  1  0.17426817  0.83300358  0.21657646  1
  Co  Co7  1  0.17021116  0.33970066  0.21478247  1
  Co  Co8  1  0.34232769  0.17082362  0.71664126  1
  Ni  Ni9  1  0.66239280  0.83003504  0.21352400  1
  Ni  Ni10  1  0.83346363  0.66288181  0.71558077  1
  Ni  Ni11  1  0.83284095  0.16997536  0.71554365  1
  O  O12  1  0.18127145  0.84473058  0.59363799  1
  O  O13  1  0.03780995  0.52107216  0.33123096  1
  O  O14  1  0.30721868  0.65793789  0.11303206  1
  O  O15  1  0.02206475  0.00659185  0.30460170  1
  O  O16  1  0.02035308  0.01126942  0.80423419  1
  O  O17  1  0.17884199  0.33382288  0.59482650  1
  O  O18  1  0.46587042  0.96484480  0.33637535  1
  O  O19  1  0.47060092  0.50962246  0.33838031  1
  O  O20  1  0.32778231  0.16325331  0.10549498  1
  O  O21  1  0.68210727  0.84301010  0.58868750  1
  O  O22  1  0.50095487  0.47066507  0.84346433  1
  O  O23  1  0.50049024  0.03009252  0.84265287  1
  O  O24  1  0.64962428  0.32345105  0.61603527  1
  O  O25  1  0.84782062  0.67290608  0.09294965  1
  O  O26  1  0.95828340  0.47794389  0.84208645  1
  O  O27  1  0.84453081  0.17319115  0.09317863  1
