# generated using pymatgen
data_Li2Cr(Si2O5)2
_symmetry_space_group_name_H-M   'P 1'
_cell_length_a   9.70641696
_cell_length_b   7.61031792
_cell_length_c   6.93969129
_cell_angle_alpha   63.38355530
_cell_angle_beta   77.91903307
_cell_angle_gamma   100.53401152
_symmetry_Int_Tables_number   1
_chemical_formula_structural   Li2Cr(Si2O5)2
_chemical_formula_sum   'Li4 Cr2 Si8 O20'
_cell_volume   425.13185633
_cell_formula_units_Z   2
loop_
 _symmetry_equiv_pos_site_id
 _symmetry_equiv_pos_as_xyz
  1  'x, y, z'
loop_
 _atom_site_type_symbol
 _atom_site_label
 _atom_site_symmetry_multiplicity
 _atom_site_fract_x
 _atom_site_fract_y
 _atom_site_fract_z
 _atom_site_occupancy
  Li  Li0  1  0.05189680  0.25104031  0.61785447  1
  Li  Li1  1  0.57121783  0.68610065  0.77708177  1
  Li  Li2  1  0.42878217  0.31389935  0.22291823  1
  Li  Li3  1  0.94810320  0.74895969  0.38214553  1
  Cr  Cr4  1  0.42901861  0.28625175  0.76173704  1
  Cr  Cr5  1  0.57098139  0.71374825  0.23826296  1
  Si  Si6  1  0.18427190  0.94810142  0.75761320  1
  Si  Si7  1  0.25911060  0.65004391  0.60305193  1
  Si  Si8  1  0.23844859  0.61156224  0.19303478  1
  Si  Si9  1  0.14624553  0.27905487  0.09765126  1
  Si  Si10  1  0.85375447  0.72094513  0.90234874  1
  Si  Si11  1  0.76155141  0.38843776  0.80696522  1
  Si  Si12  1  0.74088940  0.34995609  0.39694807  1
  Si  Si13  1  0.81572810  0.05189858  0.24238680  1
  O  O14  1  0.00500670  0.92304991  0.78680216  1
  O  O15  1  0.14369402  0.45783358  0.85235613  1
  O  O16  1  0.25153273  0.87111336  0.58318195  1
  O  O17  1  0.17715426  0.62129819  0.42722892  1
  O  O18  1  0.19413693  0.79704895  0.00784967  1
  O  O19  1  0.12659881  0.38074063  0.26707638  1
  O  O20  1  0.42765654  0.64594324  0.55167228  1
  O  O21  1  0.25787371  0.19001029  0.65902191  1
  O  O22  1  0.70465828  0.78119710  0.92444539  1
  O  O23  1  0.59151190  0.38132373  0.88189622  1
  O  O24  1  0.40848810  0.61867627  0.11810378  1
  O  O25  1  0.29534172  0.21880290  0.07555461  1
  O  O26  1  0.74212629  0.80998971  0.34097809  1
  O  O27  1  0.57234346  0.35405676  0.44832772  1
  O  O28  1  0.87340119  0.61925937  0.73292362  1
  O  O29  1  0.80586307  0.20295105  0.99215033  1
  O  O30  1  0.82284574  0.37870181  0.57277108  1
  O  O31  1  0.74846727  0.12888664  0.41681805  1
  O  O32  1  0.85630598  0.54216642  0.14764387  1
  O  O33  1  0.99499330  0.07695009  0.21319784  1
