# generated using pymatgen
data_LiFe2(BO3)2
_symmetry_space_group_name_H-M   'P 1'
_cell_length_a   5.27559978
_cell_length_b   5.27765427
_cell_length_c   10.05598790
_cell_angle_alpha   89.85802781
_cell_angle_beta   90.28405643
_cell_angle_gamma   119.98713223
_symmetry_Int_Tables_number   1
_chemical_formula_structural   LiFe2(BO3)2
_chemical_formula_sum   'Li2 Fe4 B4 O12'
_cell_volume   242.50411512
_cell_formula_units_Z   2
loop_
 _symmetry_equiv_pos_site_id
 _symmetry_equiv_pos_as_xyz
  1  'x, y, z'
loop_
 _atom_site_type_symbol
 _atom_site_label
 _atom_site_symmetry_multiplicity
 _atom_site_fract_x
 _atom_site_fract_y
 _atom_site_fract_z
 _atom_site_occupancy
  Li  Li0  1  0.16393663  0.02396023  0.16421233  1
  Li  Li1  1  0.13997540  0.97603977  0.66421233  1
  Fe  Fe2  1  0.51334641  0.34060178  0.88079029  1
  Fe  Fe3  1  0.17274463  0.65939822  0.38079029  1
  Fe  Fe4  1  0.81486891  0.30854645  0.62824534  1
  Fe  Fe5  1  0.50632245  0.69145355  0.12824534  1
  B  B6  1  0.17314443  0.66679510  0.87480209  1
  B  B7  1  0.50634833  0.33320490  0.37480209  1
  B  B8  1  0.49348985  0.66027825  0.62882391  1
  B  B9  1  0.83321159  0.33972175  0.12882391  1
  O  O10  1  0.27526718  0.05626561  0.35834903  1
  O  O11  1  0.07041583  0.60807091  0.17213211  1
  O  O12  1  0.46234592  0.39192909  0.67213211  1
  O  O13  1  0.57607778  0.33524570  0.08383608  1
  O  O14  1  0.24083108  0.66475430  0.58383608  1
  O  O15  1  0.84726220  0.08967552  0.13177480  1
  O  O16  1  0.21900257  0.94373439  0.85834903  1
  O  O17  1  0.77187813  0.38019740  0.42381369  1
  O  O18  1  0.39168172  0.61980260  0.92381369  1
  O  O19  1  0.47529907  0.57059685  0.33809533  1
  O  O20  1  0.90470123  0.42940315  0.83809533  1
  O  O21  1  0.75758667  0.91032448  0.63177480  1
