# generated using pymatgen
data_Mn3OF5
_symmetry_space_group_name_H-M   'P 1'
_cell_length_a   4.89029171
_cell_length_b   8.10158727
_cell_length_c   5.89709009
_cell_angle_alpha   93.25926825
_cell_angle_beta   91.28766511
_cell_angle_gamma   88.38543184
_symmetry_Int_Tables_number   1
_chemical_formula_structural   Mn3OF5
_chemical_formula_sum   'Mn6 O2 F10'
_cell_volume   233.11603973
_cell_formula_units_Z   2
loop_
 _symmetry_equiv_pos_site_id
 _symmetry_equiv_pos_as_xyz
  1  'x, y, z'
loop_
 _atom_site_type_symbol
 _atom_site_label
 _atom_site_symmetry_multiplicity
 _atom_site_fract_x
 _atom_site_fract_y
 _atom_site_fract_z
 _atom_site_occupancy
  Mn  Mn0  1  0.49999755  -0.00000326  0.50000515  1
  Mn  Mn1  1  0.51748101  0.66546368  0.18439102  1
  Mn  Mn2  1  0.48252174  0.33453817  0.81560873  1
  Mn  Mn3  1  0.97722600  0.67836019  0.65302885  1
  Mn  Mn4  1  0.02277504  0.32163967  0.34696908  1
  Mn  Mn5  1  -0.00000021  0.00000005  -0.00000244  1
  O  O6  1  0.68285684  0.78419693  0.46425408  1
  O  O7  1  0.31714275  0.21580175  0.53574614  1
  F  F8  1  0.80522996  0.43662880  0.63064137  1
  F  F9  1  0.80230325  0.76540999  0.96513071  1
  F  F10  1  0.79727752  0.10030626  0.29904959  1
  F  F11  1  0.69704163  0.09667413  0.79539381  1
  F  F12  1  0.70132182  0.42373902  0.12574502  1
  F  F13  1  0.29867795  0.57626100  0.87425442  1
  F  F14  1  0.30295835  0.90332672  0.20460676  1
  F  F15  1  0.19477131  0.56337166  0.36935593  1
  F  F16  1  0.19769589  0.23459035  0.03486936  1
  F  F17  1  0.20272162  0.89969388  0.70095142  1
