# generated using pymatgen
data_Li2(NiO2)3
_symmetry_space_group_name_H-M   'P 1'
_cell_length_a   4.87325866
_cell_length_b   4.94097889
_cell_length_c   9.79242820
_cell_angle_alpha   89.62786155
_cell_angle_beta   90.03937172
_cell_angle_gamma   60.46767036
_symmetry_Int_Tables_number   1
_chemical_formula_structural   Li2(NiO2)3
_chemical_formula_sum   'Li4 Ni6 O12'
_cell_volume   205.14805254
_cell_formula_units_Z   2
loop_
 _symmetry_equiv_pos_site_id
 _symmetry_equiv_pos_as_xyz
  1  'x, y, z'
loop_
 _atom_site_type_symbol
 _atom_site_label
 _atom_site_symmetry_multiplicity
 _atom_site_fract_x
 _atom_site_fract_y
 _atom_site_fract_z
 _atom_site_occupancy
  Li  Li0  1  0.15270298  0.64177933  0.49735157  1
  Li  Li1  1  0.03910790  0.97755779  0.99627159  1
  Li  Li2  1  0.70480803  0.64355037  0.99747009  1
  Li  Li3  1  0.48453904  0.97621976  0.49610139  1
  Ni  Ni4  1  0.08271082  0.61861571  0.75501273  1
  Ni  Ni5  1  0.46480198  0.28244069  0.24480539  1
  Ni  Ni6  1  0.75239794  0.28298664  0.74478473  1
  Ni  Ni7  1  0.13225414  0.95114937  0.25327396  1
  Ni  Ni8  1  0.41626376  0.95171942  0.75320108  1
  Ni  Ni9  1  0.79894629  0.61802770  0.25502124  1
  O  O10  1  0.07455968  0.25839841  0.85478645  1
  O  O11  1  0.16780152  0.25768213  0.35492187  1
  O  O12  1  0.41032188  0.28861514  0.65106546  1
  O  O13  1  0.10458400  0.65180668  0.14633919  1
  O  O14  1  0.41912788  0.62854887  0.85369518  1
  O  O15  1  0.80095718  0.28805864  0.15114339  1
  O  O16  1  0.10378066  0.95776872  0.64303203  1
  O  O17  1  0.45286126  0.62795743  0.35374604  1
  O  O18  1  0.74311472  0.65219626  0.64636579  1
  O  O19  1  0.43797141  0.95763721  0.14300848  1
  O  O20  1  0.75685199  0.92636279  0.85803749  1
  O  O21  1  0.81746894  0.92566694  0.35807989  1
