# generated using pymatgen
data_Li2MnF4
_symmetry_space_group_name_H-M   'P 1'
_cell_length_a   10.49041693
_cell_length_b   5.81000999
_cell_length_c   5.07119118
_cell_angle_alpha   90.00000000
_cell_angle_beta   90.00000000
_cell_angle_gamma   90.00000000
_symmetry_Int_Tables_number   1
_chemical_formula_structural   Li2MnF4
_chemical_formula_sum   'Li8 Mn4 F16'
_cell_volume   309.08619745
_cell_formula_units_Z   4
loop_
 _symmetry_equiv_pos_site_id
 _symmetry_equiv_pos_as_xyz
  1  'x, y, z'
loop_
 _atom_site_type_symbol
 _atom_site_label
 _atom_site_symmetry_multiplicity
 _atom_site_fract_x
 _atom_site_fract_y
 _atom_site_fract_z
 _atom_site_occupancy
  Li  Li0  1  0.22683132  0.50000000  0.51308579  1
  Li  Li1  1  0.25000000  0.25000000  0.00000000  1
  Li  Li2  1  0.25000000  0.75000000  0.00000000  1
  Li  Li3  1  0.27316868  0.00000000  0.48691421  1
  Li  Li4  1  0.72683132  0.00000000  0.48691421  1
  Li  Li5  1  0.75000000  0.25000000  0.00000000  1
  Li  Li6  1  0.75000000  0.75000000  0.00000000  1
  Li  Li7  1  0.77316868  0.50000000  0.51308579  1
  Mn  Mn8  1  0.00000000  0.00000000  0.53245315  1
  Mn  Mn9  1  0.00000000  0.50000000  0.13907948  1
  Mn  Mn10  1  0.50000000  0.00000000  0.86092052  1
  Mn  Mn11  1  0.50000000  0.50000000  0.46754685  1
  F  F12  1  0.12849399  0.74905771  0.33343284  1
  F  F13  1  0.12849399  0.25094229  0.33343284  1
  F  F14  1  0.14390656  0.50000000  0.85384808  1
  F  F15  1  0.15062198  0.00000000  0.79976316  1
  F  F16  1  0.34937802  0.50000000  0.20023684  1
  F  F17  1  0.35609344  0.00000000  0.14615192  1
  F  F18  1  0.37150601  0.24905771  0.66656716  1
  F  F19  1  0.37150601  0.75094229  0.66656716  1
  F  F20  1  0.62849399  0.24905771  0.66656716  1
  F  F21  1  0.62849399  0.75094229  0.66656716  1
  F  F22  1  0.64390656  0.00000000  0.14615192  1
  F  F23  1  0.65062198  0.50000000  0.20023684  1
  F  F24  1  0.84937802  0.00000000  0.79976316  1
  F  F25  1  0.85609344  0.50000000  0.85384808  1
  F  F26  1  0.87150601  0.25094229  0.33343284  1
  F  F27  1  0.87150601  0.74905771  0.33343284  1
