# generated using pymatgen
data_LiFe2P3O11
_symmetry_space_group_name_H-M   'P 1'
_cell_length_a   7.23479731
_cell_length_b   7.23479731
_cell_length_c   8.84212578
_cell_angle_alpha   70.11795647
_cell_angle_beta   109.88204353
_cell_angle_gamma   105.98343485
_symmetry_Int_Tables_number   1
_chemical_formula_structural   LiFe2P3O11
_chemical_formula_sum   'Li2 Fe4 P6 O22'
_cell_volume   402.55956889
_cell_formula_units_Z   2
loop_
 _symmetry_equiv_pos_site_id
 _symmetry_equiv_pos_as_xyz
  1  'x, y, z'
loop_
 _atom_site_type_symbol
 _atom_site_label
 _atom_site_symmetry_multiplicity
 _atom_site_fract_x
 _atom_site_fract_y
 _atom_site_fract_z
 _atom_site_occupancy
  Li  Li0  1  0.48359993  0.98599431  0.01223045  1
  Li  Li1  1  0.98599431  0.48359993  0.48776955  1
  Fe  Fe2  1  0.11264578  0.35741980  0.95288373  1
  Fe  Fe3  1  0.64290761  0.88626413  0.45399679  1
  Fe  Fe4  1  0.35741980  0.11264578  0.54711627  1
  Fe  Fe5  1  0.88626413  0.64290761  0.04600321  1
  P  P6  1  0.44984206  0.67628600  0.78486907  1
  P  P7  1  0.04283674  0.04283674  0.75000000  1
  P  P8  1  0.32162110  0.54973103  0.28401398  1
  P  P9  1  0.67628600  0.44984206  0.71513093  1
  P  P10  1  0.95761506  0.95761506  0.25000000  1
  P  P11  1  0.54973103  0.32162110  0.21598602  1
  O  O12  1  0.01228584  0.88026045  0.90836130  1
  O  O13  1  0.11994957  0.98990141  0.40776432  1
  O  O14  1  0.24245277  0.61645929  0.80986603  1
  O  O15  1  0.46677243  0.84820573  0.62415142  1
  O  O16  1  0.61508676  0.72549482  0.93680497  1
  O  O17  1  0.04523324  0.25689795  0.75710179  1
  O  O18  1  0.38379277  0.76060899  0.30355635  1
  O  O19  1  0.48747892  0.48747892  0.75000000  1
  O  O20  1  0.14998578  0.53256348  0.12339741  1
  O  O21  1  0.27139158  0.38730723  0.43635379  1
  O  O22  1  0.74332008  0.95459634  0.25762610  1
  O  O23  1  0.25689795  0.04523324  0.74289821  1
  O  O24  1  0.72549482  0.61508676  0.56319503  1
  O  O25  1  0.84820573  0.46677243  0.87584858  1
  O  O26  1  0.51022203  0.51022203  0.25000000  1
  O  O27  1  0.61645929  0.24245277  0.69013397  1
  O  O28  1  0.95459634  0.74332008  0.24237390  1
  O  O29  1  0.38730723  0.27139158  0.06364621  1
  O  O30  1  0.53256348  0.14998578  0.37660259  1
  O  O31  1  0.76060899  0.38379277  0.19644265  1
  O  O32  1  0.88026045  0.01228584  0.59163870  1
  O  O33  1  0.98990141  0.11994957  0.09223568  1
