# generated using pymatgen
data_Li5Ti2Co5O12
_symmetry_space_group_name_H-M   'P 1'
_cell_length_a   5.06034886
_cell_length_b   5.14093396
_cell_length_c   9.89252262
_cell_angle_alpha   84.78557868
_cell_angle_beta   78.89919561
_cell_angle_gamma   60.58054867
_symmetry_Int_Tables_number   1
_chemical_formula_structural   Li5Ti2Co5O12
_chemical_formula_sum   'Li5 Ti2 Co5 O12'
_cell_volume   219.97052164
_cell_formula_units_Z   1
loop_
 _symmetry_equiv_pos_site_id
 _symmetry_equiv_pos_as_xyz
  1  'x, y, z'
loop_
 _atom_site_type_symbol
 _atom_site_label
 _atom_site_symmetry_multiplicity
 _atom_site_fract_x
 _atom_site_fract_y
 _atom_site_fract_z
 _atom_site_occupancy
  Li  Li0  1  0.33033916  0.84314019  0.00487480  1
  Li  Li1  1  0.82563637  0.84489355  0.49478325  1
  Li  Li2  1  0.18202178  0.13506597  0.49822479  1
  Li  Li3  1  0.91724164  0.16596467  0.25064769  1
  Li  Li4  1  0.68100497  0.13754004  0.00155091  1
  Ti  Ti5  1  0.25229215  0.49515739  0.24903872  1
  Ti  Ti6  1  0.76496347  0.48629040  0.75022154  1
  Co  Co7  1  0.08634372  0.82714464  0.74981235  1
  Co  Co8  1  0.00091239  0.49190320  0.00465201  1
  Co  Co9  1  0.50960691  0.49036541  0.49560540  1
  Co  Co10  1  0.41876676  0.15972823  0.74963055  1
  Co  Co11  1  0.58230582  0.83587207  0.25058849  1
  O  O12  1  0.23512360  0.80944397  0.36508073  1
  O  O13  1  0.47701439  0.80691562  0.63328430  1
  O  O14  1  0.11943326  0.48662360  0.62847946  1
  O  O15  1  0.60524348  0.52995657  0.13808483  1
  O  O16  1  0.31250430  0.16838110  0.13725548  1
  O  O17  1  0.95693417  0.80856871  0.13534334  1
  O  O18  1  0.01967518  0.18319520  0.87527418  1
  O  O19  1  0.38586795  0.48981434  0.86974793  1
  O  O20  1  0.71234679  0.80831123  0.86638770  1
  O  O21  1  0.86571427  0.52997950  0.36110128  1
  O  O22  1  0.51943860  0.17149184  0.36351034  1
  O  O23  1  0.79651887  0.17983058  0.62686892  1
