# generated using pymatgen
data_LiFe(PO3)3
_symmetry_space_group_name_H-M   'P 1'
_cell_length_a   9.76822705
_cell_length_b   9.52500980
_cell_length_c   9.46942366
_cell_angle_alpha   110.54011661
_cell_angle_beta   104.47968559
_cell_angle_gamma   108.70337381
_symmetry_Int_Tables_number   1
_chemical_formula_structural   LiFe(PO3)3
_chemical_formula_sum   'Li4 Fe4 P12 O36'
_cell_volume   713.21372401
_cell_formula_units_Z   4
loop_
 _symmetry_equiv_pos_site_id
 _symmetry_equiv_pos_as_xyz
  1  'x, y, z'
loop_
 _atom_site_type_symbol
 _atom_site_label
 _atom_site_symmetry_multiplicity
 _atom_site_fract_x
 _atom_site_fract_y
 _atom_site_fract_z
 _atom_site_occupancy
  Li  Li0  1  0.25842209  0.22549261  0.76713059  1
  Li  Li1  1  0.21375849  0.30848870  0.07394020  1
  Li  Li2  1  0.78624151  0.69151130  0.92605980  1
  Li  Li3  1  0.74157791  0.77450739  0.23286941  1
  Fe  Fe4  1  0.50760180  0.93398993  0.33195618  1
  Fe  Fe5  1  0.29954562  0.17348057  0.37556217  1
  Fe  Fe6  1  0.70045438  0.82651943  0.62443783  1
  Fe  Fe7  1  0.49239820  0.06601007  0.66804382  1
  P  P8  1  0.08431224  0.91831974  0.80706997  1
  P  P9  1  0.10487858  0.85302527  0.48058887  1
  P  P10  1  0.35329518  0.60392679  0.99016592  1
  P  P11  1  0.15555199  0.78577111  0.04583543  1
  P  P12  1  0.29002333  0.65958350  0.41942256  1
  P  P13  1  0.40667560  0.56797746  0.67532958  1
  P  P14  1  0.59332440  0.43202254  0.32467042  1
  P  P15  1  0.70997667  0.34041650  0.58057744  1
  P  P16  1  0.84444801  0.21422889  0.95416457  1
  P  P17  1  0.64670482  0.39607321  0.00983408  1
  P  P18  1  0.89512142  0.14697473  0.51941113  1
  P  P19  1  0.91568776  0.08168026  0.19293003  1
  O  O20  1  0.00153682  0.26957495  0.95067555  1
  O  O21  1  0.09231225  0.81997220  0.63293129  1
  O  O22  1  0.15961623  0.82882297  0.89747515  1
  O  O23  1  0.20021823  0.63193213  0.99300889  1
  O  O24  1  0.14217740  0.69957772  0.38789336  1
  O  O25  1  0.04700779  0.17259395  0.62881210  1
  O  O26  1  0.19736930  0.09950664  0.89051151  1
  O  O27  1  0.32203366  0.43153593  0.96210539  1
  O  O28  1  0.36879845  0.62847276  0.83423943  1
  O  O29  1  0.28734825  0.61373368  0.56658330  1
  O  O30  1  0.29632897  0.93491557  0.20788294  1
  O  O31  1  0.08747772  0.13627213  0.21867213  1
  O  O32  1  0.26855850  0.52185573  0.26945864  1
  O  O33  1  0.44508125  0.82786058  0.49346818  1
  O  O34  1  0.35161535  0.38042368  0.59377921  1
  O  O35  1  0.25431737  0.01759170  0.54416211  1
  O  O36  1  0.57424208  0.68383710  0.71747005  1
  O  O37  1  0.50343103  0.25023642  0.85711205  1
  O  O38  1  0.49656897  0.74976358  0.14288795  1
  O  O39  1  0.42575792  0.31616290  0.28252995  1
  O  O40  1  0.74568263  0.98240830  0.45583789  1
  O  O41  1  0.64838465  0.61957632  0.40622079  1
  O  O42  1  0.55491875  0.17213942  0.50653182  1
  O  O43  1  0.73144150  0.47814427  0.73054136  1
  O  O44  1  0.91252228  0.86372787  0.78132787  1
  O  O45  1  0.70367103  0.06508443  0.79211706  1
  O  O46  1  0.71265175  0.38626632  0.43341670  1
  O  O47  1  0.63120155  0.37152724  0.16576057  1
  O  O48  1  0.67796634  0.56846407  0.03789461  1
  O  O49  1  0.80263070  0.90049336  0.10948849  1
  O  O50  1  0.95299221  0.82740605  0.37118790  1
  O  O51  1  0.85782260  0.30042228  0.61210664  1
  O  O52  1  0.79978177  0.36806787  0.00699111  1
  O  O53  1  0.84038377  0.17117703  0.10252485  1
  O  O54  1  0.90768775  0.18002780  0.36706871  1
  O  O55  1  0.99846318  0.73042505  0.04932445  1
