# generated using pymatgen
data_Li2Cr2CoO6
_symmetry_space_group_name_H-M   'P 1'
_cell_length_a   6.70605859
_cell_length_b   2.90692612
_cell_length_c   5.88466833
_cell_angle_alpha   90.02219341
_cell_angle_beta   104.29578848
_cell_angle_gamma   102.50003558
_symmetry_Int_Tables_number   1
_chemical_formula_structural   Li2Cr2CoO6
_chemical_formula_sum   'Li2 Cr2 Co1 O6'
_cell_volume   108.35264785
_cell_formula_units_Z   1
loop_
 _symmetry_equiv_pos_site_id
 _symmetry_equiv_pos_as_xyz
  1  'x, y, z'
loop_
 _atom_site_type_symbol
 _atom_site_label
 _atom_site_symmetry_multiplicity
 _atom_site_fract_x
 _atom_site_fract_y
 _atom_site_fract_z
 _atom_site_occupancy
  Li  Li0  1  0.03171769  0.01567466  0.52486979  1
  Li  Li1  1  0.63493137  0.31763602  0.14177103  1
  Cr  Cr2  1  0.00781197  0.00392097  0.99760552  1
  Cr  Cr3  1  0.65885938  0.32942858  0.66906399  1
  Co  Co4  1  0.33334138  0.66666399  0.33334312  1
  O  O5  1  0.03307006  0.51673711  0.24171224  1
  O  O6  1  0.34213950  0.17121276  0.54416815  1
  O  O7  1  0.32454616  0.16210914  0.12252109  1
  O  O8  1  0.69052934  0.84542752  0.91028556  1
  O  O9  1  0.63359333  0.81659976  0.42495105  1
  O  O10  1  0.97612583  0.48792350  0.75637647  1
