# generated using pymatgen
data_Mg6AlCu
_symmetry_space_group_name_H-M   'P 1'
_cell_length_a   6.10754061
_cell_length_b   6.10754015
_cell_length_c   4.89082375
_cell_angle_alpha   90.00000000
_cell_angle_beta   90.00000000
_cell_angle_gamma   119.85945156
_symmetry_Int_Tables_number   1
_chemical_formula_structural   Mg6AlCu
_chemical_formula_sum   'Mg6 Al1 Cu1'
_cell_volume   158.21901323
_cell_formula_units_Z   1
loop_
 _symmetry_equiv_pos_site_id
 _symmetry_equiv_pos_as_xyz
  1  'x, y, z'
loop_
 _atom_site_type_symbol
 _atom_site_label
 _atom_site_symmetry_multiplicity
 _atom_site_fract_x
 _atom_site_fract_y
 _atom_site_fract_z
 _atom_site_occupancy
  Mg  Mg0  1  0.17088917  0.84596796  0.25000000  1
  Mg  Mg1  1  0.65403204  0.32911083  0.25000000  1
  Mg  Mg2  1  0.66741711  0.83258289  0.25000000  1
  Mg  Mg3  1  0.33263149  0.66086791  0.75000000  1
  Mg  Mg4  1  0.83913209  0.16736851  0.75000000  1
  Mg  Mg5  1  0.83287798  0.66712202  0.75000000  1
  Al  Al6  1  0.17147970  0.32852030  0.25000000  1
  Cu  Cu7  1  0.33154042  0.16845958  0.75000000  1
