# generated using pymatgen
data_Li17Fe6(Si2O7)6
_symmetry_space_group_name_H-M   'P 1'
_cell_length_a   8.61155291
_cell_length_b   8.63221158
_cell_length_c   13.13406740
_cell_angle_alpha   90.40920714
_cell_angle_beta   90.14666710
_cell_angle_gamma   119.87651171
_symmetry_Int_Tables_number   1
_chemical_formula_structural   Li17Fe6(Si2O7)6
_chemical_formula_sum   'Li17 Fe6 Si12 O42'
_cell_volume   846.54609030
_cell_formula_units_Z   1
loop_
 _symmetry_equiv_pos_site_id
 _symmetry_equiv_pos_as_xyz
  1  'x, y, z'
loop_
 _atom_site_type_symbol
 _atom_site_label
 _atom_site_symmetry_multiplicity
 _atom_site_fract_x
 _atom_site_fract_y
 _atom_site_fract_z
 _atom_site_occupancy
  Li  Li0  1  0.96936906  0.30592358  0.40062689  1
  Li  Li1  1  0.97132037  0.29563708  0.06715420  1
  Li  Li2  1  0.32298488  0.02726667  0.06814274  1
  Li  Li3  1  0.66052261  0.32947944  0.71283718  1
  Li  Li4  1  0.66157522  0.32490656  0.24261484  1
  Li  Li5  1  0.00307375  0.00309248  0.94370299  1
  Li  Li6  1  0.02719732  0.99799137  0.43664883  1
  Li  Li7  1  0.31297149  0.33512091  0.90018009  1
  Li  Li8  1  0.30804194  0.33316463  0.56671763  1
  Li  Li9  1  0.69162690  0.66350887  0.40063325  1
  Li  Li10  1  0.70316059  0.67512202  0.06727064  1
  Li  Li11  1  0.32831642  0.64779167  0.72983928  1
  Li  Li12  1  0.33371372  0.66995529  0.27522760  1
  Li  Li13  1  0.66613554  0.97636953  0.90149120  1
  Li  Li14  1  0.67420943  0.97889633  0.56400401  1
  Li  Li15  1  0.02421872  0.69231668  0.56529084  1
  Li  Li16  1  0.02133274  0.68764322  0.90146887  1
  Fe  Fe17  1  0.00140432  0.00055950  0.72791698  1
  Fe  Fe18  1  -0.00061904  -0.00016009  0.22403481  1
  Fe  Fe19  1  0.65840206  0.32709653  0.45831402  1
  Fe  Fe20  1  0.66586892  0.33280449  0.01139842  1
  Fe  Fe21  1  0.33316114  0.66720291  0.95588761  1
  Fe  Fe22  1  0.33170307  0.66779801  0.51170866  1
  Si  Si23  1  0.35156587  0.02418570  0.84770735  1
  Si  Si24  1  0.35520315  0.02808508  0.62060781  1
  Si  Si25  1  0.97734956  0.32946707  0.62380158  1
  Si  Si26  1  0.97128374  0.32485286  0.84660603  1
  Si  Si27  1  0.32485619  0.35029653  0.34319992  1
  Si  Si28  1  0.33034834  0.36467002  0.12190756  1
  Si  Si29  1  0.67366181  0.64671107  0.84620566  1
  Si  Si30  1  0.67275545  0.64934127  0.62237030  1
  Si  Si31  1  0.02128709  0.66655297  0.34517834  1
  Si  Si32  1  0.64515771  0.97109364  0.34528790  1
  Si  Si33  1  0.03187260  0.66935812  0.12311237  1
  Si  Si34  1  0.63670106  0.96742458  0.12290668  1
  O  O35  1  0.86292697  0.06331869  0.33903285  1
  O  O36  1  0.85579908  0.06028986  0.12828176  1
  O  O37  1  0.58910792  0.12394140  0.36195450  1
  O  O38  1  0.57429817  0.11625369  0.10620739  1
  O  O39  1  0.81308770  0.24239463  0.93327067  1
  O  O40  1  0.81825389  0.25016802  0.53750681  1
  O  O41  1  0.43542974  0.12159299  0.73681748  1
  O  O42  1  0.86827625  0.30442447  0.73459568  1
  O  O43  1  0.42829496  0.18602308  0.93376447  1
  O  O44  1  0.44908720  0.20771663  0.55112902  1
  O  O45  1  0.87088828  0.45657470  0.35724845  1
  O  O46  1  0.88337295  0.45864965  0.10530999  1
  O  O47  1  0.19933866  0.14619338  0.12225890  1
  O  O48  1  0.19671225  0.13617373  0.32866661  1
  O  O49  1  0.53509017  0.41499380  0.36059928  1
  O  O50  1  0.54152889  0.42553999  0.10631833  1
  O  O51  1  0.06896201  0.20226597  0.84251469  1
  O  O52  1  0.07500608  0.20996193  0.63170371  1
  O  O53  1  0.75466927  0.56820233  0.93308229  1
  O  O54  1  0.75396521  0.57118744  0.53668599  1
  O  O55  1  0.69444384  0.56452086  0.73391123  1
  O  O56  1  0.30938250  0.44477768  0.23417850  1
  O  O57  1  0.24214280  0.42619229  0.42992711  1
  O  O58  1  0.24274271  0.43485941  0.03422460  1
  O  O59  1  0.94037232  0.79633955  0.12884564  1
  O  O60  1  0.93123215  0.79308168  0.33864967  1
  O  O61  1  0.46089429  0.57819083  0.85857225  1
  O  O62  1  0.46095994  0.58297968  0.60617335  1
  O  O63  1  0.79807304  0.86559872  0.84412296  1
  O  O64  1  0.79140042  0.86555952  0.63251932  1
  O  O65  1  0.11581808  0.53688022  0.86034160  1
  O  O66  1  0.12240834  0.54053519  0.61088889  1
  O  O67  1  0.56330732  0.80715068  0.42672577  1
  O  O68  1  0.56723522  0.80834299  0.03566081  1
  O  O69  1  0.55734079  0.86795011  0.23380475  1
  O  O70  1  0.13055586  0.68744946  0.23568116  1
  O  O71  1  0.17472992  0.73050488  0.43324455  1
  O  O72  1  0.18843912  0.75712595  0.03651439  1
  O  O73  1  0.42045410  0.88079073  0.86367465  1
  O  O74  1  0.42416941  0.88608886  0.60052816  1
  O  O75  1  0.13801908  0.93188850  0.62588610  1
  O  O76  1  0.13212835  0.92894925  0.84172757  1
