# generated using pymatgen
data_V3(O2F)2
_symmetry_space_group_name_H-M   'P 1'
_cell_length_a   4.65991656
_cell_length_b   7.73046285
_cell_length_c   5.54468107
_cell_angle_alpha   94.36228907
_cell_angle_beta   90.16406585
_cell_angle_gamma   90.61804045
_symmetry_Int_Tables_number   1
_chemical_formula_structural   V3(O2F)2
_chemical_formula_sum   'V6 O8 F4'
_cell_volume   199.14619532
_cell_formula_units_Z   2
loop_
 _symmetry_equiv_pos_site_id
 _symmetry_equiv_pos_as_xyz
  1  'x, y, z'
loop_
 _atom_site_type_symbol
 _atom_site_label
 _atom_site_symmetry_multiplicity
 _atom_site_fract_x
 _atom_site_fract_y
 _atom_site_fract_z
 _atom_site_occupancy
  V  V0  1  0.54004417  0.65233761  0.14933470  1
  V  V1  1  0.50000000  0.00000000  0.50000000  1
  V  V2  1  0.45995583  0.34766239  0.85066530  1
  V  V3  1  0.99951496  0.68346515  0.66839326  1
  V  V4  1  0.00048504  0.31653485  0.33160674  1
  V  V5  1  0.00000000  0.00000000  0.00000000  1
  O  O6  1  0.79246953  0.08666939  0.30253649  1
  O  O7  1  0.80042021  0.77429725  0.96339211  1
  O  O8  1  0.68811677  0.76551136  0.45964500  1
  O  O9  1  0.70611355  0.42613369  0.13329617  1
  O  O10  1  0.29388645  0.57386631  0.86670383  1
  O  O11  1  0.31188323  0.23448864  0.54035500  1
  O  O12  1  0.19957979  0.22570275  0.03660789  1
  O  O13  1  0.20753047  0.91333061  0.69746351  1
  F  F14  1  0.80122712  0.43767513  0.63865935  1
  F  F15  1  0.69756615  0.11017615  0.79608295  1
  F  F16  1  0.30243385  0.88982385  0.20391705  1
  F  F17  1  0.19877288  0.56232487  0.36134065  1
