# generated using pymatgen
data_Fe8O9
_symmetry_space_group_name_H-M   'P 1'
_cell_length_a   5.31101363
_cell_length_b   6.82890966
_cell_length_c   5.35250559
_cell_angle_alpha   82.15087003
_cell_angle_beta   99.24734859
_cell_angle_gamma   105.33076517
_symmetry_Int_Tables_number   1
_chemical_formula_structural   Fe8O9
_chemical_formula_sum   'Fe8 O9'
_cell_volume   183.88123260
_cell_formula_units_Z   1
loop_
 _symmetry_equiv_pos_site_id
 _symmetry_equiv_pos_as_xyz
  1  'x, y, z'
loop_
 _atom_site_type_symbol
 _atom_site_label
 _atom_site_symmetry_multiplicity
 _atom_site_fract_x
 _atom_site_fract_y
 _atom_site_fract_z
 _atom_site_occupancy
  Fe  Fe0  1  0.10899566  0.42416731  0.78954359  1
  Fe  Fe1  1  0.54990903  0.21396521  0.89168437  1
  Fe  Fe2  1  0.20951011  0.88196359  0.55068626  1
  Fe  Fe3  1  0.67633739  0.67036932  0.68212240  1
  Fe  Fe4  1  0.79048989  0.11803641  0.44931374  1
  Fe  Fe5  1  0.32366261  0.32963068  0.31787760  1
  Fe  Fe6  1  0.45009097  0.78603479  0.10831563  1
  Fe  Fe7  1  0.89100434  0.57583269  0.21045641  1
  O  O8  1  0.16551496  0.15561132  0.64674326  1
  O  O9  1  0.07663301  0.71583604  0.88011655  1
  O  O10  1  0.27217431  0.61178413  0.45136918  1
  O  O11  1  0.58575518  0.94327242  0.74423884  1
  O  O12  1  0.72782569  0.38821587  0.54863082  1
  O  O13  1  0.41424482  0.05672758  0.25576116  1
  O  O14  1  0.92336699  0.28416396  0.11988345  1
  O  O15  1  0.83448504  0.84438868  0.35325674  1
  O  O16  1  0.50000000  0.50000000  0.00000000  1
