# generated using pymatgen
data_Li6Fe5CoO12
_symmetry_space_group_name_H-M   'P 1'
_cell_length_a   5.09647132
_cell_length_b   5.09644711
_cell_length_c   10.10334324
_cell_angle_alpha   94.17684499
_cell_angle_beta   85.82722685
_cell_angle_gamma   59.87559878
_symmetry_Int_Tables_number   1
_chemical_formula_structural   Li6Fe5CoO12
_chemical_formula_sum   'Li6 Fe5 Co1 O12'
_cell_volume   224.55177224
_cell_formula_units_Z   1
loop_
 _symmetry_equiv_pos_site_id
 _symmetry_equiv_pos_as_xyz
  1  'x, y, z'
loop_
 _atom_site_type_symbol
 _atom_site_label
 _atom_site_symmetry_multiplicity
 _atom_site_fract_x
 _atom_site_fract_y
 _atom_site_fract_z
 _atom_site_occupancy
  Li  Li0  1  0.94190303  0.73432005  0.24197899  1
  Li  Li1  1  0.26564243  0.05805215  0.24198028  1
  Li  Li2  1  0.38019389  0.61984232  0.75830676  1
  Li  Li3  1  0.61980750  0.38015826  0.24169277  1
  Li  Li4  1  0.73436363  0.94194666  0.75801860  1
  Li  Li5  1  0.05809921  0.26567456  0.75801939  1
  Fe  Fe6  1  0.50000459  0.49999461  0.49999870  1
  Fe  Fe7  1  0.33334818  0.33335354  0.00000214  1
  Fe  Fe8  1  0.66664483  0.66665151  0.99999752  1
  Fe  Fe9  1  0.83279912  0.83280348  0.50000451  1
  Fe  Fe10  1  0.16719583  0.16719599  0.49999947  1
  Co  Co11  1  -0.00000100  0.00000112  -0.00000044  1
  O  O12  1  0.12928796  0.87074029  0.61490935  1
  O  O13  1  0.29120490  0.70879770  0.10926339  1
  O  O14  1  0.53691479  0.79640651  0.38450290  1
  O  O15  1  0.20356878  0.46305836  0.38450077  1
  O  O16  1  0.64751624  0.03009298  0.10958732  1
  O  O17  1  0.96990588  0.35249041  0.10958898  1
  O  O18  1  0.03009968  0.64750818  0.89041072  1
  O  O19  1  0.35248224  0.96990768  0.89041317  1
  O  O20  1  0.79643336  0.53693956  0.61549831  1
  O  O21  1  0.46308571  0.20359356  0.61549756  1
  O  O22  1  0.70879480  0.29120224  0.89073632  1
  O  O23  1  0.87071241  0.12926229  0.38509051  1
