# generated using pymatgen
data_Li(CoO2)3
_symmetry_space_group_name_H-M   'P 1'
_cell_length_a   4.85827816
_cell_length_b   4.85393555
_cell_length_c   5.17055285
_cell_angle_alpha   99.07098163
_cell_angle_beta   108.36284711
_cell_angle_gamma   59.97039705
_symmetry_Int_Tables_number   1
_chemical_formula_structural   Li(CoO2)3
_chemical_formula_sum   'Li1 Co3 O6'
_cell_volume   100.18839409
_cell_formula_units_Z   1
loop_
 _symmetry_equiv_pos_site_id
 _symmetry_equiv_pos_as_xyz
  1  'x, y, z'
loop_
 _atom_site_type_symbol
 _atom_site_label
 _atom_site_symmetry_multiplicity
 _atom_site_fract_x
 _atom_site_fract_y
 _atom_site_fract_z
 _atom_site_occupancy
  Li  Li0  1  0.66666700  0.66666700  0.00000000  1
  Co  Co1  1  0.49921056  0.00157988  0.50000000  1
  Co  Co2  1  0.16666700  0.66666700  0.50000000  1
  Co  Co3  1  0.83412344  0.33175312  0.50000000  1
  O  O4  1  0.23715681  0.99449557  0.69825762  1
  O  O5  1  0.09617719  0.33883743  0.30174238  1
  O  O6  1  0.76834762  0.99449557  0.30174238  1
  O  O7  1  0.56498538  0.33883743  0.69825762  1
  O  O8  1  0.43666983  0.66666700  0.30377146  1
  O  O9  1  0.89666317  0.66666700  0.69622854  1
