# generated using pymatgen
data_Li3TiFe3O8
_symmetry_space_group_name_H-M   'P 1'
_cell_length_a   5.91781772
_cell_length_b   5.91905373
_cell_length_c   9.61660461
_cell_angle_alpha   90.00236153
_cell_angle_beta   90.00107258
_cell_angle_gamma   119.99666813
_symmetry_Int_Tables_number   1
_chemical_formula_structural   Li3TiFe3O8
_chemical_formula_sum   'Li6 Ti2 Fe6 O16'
_cell_volume   291.72982881
_cell_formula_units_Z   2
loop_
 _symmetry_equiv_pos_site_id
 _symmetry_equiv_pos_as_xyz
  1  'x, y, z'
loop_
 _atom_site_type_symbol
 _atom_site_label
 _atom_site_symmetry_multiplicity
 _atom_site_fract_x
 _atom_site_fract_y
 _atom_site_fract_z
 _atom_site_occupancy
  Li  Li0  1  0.82396382  0.17597005  0.55833829  1
  Li  Li1  1  0.82398577  0.64782579  0.55838442  1
  Li  Li2  1  0.35198426  0.17598887  0.55826823  1
  Li  Li3  1  0.64738085  0.82374586  0.05801751  1
  Li  Li4  1  0.17621961  0.35241586  0.05794042  1
  Li  Li5  1  0.17617234  0.82375518  0.05796075  1
  Ti  Ti6  1  0.66669494  0.33337434  0.00260027  1
  Ti  Ti7  1  0.33335855  0.66667462  0.50246880  1
  Fe  Fe8  1  0.83059755  0.16950225  0.28484309  1
  Fe  Fe9  1  0.83061308  0.66116959  0.28487614  1
  Fe  Fe10  1  0.33899455  0.16953789  0.28478653  1
  Fe  Fe11  1  0.66104557  0.83051656  0.78484157  1
  Fe  Fe12  1  0.16947053  0.33890002  0.78483260  1
  Fe  Fe13  1  0.16946853  0.83054352  0.78483150  1
  O  O14  1  0.83262870  0.16738239  0.90915208  1
  O  O15  1  0.96361486  0.48174046  0.15414326  1
  O  O16  1  0.83266209  0.66525758  0.90917983  1
  O  O17  1  0.00010498  0.00010524  0.67728985  1
  O  O18  1  0.66675022  0.33340248  0.40470428  1
  O  O19  1  0.99980036  0.99980769  0.17744109  1
  O  O20  1  0.51813859  0.03643502  0.15408297  1
  O  O21  1  0.51809308  0.48174862  0.15412521  1
  O  O22  1  0.33470413  0.16740552  0.90915393  1
  O  O23  1  0.66517547  0.83262609  0.40915125  1
  O  O24  1  0.48191090  0.51826395  0.65417694  1
  O  O25  1  0.33333855  0.66668657  0.90485799  1
  O  O26  1  0.16747537  0.33485862  0.40917334  1
  O  O27  1  0.48180767  0.96358126  0.65414955  1
  O  O28  1  0.03638508  0.51819368  0.65420602  1
  O  O29  1  0.16744198  0.83257843  0.40915531  1
