# generated using pymatgen
data_Mg6AlCu
_symmetry_space_group_name_H-M   'P 1'
_cell_length_a   6.08731923
_cell_length_b   6.17793275
_cell_length_c   4.86510808
_cell_angle_alpha   90.00000000
_cell_angle_beta   90.00000000
_cell_angle_gamma   120.49365116
_symmetry_Int_Tables_number   1
_chemical_formula_structural   Mg6AlCu
_chemical_formula_sum   'Mg6 Al1 Cu1'
_cell_volume   157.65599067
_cell_formula_units_Z   1
loop_
 _symmetry_equiv_pos_site_id
 _symmetry_equiv_pos_as_xyz
  1  'x, y, z'
loop_
 _atom_site_type_symbol
 _atom_site_label
 _atom_site_symmetry_multiplicity
 _atom_site_fract_x
 _atom_site_fract_y
 _atom_site_fract_z
 _atom_site_occupancy
  Mg  Mg0  1  0.66813154  0.33407785  0.25000000  1
  Mg  Mg1  1  0.66813154  0.83405269  0.25000000  1
  Mg  Mg2  1  0.32508245  0.15758771  0.75000000  1
  Mg  Mg3  1  0.32508245  0.66749575  0.75000000  1
  Mg  Mg4  1  0.83845813  0.16922957  0.75000000  1
  Mg  Mg5  1  0.84498480  0.67249290  0.75000000  1
  Al  Al6  1  0.16460739  0.33230320  0.25000000  1
  Cu  Cu7  1  0.16552168  0.83276034  0.25000000  1
