# generated using pymatgen
data_Li4Ti3VO8
_symmetry_space_group_name_H-M   'P 1'
_cell_length_a   5.91293336
_cell_length_b   8.45118431
_cell_length_c   10.24153098
_cell_angle_alpha   113.80406326
_cell_angle_beta   150.00219028
_cell_angle_gamma   45.60877896
_symmetry_Int_Tables_number   1
_chemical_formula_structural   Li4Ti3VO8
_chemical_formula_sum   'Li4 Ti3 V1 O8'
_cell_volume   150.72873429
_cell_formula_units_Z   1
loop_
 _symmetry_equiv_pos_site_id
 _symmetry_equiv_pos_as_xyz
  1  'x, y, z'
loop_
 _atom_site_type_symbol
 _atom_site_label
 _atom_site_symmetry_multiplicity
 _atom_site_fract_x
 _atom_site_fract_y
 _atom_site_fract_z
 _atom_site_occupancy
  Li  Li0  1  0.00393814  0.49677923  0.50079725  1
  Li  Li1  1  0.49793454  0.49642953  0.99672692  1
  Li  Li2  1  0.49226471  0.49846776  0.49638728  1
  Li  Li3  1  0.00603298  0.49619197  0.00120350  1
  Ti  Ti4  1  0.50311346  0.99651099  0.99922343  1
  Ti  Ti5  1  0.00268153  0.99671826  0.49905485  1
  Ti  Ti6  1  0.50303352  0.99639129  0.49890841  1
  V  V7  1  0.00270693  0.99668933  0.99916819  1
  O  O8  1  0.95389476  0.76246516  0.98294262  1
  O  O9  1  0.53367831  0.23105043  0.01513718  1
  O  O10  1  0.53369832  0.23118327  0.50937433  1
  O  O11  1  0.99013913  0.76154729  0.50065638  1
  O  O12  1  0.01772642  0.23052919  0.49816046  1
  O  O13  1  0.47125794  0.76234853  0.98289646  1
  O  O14  1  0.05136916  0.23098750  0.01525354  1
  O  O15  1  0.47216513  0.76177527  0.48893719  1
