# generated using pymatgen
data_LiMn3(P3O10)2
_symmetry_space_group_name_H-M   'P 1'
_cell_length_a   8.39785255
_cell_length_b   8.39785255
_cell_length_c   12.01263842
_cell_angle_alpha   90.00000000
_cell_angle_beta   90.00000000
_cell_angle_gamma   74.87158603
_symmetry_Int_Tables_number   1
_chemical_formula_structural   LiMn3(P3O10)2
_chemical_formula_sum   'Li2 Mn6 P12 O40'
_cell_volume   817.81805197
_cell_formula_units_Z   2
loop_
 _symmetry_equiv_pos_site_id
 _symmetry_equiv_pos_as_xyz
  1  'x, y, z'
loop_
 _atom_site_type_symbol
 _atom_site_label
 _atom_site_symmetry_multiplicity
 _atom_site_fract_x
 _atom_site_fract_y
 _atom_site_fract_z
 _atom_site_occupancy
  Li  Li0  1  0.56904780  0.43095220  0.00000000  1
  Li  Li1  1  0.43095220  0.56904780  0.50000000  1
  Mn  Mn2  1  0.14135028  0.85864972  0.50000000  1
  Mn  Mn3  1  0.29363674  0.29363674  0.25000000  1
  Mn  Mn4  1  0.23826993  0.23826993  0.75000000  1
  Mn  Mn5  1  0.70636326  0.70636326  0.75000000  1
  Mn  Mn6  1  0.76173007  0.76173007  0.25000000  1
  Mn  Mn7  1  0.85864972  0.14135028  0.00000000  1
  P  P8  1  0.36824253  0.90545493  0.17970930  1
  P  P9  1  0.09454507  0.63175747  0.82029070  1
  P  P10  1  0.31563586  0.80987256  0.72310641  1
  P  P11  1  0.19012744  0.68436414  0.27689359  1
  P  P12  1  0.73586154  0.84835921  0.51266265  1
  P  P13  1  0.15164079  0.26413846  0.48733735  1
  P  P14  1  0.26413846  0.15164079  0.01266265  1
  P  P15  1  0.84835921  0.73586154  0.98733735  1
  P  P16  1  0.68436414  0.19012744  0.22310641  1
  P  P17  1  0.80987256  0.31563586  0.77689359  1
  P  P18  1  0.63175747  0.09454507  0.67970930  1
  P  P19  1  0.90545493  0.36824253  0.32029070  1
  O  O20  1  0.21465323  0.82434381  0.18748569  1
  O  O21  1  0.17565619  0.78534677  0.81251431  1
  O  O22  1  0.36560342  0.96539438  0.05293862  1
  O  O23  1  0.03460562  0.63439658  0.94706138  1
  O  O24  1  0.30022233  0.71382584  0.61660958  1
  O  O25  1  0.28617416  0.69977767  0.38339042  1
  O  O26  1  0.05534675  0.32879193  0.24309082  1
  O  O27  1  0.67120807  0.94465325  0.75690918  1
  O  O28  1  0.26895333  0.52207224  0.21575974  1
  O  O29  1  0.47792776  0.73104667  0.78424026  1
  O  O30  1  0.72526870  0.00668476  0.20199010  1
  O  O31  1  0.99331524  0.27473130  0.79800990  1
  O  O32  1  0.52239042  0.77136628  0.19844927  1
  O  O33  1  0.22863372  0.47760958  0.80155073  1
  O  O34  1  0.67234470  0.83449607  0.39527478  1
  O  O35  1  0.16550393  0.32765530  0.60472522  1
  O  O36  1  0.83814547  0.91477424  0.97368837  1
  O  O37  1  0.08522576  0.16185453  0.02631163  1
  O  O38  1  0.67228776  0.72884962  0.58903360  1
  O  O39  1  0.27115038  0.32771224  0.41096640  1
  O  O40  1  0.32771224  0.27115038  0.08903360  1
  O  O41  1  0.72884962  0.67228776  0.91096640  1
  O  O42  1  0.16185453  0.08522576  0.47368837  1
  O  O43  1  0.91477424  0.83814547  0.52631163  1
  O  O44  1  0.32765530  0.16550393  0.89527478  1
  O  O45  1  0.83449607  0.67234470  0.10472522  1
  O  O46  1  0.47760958  0.22863372  0.69844927  1
  O  O47  1  0.77136628  0.52239042  0.30155073  1
  O  O48  1  0.27473130  0.99331524  0.70199010  1
  O  O49  1  0.00668476  0.72526870  0.29800990  1
  O  O50  1  0.73104667  0.47792776  0.71575974  1
  O  O51  1  0.52207224  0.26895333  0.28424026  1
  O  O52  1  0.32879193  0.05534675  0.25690918  1
  O  O53  1  0.94465325  0.67120807  0.74309082  1
  O  O54  1  0.69977767  0.28617416  0.11660958  1
  O  O55  1  0.71382584  0.30022233  0.88339042  1
  O  O56  1  0.63439658  0.03460562  0.55293862  1
  O  O57  1  0.96539438  0.36560342  0.44706138  1
  O  O58  1  0.78534677  0.17565619  0.68748569  1
  O  O59  1  0.82434381  0.21465323  0.31251431  1
