# generated using pymatgen
data_Li4Mn3Nb2Co3O16
_symmetry_space_group_name_H-M   'P 1'
_cell_length_a   5.96553168
_cell_length_b   5.87162093
_cell_length_c   9.70678849
_cell_angle_alpha   89.77522369
_cell_angle_beta   91.31807421
_cell_angle_gamma   119.28327274
_symmetry_Int_Tables_number   1
_chemical_formula_structural   Li4Mn3Nb2Co3O16
_chemical_formula_sum   'Li4 Mn3 Nb2 Co3 O16'
_cell_volume   296.46578459
_cell_formula_units_Z   1
loop_
 _symmetry_equiv_pos_site_id
 _symmetry_equiv_pos_as_xyz
  1  'x, y, z'
loop_
 _atom_site_type_symbol
 _atom_site_label
 _atom_site_symmetry_multiplicity
 _atom_site_fract_x
 _atom_site_fract_y
 _atom_site_fract_z
 _atom_site_occupancy
  Li  Li0  1  0.31579449  0.66027921  0.89999761  1
  Li  Li1  1  0.99083738  0.99552957  0.99283201  1
  Li  Li2  1  0.01596058  0.00493129  0.48993084  1
  Li  Li3  1  0.67405405  0.33878349  0.40280113  1
  Mn  Mn4  1  0.65402863  0.82549995  0.21536370  1
  Mn  Mn5  1  0.83325843  0.66356424  0.71658794  1
  Mn  Mn6  1  0.83380488  0.16921372  0.71599812  1
  Nb  Nb7  1  0.33730488  0.66885736  0.49124330  1
  Nb  Nb8  1  0.62824298  0.31207820  0.99372060  1
  Co  Co9  1  0.16254586  0.82413225  0.21354660  1
  Co  Co10  1  0.16040806  0.33840638  0.21526208  1
  Co  Co11  1  0.34686642  0.17303220  0.71474788  1
  O  O12  1  0.21026689  0.86398010  0.59236426  1
  O  O13  1  0.04465193  0.53491327  0.35256856  1
  O  O14  1  0.33127031  0.67659345  0.11357360  1
  O  O15  1  0.99256226  0.98536690  0.30034246  1
  O  O16  1  0.01770292  0.00770713  0.80386697  1
  O  O17  1  0.20723025  0.34536583  0.59011037  1
  O  O18  1  0.51015608  0.97109712  0.33805828  1
  O  O19  1  0.50715503  0.53927936  0.33933093  1
  O  O20  1  0.31631925  0.14784306  0.09663507  1
  O  O21  1  0.69273499  0.84698200  0.59502064  1
  O  O22  1  0.49155397  0.46189413  0.84394495  1
  O  O23  1  0.49376736  0.03046913  0.84323508  1
  O  O24  1  0.66496178  0.33309267  0.61541384  1
  O  O25  1  0.80608348  0.66017809  0.09120029  1
  O  O26  1  0.95438598  0.47632237  0.83978683  1
  O  O27  1  0.80608986  0.14490853  0.09035205  1
