# generated using pymatgen
data_V6O7F5
_symmetry_space_group_name_H-M   'P 1'
_cell_length_a   7.43806749
_cell_length_b   5.59434142
_cell_length_c   5.60243886
_cell_angle_alpha   71.01442892
_cell_angle_beta   71.78311844
_cell_angle_gamma   72.22953224
_symmetry_Int_Tables_number   1
_chemical_formula_structural   V6O7F5
_chemical_formula_sum   'V6 O7 F5'
_cell_volume   203.94822736
_cell_formula_units_Z   1
loop_
 _symmetry_equiv_pos_site_id
 _symmetry_equiv_pos_as_xyz
  1  'x, y, z'
loop_
 _atom_site_type_symbol
 _atom_site_label
 _atom_site_symmetry_multiplicity
 _atom_site_fract_x
 _atom_site_fract_y
 _atom_site_fract_z
 _atom_site_occupancy
  V  V0  1  0.82976361  0.67209896  0.67137717  1
  V  V1  1  0.66464512  0.33051658  0.33525463  1
  V  V2  1  0.32808678  0.67321526  0.62370697  1
  V  V3  1  0.15112240  0.33527281  0.35742200  1
  V  V4  1  0.50831340  0.98065295  0.99714014  1
  V  V5  1  0.00750001  0.01000645  0.02308670  1
  O  O6  1  0.66661930  0.03025559  0.64156730  1
  O  O7  1  0.97148490  0.23530360  0.23921505  1
  O  O8  1  0.36365735  0.43172649  0.42634014  1
  O  O9  1  0.00025602  0.30025835  0.70244832  1
  O  O10  1  0.67011207  0.62257402  0.03164176  1
  O  O11  1  0.33123342  0.98336488  0.35128568  1
  O  O12  1  0.00258540  0.69460001  0.31108024  1
  F  F13  1  0.33349100  0.37375797  0.95767452  1
  F  F14  1  0.62657900  0.57285118  0.56211674  1
  F  F15  1  0.30472471  0.88871721  0.88973546  1
  F  F16  1  0.70577612  0.09007464  0.10362174  1
  F  F17  1  0.03404940  0.77475203  0.77528844  1
