# generated using pymatgen
data_Li3V3P8O29
_symmetry_space_group_name_H-M   'P 1'
_cell_length_a   9.70754656
_cell_length_b   9.76633775
_cell_length_c   14.27581258
_cell_angle_alpha   90.62896212
_cell_angle_beta   90.08609745
_cell_angle_gamma   59.97568076
_symmetry_Int_Tables_number   1
_chemical_formula_structural   Li3V3P8O29
_chemical_formula_sum   'Li6 V6 P16 O58'
_cell_volume   1171.75126803
_cell_formula_units_Z   2
loop_
 _symmetry_equiv_pos_site_id
 _symmetry_equiv_pos_as_xyz
  1  'x, y, z'
loop_
 _atom_site_type_symbol
 _atom_site_label
 _atom_site_symmetry_multiplicity
 _atom_site_fract_x
 _atom_site_fract_y
 _atom_site_fract_z
 _atom_site_occupancy
  Li  Li0  1  0.76726388  0.91063266  0.55271906  1
  Li  Li1  1  0.76440924  0.33127247  0.06064753  1
  Li  Li2  1  0.32049591  0.77123216  0.55034094  1
  Li  Li3  1  0.23049417  0.67639022  0.94914151  1
  Li  Li4  1  0.00090390  0.99652501  0.01449341  1
  Li  Li5  1  0.97573801  0.05346931  0.49428907  1
  V  V6  1  0.56444554  0.43325473  0.25498249  1
  V  V7  1  0.43891329  0.56147378  0.74601643  1
  V  V8  1  0.56203261  0.99894335  0.75875087  1
  V  V9  1  0.43679428  0.99957364  0.24278622  1
  V  V10  1  0.99823512  0.56325245  0.25129723  1
  V  V11  1  0.00085096  0.43473509  0.74598348  1
  P  P12  1  0.91911203  0.77502098  0.84145835  1
  P  P13  1  0.77582821  0.91417983  0.34074404  1
  P  P14  1  0.91842923  0.30469927  0.34371780  1
  P  P15  1  0.66851235  0.66011830  0.13190109  1
  P  P16  1  0.66569607  0.67027801  0.63318000  1
  P  P17  1  0.77627281  0.31461761  0.84183620  1
  P  P18  1  0.69652670  0.21348727  0.66157386  1
  P  P19  1  0.30099943  0.91466500  0.84535071  1
  P  P20  1  0.70238667  0.08299841  0.15876101  1
  P  P21  1  0.31049442  0.78225477  0.33851195  1
  P  P22  1  0.22250242  0.68549386  0.16075187  1
  P  P23  1  0.33198556  0.33079876  0.36628242  1
  P  P24  1  0.32967402  0.33967896  0.86520310  1
  P  P25  1  0.08327809  0.69266170  0.65638610  1
  P  P26  1  0.22356499  0.08168471  0.66174776  1
  P  P27  1  0.08343814  0.21922794  0.15938600  1
  O  O28  1  0.99375054  0.78824313  0.57452444  1
  O  O29  1  0.91459927  0.74033244  0.33083442  1
  O  O30  1  0.80767096  0.00557769  0.07705109  1
  O  O31  1  0.74292396  0.91237262  0.83451343  1
  O  O32  1  0.92079193  0.61672597  0.82693663  1
  O  O33  1  0.81323306  0.66047183  0.18156024  1
  O  O34  1  0.92304873  0.45968935  0.33207057  1
  O  O35  1  0.99451208  0.20277392  0.07882119  1
  O  O36  1  0.91637910  0.34524001  0.82778537  1
  O  O37  1  0.66931815  0.81556884  0.67862060  1
  O  O38  1  0.61754266  0.91627347  0.32351169  1
  O  O39  1  0.81135655  0.52203973  0.67715501  1
  O  O40  1  0.67486652  0.65443006  0.02814469  1
  O  O41  1  0.65945416  0.67687935  0.52947352  1
  O  O42  1  0.66878232  0.51056622  0.17192232  1
  O  O43  1  0.46064649  0.91821611  0.83175418  1
  O  O44  1  0.52014540  0.81096260  0.17487418  1
  O  O45  1  0.74107268  0.34671713  0.33086640  1
  O  O46  1  0.79184677  0.19638831  0.75820624  1
  O  O47  1  0.79426625  0.19810838  0.57890229  1
  O  O48  1  0.77577207  0.24702355  0.93401372  1
  O  O49  1  0.61831382  0.47301771  0.82113644  1
  O  O50  1  0.51135842  0.67307440  0.67349302  1
  O  O51  1  0.65698504  0.26109405  0.16440599  1
  O  O52  1  0.46889169  0.62184131  0.32491788  1
  O  O53  1  0.34415597  0.91995633  0.32755558  1
  O  O54  1  0.79756100  0.00844326  0.25581532  1
  O  O55  1  0.78571883  0.98488588  0.43179734  1
  O  O56  1  0.21430557  0.99504845  0.57803327  1
  O  O57  1  0.65584908  0.07852445  0.66618864  1
  O  O58  1  0.53836405  0.37748722  0.67296561  1
  O  O59  1  0.34157022  0.73834752  0.83377448  1
  O  O60  1  0.48097986  0.33558688  0.32261702  1
  O  O61  1  0.38246712  0.53137586  0.17483865  1
  O  O62  1  0.21094163  0.76907221  0.07171673  1
  O  O63  1  0.22938456  0.79073699  0.42851896  1
  O  O64  1  0.20019963  0.79811924  0.25004868  1
  O  O65  1  0.25912177  0.65772849  0.65808299  1
  O  O66  1  0.48133333  0.18824380  0.82402663  1
  O  O67  1  0.54718353  0.07387127  0.16690323  1
  O  O68  1  0.32977998  0.48772199  0.81968641  1
  O  O69  1  0.32668456  0.35421850  0.96845767  1
  O  O70  1  0.33591716  0.32931518  0.46958911  1
  O  O71  1  0.18611709  0.47678572  0.32109810  1
  O  O72  1  0.38375636  0.07819173  0.67726286  1
  O  O73  1  0.33878356  0.18399558  0.31634965  1
  O  O74  1  0.08454653  0.64980355  0.16936078  1
  O  O75  1  0.00462262  0.79593539  0.75020894  1
  O  O76  1  0.00369161  0.78810090  0.92473628  1
  O  O77  1  0.08326835  0.53479808  0.67004478  1
  O  O78  1  0.18706109  0.33466414  0.81838272  1
  O  O79  1  0.07680722  0.37997702  0.17044660  1
  O  O80  1  0.26068501  0.08519524  0.16188555  1
  O  O81  1  0.20813373  0.98732864  0.93141135  1
  O  O82  1  0.19821983  0.00194058  0.75384953  1
  O  O83  1  0.08763342  0.25711595  0.66584415  1
  O  O84  1  0.98992664  0.21229040  0.42884859  1
  O  O85  1  0.00734145  0.19514411  0.25370975  1
