# generated using pymatgen
data_Li3V3P8O29
_symmetry_space_group_name_H-M   'P 1'
_cell_length_a   9.73176664
_cell_length_b   9.74869220
_cell_length_c   14.34718045
_cell_angle_alpha   90.58127603
_cell_angle_beta   90.45783083
_cell_angle_gamma   60.11632965
_symmetry_Int_Tables_number   1
_chemical_formula_structural   Li3V3P8O29
_chemical_formula_sum   'Li6 V6 P16 O58'
_cell_volume   1180.09858854
_cell_formula_units_Z   2
loop_
 _symmetry_equiv_pos_site_id
 _symmetry_equiv_pos_as_xyz
  1  'x, y, z'
loop_
 _atom_site_type_symbol
 _atom_site_label
 _atom_site_symmetry_multiplicity
 _atom_site_fract_x
 _atom_site_fract_y
 _atom_site_fract_z
 _atom_site_occupancy
  Li  Li0  1  0.77079910  0.90862510  0.54680535  1
  Li  Li1  1  0.76816962  0.33037179  0.06047970  1
  Li  Li2  1  0.32276938  0.76993498  0.55531735  1
  Li  Li3  1  0.68335559  0.08557654  0.94724001  1
  Li  Li4  1  0.07115526  0.94670133  0.00241659  1
  Li  Li5  1  0.97099841  0.05574112  0.49314029  1
  V  V6  1  0.56118109  0.43762629  0.25492801  1
  V  V7  1  0.43447686  0.56152101  0.74905899  1
  V  V8  1  0.56082525  0.99782945  0.75147351  1
  V  V9  1  0.43212683  0.00022947  0.24549387  1
  V  V10  1  0.99945676  0.56240668  0.24958578  1
  V  V11  1  0.99880813  0.43853372  0.75033150  1
  P  P12  1  0.91713761  0.77984157  0.84505763  1
  P  P13  1  0.77717850  0.91198523  0.33719515  1
  P  P14  1  0.91699406  0.30604879  0.34202398  1
  P  P15  1  0.66737574  0.66291926  0.13218657  1
  P  P16  1  0.66555993  0.66744700  0.63326110  1
  P  P17  1  0.77396447  0.31458206  0.83959623  1
  P  P18  1  0.69287921  0.21746096  0.65900472  1
  P  P19  1  0.30511772  0.91357006  0.84248614  1
  P  P20  1  0.68707960  0.09072757  0.15897258  1
  P  P21  1  0.30989739  0.78054913  0.34264131  1
  P  P22  1  0.22066673  0.69031582  0.16368530  1
  P  P23  1  0.33235865  0.33107121  0.36576644  1
  P  P24  1  0.33548521  0.33187326  0.86571617  1
  P  P25  1  0.08061515  0.69574058  0.66045274  1
  P  P26  1  0.21752006  0.08730749  0.66206547  1
  P  P27  1  0.08211327  0.21920100  0.15919441  1
  O  O28  1  0.99017532  0.79180897  0.57896331  1
  O  O29  1  0.91598243  0.73912951  0.32898949  1
  O  O30  1  0.76965255  0.01808896  0.06948455  1
  O  O31  1  0.73977871  0.91710363  0.83598604  1
  O  O32  1  0.92177757  0.61853231  0.82995273  1
  O  O33  1  0.81370284  0.66111814  0.18136119  1
  O  O34  1  0.92453289  0.45955654  0.33103073  1
  O  O35  1  0.99492229  0.20253514  0.07770375  1
  O  O36  1  0.91500312  0.34410699  0.83250887  1
  O  O37  1  0.66735453  0.81485764  0.68133095  1
  O  O38  1  0.61802295  0.91541989  0.32369779  1
  O  O39  1  0.81053550  0.52225109  0.68036564  1
  O  O40  1  0.67462692  0.65926971  0.02877894  1
  O  O41  1  0.67006272  0.68173375  0.53054636  1
  O  O42  1  0.66798885  0.51303491  0.17154054  1
  O  O43  1  0.46166740  0.91903325  0.82919656  1
  O  O44  1  0.52082758  0.81363925  0.17536140  1
  O  O45  1  0.73967497  0.35039258  0.32908413  1
  O  O46  1  0.79138907  0.19894628  0.75479180  1
  O  O47  1  0.79273286  0.19536858  0.57706420  1
  O  O48  1  0.76651828  0.24014074  0.92892283  1
  O  O49  1  0.61812712  0.47432721  0.82120242  1
  O  O50  1  0.51190032  0.67034750  0.66779782  1
  O  O51  1  0.65616833  0.26345117  0.16509522  1
  O  O52  1  0.46902922  0.62200651  0.32782714  1
  O  O53  1  0.34318297  0.91843080  0.32847675  1
  O  O54  1  0.79671538  0.00252267  0.24851338  1
  O  O55  1  0.79115955  0.98482440  0.42645411  1
  O  O56  1  0.20908020  0.99874882  0.57944294  1
  O  O57  1  0.65288770  0.08087408  0.66507480  1
  O  O58  1  0.53801712  0.38009905  0.67047300  1
  O  O59  1  0.34676724  0.73866267  0.82504345  1
  O  O60  1  0.47983754  0.33585870  0.32090817  1
  O  O61  1  0.38261398  0.53659675  0.17576648  1
  O  O62  1  0.20878037  0.78529159  0.08158270  1
  O  O63  1  0.23316815  0.79075077  0.43377890  1
  O  O64  1  0.19596436  0.79290481  0.25848503  1
  O  O65  1  0.25615733  0.65854701  0.66044024  1
  O  O66  1  0.48806616  0.18374312  0.82359153  1
  O  O67  1  0.53074489  0.08826728  0.17231599  1
  O  O68  1  0.33684989  0.47805020  0.81790057  1
  O  O69  1  0.34648233  0.33057513  0.96860860  1
  O  O70  1  0.33903668  0.32905604  0.46878671  1
  O  O71  1  0.18681343  0.47622512  0.32057575  1
  O  O72  1  0.37961092  0.08258375  0.67560729  1
  O  O73  1  0.33642086  0.18303720  0.31914454  1
  O  O74  1  0.08771923  0.64699077  0.16910675  1
  O  O75  1  0.00427039  0.79706247  0.75405805  1
  O  O76  1  0.99065262  0.80316996  0.92959314  1
  O  O77  1  0.07970549  0.53759531  0.67417242  1
  O  O78  1  0.18833941  0.33293610  0.82106786  1
  O  O79  1  0.07672816  0.37977135  0.16998120  1
  O  O80  1  0.25816501  0.08472362  0.16337364  1
  O  O81  1  0.21656727  0.98099080  0.92931169  1
  O  O82  1  0.19644006  0.00715787  0.75452084  1
  O  O83  1  0.08349562  0.26202883  0.66783348  1
  O  O84  1  0.98729672  0.21236489  0.42709038  1
  O  O85  1  0.00448005  0.19676135  0.25255538  1
