# generated using pymatgen
data_Eu2AlNO3
_symmetry_space_group_name_H-M   'P 1'
_cell_length_a   3.73616552
_cell_length_b   3.73616552
_cell_length_c   6.76076614
_cell_angle_alpha   106.04023322
_cell_angle_beta   106.04023322
_cell_angle_gamma   90.00000000
_symmetry_Int_Tables_number   1
_chemical_formula_structural   Eu2AlNO3
_chemical_formula_sum   'Eu2 Al1 N1 O3'
_cell_volume   86.86953807
_cell_formula_units_Z   1
loop_
 _symmetry_equiv_pos_site_id
 _symmetry_equiv_pos_as_xyz
  1  'x, y, z'
loop_
 _atom_site_type_symbol
 _atom_site_label
 _atom_site_symmetry_multiplicity
 _atom_site_fract_x
 _atom_site_fract_y
 _atom_site_fract_z
 _atom_site_occupancy
  Eu  Eu0  1  0.52041506  0.52041506  0.04083012  1
  Eu  Eu1  1  0.80740712  0.80740712  0.61481424  1
  Al  Al2  1  0.16549979  0.16549979  0.33099959  1
  N  N3  1  0.99701635  0.99701635  0.99403270  1
  O  O4  1  0.16684039  0.66684039  0.33368079  1
  O  O5  1  0.66684039  0.16684039  0.33368079  1
  O  O6  1  0.32868089  0.32868089  0.65736178  1
