# generated using pymatgen
data_Li3V3P8O29
_symmetry_space_group_name_H-M   'P 1'
_cell_length_a   9.77728898
_cell_length_b   9.73952643
_cell_length_c   14.26358485
_cell_angle_alpha   90.38597814
_cell_angle_beta   90.48461630
_cell_angle_gamma   60.17934955
_symmetry_Int_Tables_number   1
_chemical_formula_structural   Li3V3P8O29
_chemical_formula_sum   'Li6 V6 P16 O58'
_cell_volume   1178.36619324
_cell_formula_units_Z   2
loop_
 _symmetry_equiv_pos_site_id
 _symmetry_equiv_pos_as_xyz
  1  'x, y, z'
loop_
 _atom_site_type_symbol
 _atom_site_label
 _atom_site_symmetry_multiplicity
 _atom_site_fract_x
 _atom_site_fract_y
 _atom_site_fract_z
 _atom_site_occupancy
  Li  Li0  1  0.91575732  0.31061631  0.56222778  1
  Li  Li1  1  0.32310134  0.90905152  0.05668225  1
  Li  Li2  1  0.68528541  0.22462578  0.44402225  1
  Li  Li3  1  0.31752040  0.77341962  0.56039272  1
  Li  Li4  1  0.08390165  0.69305093  0.44069885  1
  Li  Li5  1  0.94342428  0.01461950  0.99253238  1
  V  V6  1  0.56910092  0.43527210  0.24108713  1
  V  V7  1  0.43390515  0.56228495  0.75843308  1
  V  V8  1  0.56813474  0.99860385  0.74838750  1
  V  V9  1  0.43497503  0.00275080  0.25362260  1
  V  V10  1  0.99591694  0.56489753  0.24178531  1
  V  V11  1  0.00451472  0.43583259  0.75714035  1
  P  P12  1  0.91648783  0.78364322  0.83865419  1
  P  P13  1  0.77524174  0.91224261  0.33955557  1
  P  P14  1  0.91089579  0.31904888  0.34245297  1
  P  P15  1  0.66190751  0.67139014  0.12910341  1
  P  P16  1  0.66584203  0.66176954  0.63376069  1
  P  P17  1  0.78059331  0.30491989  0.84072903  1
  P  P18  1  0.68016497  0.23024949  0.65930718  1
  P  P19  1  0.31457421  0.91606228  0.84370467  1
  P  P20  1  0.69222869  0.07993769  0.15630085  1
  P  P21  1  0.32331221  0.76676017  0.34219068  1
  P  P22  1  0.22243193  0.69273919  0.16141086  1
  P  P23  1  0.33377427  0.34127022  0.36572870  1
  P  P24  1  0.33770892  0.32785949  0.86997992  1
  P  P25  1  0.09071511  0.68122404  0.65741007  1
  P  P26  1  0.22547191  0.08737205  0.66246327  1
  P  P27  1  0.08481315  0.21760637  0.16097676  1
  O  O28  1  0.01768090  0.74753652  0.56500733  1
  O  O29  1  0.91848475  0.74176036  0.33759625  1
  O  O30  1  0.78283929  0.00892966  0.07054326  1
  O  O31  1  0.74117713  0.91535220  0.82910333  1
  O  O32  1  0.92086616  0.62013649  0.82915844  1
  O  O33  1  0.81103325  0.67251602  0.17348698  1
  O  O34  1  0.90374581  0.47819520  0.31766777  1
  O  O35  1  0.00163590  0.20341393  0.07815970  1
  O  O36  1  0.91241141  0.34948239  0.83122817  1
  O  O37  1  0.65900235  0.81464139  0.67788294  1
  O  O38  1  0.62069905  0.90441989  0.32232473  1
  O  O39  1  0.81962261  0.51661198  0.67379397  1
  O  O40  1  0.65982152  0.66801740  0.02541502  1
  O  O41  1  0.65764351  0.66408174  0.52958278  1
  O  O42  1  0.66997987  0.51787745  0.17398665  1
  O  O43  1  0.47147077  0.91430148  0.82707694  1
  O  O44  1  0.51133013  0.81562639  0.17142502  1
  O  O45  1  0.74317811  0.33866649  0.33307888  1
  O  O46  1  0.79820169  0.20897186  0.74411227  1
  O  O47  1  0.75298965  0.24236740  0.56977423  1
  O  O48  1  0.80150016  0.20566686  0.92265833  1
  O  O49  1  0.61850505  0.46165899  0.83158930  1
  O  O50  1  0.52014909  0.65782811  0.67748229  1
  O  O51  1  0.65197953  0.25638581  0.16957953  1
  O  O52  1  0.48127725  0.61687501  0.32014857  1
  O  O53  1  0.34516778  0.91329333  0.33304748  1
  O  O54  1  0.79837501  0.99296086  0.24734390  1
  O  O55  1  0.76726403  0.00540391  0.42396646  1
  O  O56  1  0.22764592  0.99236577  0.58014621  1
  O  O57  1  0.65687930  0.08500627  0.66432732  1
  O  O58  1  0.52175087  0.38111790  0.68021309  1
  O  O59  1  0.34542084  0.74316346  0.83011330  1
  O  O60  1  0.48176210  0.34083753  0.32444723  1
  O  O61  1  0.38222827  0.53372807  0.17050238  1
  O  O62  1  0.21380656  0.79354661  0.08189874  1
  O  O63  1  0.25182711  0.75712850  0.43259242  1
  O  O64  1  0.20225883  0.78573608  0.25953864  1
  O  O65  1  0.25995921  0.65823871  0.66533960  1
  O  O66  1  0.48266810  0.18535942  0.82305486  1
  O  O67  1  0.53616131  0.07749941  0.17121005  1
  O  O68  1  0.33131482  0.48117562  0.82622719  1
  O  O69  1  0.33438321  0.33043111  0.97348216  1
  O  O70  1  0.33661956  0.33710104  0.46974947  1
  O  O71  1  0.18114120  0.48529865  0.32392752  1
  O  O72  1  0.38011860  0.09275854  0.67679728  1
  O  O73  1  0.34107894  0.18663503  0.31996365  1
  O  O74  1  0.08607861  0.65481045  0.16524119  1
  O  O75  1  0.99427722  0.79890579  0.74198461  1
  O  O76  1  0.99480225  0.80497134  0.92174777  1
  O  O77  1  0.09601333  0.52293717  0.68065118  1
  O  O78  1  0.18737890  0.32858906  0.82515797  1
  O  O79  1  0.08312139  0.38033349  0.17223650  1
  O  O80  1  0.26065326  0.08221052  0.16564384  1
  O  O81  1  0.23855885  0.98167831  0.93511667  1
  O  O82  1  0.19997376  0.01270840  0.75834055  1
  O  O83  1  0.08189303  0.25829722  0.66262719  1
  O  O84  1  0.98216096  0.25601001  0.43559657  1
  O  O85  1  0.01192340  0.20018466  0.25905633  1
