# generated using pymatgen
data_Li7VO5F
_symmetry_space_group_name_H-M   'P 1'
_cell_length_a   5.62674337
_cell_length_b   5.59113525
_cell_length_c   10.79765118
_cell_angle_alpha   88.71638440
_cell_angle_beta   89.71872801
_cell_angle_gamma   59.84233369
_symmetry_Int_Tables_number   1
_chemical_formula_structural   Li7VO5F
_chemical_formula_sum   'Li14 V2 O10 F2'
_cell_volume   293.63252117
_cell_formula_units_Z   2
loop_
 _symmetry_equiv_pos_site_id
 _symmetry_equiv_pos_as_xyz
  1  'x, y, z'
loop_
 _atom_site_type_symbol
 _atom_site_label
 _atom_site_symmetry_multiplicity
 _atom_site_fract_x
 _atom_site_fract_y
 _atom_site_fract_z
 _atom_site_occupancy
  Li  Li0  1  0.01769021  0.33894509  0.75797530  1
  Li  Li1  1  0.37028084  0.02265216  0.62956035  1
  Li  Li2  1  0.33041191  0.32072700  0.42844615  1
  Li  Li3  1  0.35188334  0.31890764  0.90860371  1
  Li  Li4  1  0.26786023  0.68574497  0.75728101  1
  Li  Li5  1  0.70837366  0.99814889  0.76956732  1
  Li  Li6  1  0.61264277  0.37994963  0.62743867  1
  Li  Li7  1  0.31403907  0.95418480  0.26671057  1
  Li  Li8  1  0.65771895  0.35260368  0.25863951  1
  Li  Li9  1  0.68559488  0.66157298  0.40992977  1
  Li  Li10  1  0.65572005  0.65954108  0.92899602  1
  Li  Li11  1  0.61862097  0.99415302  0.12805681  1
  Li  Li12  1  0.97372112  0.39594883  0.12822147  1
  Li  Li13  1  0.99906306  0.70587288  0.26118829  1
  V  V14  1  0.01893538  0.98975534  0.99521547  1
  V  V15  1  0.99327038  0.99027320  0.49537201  1
  O  O16  1  0.99888362  0.02804082  0.66858806  1
  O  O17  1  0.31557514  0.98864925  0.45223382  1
  O  O18  1  0.01817857  0.68090535  0.44051180  1
  O  O19  1  0.36341790  0.31392777  0.72158865  1
  O  O20  1  0.30453409  0.68484039  0.93783942  1
  O  O21  1  0.68712930  0.30817660  0.44788660  1
  O  O22  1  0.68262904  0.67591504  0.22258871  1
  O  O23  1  -0.00006625  0.31291287  0.94880208  1
  O  O24  1  0.70048849  0.98375332  0.95206696  1
  O  O25  1  0.97490831  0.02766769  0.16842087  1
  F  F26  1  0.32174265  0.31439704  0.21884788  1
  F  F27  1  0.64298632  0.67324266  0.71917872  1
