# generated using pymatgen
data_Li3V3P8O29
_symmetry_space_group_name_H-M   'P 1'
_cell_length_a   9.74868276
_cell_length_b   9.75999958
_cell_length_c   14.11162529
_cell_angle_alpha   90.07107453
_cell_angle_beta   90.12457580
_cell_angle_gamma   60.04369156
_symmetry_Int_Tables_number   1
_chemical_formula_structural   Li3V3P8O29
_chemical_formula_sum   'Li6 V6 P16 O58'
_cell_volume   1163.30449838
_cell_formula_units_Z   2
loop_
 _symmetry_equiv_pos_site_id
 _symmetry_equiv_pos_as_xyz
  1  'x, y, z'
loop_
 _atom_site_type_symbol
 _atom_site_label
 _atom_site_symmetry_multiplicity
 _atom_site_fract_x
 _atom_site_fract_y
 _atom_site_fract_z
 _atom_site_occupancy
  Li  Li0  1  0.77391172  0.91139845  0.55601445  1
  Li  Li1  1  0.91233225  0.31440758  0.55707132  1
  Li  Li2  1  0.76505443  0.33098228  0.06016228  1
  Li  Li3  1  0.33061989  0.90336629  0.06022295  1
  Li  Li4  1  0.31464529  0.77455936  0.55724483  1
  Li  Li5  1  0.98660685  0.96950289  0.00391513  1
  V  V6  1  0.56611270  0.43329295  0.25351947  1
  V  V7  1  0.43311239  0.56391532  0.75205821  1
  V  V8  1  0.56484407  0.00175304  0.75362807  1
  V  V9  1  0.43516311  0.00211150  0.25147713  1
  V  V10  1  0.99604467  0.56967900  0.24585518  1
  V  V11  1  0.00254323  0.43608651  0.75407221  1
  P  P12  1  0.91697837  0.77700974  0.84379934  1
  P  P13  1  0.77349056  0.91203667  0.34142613  1
  P  P14  1  0.91475409  0.31727644  0.34311289  1
  P  P15  1  0.66437174  0.66556091  0.12846386  1
  P  P16  1  0.66640245  0.66710750  0.63050185  1
  P  P17  1  0.77357962  0.31384340  0.84289285  1
  P  P18  1  0.68557378  0.22777486  0.65936636  1
  P  P19  1  0.31293168  0.91300523  0.84314161  1
  P  P20  1  0.69192170  0.08585852  0.15766841  1
  P  P21  1  0.31683910  0.77203857  0.34265194  1
  P  P22  1  0.22499059  0.68972956  0.16005458  1
  P  P23  1  0.32918846  0.33677972  0.36952460  1
  P  P24  1  0.33440617  0.33299822  0.87104184  1
  P  P25  1  0.08505661  0.68622200  0.65772026  1
  P  P26  1  0.22773236  0.08724582  0.65985705  1
  P  P27  1  0.08476277  0.22427034  0.15940284  1
  O  O28  1  0.99340790  0.76813277  0.57228912  1
  O  O29  1  0.91610289  0.74256957  0.33105439  1
  O  O30  1  0.78810181  0.00541754  0.07317804  1
  O  O31  1  0.74264674  0.91340157  0.83100872  1
  O  O32  1  0.91625496  0.61775550  0.82913480  1
  O  O33  1  0.81154257  0.66886415  0.17352666  1
  O  O34  1  0.90520093  0.47769316  0.32102612  1
  O  O35  1  0.99232638  0.21598468  0.07758368  1
  O  O36  1  0.91453882  0.34400505  0.83052706  1
  O  O37  1  0.66532110  0.81790821  0.67237668  1
  O  O38  1  0.61939373  0.90316855  0.31987676  1
  O  O39  1  0.81701926  0.51863165  0.67378713  1
  O  O40  1  0.66520086  0.66063511  0.02308618  1
  O  O41  1  0.66612980  0.66619745  0.52519637  1
  O  O42  1  0.67159605  0.51174354  0.17030426  1
  O  O43  1  0.47345163  0.90913104  0.82637365  1
  O  O44  1  0.51149550  0.81488142  0.16806381  1
  O  O45  1  0.74419696  0.34235031  0.33146509  1
  O  O46  1  0.78855630  0.20234722  0.75560134  1
  O  O47  1  0.77064821  0.23742671  0.57559917  1
  O  O48  1  0.77763485  0.23840090  0.93476348  1
  O  O49  1  0.61708297  0.47366852  0.82540157  1
  O  O50  1  0.51634696  0.66582923  0.67230481  1
  O  O51  1  0.65581976  0.26097046  0.16304862  1
  O  O52  1  0.47876654  0.61916220  0.32168914  1
  O  O53  1  0.34345325  0.91529597  0.33066160  1
  O  O54  1  0.79064169  0.00802820  0.25463089  1
  O  O55  1  0.76066878  0.99014848  0.43315847  1
  O  O56  1  0.23655980  0.99286215  0.57600228  1
  O  O57  1  0.66036646  0.08260217  0.66038073  1
  O  O58  1  0.52406297  0.38092756  0.67793002  1
  O  O59  1  0.34253703  0.74226563  0.82995994  1
  O  O60  1  0.47693526  0.33999510  0.32366030  1
  O  O61  1  0.38329545  0.53294619  0.17192854  1
  O  O62  1  0.21455331  0.79024108  0.07766093  1
  O  O63  1  0.25038136  0.76231285  0.43472265  1
  O  O64  1  0.20215918  0.78987937  0.25661957  1
  O  O65  1  0.25649012  0.65964974  0.65996396  1
  O  O66  1  0.48328048  0.18539257  0.82525520  1
  O  O67  1  0.53421081  0.08403746  0.17153033  1
  O  O68  1  0.33254899  0.48195359  0.82496871  1
  O  O69  1  0.33571988  0.33219227  0.97545845  1
  O  O70  1  0.33389187  0.33172197  0.47398404  1
  O  O71  1  0.18185812  0.47812634  0.32242857  1
  O  O72  1  0.38167137  0.09413579  0.67885593  1
  O  O73  1  0.33908831  0.18319475  0.32229198  1
  O  O74  1  0.08618912  0.65532921  0.16382171  1
  O  O75  1  0.00431947  0.79223764  0.75103277  1
  O  O76  1  0.99364161  0.79090397  0.93030233  1
  O  O77  1  0.09367005  0.52492547  0.67808188  1
  O  O78  1  0.18663179  0.33135423  0.82535383  1
  O  O79  1  0.08505531  0.38218610  0.17042424  1
  O  O80  1  0.25823062  0.08328628  0.15984178  1
  O  O81  1  0.23802057  0.98321308  0.93527836  1
  O  O82  1  0.20169197  0.00969294  0.75584490  1
  O  O83  1  0.08317670  0.25792470  0.66107059  1
  O  O84  1  0.98974897  0.24861502  0.43504763  1
  O  O85  1  0.01141719  0.20100794  0.25718859  1
