# generated using pymatgen
data_VOF3
_symmetry_space_group_name_H-M   'P 1'
_cell_length_a   5.29786612
_cell_length_b   7.90121655
_cell_length_c   9.09324526
_cell_angle_alpha   90.00000000
_cell_angle_beta   110.00680983
_cell_angle_gamma   90.00000000
_symmetry_Int_Tables_number   1
_chemical_formula_structural   VOF3
_chemical_formula_sum   'V4 O4 F12'
_cell_volume   357.66864939
_cell_formula_units_Z   4
loop_
 _symmetry_equiv_pos_site_id
 _symmetry_equiv_pos_as_xyz
  1  'x, y, z'
loop_
 _atom_site_type_symbol
 _atom_site_label
 _atom_site_symmetry_multiplicity
 _atom_site_fract_x
 _atom_site_fract_y
 _atom_site_fract_z
 _atom_site_occupancy
  V  V0  1  0.13641758  0.32443478  0.54809105  1
  V  V1  1  0.13641758  0.17556522  0.04809105  1
  V  V2  1  0.86358242  0.82443478  0.95190895  1
  V  V3  1  0.86358242  0.67556522  0.45190895  1
  O  O4  1  0.06884149  0.05995913  0.88920339  1
  O  O5  1  0.06884149  0.44004087  0.38920339  1
  O  O6  1  0.93115851  0.55995913  0.61079661  1
  O  O7  1  0.93115851  0.94004087  0.11079661  1
  F  F8  1  0.14892942  0.73001488  0.92928697  1
  F  F9  1  0.14892942  0.76998512  0.42928697  1
  F  F10  1  0.28751426  0.14287545  0.50607779  1
  F  F11  1  0.40770647  0.40526301  0.70426465  1
  F  F12  1  0.59229353  0.90526301  0.79573535  1
  F  F13  1  0.71248574  0.64287545  0.99392221  1
  F  F14  1  0.28751426  0.35712455  0.00607779  1
  F  F15  1  0.40770647  0.09473699  0.20426465  1
  F  F16  1  0.59229353  0.59473699  0.29573535  1
  F  F17  1  0.71248574  0.85712455  0.49392221  1
  F  F18  1  0.85107058  0.23001488  0.57071303  1
  F  F19  1  0.85107058  0.26998512  0.07071303  1
