# generated using pymatgen
data_WOF4
_symmetry_space_group_name_H-M   'P 1'
_cell_length_a   16.90270958
_cell_length_b   5.51212777
_cell_length_c   9.34681587
_cell_angle_alpha   90.00000000
_cell_angle_beta   90.00000000
_cell_angle_gamma   90.00000000
_symmetry_Int_Tables_number   1
_chemical_formula_structural   WOF4
_chemical_formula_sum   'W8 O8 F32'
_cell_volume   870.84185192
_cell_formula_units_Z   8
loop_
 _symmetry_equiv_pos_site_id
 _symmetry_equiv_pos_as_xyz
  1  'x, y, z'
loop_
 _atom_site_type_symbol
 _atom_site_label
 _atom_site_symmetry_multiplicity
 _atom_site_fract_x
 _atom_site_fract_y
 _atom_site_fract_z
 _atom_site_occupancy
  W  W0  1  0.12661858  0.15148201  0.10046118  1
  W  W1  1  0.15034593  0.46844659  0.50111126  1
  W  W2  1  0.34965407  0.46844659  0.00111126  1
  W  W3  1  0.37338142  0.15148201  0.60046118  1
  W  W4  1  0.62661858  0.84851799  0.10046118  1
  W  W5  1  0.65034593  0.53155341  0.50111126  1
  W  W6  1  0.84965407  0.53155341  0.00111126  1
  W  W7  1  0.87338142  0.84851799  0.60046118  1
  O  O8  1  0.04361913  0.02950682  0.17767193  1
  O  O9  1  0.13888218  0.57434169  0.67253656  1
  O  O10  1  0.36111782  0.57434169  0.17253656  1
  O  O11  1  0.45638087  0.02950682  0.67767193  1
  O  O12  1  0.54361913  0.97049318  0.17767193  1
  O  O13  1  0.63888218  0.42565831  0.67253656  1
  O  O14  1  0.86111782  0.42565831  0.17253656  1
  O  O15  1  0.95638087  0.97049318  0.67767193  1
  F  F16  1  0.05523995  0.56442472  0.41452901  1
  F  F17  1  0.09072965  0.46783300  0.05770864  1
  F  F18  1  0.11165008  0.14884919  0.52251656  1
  F  F19  1  0.11532364  0.05562313  0.90946161  1
  F  F20  1  0.17237649  0.30884662  0.27352952  1
  F  F21  1  0.20370732  0.72816584  0.41360319  1
  F  F22  1  0.20097987  0.90518360  0.13683389  1
  F  F23  1  0.24294330  0.32310715  0.01648665  1
  F  F24  1  0.25705670  0.32310715  0.51648665  1
  F  F25  1  0.29902013  0.90518360  0.63683389  1
  F  F26  1  0.29629268  0.72816584  0.91360319  1
  F  F27  1  0.32762351  0.30884662  0.77352952  1
  F  F28  1  0.38467636  0.05562313  0.40946161  1
  F  F29  1  0.38834992  0.14884919  0.02251656  1
  F  F30  1  0.40927035  0.46783300  0.55770864  1
  F  F31  1  0.44476005  0.56442472  0.91452901  1
  F  F32  1  0.55523995  0.43557528  0.41452901  1
  F  F33  1  0.59072965  0.53216700  0.05770864  1
  F  F34  1  0.61165008  0.85115081  0.52251656  1
  F  F35  1  0.61532364  0.94437687  0.90946161  1
  F  F36  1  0.67237649  0.69115338  0.27352952  1
  F  F37  1  0.70370732  0.27183416  0.41360319  1
  F  F38  1  0.70097987  0.09481640  0.13683389  1
  F  F39  1  0.74294330  0.67689285  0.01648665  1
  F  F40  1  0.75705670  0.67689285  0.51648665  1
  F  F41  1  0.79902013  0.09481640  0.63683389  1
  F  F42  1  0.79629268  0.27183416  0.91360319  1
  F  F43  1  0.82762351  0.69115338  0.77352952  1
  F  F44  1  0.88467636  0.94437687  0.40946161  1
  F  F45  1  0.88834992  0.85115081  0.02251656  1
  F  F46  1  0.90927035  0.53216700  0.55770864  1
  F  F47  1  0.94476005  0.43557528  0.91452901  1
