# generated using pymatgen
data_Li4Fe2Ni3Sb3O16
_symmetry_space_group_name_H-M   'P 1'
_cell_length_a   6.09094446
_cell_length_b   6.05032096
_cell_length_c   9.69375972
_cell_angle_alpha   89.49355923
_cell_angle_beta   91.96310940
_cell_angle_gamma   119.89437875
_symmetry_Int_Tables_number   1
_chemical_formula_structural   Li4Fe2Ni3Sb3O16
_chemical_formula_sum   'Li4 Fe2 Ni3 Sb3 O16'
_cell_volume   309.50851131
_cell_formula_units_Z   1
loop_
 _symmetry_equiv_pos_site_id
 _symmetry_equiv_pos_as_xyz
  1  'x, y, z'
loop_
 _atom_site_type_symbol
 _atom_site_label
 _atom_site_symmetry_multiplicity
 _atom_site_fract_x
 _atom_site_fract_y
 _atom_site_fract_z
 _atom_site_occupancy
  Li  Li0  1  0.33315563  0.67106121  0.88293306  1
  Li  Li1  1  0.95824222  0.97778523  0.98574018  1
  Li  Li2  1  0.98281000  0.99023037  0.50448789  1
  Li  Li3  1  0.65368867  0.32881819  0.40288294  1
  Fe  Fe4  1  0.35381852  0.67150796  0.50599823  1
  Fe  Fe5  1  0.70371235  0.35551398  0.97361558  1
  Ni  Ni6  1  0.65817367  0.82927648  0.21557491  1
  Ni  Ni7  1  0.83265438  0.66247302  0.71254840  1
  Ni  Ni8  1  0.83731080  0.17330933  0.71336397  1
  Sb  Sb9  1  0.16709501  0.83077164  0.21604405  1
  Sb  Sb10  1  0.16684166  0.33622425  0.21485901  1
  Sb  Sb11  1  0.34538886  0.17059552  0.71553282  1
  O  O12  1  0.18782989  0.85179184  0.59409291  1
  O  O13  1  0.02558186  0.51062135  0.33603228  1
  O  O14  1  0.31842592  0.66155311  0.10098248  1
  O  O15  1  0.00416095  0.00112281  0.31756532  1
  O  O16  1  0.00876705  0.98959016  0.80451062  1
  O  O17  1  0.17491730  0.32689625  0.59675768  1
  O  O18  1  0.47144126  0.96128572  0.33983244  1
  O  O19  1  0.46884103  0.50700756  0.33924761  1
  O  O20  1  0.30927716  0.15570986  0.10225125  1
  O  O21  1  0.67834544  0.82165048  0.59947930  1
  O  O22  1  0.50828619  0.47469229  0.84648478  1
  O  O23  1  0.52157369  0.04107226  0.84590122  1
  O  O24  1  0.66513800  0.34583711  0.60834659  1
  O  O25  1  0.84703335  0.67694230  0.10043443  1
  O  O26  1  0.96703185  0.50349416  0.83546060  1
  O  O27  1  0.85045527  0.17346655  0.09687947  1
