# generated using pymatgen
data_Li3V3P8O29
_symmetry_space_group_name_H-M   'P 1'
_cell_length_a   9.78049521
_cell_length_b   9.78045846
_cell_length_c   14.22839547
_cell_angle_alpha   89.99704104
_cell_angle_beta   90.00017778
_cell_angle_gamma   60.00351837
_symmetry_Int_Tables_number   1
_chemical_formula_structural   Li3V3P8O29
_chemical_formula_sum   'Li6 V6 P16 O58'
_cell_volume   1178.75083241
_cell_formula_units_Z   2
loop_
 _symmetry_equiv_pos_site_id
 _symmetry_equiv_pos_as_xyz
  1  'x, y, z'
loop_
 _atom_site_type_symbol
 _atom_site_label
 _atom_site_symmetry_multiplicity
 _atom_site_fract_x
 _atom_site_fract_y
 _atom_site_fract_z
 _atom_site_occupancy
  Li  Li0  1  0.91180684  0.77465383  0.05772189  1
  Li  Li1  1  0.77460756  0.91180844  0.55774735  1
  Li  Li2  1  0.91181696  0.31358461  0.55770377  1
  Li  Li3  1  0.77455931  0.31370587  0.05773477  1
  Li  Li4  1  0.31370999  0.91174927  0.05775739  1
  Li  Li5  1  0.31356413  0.77466504  0.55771699  1
  V  V6  1  0.56485163  0.43388043  0.25187807  1
  V  V7  1  0.43387843  0.56492010  0.75177010  1
  V  V8  1  0.56487661  0.00126765  0.75181428  1
  V  V9  1  0.43390222  0.00120888  0.25183340  1
  V  V10  1  0.00126950  0.56483511  0.25184429  1
  V  V11  1  0.00125305  0.43384034  0.75181796  1
  P  P12  1  0.91254139  0.77048780  0.84212646  1
  P  P13  1  0.77050487  0.91248904  0.34214376  1
  P  P14  1  0.91254101  0.31692378  0.34214484  1
  P  P15  1  0.66663371  0.66663329  0.13016992  1
  P  P16  1  0.66668565  0.66670306  0.63012456  1
  P  P17  1  0.77043169  0.31698477  0.84216157  1
  P  P18  1  0.68507230  0.22856822  0.66060286  1
  P  P19  1  0.31700992  0.91252382  0.84213331  1
  P  P20  1  0.68506646  0.08639486  0.16062328  1
  P  P21  1  0.31698471  0.77047208  0.34213857  1
  P  P22  1  0.22855693  0.68503147  0.16061118  1
  P  P23  1  0.33332438  0.33330816  0.36950741  1
  P  P24  1  0.33331864  0.33335703  0.86937973  1
  P  P25  1  0.08636196  0.68509658  0.66058302  1
  P  P26  1  0.22856422  0.08638444  0.66060147  1
  P  P27  1  0.08636372  0.22853425  0.16060534  1
  O  O28  1  0.99158430  0.77091734  0.57756910  1
  O  O29  1  0.91414741  0.74388298  0.32971878  1
  O  O30  1  0.77091683  0.99159690  0.07761562  1
  O  O31  1  0.74389899  0.91416049  0.82967085  1
  O  O32  1  0.90352679  0.61763841  0.82052740  1
  O  O33  1  0.81669842  0.66798705  0.17106441  1
  O  O34  1  0.90351444  0.47881120  0.32052323  1
  O  O35  1  0.99154036  0.23753466  0.07760166  1
  O  O36  1  0.91408718  0.34196417  0.82971868  1
  O  O37  1  0.66806272  0.81676932  0.67105489  1
  O  O38  1  0.61768750  0.90346082  0.32050802  1
  O  O39  1  0.81669955  0.51527173  0.67105049  1
  O  O40  1  0.66649704  0.66656476  0.02559949  1
  O  O41  1  0.66663504  0.66674224  0.52555393  1
  O  O42  1  0.66797087  0.51526229  0.17115194  1
  O  O43  1  0.47891948  0.90350383  0.82048267  1
  O  O44  1  0.51525685  0.81670418  0.17109509  1
  O  O45  1  0.74392401  0.34188785  0.32973937  1
  O  O46  1  0.78548488  0.20332229  0.75671038  1
  O  O47  1  0.77096701  0.23748829  0.57757971  1
  O  O48  1  0.75999596  0.25282034  0.93385383  1
  O  O49  1  0.61758183  0.47885997  0.82049403  1
  O  O50  1  0.51522642  0.66809368  0.67106704  1
  O  O51  1  0.65958488  0.25661186  0.16039983  1
  O  O52  1  0.47886725  0.61766878  0.32052996  1
  O  O53  1  0.34191806  0.91413911  0.32971813  1
  O  O54  1  0.78553474  0.01112291  0.25670338  1
  O  O55  1  0.75999791  0.98715909  0.43386033  1
  O  O56  1  0.23743949  0.99164661  0.57756504  1
  O  O57  1  0.65957096  0.08383543  0.66034867  1
  O  O58  1  0.52400039  0.38201681  0.67794562  1
  O  O59  1  0.34194635  0.74390364  0.82968069  1
  O  O60  1  0.48055134  0.33570996  0.32451626  1
  O  O61  1  0.38191894  0.52395254  0.17803653  1
  O  O62  1  0.23755766  0.77088613  0.07758495  1
  O  O63  1  0.25280303  0.75999051  0.43384997  1
  O  O64  1  0.20335995  0.78550098  0.25668259  1
  O  O65  1  0.25658309  0.65962137  0.66034432  1
  O  O66  1  0.48056703  0.18372770  0.82433427  1
  O  O67  1  0.52398842  0.09407150  0.17798675  1
  O  O68  1  0.33565866  0.48056397  0.82429059  1
  O  O69  1  0.33338225  0.33335258  0.97301794  1
  O  O70  1  0.33320600  0.33339437  0.47312608  1
  O  O71  1  0.18374626  0.48054121  0.32443685  1
  O  O72  1  0.38198113  0.09403950  0.67798706  1
  O  O73  1  0.33578250  0.18372557  0.32447813  1
  O  O74  1  0.08377128  0.65961599  0.16035415  1
  O  O75  1  0.01112997  0.78557069  0.75666233  1
  O  O76  1  0.98716418  0.76008203  0.93381155  1
  O  O77  1  0.09403654  0.52403187  0.67799570  1
  O  O78  1  0.18381444  0.33562182  0.82437035  1
  O  O79  1  0.09404866  0.38194257  0.17799458  1
  O  O80  1  0.25658069  0.08379218  0.16037628  1
  O  O81  1  0.25288944  0.98715403  0.93385214  1
  O  O82  1  0.20332555  0.01115282  0.75668503  1
  O  O83  1  0.08381622  0.25661670  0.66036969  1
  O  O84  1  0.98722810  0.25270009  0.43383789  1
  O  O85  1  0.01114398  0.20329104  0.25669023  1
