# generated using pymatgen
data_NaCr4O8
_symmetry_space_group_name_H-M   'P 1'
_cell_length_a   2.98833156
_cell_length_b   7.14550530
_cell_length_c   7.10686813
_cell_angle_alpha   92.61469222
_cell_angle_beta   102.13656421
_cell_angle_gamma   77.93005175
_symmetry_Int_Tables_number   1
_chemical_formula_structural   NaCr4O8
_chemical_formula_sum   'Na1 Cr4 O8'
_cell_volume   145.08207891
_cell_formula_units_Z   1
loop_
 _symmetry_equiv_pos_site_id
 _symmetry_equiv_pos_as_xyz
  1  'x, y, z'
loop_
 _atom_site_type_symbol
 _atom_site_label
 _atom_site_symmetry_multiplicity
 _atom_site_fract_x
 _atom_site_fract_y
 _atom_site_fract_z
 _atom_site_occupancy
  Na  Na0  1  0.50000000  0.00000000  0.00000000  1
  Cr  Cr1  1  0.34787485  0.81761321  0.51336290  1
  Cr  Cr2  1  0.83523158  0.51325678  0.18371994  1
  Cr  Cr3  1  0.16476842  0.48674322  0.81628006  1
  Cr  Cr4  1  0.65212515  0.18238679  0.48663710  1
  O  O5  1  0.84813959  0.95304541  0.64932559  1
  O  O6  1  0.83713235  0.70293944  0.37720413  1
  O  O7  1  0.19989667  0.64758224  0.04737558  1
  O  O8  1  0.53991457  0.62234692  0.70217605  1
  O  O9  1  0.46008543  0.37765308  0.29782395  1
  O  O10  1  0.80010333  0.35241776  0.95262442  1
  O  O11  1  0.16286765  0.29706056  0.62279587  1
  O  O12  1  0.15186041  0.04695459  0.35067441  1
