# generated using pymatgen
data_Mn(AlS2)2
_symmetry_space_group_name_H-M   'P 1'
_cell_length_a   3.66649326
_cell_length_b   3.66649326
_cell_length_c   12.47060361
_cell_angle_alpha   81.54657048
_cell_angle_beta   81.54657048
_cell_angle_gamma   60.00000653
_symmetry_Int_Tables_number   1
_chemical_formula_structural   Mn(AlS2)2
_chemical_formula_sum   'Mn1 Al2 S4'
_cell_volume   143.07741650
_cell_formula_units_Z   1
loop_
 _symmetry_equiv_pos_site_id
 _symmetry_equiv_pos_as_xyz
  1  'x, y, z'
loop_
 _atom_site_type_symbol
 _atom_site_label
 _atom_site_symmetry_multiplicity
 _atom_site_fract_x
 _atom_site_fract_y
 _atom_site_fract_z
 _atom_site_occupancy
  Mn  Mn0  1  0.93754989  0.93754989  0.18735032  1
  Al  Al1  1  0.70356666  0.70356666  0.88930002  1
  Al  Al2  1  0.46848963  0.46848963  0.59453112  1
  S  S3  1  0.00495415  0.00495415  0.98513754  1
  S  S4  1  0.82651686  0.82651686  0.52044942  1
  S  S5  1  0.57852969  0.57852969  0.26441092  1
  S  S6  1  0.40759311  0.40759311  0.77722066  1
