# generated using pymatgen
data_VO2F
_symmetry_space_group_name_H-M   'P 1'
_cell_length_a   5.27332180
_cell_length_b   13.08492717
_cell_length_c   5.27332180
_cell_angle_alpha   91.54639372
_cell_angle_beta   121.37326375
_cell_angle_gamma   88.45360628
_symmetry_Int_Tables_number   1
_chemical_formula_structural   VO2F
_chemical_formula_sum   'V6 O12 F6'
_cell_volume   310.51656470
_cell_formula_units_Z   6
loop_
 _symmetry_equiv_pos_site_id
 _symmetry_equiv_pos_as_xyz
  1  'x, y, z'
loop_
 _atom_site_type_symbol
 _atom_site_label
 _atom_site_symmetry_multiplicity
 _atom_site_fract_x
 _atom_site_fract_y
 _atom_site_fract_z
 _atom_site_occupancy
  V  V0  1  0.93028384  0.49493544  0.98608849  1
  V  V1  1  0.01391151  0.99493544  0.06971616  1
  V  V2  1  0.65874126  0.83005021  0.37091020  1
  V  V3  1  0.27214984  0.66151980  0.64746415  1
  V  V4  1  0.62908980  0.33005021  0.34125874  1
  V  V5  1  0.35253585  0.16151980  0.72785016  1
  O  O6  1  0.00951153  0.75144475  0.42442550  1
  O  O7  1  0.11037825  0.08393243  0.34255865  1
  O  O8  1  0.35788698  0.91736267  0.24757644  1
  O  O9  1  0.57557450  0.25144475  0.99048847  1
  O  O10  1  0.78319486  0.91870812  0.09742162  1
  O  O11  1  0.08606509  0.58730315  0.73803035  1
  O  O12  1  0.42796620  0.25356650  0.40650382  1
  O  O13  1  0.59349618  0.75356650  0.57203380  1
  O  O14  1  0.90257838  0.41870812  0.21680514  1
  O  O15  1  0.26196965  0.08730315  0.91393491  1
  O  O16  1  0.75242356  0.41736267  0.64211302  1
  O  O17  1  0.65744135  0.58393243  0.88962175  1
  F  F18  1  0.43328627  0.75113993  0.99619866  1
  F  F19  1  0.32561043  0.41721638  0.06492932  1
  F  F20  1  0.24606154  0.58282061  0.31902990  1
  F  F21  1  0.00380134  0.25113993  0.56671373  1
  F  F22  1  0.68097010  0.08282061  0.75393846  1
  F  F23  1  0.93507068  0.91721638  0.67438957  1
