# generated using pymatgen
data_Li5Fe8(BO3)8
_symmetry_space_group_name_H-M   'P 1'
_cell_length_a   5.22928225
_cell_length_b   9.13762405
_cell_length_c   10.09870077
_cell_angle_alpha   91.23788642
_cell_angle_beta   91.37343386
_cell_angle_gamma   89.26527041
_symmetry_Int_Tables_number   1
_chemical_formula_structural   Li5Fe8(BO3)8
_chemical_formula_sum   'Li5 Fe8 B8 O24'
_cell_volume   482.26062075
_cell_formula_units_Z   1
loop_
 _symmetry_equiv_pos_site_id
 _symmetry_equiv_pos_as_xyz
  1  'x, y, z'
loop_
 _atom_site_type_symbol
 _atom_site_label
 _atom_site_symmetry_multiplicity
 _atom_site_fract_x
 _atom_site_fract_y
 _atom_site_fract_z
 _atom_site_occupancy
  Li  Li0  1  0.84906649  0.82696559  0.65287125  1
  Li  Li1  1  0.66948760  0.66988004  0.40472288  1
  Li  Li2  1  0.67305657  0.67542015  0.91932513  1
  Li  Li3  1  0.17453552  0.17369125  0.41581850  1
  Li  Li4  1  0.16979551  0.17430645  0.91543598  1
  Fe  Fe5  1  0.82577631  0.17305621  0.63260791  1
  Fe  Fe6  1  0.83459155  0.49515250  0.13297282  1
  Fe  Fe7  1  0.67618898  0.00089305  0.88133331  1
  Fe  Fe8  1  0.64930999  0.34195166  0.37645607  1
  Fe  Fe9  1  0.34157043  0.65117807  0.63049595  1
  Fe  Fe10  1  0.33386814  0.99608702  0.13440127  1
  Fe  Fe11  1  0.15388251  0.83611681  0.37731118  1
  Fe  Fe12  1  0.18449052  0.49441234  0.87874756  1
  B  B13  1  0.84681276  0.50282382  0.62478715  1
  B  B14  1  0.83198555  0.16705028  0.12746716  1
  B  B15  1  0.66191328  0.00247904  0.38290522  1
  B  B16  1  0.66976489  0.33264296  0.87986199  1
  B  B17  1  0.32690665  0.99661002  0.62641240  1
  B  B18  1  0.33203529  0.66731660  0.12585858  1
  B  B19  1  0.16408360  0.50169402  0.37361377  1
  B  B20  1  0.17515236  0.83214190  0.87751127  1
  O  O21  1  0.90183877  0.51694357  0.33422512  1
  O  O22  1  0.91109548  0.82865750  0.85812693  1
  O  O23  1  0.82200936  0.21162094  0.83439506  1
  O  O24  1  0.78980628  0.13074819  0.42341667  1
  O  O25  1  0.77877193  0.86941962  0.38752745  1
  O  O26  1  0.79627406  0.45956396  0.92361433  1
  O  O27  1  0.71643694  0.63401548  0.60585108  1
  O  O28  1  0.67532341  0.05085053  0.09006527  1
  O  O29  1  0.73245246  0.37068517  0.58642987  1
  O  O30  1  0.72511151  0.29874150  0.16775951  1
  O  O31  1  0.59269974  0.65222843  0.11801742  1
  O  O32  1  0.59079860  0.00449390  0.66072400  1
  O  O33  1  0.40308141  0.01601836  0.33924422  1
  O  O34  1  0.41331139  0.31996198  0.88170678  1
  O  O35  1  0.32543219  0.70994680  0.85113377  1
  O  O36  1  0.29762372  0.62773682  0.40900816  1
  O  O37  1  0.27461313  0.36672874  0.37748119  1
  O  O38  1  0.29231359  0.96263555  0.92221543  1
  O  O39  1  0.17449143  0.55214106  0.09014681  1
  O  O40  1  0.18265280  0.12349519  0.62023167  1
  O  O41  1  0.21603062  0.86390076  0.59532176  1
  O  O42  1  0.22403621  0.80057686  0.16521358  1
  O  O43  1  0.09147449  0.15130308  0.11665012  1
  O  O44  1  0.09045102  0.50180823  0.67575247  1
