# generated using pymatgen
data_Mn4O3F5
_symmetry_space_group_name_H-M   'P 1'
_cell_length_a   5.76209467
_cell_length_b   5.76209467
_cell_length_c   5.76209467
_cell_angle_alpha   67.91944857
_cell_angle_beta   102.29417425
_cell_angle_gamma   65.72232397
_symmetry_Int_Tables_number   1
_chemical_formula_structural   Mn4O3F5
_chemical_formula_sum   'Mn4 O3 F5'
_cell_volume   145.50744008
_cell_formula_units_Z   1
loop_
 _symmetry_equiv_pos_site_id
 _symmetry_equiv_pos_as_xyz
  1  'x, y, z'
loop_
 _atom_site_type_symbol
 _atom_site_label
 _atom_site_symmetry_multiplicity
 _atom_site_fract_x
 _atom_site_fract_y
 _atom_site_fract_z
 _atom_site_occupancy
  Mn  Mn0  1  0.75886709  0.73332585  0.50780706  1
  Mn  Mn1  1  0.24113291  0.25106104  0.50780706  1
  Mn  Mn2  1  0.50000000  0.52242973  0.97757027  1
  Mn  Mn3  1  0.00000000  0.99145037  0.00854963  1
  O  O4  1  0.50000000  0.81914098  0.68085902  1
  O  O5  1  0.00000000  0.29236760  0.70763240  1
  O  O6  1  0.00000000  0.68824441  0.31175559  1
  F  F7  1  0.05749985  0.75094821  0.80938380  1
  F  F8  1  0.56033202  0.24811605  0.80938380  1
  F  F9  1  0.50000000  0.20385149  0.29614851  1
  F  F10  1  0.43966798  0.75094821  0.19155193  1
  F  F11  1  0.94250015  0.24811605  0.19155193  1
