# generated using pymatgen
data_LiFe2(BO3)2
_symmetry_space_group_name_H-M   'P 1'
_cell_length_a   5.27131727
_cell_length_b   9.12548193
_cell_length_c   10.18063929
_cell_angle_alpha   90.43274382
_cell_angle_beta   90.77970370
_cell_angle_gamma   89.72654950
_symmetry_Int_Tables_number   1
_chemical_formula_structural   LiFe2(BO3)2
_chemical_formula_sum   'Li4 Fe8 B8 O24'
_cell_volume   489.65780054
_cell_formula_units_Z   4
loop_
 _symmetry_equiv_pos_site_id
 _symmetry_equiv_pos_as_xyz
  1  'x, y, z'
loop_
 _atom_site_type_symbol
 _atom_site_label
 _atom_site_symmetry_multiplicity
 _atom_site_fract_x
 _atom_site_fract_y
 _atom_site_fract_z
 _atom_site_occupancy
  Li  Li0  1  0.34074737  0.01102120  0.84434760  1
  Li  Li1  1  0.65737528  0.99389885  0.12779051  1
  Li  Li2  1  0.85177612  0.48656517  0.33434894  1
  Li  Li3  1  0.84530294  0.51040080  0.83209638  1
  Fe  Fe4  1  0.16138903  0.17297463  0.12283684  1
  Fe  Fe5  1  0.84064545  0.15203044  0.37317236  1
  Fe  Fe6  1  0.33649179  0.34541700  0.87052283  1
  Fe  Fe7  1  0.64977959  0.32797167  0.61793982  1
  Fe  Fe8  1  0.34112107  0.67544698  0.36714956  1
  Fe  Fe9  1  0.15499646  0.82907195  0.62374535  1
  Fe  Fe10  1  0.65506746  0.65717832  0.11629057  1
  Fe  Fe11  1  0.83997109  0.84240074  0.87266850  1
  B  B12  1  0.15345822  0.16547522  0.62625700  1
  B  B13  1  0.33828779  0.34437826  0.36749841  1
  B  B14  1  0.83255864  0.17026152  0.87379683  1
  B  B15  1  0.66248820  0.32284011  0.12477294  1
  B  B16  1  0.34081375  0.66795231  0.86735239  1
  B  B17  1  0.66082572  0.66739197  0.62328920  1
  B  B18  1  0.15613150  0.84383350  0.12490246  1
  B  B19  1  0.83196702  0.82241592  0.36713353  1
  O  O20  1  0.24433285  0.02817034  0.65046968  1
  O  O21  1  0.08679159  0.17305701  0.91572580  1
  O  O22  1  0.69293833  0.04459567  0.88453080  1
  O  O23  1  0.20910097  0.22219169  0.31866339  1
  O  O24  1  0.30237331  0.28607859  0.65912800  1
  O  O25  1  0.79545642  0.19244830  0.15442767  1
  O  O26  1  0.91182776  0.18670097  0.57466697  1
  O  O27  1  0.41958262  0.30879447  0.07271509  1
  O  O28  1  0.21873868  0.47846667  0.36748157  1
  O  O29  1  0.58913422  0.33144349  0.41577739  1
  O  O30  1  0.72495271  0.29995128  0.82293452  1
  O  O31  1  0.19494269  0.54557780  0.86827198  1
  O  O32  1  0.76992301  0.45463977  0.14806363  1
  O  O33  1  0.28995834  0.72457689  0.17599580  1
  O  O34  1  0.42405035  0.69540683  0.56662392  1
  O  O35  1  0.74496179  0.52747021  0.64196272  1
  O  O36  1  0.59601408  0.66460014  0.90658769  1
  O  O37  1  0.07373803  0.81133566  0.42649287  1
  O  O38  1  0.23381544  0.80250606  0.82525117  1
  O  O39  1  0.70993787  0.68850926  0.33789415  1
  O  O40  1  0.80841486  0.78429580  0.66624553  1
  O  O41  1  0.28486941  0.97525390  0.11307136  1
  O  O42  1  0.90575373  0.83165099  0.08342930  1
  O  O43  1  0.72650443  0.95213465  0.33680399  1
