# generated using pymatgen
data_Li5Fe8(BO3)8
_symmetry_space_group_name_H-M   'P 1'
_cell_length_a   5.24495744
_cell_length_b   9.06812746
_cell_length_c   10.22098561
_cell_angle_alpha   90.98752871
_cell_angle_beta   90.41177808
_cell_angle_gamma   89.50564061
_symmetry_Int_Tables_number   1
_chemical_formula_structural   Li5Fe8(BO3)8
_chemical_formula_sum   'Li5 Fe8 B8 O24'
_cell_volume   486.02759097
_cell_formula_units_Z   1
loop_
 _symmetry_equiv_pos_site_id
 _symmetry_equiv_pos_as_xyz
  1  'x, y, z'
loop_
 _atom_site_type_symbol
 _atom_site_label
 _atom_site_symmetry_multiplicity
 _atom_site_fract_x
 _atom_site_fract_y
 _atom_site_fract_z
 _atom_site_occupancy
  Li  Li0  1  0.84612513  0.82811581  0.66143668  1
  Li  Li1  1  0.81108145  0.83762835  0.16706467  1
  Li  Li2  1  0.66320745  0.67726386  0.90609253  1
  Li  Li3  1  0.31675913  0.33441380  0.15063708  1
  Li  Li4  1  0.17498294  0.17110541  0.41069020  1
  Fe  Fe5  1  0.82475753  0.17299035  0.63444212  1
  Fe  Fe6  1  0.81631534  0.50169648  0.13342480  1
  Fe  Fe7  1  0.67748201  0.01082570  0.88509732  1
  Fe  Fe8  1  0.66614783  0.35107433  0.38153456  1
  Fe  Fe9  1  0.35061969  0.64632230  0.62434574  1
  Fe  Fe10  1  0.31370812  0.00291963  0.11889968  1
  Fe  Fe11  1  0.18322132  0.82790258  0.38052384  1
  Fe  Fe12  1  0.16880089  0.49408525  0.87566497  1
  B  B13  1  0.84876442  0.50147557  0.63538103  1
  B  B14  1  0.82369083  0.16676837  0.13298647  1
  B  B15  1  0.67760731  0.00463298  0.38292530  1
  B  B16  1  0.66704247  0.34129751  0.87575212  1
  B  B17  1  0.32788383  -0.00272918  0.62220966  1
  B  B18  1  0.33028597  0.66804239  0.12466853  1
  B  B19  1  0.15952192  0.49942043  0.37136607  1
  B  B20  1  0.17197111  0.82723187  0.87657456  1
  O  O21  1  0.90828428  0.50777856  0.33182324  1
  O  O22  1  0.90962148  0.83218911  0.86053089  1
  O  O23  1  0.79268518  0.21703517  0.82555970  1
  O  O24  1  0.78132459  0.13631258  0.43025946  1
  O  O25  1  0.83165535  0.88448381  0.35727291  1
  O  O26  1  0.80929251  0.46524976  0.91610041  1
  O  O27  1  0.72287313  0.63418926  0.63605759  1
  O  O28  1  0.70439498  0.03456438  0.09491738  1
  O  O29  1  0.73127948  0.37342225  0.58819676  1
  O  O30  1  0.67659022  0.29147368  0.16221232  1
  O  O31  1  0.59033919  0.68001989  0.10778152  1
  O  O32  1  0.58681465  0.00039093  0.65788057  1
  O  O33  1  0.41460899  -0.00325139  0.35558260  1
  O  O34  1  0.40990088  0.34284267  0.88883954  1
  O  O35  1  0.30434444  0.69346922  0.84854406  1
  O  O36  1  0.27967442  0.62789135  0.41864747  1
  O  O37  1  0.29068434  0.36739471  0.36491707  1
  O  O38  1  0.31047550  0.94648360  0.91868326  1
  O  O39  1  0.20192436  0.54010981  0.08556395  1
  O  O40  1  0.18172731  0.12360879  0.61651872  1
  O  O41  1  0.21374722  0.86190047  0.58571643  1
  O  O42  1  0.19153980  0.78845752  0.17826184  1
  O  O43  1  0.08474553  0.17314159  0.14228204  1
  O  O44  1  0.09797847  0.49115149  0.68209132  1
