# generated using pymatgen
data_Li5Fe8(BO3)8
_symmetry_space_group_name_H-M   'P 1'
_cell_length_a   5.21751367
_cell_length_b   9.09128420
_cell_length_c   10.24685855
_cell_angle_alpha   91.06383422
_cell_angle_beta   90.34662086
_cell_angle_gamma   89.91033835
_symmetry_Int_Tables_number   1
_chemical_formula_structural   Li5Fe8(BO3)8
_chemical_formula_sum   'Li5 Fe8 B8 O24'
_cell_volume   485.95527417
_cell_formula_units_Z   1
loop_
 _symmetry_equiv_pos_site_id
 _symmetry_equiv_pos_as_xyz
  1  'x, y, z'
loop_
 _atom_site_type_symbol
 _atom_site_label
 _atom_site_symmetry_multiplicity
 _atom_site_fract_x
 _atom_site_fract_y
 _atom_site_fract_z
 _atom_site_occupancy
  Li  Li0  1  0.85016223  0.82941234  0.65225244  1
  Li  Li1  1  0.67423671  0.67026139  0.40822982  1
  Li  Li2  1  0.65896061  0.68047829  0.91953860  1
  Li  Li3  1  0.34105038  0.32224864  0.66687328  1
  Li  Li4  1  0.31290578  0.32828904  0.16564665  1
  Fe  Fe5  1  0.85239332  0.16134888  0.62702721  1
  Fe  Fe6  1  0.81953815  0.50816638  0.13365868  1
  Fe  Fe7  1  0.67349126  0.01741718  0.87680883  1
  Fe  Fe8  1  0.67661713  0.33030617  0.38256831  1
  Fe  Fe9  1  0.33434692  0.65721572  0.63335823  1
  Fe  Fe10  1  0.32642724  0.98894929  0.12658881  1
  Fe  Fe11  1  0.16386749  0.84600392  0.37920966  1
  Fe  Fe12  1  0.16738172  0.49209653  0.88701495  1
  B  B13  1  0.83650782  0.49838642  0.62067469  1
  B  B14  1  0.82984822  0.16778410  0.12877356  1
  B  B15  1  0.65590535  0.99837081  0.37662658  1
  B  B16  1  0.67031690  0.33914084  0.87301601  1
  B  B17  1  0.33855570  0.99823163  0.63462464  1
  B  B18  1  0.32904630  0.66632758  0.12613823  1
  B  B19  1  0.17834559  0.50600259  0.37639870  1
  B  B20  1  0.17432543  0.83266329  0.87806708  1
  O  O21  1  0.90989452  0.50112944  0.35406771  1
  O  O22  1  0.91089318  0.84768136  0.86164122  1
  O  O23  1  0.80947469  0.21099865  0.84106369  1
  O  O24  1  0.76038987  0.13059923  0.42247871  1
  O  O25  1  0.78194374  0.86865893  0.39622116  1
  O  O26  1  0.79307727  0.46653310  0.91948085  1
  O  O27  1  0.71803603  0.63429686  0.61581128  1
  O  O28  1  0.67673448  0.05707916  0.07284868  1
  O  O29  1  0.69700135  0.37094889  0.58271166  1
  O  O30  1  0.70306960  0.29211858  0.18020823  1
  O  O31  1  0.58941145  0.67506254  0.11436141  1
  O  O32  1  0.59552899  0.98866235  0.68144496  1
  O  O33  1  0.41463590  0.00249002  0.31666653  1
  O  O34  1  0.41282506  0.33654115  0.85462161  1
  O  O35  1  0.30044555  0.70320492  0.84457426  1
  O  O36  1  0.29256604  0.63606717  0.41641105  1
  O  O37  1  0.32373421  0.38153807  0.35600026  1
  O  O38  1  0.32255462  0.94973182  0.92735813  1
  O  O39  1  0.20358637  0.53188526  0.10216640  1
  O  O40  1  0.22433014  0.13140992  0.62697375  1
  O  O41  1  0.21191895  0.86982103  0.59588565  1
  O  O42  1  0.18939671  0.79344146  0.15830526  1
  O  O43  1  0.09079994  0.15567942  0.13191187  1
  O  O44  1  0.08946507  0.48496065  0.65964972  1
