# generated using pymatgen
data_KLiMnP3HO10
_symmetry_space_group_name_H-M   'P 1'
_cell_length_a   7.36761534
_cell_length_b   7.44306178
_cell_length_c   9.56962688
_cell_angle_alpha   70.51963331
_cell_angle_beta   72.82439641
_cell_angle_gamma   72.71961927
_symmetry_Int_Tables_number   1
_chemical_formula_structural   KLiMnP3HO10
_chemical_formula_sum   'K2 Li2 Mn2 P6 H2 O20'
_cell_volume   461.04261763
_cell_formula_units_Z   2
loop_
 _symmetry_equiv_pos_site_id
 _symmetry_equiv_pos_as_xyz
  1  'x, y, z'
loop_
 _atom_site_type_symbol
 _atom_site_label
 _atom_site_symmetry_multiplicity
 _atom_site_fract_x
 _atom_site_fract_y
 _atom_site_fract_z
 _atom_site_occupancy
  K  K0  1  0.42602799  0.54929032  0.19336669  1
  K  K1  1  0.58621764  0.43724604  0.78976909  1
  Li  Li2  1  0.35480362  0.76700286  0.48364270  1
  Li  Li3  1  0.99841245  0.12298407  0.51096409  1
  Mn  Mn4  1  0.00602041  0.49151494  0.00360215  1
  Mn  Mn5  1  0.50350912  0.03585409  0.50469525  1
  P  P6  1  0.24857187  0.10337299  0.22181810  1
  P  P7  1  0.16779509  0.30463942  0.69119681  1
  P  P8  1  0.16471775  0.88090766  0.79978769  1
  P  P9  1  0.83976807  0.11966571  0.19820998  1
  P  P10  1  0.81223670  0.70016388  0.30661745  1
  P  P11  1  0.75178415  0.88392307  0.78843080  1
  H  H12  1  0.98558250  0.51719849  0.48163268  1
  H  H13  1  0.52620450  0.99207050  0.98133531  1
  O  O14  1  0.01484658  0.08303928  0.27914171  1
  O  O15  1  0.99644279  0.62838079  0.38094636  1
  O  O16  1  0.24542654  0.31445342  0.12952610  1
  O  O17  1  0.17712816  0.08226994  0.81476776  1
  O  O18  1  0.27400084  0.05292677  0.38744852  1
  O  O19  1  0.15822762  0.43619336  0.78543444  1
  O  O20  1  0.35742000  0.29305488  0.56972899  1
  O  O21  1  0.15052630  0.73009761  0.94956755  1
  O  O22  1  0.37246376  0.94883543  0.14122021  1
  O  O23  1  0.65561344  0.18798855  0.30588785  1
  O  O24  1  0.32938429  0.82418428  0.67122373  1
  O  O25  1  0.61699743  0.03757137  0.87768174  1
  O  O26  1  0.87136160  0.25378013  0.04110220  1
  O  O27  1  0.62645020  0.73654923  0.42668762  1
  O  O28  1  0.81330367  0.57370488  0.21189205  1
  O  O29  1  0.71620637  0.93956124  0.63032700  1
  O  O30  1  0.84856714  0.90727894  0.18681358  1
  O  O31  1  0.75797765  0.67753331  0.88603907  1
  O  O32  1  0.98940619  0.34090383  0.62288932  1
  O  O33  1  0.96782358  0.93826573  0.73721643  1
