# generated using pymatgen
data_Li5Fe8(BO3)8
_symmetry_space_group_name_H-M   'P 1'
_cell_length_a   5.25764498
_cell_length_b   9.09987433
_cell_length_c   11.36067441
_cell_angle_alpha   66.88450032
_cell_angle_beta   77.31538927
_cell_angle_gamma   89.79384826
_symmetry_Int_Tables_number   1
_chemical_formula_structural   Li5Fe8(BO3)8
_chemical_formula_sum   'Li5 Fe8 B8 O24'
_cell_volume   485.62910709
_cell_formula_units_Z   1
loop_
 _symmetry_equiv_pos_site_id
 _symmetry_equiv_pos_as_xyz
  1  'x, y, z'
loop_
 _atom_site_type_symbol
 _atom_site_label
 _atom_site_symmetry_multiplicity
 _atom_site_fract_x
 _atom_site_fract_y
 _atom_site_fract_z
 _atom_site_occupancy
  Li  Li0  1  0.97133719  0.96915246  0.40074969  1
  Li  Li1  1  0.51285875  0.49022413  0.66428628  1
  Li  Li2  1  0.47462506  0.47106420  0.39400361  1
  Li  Li3  1  0.01157830  0.99034988  0.66721748  1
  Li  Li4  1  0.24184413  0.25357488  0.15780652  1
  Fe  Fe5  1  0.97864666  0.64765633  0.37088398  1
  Fe  Fe6  1  0.72657245  0.06227314  0.88883458  1
  Fe  Fe7  1  0.52965393  0.84279136  0.63077182  1
  Fe  Fe8  1  0.76108328  0.44626366  0.12712709  1
  Fe  Fe9  1  0.22815451  0.56350253  0.88526741  1
  Fe  Fe10  1  0.47741785  0.15073015  0.38087844  1
  Fe  Fe11  1  0.02960276  0.34189703  0.63141953  1
  Fe  Fe12  1  0.25369217  0.93262600  0.12660468  1
  B  B13  1  0.97446156  0.31666318  0.37670681  1
  B  B14  1  0.73791664  0.39824846  0.87418787  1
  B  B15  1  0.52198559  0.18397098  0.62685921  1
  B  B16  1  0.76281405  0.10939451  0.13027407  1
  B  B17  1  0.48076350  0.80749443  0.38127854  1
  B  B18  1  0.23410151  0.89829665  0.87461107  1
  B  B19  1  0.02706011  0.68580131  0.62236453  1
  B  B20  1  0.26923641  0.59688077  0.13620700  1
  O  O21  1  0.98788836  0.92981947  0.85630734  1
  O  O22  1  0.86337298  0.28233220  0.83796144  1
  O  O23  1  0.86764777  0.48921906  0.91960146  1
  O  O24  1  0.91925433  0.82920962  0.60844652  1
  O  O25  1  0.91333401  0.57833459  0.58299996  1
  O  O26  1  0.75273224  0.15133412  0.67153355  1
  O  O27  1  0.73343480  0.34033221  0.34747889  1
  O  O28  1  0.48708562  0.42576908  0.85899029  1
  O  O29  1  0.35790054  0.77957230  0.84089916  1
  O  O30  1  0.58547574  0.92011686  0.41560086  1
  O  O31  1  0.61232181  0.67630132  0.38156249  1
  O  O32  1  0.36477305  0.98556472  0.92236648  1
  O  O33  1  0.65117169  0.01468688  0.07942145  1
  O  O34  1  0.41611137  0.32827729  0.60980521  1
  O  O35  1  0.40229960  0.07169265  0.59552268  1
  O  O36  1  0.60533295  0.21451026  0.16866750  1
  O  O37  1  0.51422920  0.59528890  0.14966623  1
  O  O38  1  0.25196704  0.64955007  0.67156664  1
  O  O39  1  0.23306958  0.82437770  0.34987434  1
  O  O40  1  0.08499244  0.42663131  0.41554803  1
  O  O41  1  0.10773265  0.18991332  0.36624905  1
  O  O42  1  0.16826398  0.49629250  0.08383553  1
  O  O43  1  0.09779004  0.69478265  0.18027012  1
  O  O44  1  0.01625880  0.09826988  0.14344555  1
