# generated using pymatgen
data_Li5Fe8(BO3)8
_symmetry_space_group_name_H-M   'P 1'
_cell_length_a   5.25306382
_cell_length_b   9.05778019
_cell_length_c   11.39337426
_cell_angle_alpha   66.92907247
_cell_angle_beta   77.21941789
_cell_angle_gamma   89.70121407
_symmetry_Int_Tables_number   1
_chemical_formula_structural   Li5Fe8(BO3)8
_chemical_formula_sum   'Li5 Fe8 B8 O24'
_cell_volume   484.38520670
_cell_formula_units_Z   1
loop_
 _symmetry_equiv_pos_site_id
 _symmetry_equiv_pos_as_xyz
  1  'x, y, z'
loop_
 _atom_site_type_symbol
 _atom_site_label
 _atom_site_symmetry_multiplicity
 _atom_site_fract_x
 _atom_site_fract_y
 _atom_site_fract_z
 _atom_site_occupancy
  Li  Li0  1  0.96976363  0.95912930  0.41892420  1
  Li  Li1  1  0.70846033  0.72572006  0.90045392  1
  Li  Li2  1  0.50752905  0.48893233  0.66660296  1
  Li  Li3  1  0.73802988  0.75866736  0.15797872  1
  Li  Li4  1  0.23238890  0.25471802  0.15968217  1
  Fe  Fe5  1  0.98625299  0.63956533  0.38096100  1
  Fe  Fe6  1  0.73656693  0.07194785  0.87682869  1
  Fe  Fe7  1  0.50594735  0.84359719  0.63656882  1
  Fe  Fe8  1  0.75210439  0.43733906  0.12810996  1
  Fe  Fe9  1  0.22602025  0.55046715  0.88292351  1
  Fe  Fe10  1  0.47955857  0.15231669  0.38663612  1
  Fe  Fe11  1  0.03309300  0.33841980  0.63222575  1
  Fe  Fe12  1  0.25220624  0.94457446  0.12125571  1
  B  B13  1  0.97771952  0.31131472  0.37501784  1
  B  B14  1  0.73311084  0.39954366  0.87530346  1
  B  B15  1  0.52983844  0.18950294  0.62999377  1
  B  B16  1  0.75682172  0.10354910  0.13147006  1
  B  B17  1  0.48571540  0.82007166  0.37422666  1
  B  B18  1  0.23364304  0.89280920  0.88073928  1
  B  B19  1  0.01808703  0.68476837  0.62022903  1
  B  B20  1  0.26705769  0.60201361  0.12990278  1
  O  O21  1  0.96784557  0.89968484  0.88728872  1
  O  O22  1  0.88370463  0.28312994  0.84888346  1
  O  O23  1  0.83539194  0.50553137  0.91916146  1
  O  O24  1  0.89024924  0.81752019  0.61473736  1
  O  O25  1  0.91148163  0.57282215  0.57965392  1
  O  O26  1  0.74729367  0.15400950  0.68497617  1
  O  O27  1  0.74377812  0.32544812  0.33572676  1
  O  O28  1  0.48904360  0.41115770  0.85414317  1
  O  O29  1  0.37397643  0.78299507  0.84202410  1
  O  O30  1  0.57350973  0.93354371  0.41446813  1
  O  O31  1  0.65136600  0.71126350  0.35314962  1
  O  O32  1  0.36538625  0.99091608  0.92095697  1
  O  O33  1  0.65709457  0.99868474  0.08529619  1
  O  O34  1  0.40433269  0.32138677  0.62511091  1
  O  O35  1  0.45109445  0.08573745  0.57739283  1
  O  O36  1  0.58803004  0.20476639  0.17179937  1
  O  O37  1  0.53500706  0.62506149  0.10983799  1
  O  O38  1  0.25131495  0.65542095  0.66002517  1
  O  O39  1  0.23437039  0.82436353  0.35083808  1
  O  O40  1  0.05931702  0.41871143  0.41937524  1
  O  O41  1  0.12717900  0.18717397  0.36610631  1
  O  O42  1  0.15725049  0.48644475  0.09952754  1
  O  O43  1  0.10495278  0.70093144  0.17810431  1
  O  O44  1  0.01061954  0.10414109  0.14133880  1
