# generated using pymatgen
data_Li5Fe8(BO3)8
_symmetry_space_group_name_H-M   'P 1'
_cell_length_a   5.22006851
_cell_length_b   9.12267489
_cell_length_c   10.12646844
_cell_angle_alpha   91.05954232
_cell_angle_beta   90.54027209
_cell_angle_gamma   90.13297839
_symmetry_Int_Tables_number   1
_chemical_formula_structural   Li5Fe8(BO3)8
_chemical_formula_sum   'Li5 Fe8 B8 O24'
_cell_volume   482.12704211
_cell_formula_units_Z   1
loop_
 _symmetry_equiv_pos_site_id
 _symmetry_equiv_pos_as_xyz
  1  'x, y, z'
loop_
 _atom_site_type_symbol
 _atom_site_label
 _atom_site_symmetry_multiplicity
 _atom_site_fract_x
 _atom_site_fract_y
 _atom_site_fract_z
 _atom_site_occupancy
  Li  Li0  1  0.84580205  0.82767131  0.65278897  1
  Li  Li1  1  0.66001750  0.67617067  0.90549083  1
  Li  Li2  1  0.34626097  0.32231998  0.66764415  1
  Li  Li3  1  0.31648983  0.33095419  0.15743819  1
  Li  Li4  1  0.17053554  0.16515597  0.39861107  1
  Fe  Fe5  1  0.84676071  0.16505391  0.63046137  1
  Fe  Fe6  1  0.82770887  0.50408109  0.13548377  1
  Fe  Fe7  1  0.67129742  0.01567425  0.88338324  1
  Fe  Fe8  1  0.65986317  0.34854190  0.38837164  1
  Fe  Fe9  1  0.34773116  0.65604697  0.62571448  1
  Fe  Fe10  1  0.31466696  0.99542170  0.12747782  1
  Fe  Fe11  1  0.16870814  0.82817362  0.37515668  1
  Fe  Fe12  1  0.17137237  0.49468904  0.87781621  1
  B  B13  1  0.83817323  0.49792380  0.63277805  1
  B  B14  1  0.82935459  0.17552854  0.12833394  1
  B  B15  1  0.67381987  0.00256406  0.37942561  1
  B  B16  1  0.67001886  0.33579716  0.87960602  1
  B  B17  1  0.33941486  0.99805994  0.62369356  1
  B  B18  1  0.33510202  0.66124759  0.13121333  1
  B  B19  1  0.15849977  0.50278152  0.37200781  1
  B  B20  1  0.17255880  0.83489620  0.87548650  1
  O  O21  1  0.90436010  0.50916754  0.32794378  1
  O  O22  1  0.90671772  0.84861583  0.86195170  1
  O  O23  1  0.80831230  0.20950756  0.84393990  1
  O  O24  1  0.78459778  0.13690566  0.41593546  1
  O  O25  1  0.81892232  0.87786720  0.37813075  1
  O  O26  1  0.79857186  0.46159395  0.92895697  1
  O  O27  1  0.72232199  0.63241940  0.64220578  1
  O  O28  1  0.68898945  0.05710025  0.07813993  1
  O  O29  1  0.69476425  0.37260657  0.59613098  1
  O  O30  1  0.69022842  0.30436466  0.16177520  1
  O  O31  1  0.59452753  0.66018304  0.10841307  1
  O  O32  1  0.58989809  0.99039841  0.67597676  1
  O  O33  1  0.40851184  0.99661106  0.34896993  1
  O  O34  1  0.41193665  0.33496541  0.86038418  1
  O  O35  1  0.29354899  0.70431547  0.84361557  1
  O  O36  1  0.27660300  0.63005382  0.41827539  1
  O  O37  1  0.28435147  0.37015485  0.36741149  1
  O  O38  1  0.31943968  0.95268718  0.92039322  1
  O  O39  1  0.19536945  0.53243295  0.09958964  1
  O  O40  1  0.22355677  0.13231077  0.60717756  1
  O  O41  1  0.20961992  0.86884589  0.58540756  1
  O  O42  1  0.21022490  0.78467825  0.17824805  1
  O  O43  1  0.08846601  0.17027524  0.14704141  1
  O  O44  1  0.09795181  0.48282561  0.66156246  1
