# generated using pymatgen
data_Cr2H21I7(N2O)3
_symmetry_space_group_name_H-M   'P 1'
_cell_length_a   27.32037051
_cell_length_b   8.40958660
_cell_length_c   11.59535155
_cell_angle_alpha   90.00000000
_cell_angle_beta   90.00000000
_cell_angle_gamma   90.00000000
_symmetry_Int_Tables_number   1
_chemical_formula_structural   Cr2H21I7(N2O)3
_chemical_formula_sum   'Cr8 H84 I28 N24 O12'
_cell_volume   2664.06705684
_cell_formula_units_Z   4
loop_
 _symmetry_equiv_pos_site_id
 _symmetry_equiv_pos_as_xyz
  1  'x, y, z'
loop_
 _atom_site_type_symbol
 _atom_site_label
 _atom_site_symmetry_multiplicity
 _atom_site_fract_x
 _atom_site_fract_y
 _atom_site_fract_z
 _atom_site_occupancy
  Cr  Cr0  1  0.10478702  0.25000000  0.76594214  1
  Cr  Cr1  1  0.18933351  0.25000000  0.89157440  1
  Cr  Cr2  1  0.31066649  0.75000000  0.39157440  1
  Cr  Cr3  1  0.39521298  0.75000000  0.26594214  1
  Cr  Cr4  1  0.60478702  0.25000000  0.73405786  1
  Cr  Cr5  1  0.68933351  0.25000000  0.60842560  1
  Cr  Cr6  1  0.81066649  0.75000000  0.10842560  1
  Cr  Cr7  1  0.89521298  0.75000000  0.23405786  1
  H  H8  1  0.00611791  0.25000000  0.78792078  1
  H  H9  1  0.03323449  0.34780555  0.89463196  1
  H  H10  1  0.03323449  0.15219445  0.89463196  1
  H  H11  1  0.05119016  0.07840641  0.61657694  1
  H  H12  1  0.05119016  0.42159359  0.61657694  1
  H  H13  1  0.08978532  0.54012931  0.68564123  1
  H  H14  1  0.08978532  0.95987069  0.68564123  1
  H  H15  1  0.10954309  0.07232044  0.57939320  1
  H  H16  1  0.10954309  0.42767956  0.57939320  1
  H  H17  1  0.13011857  0.50915661  0.89163950  1
  H  H18  1  0.13011857  0.99084339  0.89163950  1
  H  H19  1  0.16876444  0.15225665  0.09602787  1
  H  H20  1  0.16876444  0.34774335  0.09602787  1
  H  H21  1  0.19452435  0.25000000  0.65286764  1
  H  H22  1  0.22186031  0.25000000  0.11070021  1
  H  H23  1  0.22989865  0.53454810  0.90702794  1
  H  H24  1  0.22989865  0.96545190  0.90702794  1
  H  H25  1  0.22615672  0.90363836  0.43173447  1
  H  H26  1  0.22615672  0.59636164  0.43173447  1
  H  H27  1  0.24501119  0.55953150  0.29784170  1
  H  H28  1  0.24501119  0.94046850  0.29784170  1
  H  H29  1  0.25498881  0.05953150  0.79784170  1
  H  H30  1  0.25498881  0.44046850  0.79784170  1
  H  H31  1  0.27384328  0.09636164  0.93173447  1
  H  H32  1  0.27384328  0.40363836  0.93173447  1
  H  H33  1  0.27010135  0.03454810  0.40702794  1
  H  H34  1  0.27010135  0.46545190  0.40702794  1
  H  H35  1  0.27813969  0.75000000  0.61070021  1
  H  H36  1  0.30547565  0.75000000  0.15286764  1
  H  H37  1  0.33123556  0.65225665  0.59602787  1
  H  H38  1  0.33123556  0.84774335  0.59602787  1
  H  H39  1  0.36988143  0.00915661  0.39163950  1
  H  H40  1  0.36988143  0.49084339  0.39163950  1
  H  H41  1  0.39045691  0.57232044  0.07939320  1
  H  H42  1  0.39045691  0.92767956  0.07939320  1
  H  H43  1  0.41021468  0.04012931  0.18564123  1
  H  H44  1  0.41021468  0.45987069  0.18564123  1
  H  H45  1  0.44880984  0.57840641  0.11657694  1
  H  H46  1  0.44880984  0.92159359  0.11657694  1
  H  H47  1  0.46676551  0.65219445  0.39463196  1
  H  H48  1  0.46676551  0.84780555  0.39463196  1
  H  H49  1  0.49388209  0.75000000  0.28792078  1
  H  H50  1  0.50611791  0.25000000  0.71207922  1
  H  H51  1  0.53323449  0.15219445  0.60536804  1
  H  H52  1  0.53323449  0.34780555  0.60536804  1
  H  H53  1  0.55119016  0.07840641  0.88342306  1
  H  H54  1  0.55119016  0.42159359  0.88342306  1
  H  H55  1  0.58978532  0.54012931  0.81435877  1
  H  H56  1  0.58978532  0.95987069  0.81435877  1
  H  H57  1  0.60954309  0.07232044  0.92060680  1
  H  H58  1  0.60954309  0.42767956  0.92060680  1
  H  H59  1  0.63011857  0.50915661  0.60836050  1
  H  H60  1  0.63011857  0.99084339  0.60836050  1
  H  H61  1  0.66876444  0.15225665  0.40397213  1
  H  H62  1  0.66876444  0.34774335  0.40397213  1
  H  H63  1  0.69452435  0.25000000  0.84713236  1
  H  H64  1  0.72186031  0.25000000  0.38929979  1
  H  H65  1  0.72989865  0.53454810  0.59297206  1
  H  H66  1  0.72989865  0.96545190  0.59297206  1
  H  H67  1  0.72615672  0.59636164  0.06826553  1
  H  H68  1  0.72615672  0.90363836  0.06826553  1
  H  H69  1  0.74501119  0.55953150  0.20215830  1
  H  H70  1  0.74501119  0.94046850  0.20215830  1
  H  H71  1  0.75498881  0.05953150  0.70215830  1
  H  H72  1  0.75498881  0.44046850  0.70215830  1
  H  H73  1  0.77384328  0.09636164  0.56826553  1
  H  H74  1  0.77384328  0.40363836  0.56826553  1
  H  H75  1  0.77010135  0.03454810  0.09297206  1
  H  H76  1  0.77010135  0.46545190  0.09297206  1
  H  H77  1  0.77813969  0.75000000  0.88929979  1
  H  H78  1  0.80547565  0.75000000  0.34713236  1
  H  H79  1  0.83123556  0.65225665  0.90397213  1
  H  H80  1  0.83123556  0.84774335  0.90397213  1
  H  H81  1  0.86988143  0.00915661  0.10836050  1
  H  H82  1  0.86988143  0.49084339  0.10836050  1
  H  H83  1  0.89045691  0.57232044  0.42060680  1
  H  H84  1  0.89045691  0.92767956  0.42060680  1
  H  H85  1  0.91021468  0.04012931  0.31435877  1
  H  H86  1  0.91021468  0.45987069  0.31435877  1
  H  H87  1  0.94880984  0.57840641  0.38342306  1
  H  H88  1  0.94880984  0.92159359  0.38342306  1
  H  H89  1  0.96676551  0.65219445  0.10536804  1
  H  H90  1  0.96676551  0.84780555  0.10536804  1
  H  H91  1  0.99388209  0.75000000  0.21207922  1
  I  I92  1  0.18839999  0.75000000  0.66479027  1
  I  I93  1  0.31160001  0.25000000  0.16479027  1
  I  I94  1  0.68839999  0.75000000  0.83520973  1
  I  I95  1  0.81160001  0.25000000  0.33520973  1
  I  I96  1  0.03478682  0.75000000  0.87493649  1
  I  I97  1  0.03800300  0.75000000  0.44568072  1
  I  I98  1  0.05751691  0.25000000  0.25858730  1
  I  I99  1  0.11316966  0.75000000  0.26991896  1
  I  I100  1  0.15091797  0.25000000  0.38607266  1
  I  I101  1  0.19215425  0.75000000  0.08819476  1
  I  I102  1  0.30784575  0.25000000  0.58819476  1
  I  I103  1  0.34908203  0.75000000  0.88607266  1
  I  I104  1  0.38683034  0.25000000  0.76991896  1
  I  I105  1  0.44248309  0.75000000  0.75858730  1
  I  I106  1  0.46199700  0.25000000  0.94568072  1
  I  I107  1  0.46521318  0.25000000  0.37493649  1
  I  I108  1  0.53478682  0.75000000  0.62506351  1
  I  I109  1  0.53800300  0.75000000  0.05431928  1
  I  I110  1  0.55751691  0.25000000  0.24141270  1
  I  I111  1  0.61316966  0.75000000  0.23008104  1
  I  I112  1  0.65091797  0.25000000  0.11392734  1
  I  I113  1  0.69215425  0.75000000  0.41180524  1
  I  I114  1  0.80784575  0.25000000  0.91180524  1
  I  I115  1  0.84908203  0.75000000  0.61392734  1
  I  I116  1  0.88683034  0.25000000  0.73008104  1
  I  I117  1  0.94248309  0.75000000  0.74141270  1
  I  I118  1  0.96199700  0.25000000  0.55431928  1
  I  I119  1  0.96521318  0.25000000  0.12506351  1
  N  N120  1  0.03569288  0.25000000  0.84224925  1
  N  N121  1  0.08612166  0.07029446  0.64876230  1
  N  N122  1  0.08612166  0.42970554  0.64876230  1
  N  N123  1  0.18811948  0.25000000  0.06992708  1
  N  N124  1  0.24364328  0.07349278  0.88155486  1
  N  N125  1  0.24364328  0.42650722  0.88155486  1
  N  N126  1  0.25635672  0.57349278  0.38155486  1
  N  N127  1  0.25635672  0.92650722  0.38155486  1
  N  N128  1  0.31188052  0.75000000  0.56992708  1
  N  N129  1  0.41387834  0.57029446  0.14876230  1
  N  N130  1  0.41387834  0.92970554  0.14876230  1
  N  N131  1  0.46430712  0.75000000  0.34224925  1
  N  N132  1  0.53569288  0.25000000  0.65775075  1
  N  N133  1  0.58612166  0.07029446  0.85123770  1
  N  N134  1  0.58612166  0.42970554  0.85123770  1
  N  N135  1  0.68811948  0.25000000  0.43007292  1
  N  N136  1  0.74364328  0.07349278  0.61844514  1
  N  N137  1  0.74364328  0.42650722  0.61844514  1
  N  N138  1  0.75635672  0.57349278  0.11844514  1
  N  N139  1  0.75635672  0.92650722  0.11844514  1
  N  N140  1  0.81188052  0.75000000  0.93007292  1
  N  N141  1  0.91387834  0.57029446  0.35123770  1
  N  N142  1  0.91387834  0.92970554  0.35123770  1
  N  N143  1  0.96430712  0.75000000  0.15775075  1
  O  O144  1  0.12985991  0.10689725  0.89283572  1
  O  O145  1  0.12985991  0.39310275  0.89283572  1
  O  O146  1  0.17522824  0.25000000  0.72360010  1
  O  O147  1  0.32477176  0.75000000  0.22360010  1
  O  O148  1  0.37014009  0.60689725  0.39283572  1
  O  O149  1  0.37014009  0.89310275  0.39283572  1
  O  O150  1  0.62985991  0.10689725  0.60716428  1
  O  O151  1  0.62985991  0.39310275  0.60716428  1
  O  O152  1  0.67522824  0.25000000  0.77639990  1
  O  O153  1  0.82477176  0.75000000  0.27639990  1
  O  O154  1  0.87014009  0.60689725  0.10716428  1
  O  O155  1  0.87014009  0.89310275  0.10716428  1
