# generated using pymatgen
data_Li4Fe7(OF7)2
_symmetry_space_group_name_H-M   'P 1'
_cell_length_a   6.18790530
_cell_length_b   6.25717889
_cell_length_c   10.80198431
_cell_angle_alpha   107.07985723
_cell_angle_beta   91.09905104
_cell_angle_gamma   59.97537536
_symmetry_Int_Tables_number   1
_chemical_formula_structural   Li4Fe7(OF7)2
_chemical_formula_sum   'Li4 Fe7 O2 F14'
_cell_volume   341.99552198
_cell_formula_units_Z   1
loop_
 _symmetry_equiv_pos_site_id
 _symmetry_equiv_pos_as_xyz
  1  'x, y, z'
loop_
 _atom_site_type_symbol
 _atom_site_label
 _atom_site_symmetry_multiplicity
 _atom_site_fract_x
 _atom_site_fract_y
 _atom_site_fract_z
 _atom_site_occupancy
  Li  Li0  1  0.59412488  0.79943687  0.12552577  1
  Li  Li1  1  0.01801234  0.97828953  0.99251725  1
  Li  Li2  1  0.10698766  0.77171047  0.63248275  1
  Li  Li3  1  0.53087512  0.95056313  0.49947423  1
  Fe  Fe4  1  0.06250000  0.87500000  0.31250000  1
  Fe  Fe5  1  0.30160269  0.37086999  0.06191785  1
  Fe  Fe6  1  0.56250000  0.37500000  0.31250000  1
  Fe  Fe7  1  0.06250000  0.37500000  0.31250000  1
  Fe  Fe8  1  0.56250000  0.87500000  0.81250000  1
  Fe  Fe9  1  0.82339731  0.37913001  0.56308215  1
  Fe  Fe10  1  0.56250000  0.37500000  0.81250000  1
  O  O11  1  0.72691611  0.55069291  0.42460840  1
  O  O12  1  0.39808389  0.19930709  0.20039160  1
  F  F13  1  0.92777497  0.64636480  0.18801495  1
  F  F14  1  0.41495884  0.64909682  0.19218406  1
  F  F15  1  0.17808122  0.64502981  0.43875947  1
  F  F16  1  0.94691878  0.10497019  0.18624053  1
  F  F17  1  0.71004116  0.10090318  0.43281594  1
  F  F18  1  0.19722503  0.10363520  0.43698505  1
  F  F19  1  0.90536125  0.65163320  0.69201092  1
  F  F20  1  0.44089247  0.62489117  0.68990639  1
  F  F21  1  0.90672152  0.15303758  0.67916933  1
  F  F22  1  0.47127759  0.11730420  0.69373702  1
  F  F23  1  0.21827848  0.59696242  0.94583067  1
  F  F24  1  0.65372241  0.63269580  0.93126298  1
  F  F25  1  0.21963875  0.09836680  0.93298908  1
  F  F26  1  0.68410753  0.12510883  0.93509361  1
