# generated using pymatgen
data_LiV3O5F3
_symmetry_space_group_name_H-M   'P 1'
_cell_length_a   7.17138789
_cell_length_b   7.17138789
_cell_length_c   5.10848574
_cell_angle_alpha   89.10521136
_cell_angle_beta   90.89478864
_cell_angle_gamma   78.76423136
_symmetry_Int_Tables_number   1
_chemical_formula_structural   LiV3O5F3
_chemical_formula_sum   'Li2 V6 O10 F6'
_cell_volume   257.60981885
_cell_formula_units_Z   2
loop_
 _symmetry_equiv_pos_site_id
 _symmetry_equiv_pos_as_xyz
  1  'x, y, z'
loop_
 _atom_site_type_symbol
 _atom_site_label
 _atom_site_symmetry_multiplicity
 _atom_site_fract_x
 _atom_site_fract_y
 _atom_site_fract_z
 _atom_site_occupancy
  Li  Li0  1  0.16973114  0.16344853  0.74583622  1
  Li  Li1  1  0.83655147  0.83026886  0.24583622  1
  V  V2  1  0.17519902  0.66222089  0.71683374  1
  V  V3  1  0.33777911  0.82480098  0.21683374  1
  V  V4  1  0.66924029  0.68988680  0.72050039  1
  V  V5  1  0.31011320  0.33075971  0.22050039  1
  V  V6  1  0.66705607  0.17606898  0.78968323  1
  V  V7  1  0.82393102  0.33294393  0.28968323  1
  O  O8  1  0.42378736  0.70011015  0.90360567  1
  O  O9  1  0.29988985  0.57621264  0.40360567  1
  O  O10  1  0.68509545  0.93809322  0.88178763  1
  O  O11  1  0.21069139  0.42787094  0.92706839  1
  O  O12  1  0.06190678  0.31490455  0.38178763  1
  O  O13  1  0.57212906  0.78930861  0.42706839  1
  O  O14  1  0.93710958  0.67902246  0.62420166  1
  O  O15  1  0.32097754  0.06289042  0.12420166  1
  O  O16  1  0.69650848  0.41884986  0.60215084  1
  O  O17  1  0.58115014  0.30349152  0.10215084  1
  F  F18  1  0.19168658  0.91536858  0.56005011  1
  F  F19  1  0.08463142  0.80831342  0.06005011  1
  F  F20  1  0.42288967  0.20340528  0.58606369  1
  F  F21  1  0.79659472  0.57711033  0.08606369  1
  F  F22  1  0.91856863  0.19321698  0.94221943  1
  F  F23  1  0.80678302  0.08143137  0.44221943  1
