# generated using pymatgen
data_LiFeSiO4
_symmetry_space_group_name_H-M   'P 1'
_cell_length_a   5.16942285
_cell_length_b   5.42866906
_cell_length_c   8.80782118
_cell_angle_alpha   89.97890156
_cell_angle_beta   89.95410747
_cell_angle_gamma   61.56791312
_symmetry_Int_Tables_number   1
_chemical_formula_structural   LiFeSiO4
_chemical_formula_sum   'Li2 Fe2 Si2 O8'
_cell_volume   217.36088003
_cell_formula_units_Z   2
loop_
 _symmetry_equiv_pos_site_id
 _symmetry_equiv_pos_as_xyz
  1  'x, y, z'
loop_
 _atom_site_type_symbol
 _atom_site_label
 _atom_site_symmetry_multiplicity
 _atom_site_fract_x
 _atom_site_fract_y
 _atom_site_fract_z
 _atom_site_occupancy
  Li  Li0  1  0.14890501  0.62145077  0.50757544  1
  Li  Li1  1  0.77032931  0.37857554  0.00757667  1
  Fe  Fe2  1  0.29518194  0.34328797  0.81896182  1
  Fe  Fe3  1  0.63849870  0.65671360  0.31896377  1
  Si  Si4  1  0.29954986  0.33454812  0.19360334  1
  Si  Si5  1  0.63409176  0.66546157  0.69359963  1
  O  O6  1  0.51184735  0.01458797  0.24829922  1
  O  O7  1  0.39976569  0.38122798  0.02228759  1
  O  O8  1  0.33281294  0.55367171  0.31303278  1
  O  O9  1  0.35634267  0.59543110  0.69035430  1
  O  O10  1  0.52643103  0.98540041  0.74829410  1
  O  O11  1  0.78100244  0.61877254  0.52229508  1
  O  O12  1  0.88645913  0.44632424  0.81303077  1
  O  O13  1  0.95179417  0.40456650  0.19035550  1
