# generated using pymatgen
data_Li6Mn5O12
_symmetry_space_group_name_H-M   'P 1'
_cell_length_a   5.04397376
_cell_length_b   5.04397293
_cell_length_c   9.54515978
_cell_angle_alpha   94.14368855
_cell_angle_beta   85.85631480
_cell_angle_gamma   62.16254065
_symmetry_Int_Tables_number   1
_chemical_formula_structural   Li6Mn5O12
_chemical_formula_sum   'Li6 Mn5 O12'
_cell_volume   212.62792330
_cell_formula_units_Z   1
loop_
 _symmetry_equiv_pos_site_id
 _symmetry_equiv_pos_as_xyz
  1  'x, y, z'
loop_
 _atom_site_type_symbol
 _atom_site_label
 _atom_site_symmetry_multiplicity
 _atom_site_fract_x
 _atom_site_fract_y
 _atom_site_fract_z
 _atom_site_occupancy
  Li  Li0  1  0.74437271  0.74437271  0.75000000  1
  Li  Li1  1  0.81826618  0.36007301  0.51440557  1
  Li  Li2  1  0.68866118  0.13825780  0.98471226  1
  Li  Li3  1  0.36007301  0.81826618  0.98559443  1
  Li  Li4  1  0.13825780  0.68866118  0.51528774  1
  Li  Li5  1  0.08127266  0.08127266  0.75000000  1
  Mn  Mn6  1  0.92768040  0.92768040  0.25000000  1
  Mn  Mn7  1  0.58030751  0.58030751  0.25000000  1
  Mn  Mn8  1  0.47974663  0.01512747  0.50364774  1
  Mn  Mn9  1  0.01512747  0.47974663  0.99635226  1
  Mn  Mn10  1  0.42061032  0.42061032  0.75000000  1
  O  O11  1  0.82689281  0.68843756  0.37715081  1
  O  O12  1  0.68843756  0.82689281  0.12284919  1
  O  O13  1  0.91362667  0.23528060  0.13043364  1
  O  O14  1  0.70337698  0.44732603  0.86814928  1
  O  O15  1  0.74069314  0.06870163  0.62872412  1
  O  O16  1  0.44732603  0.70337698  0.63185072  1
  O  O17  1  0.59506736  0.27320757  0.36200040  1
  O  O18  1  0.23528060  0.91362667  0.36956636  1
  O  O19  1  0.35176535  0.15774544  0.88333813  1
  O  O20  1  0.27320757  0.59506736  0.13799960  1
  O  O21  1  0.06870163  0.74069314  0.87127588  1
  O  O22  1  0.15774544  0.35176535  0.61666187  1
