# generated using pymatgen
data_MnOF
_symmetry_space_group_name_H-M   'P 1'
_cell_length_a   4.79737152
_cell_length_b   18.97702638
_cell_length_c   3.07511816
_cell_angle_alpha   90.00000000
_cell_angle_beta   90.00000000
_cell_angle_gamma   95.51909724
_symmetry_Int_Tables_number   1
_chemical_formula_structural   MnOF
_chemical_formula_sum   'Mn8 O8 F8'
_cell_volume   278.66045194
_cell_formula_units_Z   8
loop_
 _symmetry_equiv_pos_site_id
 _symmetry_equiv_pos_as_xyz
  1  'x, y, z'
loop_
 _atom_site_type_symbol
 _atom_site_label
 _atom_site_symmetry_multiplicity
 _atom_site_fract_x
 _atom_site_fract_y
 _atom_site_fract_z
 _atom_site_occupancy
  Mn  Mn0  1  0.90934332  0.00149936  0.00000000  1
  Mn  Mn1  1  0.09065668  0.24850064  0.00000000  1
  Mn  Mn2  1  0.02254019  0.50080615  0.00000000  1
  Mn  Mn3  1  0.97745981  0.74919385  0.00000000  1
  Mn  Mn4  1  0.50000000  0.12500000  0.50000000  1
  Mn  Mn5  1  0.55220060  0.37575349  0.50000000  1
  Mn  Mn6  1  0.50000000  0.62500000  0.50000000  1
  Mn  Mn7  1  0.44779940  0.87424651  0.50000000  1
  O  O8  1  0.24335923  0.20203301  0.50000000  1
  O  O9  1  0.31349459  0.57589983  0.00000000  1
  O  O10  1  0.36195837  0.32665249  0.00000000  1
  O  O11  1  0.26805748  0.82445441  0.00000000  1
  O  O12  1  0.73194252  0.42554559  0.00000000  1
  O  O13  1  0.68650541  0.67410017  0.00000000  1
  O  O14  1  0.63804163  0.92334751  0.00000000  1
  O  O15  1  0.75664077  0.04796699  0.50000000  1
  F  F16  1  0.21334054  0.45256417  0.50000000  1
  F  F17  1  0.17236434  0.70250932  0.50000000  1
  F  F18  1  0.12302862  0.95689920  0.50000000  1
  F  F19  1  0.26091254  0.07549311  0.00000000  1
  F  F20  1  0.73908746  0.17450689  0.00000000  1
  F  F21  1  0.87697138  0.29310080  0.50000000  1
  F  F22  1  0.82763566  0.54749068  0.50000000  1
  F  F23  1  0.78665946  0.79743583  0.50000000  1
