# generated using pymatgen
data_LiV2OF5
_symmetry_space_group_name_H-M   'P 1'
_cell_length_a   8.73844646
_cell_length_b   8.73836691
_cell_length_c   4.57571341
_cell_angle_alpha   90.00353302
_cell_angle_beta   89.99982185
_cell_angle_gamma   120.00160892
_symmetry_Int_Tables_number   1
_chemical_formula_structural   LiV2OF5
_chemical_formula_sum   'Li3 V6 O3 F15'
_cell_volume   302.58466278
_cell_formula_units_Z   3
loop_
 _symmetry_equiv_pos_site_id
 _symmetry_equiv_pos_as_xyz
  1  'x, y, z'
loop_
 _atom_site_type_symbol
 _atom_site_label
 _atom_site_symmetry_multiplicity
 _atom_site_fract_x
 _atom_site_fract_y
 _atom_site_fract_z
 _atom_site_occupancy
  Li  Li0  1  0.33337721  0.66671590  0.49806053  1
  Li  Li1  1  0.99996090  0.99996534  0.97112252  1
  Li  Li2  1  0.66672460  0.33331621  0.48007964  1
  V  V3  1  0.00670692  0.66494106  0.98818721  1
  V  V4  1  0.00742777  0.31363831  0.51784667  1
  V  V5  1  0.33506060  0.34177863  0.98818154  1
  V  V6  1  0.30620394  0.99264538  0.51785764  1
  V  V7  1  0.68634688  0.69373087  0.51780929  1
  V  V8  1  0.65819439  0.99327220  0.98817076  1
  O  O9  1  0.11225505  0.87113330  0.76445670  1
  O  O10  1  0.12884819  0.24110074  0.76444212  1
  O  O11  1  0.75880245  0.88769661  0.76439626  1
  F  F12  1  0.21461884  0.76942160  0.26458906  1
  F  F13  1  0.10848412  0.54332486  0.73828596  1
  F  F14  1  0.43483290  0.89158291  0.73831455  1
  F  F15  1  0.23064102  0.44525684  0.26461031  1
  F  F16  1  0.55472216  0.78530155  0.26451107  1
  F  F17  1  0.22728543  0.11467692  0.23989771  1
  F  F18  1  0.45667391  0.56510119  0.73825651  1
  F  F19  1  0.44323458  0.22707511  0.74079580  1
  F  F20  1  0.55702493  0.45985366  0.26282840  1
  F  F21  1  0.54006504  0.09707728  0.26291327  1
  F  F22  1  0.78382226  0.55676907  0.74081687  1
  F  F23  1  0.88733923  0.77273489  0.23991926  1
  F  F24  1  0.77297405  0.21618170  0.74084699  1
  F  F25  1  0.90292683  0.44302828  0.26294285  1
  F  F26  1  0.88534282  0.11268057  0.23986251  1
