# generated using pymatgen
data_Li3Co(NiO3)2
_symmetry_space_group_name_H-M   'P 1'
_cell_length_a   4.93521134
_cell_length_b   5.01937863
_cell_length_c   9.77108215
_cell_angle_alpha   94.54495629
_cell_angle_beta   90.00063929
_cell_angle_gamma   119.44633457
_symmetry_Int_Tables_number   1
_chemical_formula_structural   Li3Co(NiO3)2
_chemical_formula_sum   'Li6 Co2 Ni4 O12'
_cell_volume   209.90329142
_cell_formula_units_Z   2
loop_
 _symmetry_equiv_pos_site_id
 _symmetry_equiv_pos_as_xyz
  1  'x, y, z'
loop_
 _atom_site_type_symbol
 _atom_site_label
 _atom_site_symmetry_multiplicity
 _atom_site_fract_x
 _atom_site_fract_y
 _atom_site_fract_z
 _atom_site_occupancy
  Li  Li0  1  0.97115887  0.15476383  0.74698125  1
  Li  Li1  1  0.63818614  0.50007303  0.75008268  1
  Li  Li2  1  0.31657809  0.84531538  0.75297386  1
  Li  Li3  1  0.68362691  0.15477451  0.24695559  1
  Li  Li4  1  0.36187474  0.50004834  0.25006993  1
  Li  Li5  1  0.02872495  0.84532497  0.25294911  1
  Co  Co6  1  0.50009635  0.00005954  0.49998418  1
  Co  Co7  1  0.99996336  0.00005951  0.99998431  1
  Ni  Ni8  1  0.83622413  0.66510784  0.50003302  1
  Ni  Ni9  1  0.32890568  0.66511014  0.00003512  1
  Ni  Ni10  1  0.67109043  0.33483660  0.99996180  1
  Ni  Ni11  1  0.16372764  0.33483963  0.49996326  1
  O  O12  1  0.99461395  0.66658451  0.88943811  1
  O  O13  1  0.68786449  0.69254853  0.10626826  1
  O  O14  1  0.82732238  0.33354246  0.61070010  1
  O  O15  1  0.50468003  0.69252643  0.60626320  1
  O  O16  1  0.49643698  0.30806623  0.39369274  1
  O  O17  1  0.81866504  0.99006127  0.39229229  1
  O  O18  1  0.17196094  0.66657074  0.38944460  1
  O  O19  1  0.31160563  0.30805122  0.89368862  1
  O  O20  1  0.67141285  0.99005935  0.89228436  1
  O  O21  1  0.00622373  0.33353051  0.11070736  1
  O  O22  1  0.32851043  0.00916599  0.10759523  1
  O  O23  1  0.18064524  0.00917543  0.60758903  1
