# generated using pymatgen
data_LiVF3
_symmetry_space_group_name_H-M   'P 1'
_cell_length_a   5.35485950
_cell_length_b   5.67726605
_cell_length_c   5.35485922
_cell_angle_alpha   90.00000230
_cell_angle_beta   59.99999610
_cell_angle_gamma   61.86143815
_symmetry_Int_Tables_number   1
_chemical_formula_structural   LiVF3
_chemical_formula_sum   'Li2 V2 F6'
_cell_volume   118.24503688
_cell_formula_units_Z   2
loop_
 _symmetry_equiv_pos_site_id
 _symmetry_equiv_pos_as_xyz
  1  'x, y, z'
loop_
 _atom_site_type_symbol
 _atom_site_label
 _atom_site_symmetry_multiplicity
 _atom_site_fract_x
 _atom_site_fract_y
 _atom_site_fract_z
 _atom_site_occupancy
  Li  Li0  1  0.72283169  0.41575196  0.13858365  1
  Li  Li1  1  0.27716831  0.58424804  0.86141635  1
  V  V2  1  0.31178530  0.03232304  0.34410735  1
  V  V3  1  0.68821470  0.96767696  0.65589265  1
  F  F4  1  0.50439874  0.24872236  0.05788044  1
  F  F5  1  0.18899847  0.24872236  0.75312110  1
  F  F6  1  0.19084192  0.75127764  0.56227918  1
  F  F7  1  0.80915808  0.24872236  0.43772082  1
  F  F8  1  0.81100153  0.75127764  0.24687890  1
  F  F9  1  0.49560126  0.75127764  0.94211956  1
