# generated using pymatgen
data_Li2TiFeO4
_symmetry_space_group_name_H-M   'P 1'
_cell_length_a   6.02677928
_cell_length_b   6.02738492
_cell_length_c   6.06653883
_cell_angle_alpha   59.77551668
_cell_angle_beta   120.22039483
_cell_angle_gamma   120.86496553
_symmetry_Int_Tables_number   1
_chemical_formula_structural   Li2TiFeO4
_chemical_formula_sum   'Li4 Ti2 Fe2 O8'
_cell_volume   154.26632417
_cell_formula_units_Z   2
loop_
 _symmetry_equiv_pos_site_id
 _symmetry_equiv_pos_as_xyz
  1  'x, y, z'
loop_
 _atom_site_type_symbol
 _atom_site_label
 _atom_site_symmetry_multiplicity
 _atom_site_fract_x
 _atom_site_fract_y
 _atom_site_fract_z
 _atom_site_occupancy
  Li  Li0  1  0.00297215  0.49697712  0.49310045  1
  Li  Li1  1  0.00379809  0.98928045  0.50347066  1
  Li  Li2  1  0.00168693  0.49823866  0.99825065  1
  Li  Li3  1  0.51056415  0.49615419  0.50340189  1
  Ti  Ti4  1  0.00134254  0.99940607  0.99778891  1
  Ti  Ti5  1  0.50052402  0.49858504  0.99774362  1
  Fe  Fe6  1  0.50169806  0.99826343  0.49873934  1
  Fe  Fe7  1  0.50199008  0.99796716  0.99958740  1
  O  O8  1  0.27576976  0.73562317  0.76706276  1
  O  O9  1  0.23682032  0.77423518  0.22813865  1
  O  O10  1  0.24664818  0.25330228  0.76884875  1
  O  O11  1  0.75592414  0.74392577  0.77752568  1
  O  O12  1  0.24661927  0.25338424  0.21819526  1
  O  O13  1  0.75625162  0.74367465  0.22843155  1
  O  O14  1  0.76442420  0.22423016  0.76733299  1
  O  O15  1  0.72562248  0.26301543  0.22839045  1
