# generated using pymatgen
data_Li2V2OF6
_symmetry_space_group_name_H-M   'P 1'
_cell_length_a   8.46602447
_cell_length_b   6.90243733
_cell_length_c   5.32080977
_cell_angle_alpha   85.91097471
_cell_angle_beta   102.66258686
_cell_angle_gamma   109.60646753
_symmetry_Int_Tables_number   1
_chemical_formula_structural   Li2V2OF6
_chemical_formula_sum   'Li4 V4 O2 F12'
_cell_volume   285.77538361
_cell_formula_units_Z   2
loop_
 _symmetry_equiv_pos_site_id
 _symmetry_equiv_pos_as_xyz
  1  'x, y, z'
loop_
 _atom_site_type_symbol
 _atom_site_label
 _atom_site_symmetry_multiplicity
 _atom_site_fract_x
 _atom_site_fract_y
 _atom_site_fract_z
 _atom_site_occupancy
  Li  Li0  1  0.10134428  0.75542387  0.33091632  1
  Li  Li1  1  0.25545039  0.98911681  0.85890762  1
  Li  Li2  1  0.73392007  0.00795769  0.13321314  1
  Li  Li3  1  0.91438915  0.25424513  0.68438271  1
  V  V4  1  0.17632812  0.28094448  0.26977901  1
  V  V5  1  0.33218397  0.52240874  0.82448256  1
  V  V6  1  0.66815342  0.48285558  0.16415051  1
  V  V7  1  0.80338478  0.71384570  0.71325829  1
  O  O8  1  0.12284707  0.38180820  0.93776153  1
  O  O9  1  0.58926200  0.57943510  0.83113944  1
  F  F10  1  0.03633953  0.81556098  0.63478750  1
  F  F11  1  0.21730318  0.55925053  0.45032284  1
  F  F12  1  0.37686179  0.80191465  0.91743353  1
  F  F13  1  0.29228078  0.24133509  0.65054832  1
  F  F14  1  0.18265330  0.01376915  0.17451103  1
  F  F15  1  0.42144195  0.41319616  0.20078119  1
  F  F16  1  0.81794014  0.98213614  0.82862864  1
  F  F17  1  0.70221375  0.75658248  0.33488593  1
  F  F18  1  0.62827343  0.20668354  0.07968925  1
  F  F19  1  0.78005380  0.44553452  0.54700307  1
  F  F20  1  0.90343834  0.62047451  0.07339153  1
  F  F21  1  0.94393777  0.17551995  0.36002603  1
