# generated using pymatgen
data_VF4
_symmetry_space_group_name_H-M   'P 1'
_cell_length_a   4.98019311
_cell_length_b   3.09121038
_cell_length_c   9.58965778
_cell_angle_alpha   89.88301705
_cell_angle_beta   85.70487914
_cell_angle_gamma   89.87601620
_symmetry_Int_Tables_number   1
_chemical_formula_structural   VF4
_chemical_formula_sum   'V2 F8'
_cell_volume   147.21587377
_cell_formula_units_Z   2
loop_
 _symmetry_equiv_pos_site_id
 _symmetry_equiv_pos_as_xyz
  1  'x, y, z'
loop_
 _atom_site_type_symbol
 _atom_site_label
 _atom_site_symmetry_multiplicity
 _atom_site_fract_x
 _atom_site_fract_y
 _atom_site_fract_z
 _atom_site_occupancy
  V  V0  1  0.23990427  0.34657077  0.74638830  1
  V  V1  1  0.74003889  0.65425010  0.24705977  1
  F  F2  1  0.03735710  0.66143338  0.13323235  1
  F  F3  1  0.10860439  0.84613991  0.64111395  1
  F  F4  1  0.43062856  0.65712234  0.35004569  1
  F  F5  1  0.37140397  0.84222960  0.85274948  1
  F  F6  1  0.53692394  0.33683403  0.63372410  1
  F  F7  1  0.60926003  0.15632362  0.14151455  1
  F  F8  1  0.92992458  0.34335096  0.85039549  1
  F  F9  1  0.87229027  0.15574529  0.35306032  1
