# generated using pymatgen
data_Te2Mo(WS2)2
_symmetry_space_group_name_H-M   'P 1'
_cell_length_a   3.30200809
_cell_length_b   3.30199693
_cell_length_c   30.53871483
_cell_angle_alpha   89.99971433
_cell_angle_beta   90.00003984
_cell_angle_gamma   119.99524549
_symmetry_Int_Tables_number   1
_chemical_formula_structural   Te2Mo(WS2)2
_chemical_formula_sum   'Te2 Mo1 W2 S4'
_cell_volume   288.37459100
_cell_formula_units_Z   1
loop_
 _symmetry_equiv_pos_site_id
 _symmetry_equiv_pos_as_xyz
  1  'x, y, z'
loop_
 _atom_site_type_symbol
 _atom_site_label
 _atom_site_symmetry_multiplicity
 _atom_site_fract_x
 _atom_site_fract_y
 _atom_site_fract_z
 _atom_site_occupancy
  Te  Te0  1  0.66664315  0.33328359  0.51517171  1
  Te  Te1  1  0.66664507  0.33328703  0.64146948  1
  Mo  Mo2  1  0.66667752  0.33340311  0.34696061  1
  W  W3  1  0.33330685  0.66662108  0.11565272  1
  W  W4  1  0.33330589  0.66662247  0.57835327  1
  S  S5  1  0.33336625  0.66670318  0.39702097  1
  S  S6  1  0.66664102  0.33328077  0.06534100  1
  S  S7  1  0.66664854  0.33329496  0.16596808  1
  S  S8  1  0.33336671  0.66670382  0.29690317  1
