# generated using pymatgen
data_NaV24O58
_symmetry_space_group_name_H-M   'P 1'
_cell_length_a   14.39602205
_cell_length_b   7.34823088
_cell_length_c   10.97179911
_cell_angle_alpha   70.44187516
_cell_angle_beta   97.24425979
_cell_angle_gamma   82.64287343
_symmetry_Int_Tables_number   1
_chemical_formula_structural   NaV24O58
_chemical_formula_sum   'Na1 V24 O58'
_cell_volume   1066.80786633
_cell_formula_units_Z   1
loop_
 _symmetry_equiv_pos_site_id
 _symmetry_equiv_pos_as_xyz
  1  'x, y, z'
loop_
 _atom_site_type_symbol
 _atom_site_label
 _atom_site_symmetry_multiplicity
 _atom_site_fract_x
 _atom_site_fract_y
 _atom_site_fract_z
 _atom_site_occupancy
  Na  Na0  1  0.49401221  0.40445908  0.44228443  1
  V  V1  1  0.17433228  0.27281824  0.86736342  1
  V  V2  1  0.17426903  0.77146920  0.86981201  1
  V  V3  1  0.12156029  0.42270322  0.09268268  1
  V  V4  1  0.12152493  0.92371959  0.09288881  1
  V  V5  1  0.21537722  0.92395541  0.54454316  1
  V  V6  1  0.21657852  0.42315326  0.54536382  1
  V  V7  1  0.28943507  0.25340083  0.34478752  1
  V  V8  1  0.28961609  0.75708489  0.34480983  1
  V  V9  1  0.39570942  0.25575815  0.79107253  1
  V  V10  1  0.39291745  0.75417187  0.79437841  1
  V  V11  1  0.35649518  0.39678713  0.02906087  1
  V  V12  1  0.35691892  0.89608600  0.02859090  1
  V  V13  1  0.64296177  0.10321964  0.97043797  1
  V  V14  1  0.64537140  0.60560896  0.96679275  1
  V  V15  1  0.60359273  0.74674652  0.20204788  1
  V  V16  1  0.60426828  0.24543172  0.20723483  1
  V  V17  1  0.71333148  0.24164492  0.65936447  1
  V  V18  1  0.70663948  0.74816350  0.65121615  1
  V  V19  1  0.78362590  0.07708275  0.45438895  1
  V  V20  1  0.78412117  0.57618009  0.45534537  1
  V  V21  1  0.87967828  0.07637521  0.90794501  1
  V  V22  1  0.87999890  0.57548460  0.90854438  1
  V  V23  1  0.82651298  0.22713247  0.13295406  1
  V  V24  1  0.82648979  0.72713706  0.13207537  1
  O  O25  1  0.06910863  0.34191363  0.78162559  1
  O  O26  1  0.06978557  0.84189171  0.78158582  1
  O  O27  1  0.00007202  0.00003557  0.00003456  1
  O  O28  1  -0.00004658  0.49973959  0.00040939  1
  O  O29  1  0.10324901  0.46517283  0.51803414  1
  O  O30  1  0.10204611  0.96461129  0.51983429  1
  O  O31  1  0.10981105  0.34959570  0.24647193  1
  O  O32  1  0.10975856  0.84890184  0.24660919  1
  O  O33  1  0.20014365  0.49388713  0.91232939  1
  O  O34  1  0.20090924  0.99327492  0.91288220  1
  O  O35  1  0.14092848  0.19066423  0.04833733  1
  O  O36  1  0.14088549  0.69035428  0.04870330  1
  O  O37  1  0.24726787  0.32327382  0.72993848  1
  O  O38  1  0.24983506  0.82179754  0.73149790  1
  O  O39  1  0.24727433  0.17622829  0.52231114  1
  O  O40  1  0.24725943  0.67788672  0.52228713  1
  O  O41  1  0.33445247  0.17408511  0.98447179  1
  O  O42  1  0.33172456  0.67180684  0.99097914  1
  O  O43  1  0.25489099  0.00122035  0.37014138  1
  O  O44  1  0.25933968  0.49968803  0.37107226  1
  O  O45  1  0.27342798  0.34636884  0.16655871  1
  O  O46  1  0.27343625  0.85014386  0.16687984  1
  O  O47  1  0.38932206  0.48763593  0.84795585  1
  O  O48  1  0.38933186  0.96947211  0.84858729  1
  O  O49  1  0.40547773  0.33117634  0.63514262  1
  O  O50  1  0.40729693  0.82640218  0.64313935  1
  O  O51  1  0.40405071  0.20074561  0.38529871  1
  O  O52  1  0.40431514  0.71186221  0.38513601  1
  O  O53  1  0.53265518  0.17818322  0.87750144  1
  O  O54  1  0.53475794  0.67726194  0.87793042  1
  O  O55  1  0.46902438  0.81964439  0.12380988  1
  O  O56  1  0.46719109  0.32321337  0.12184040  1
  O  O57  1  0.59864852  0.28763040  0.62567315  1
  O  O58  1  0.59302359  0.79587553  0.61186358  1
  O  O59  1  0.59272631  0.18352099  0.36173169  1
  O  O60  1  0.59256443  0.66303127  0.35613316  1
  O  O61  1  0.61187593  0.01203516  0.15196981  1
  O  O62  1  0.61173227  0.53031827  0.14962020  1
  O  O63  1  0.72945256  0.14923339  0.83649100  1
  O  O64  1  0.72343421  0.65227492  0.83479566  1
  O  O65  1  0.74286850  0.99797623  0.62994325  1
  O  O66  1  0.74285919  0.50065093  0.63007092  1
  O  O67  1  0.66524974  0.33562616  0.01284059  1
  O  O68  1  0.66637187  0.82033656  0.01112309  1
  O  O69  1  0.75240778  0.32293451  0.47882179  1
  O  O70  1  0.75042736  0.82376596  0.47658233  1
  O  O71  1  0.75073792  0.67779003  0.26911418  1
  O  O72  1  0.75260594  0.17664106  0.26977448  1
  O  O73  1  0.85894256  0.80880181  0.95216326  1
  O  O74  1  0.85875968  0.30970521  0.95208971  1
  O  O75  1  0.79898957  0.00619628  0.08817722  1
  O  O76  1  0.80034346  0.50585108  0.08835874  1
  O  O77  1  0.88983014  0.15101795  0.75307351  1
  O  O78  1  0.89056957  0.65011779  0.75461601  1
  O  O79  1  0.89684776  0.03433099  0.48155919  1
  O  O80  1  0.89729440  0.53550768  0.48166367  1
  O  O81  1  0.93147560  0.15795061  0.21931874  1
  O  O82  1  0.93104151  0.65696052  0.21940865  1
