# generated using pymatgen
data_VOF
_symmetry_space_group_name_H-M   'P 1'
_cell_length_a   4.74878957
_cell_length_b   18.99785390
_cell_length_c   3.09800582
_cell_angle_alpha   90.00000000
_cell_angle_beta   90.00000000
_cell_angle_gamma   92.51243271
_symmetry_Int_Tables_number   1
_chemical_formula_structural   VOF
_chemical_formula_sum   'V8 O8 F8'
_cell_volume   279.22353733
_cell_formula_units_Z   8
loop_
 _symmetry_equiv_pos_site_id
 _symmetry_equiv_pos_as_xyz
  1  'x, y, z'
loop_
 _atom_site_type_symbol
 _atom_site_label
 _atom_site_symmetry_multiplicity
 _atom_site_fract_x
 _atom_site_fract_y
 _atom_site_fract_z
 _atom_site_occupancy
  V  V0  1  0.07772244  0.24925047  0.00000000  1
  V  V1  1  0.92227756  0.00074953  0.00000000  1
  V  V2  1  0.02099330  0.49998277  0.00000000  1
  V  V3  1  0.97900670  0.75001723  0.00000000  1
  V  V4  1  0.50000000  0.12500000  0.50000000  1
  V  V5  1  0.45601568  0.87530476  0.50000000  1
  V  V6  1  0.54398432  0.37469524  0.50000000  1
  V  V7  1  0.50000000  0.62500000  0.50000000  1
  O  O8  1  0.22940571  0.19835116  0.50000000  1
  O  O9  1  0.26472473  0.82575332  0.00000000  1
  O  O10  1  0.30636587  0.57540645  0.00000000  1
  O  O11  1  0.34504070  0.32594962  0.00000000  1
  O  O12  1  0.73527527  0.42424668  0.00000000  1
  O  O13  1  0.65495930  0.92405038  0.00000000  1
  O  O14  1  0.69363413  0.67459355  0.00000000  1
  O  O15  1  0.77059429  0.05164884  0.50000000  1
  F  F16  1  0.22700096  0.45167208  0.50000000  1
  F  F17  1  0.18516704  0.70175907  0.50000000  1
  F  F18  1  0.15827053  0.95400255  0.50000000  1
  F  F19  1  0.28450451  0.07446235  0.00000000  1
  F  F20  1  0.71549549  0.17553765  0.00000000  1
  F  F21  1  0.84172947  0.29599745  0.50000000  1
  F  F22  1  0.81483296  0.54824093  0.50000000  1
  F  F23  1  0.77299904  0.79832792  0.50000000  1
