# generated using pymatgen
data_LiV24O58
_symmetry_space_group_name_H-M   'P 1'
_cell_length_a   14.33816685
_cell_length_b   7.34765392
_cell_length_c   10.94260537
_cell_angle_alpha   70.36771281
_cell_angle_beta   97.56212243
_cell_angle_gamma   82.65900990
_symmetry_Int_Tables_number   1
_chemical_formula_structural   LiV24O58
_chemical_formula_sum   'Li1 V24 O58'
_cell_volume   1057.94559287
_cell_formula_units_Z   1
loop_
 _symmetry_equiv_pos_site_id
 _symmetry_equiv_pos_as_xyz
  1  'x, y, z'
loop_
 _atom_site_type_symbol
 _atom_site_label
 _atom_site_symmetry_multiplicity
 _atom_site_fract_x
 _atom_site_fract_y
 _atom_site_fract_z
 _atom_site_occupancy
  Li  Li0  1  0.48644760  0.39752907  0.46166270  1
  V  V1  1  0.17358494  0.27301532  0.86723166  1
  V  V2  1  0.17316705  0.77210733  0.86959206  1
  V  V3  1  0.12241379  0.42119477  0.09467589  1
  V  V4  1  0.12188345  0.92319229  0.09438654  1
  V  V5  1  0.21462275  0.42428166  0.54404938  1
  V  V6  1  0.21581879  0.92436124  0.54315114  1
  V  V7  1  0.29337052  0.25499130  0.34741827  1
  V  V8  1  0.29330875  0.75080616  0.34742565  1
  V  V9  1  0.39535147  0.25635121  0.78919327  1
  V  V10  1  0.39255675  0.75577683  0.79309927  1
  V  V11  1  0.35642131  0.89617158  0.02838304  1
  V  V12  1  0.35714706  0.39710993  0.02797984  1
  V  V13  1  0.64313073  0.10449974  0.97122237  1
  V  V14  1  0.64504544  0.60476423  0.96721959  1
  V  V15  1  0.60402392  0.24917104  0.20380151  1
  V  V16  1  0.60458509  0.74372881  0.20912119  1
  V  V17  1  0.70898975  0.24620786  0.65414020  1
  V  V18  1  0.70548513  0.74805258  0.65036127  1
  V  V19  1  0.78500009  0.07542027  0.45636722  1
  V  V20  1  0.78448127  0.57658784  0.45521872  1
  V  V21  1  0.87903556  0.07683975  0.90640022  1
  V  V22  1  0.87960998  0.57627218  0.90806570  1
  V  V23  1  0.82741837  0.22658500  0.13257319  1
  V  V24  1  0.82754205  0.72643986  0.13328006  1
  O  O25  1  0.06780410  0.34256049  0.78132654  1
  O  O26  1  0.06816096  0.84262383  0.78121804  1
  O  O27  1  0.00006510  0.00016930  0.99983593  1
  O  O28  1  0.00047909  0.49987177  0.99982304  1
  O  O29  1  0.10096768  0.46624128  0.51689155  1
  O  O30  1  0.10212528  0.96645820  0.51587595  1
  O  O31  1  0.11010776  0.34708340  0.24813002  1
  O  O32  1  0.10995684  0.84984936  0.24795158  1
  O  O33  1  0.19998632  0.99381985  0.91211271  1
  O  O34  1  0.20060396  0.49374966  0.91257784  1
  O  O35  1  0.14144167  0.18998918  0.04914385  1
  O  O36  1  0.14132936  0.68974585  0.04996872  1
  O  O37  1  0.24655279  0.32379361  0.72910251  1
  O  O38  1  0.24855284  0.82264649  0.73037435  1
  O  O39  1  0.24727569  0.67741637  0.52146497  1
  O  O40  1  0.24724081  0.17739325  0.52142429  1
  O  O41  1  0.33429863  0.17452993  0.98385111  1
  O  O42  1  0.33154894  0.67170207  0.99034606  1
  O  O43  1  0.25532072  0.50163785  0.36882205  1
  O  O44  1  0.26337149  0.99759843  0.37313592  1
  O  O45  1  0.27492858  0.34476736  0.16858741  1
  O  O46  1  0.27490218  0.84916270  0.16839381  1
  O  O47  1  0.38874132  0.97088753  0.84655408  1
  O  O48  1  0.38879951  0.48779447  0.84716893  1
  O  O49  1  0.40590268  0.33200034  0.63285022  1
  O  O50  1  0.40613438  0.82818523  0.64105294  1
  O  O51  1  0.40859101  0.22359634  0.39010327  1
  O  O52  1  0.40836615  0.68151963  0.39033151  1
  O  O53  1  0.53216294  0.17843800  0.87688434  1
  O  O54  1  0.53375679  0.67827550  0.87669967  1
  O  O55  1  0.46748641  0.82182043  0.12168850  1
  O  O56  1  0.46918801  0.32107715  0.12378902  1
  O  O57  1  0.59363779  0.29682903  0.60966890  1
  O  O58  1  0.59152218  0.79728352  0.60972603  1
  O  O59  1  0.59310432  0.18587718  0.35788621  1
  O  O60  1  0.59306772  0.65549438  0.36380925  1
  O  O61  1  0.61247380  0.02938442  0.15324170  1
  O  O62  1  0.61227960  0.51401923  0.14998388  1
  O  O63  1  0.72284069  0.65119691  0.83448274  1
  O  O64  1  0.72599500  0.15298031  0.83200313  1
  O  O65  1  0.74155390  0.50066457  0.62933176  1
  O  O66  1  0.74146007  0.99923960  0.62959384  1
  O  O67  1  0.66632025  0.33533734  0.01093936  1
  O  O68  1  0.66538905  0.81918072  0.01212234  1
  O  O69  1  0.75387242  0.32171481  0.47898668  1
  O  O70  1  0.75063868  0.82453078  0.47654293  1
  O  O71  1  0.75182686  0.17717432  0.26962019  1
  O  O72  1  0.75362834  0.67676085  0.27003830  1
  O  O73  1  0.85835554  0.80984997  0.95124047  1
  O  O74  1  0.85849232  0.30954839  0.95140792  1
  O  O75  1  0.79835901  0.00679878  0.08704490  1
  O  O76  1  0.80213855  0.50464558  0.08917249  1
  O  O77  1  0.88975403  0.15156740  0.75207916  1
  O  O78  1  0.88920159  0.65098477  0.75352706  1
  O  O79  1  0.89819769  0.53557389  0.48343830  1
  O  O80  1  0.89868532  0.03195820  0.48370577  1
  O  O81  1  0.93281447  0.15425747  0.21967890  1
  O  O82  1  0.93320018  0.65928390  0.21952608  1
