# generated using pymatgen
data_Ba2CaI6
_symmetry_space_group_name_H-M   'P 1'
_cell_length_a   9.96881367
_cell_length_b   18.33262277
_cell_length_c   10.26879152
_cell_angle_alpha   90.00000000
_cell_angle_beta   113.66500583
_cell_angle_gamma   90.00000000
_symmetry_Int_Tables_number   1
_chemical_formula_structural   Ba2CaI6
_chemical_formula_sum   'Ba8 Ca4 I24'
_cell_volume   1718.85495555
_cell_formula_units_Z   4
loop_
 _symmetry_equiv_pos_site_id
 _symmetry_equiv_pos_as_xyz
  1  'x, y, z'
loop_
 _atom_site_type_symbol
 _atom_site_label
 _atom_site_symmetry_multiplicity
 _atom_site_fract_x
 _atom_site_fract_y
 _atom_site_fract_z
 _atom_site_occupancy
  Ba  Ba0  1  0.26783794  0.42249211  0.04858434  1
  Ba  Ba1  1  0.23216206  0.92249211  0.45141566  1
  Ba  Ba2  1  0.25011346  0.24365082  0.50672607  1
  Ba  Ba3  1  0.24988654  0.74365082  0.99327393  1
  Ba  Ba4  1  0.75011346  0.25634918  0.00672607  1
  Ba  Ba5  1  0.74988654  0.75634918  0.49327393  1
  Ba  Ba6  1  0.76783794  0.07750789  0.54858434  1
  Ba  Ba7  1  0.73216206  0.57750789  0.95141566  1
  Ca  Ca8  1  0.20005229  0.58877787  0.52278319  1
  Ca  Ca9  1  0.29994771  0.08877787  0.97721681  1
  Ca  Ca10  1  0.70005229  0.91122213  0.02278319  1
  Ca  Ca11  1  0.79994771  0.41122213  0.47721681  1
  I  I12  1  0.13872185  0.41828327  0.54766318  1
  I  I13  1  0.16966451  0.07469053  0.62777077  1
  I  I14  1  0.12225952  0.57558082  0.18587223  1
  I  I15  1  0.15092473  0.75803444  0.60596050  1
  I  I16  1  0.34907527  0.25803444  0.89403950  1
  I  I17  1  0.02897517  0.89761515  0.09546129  1
  I  I18  1  0.33033549  0.57469053  0.87222923  1
  I  I19  1  0.11685838  0.27862045  0.15463367  1
  I  I20  1  0.38314162  0.77862045  0.34536633  1
  I  I21  1  0.63872185  0.08171673  0.04766318  1
  I  I22  1  0.47102483  0.39761515  0.40453871  1
  I  I23  1  0.62225952  0.92441918  0.68587223  1
  I  I24  1  0.37774048  0.07558082  0.31412777  1
  I  I25  1  0.52897517  0.60238485  0.59546129  1
  I  I26  1  0.36127815  0.91828327  0.95233682  1
  I  I27  1  0.61685838  0.22137955  0.65463367  1
  I  I28  1  0.88314162  0.72137955  0.84536633  1
  I  I29  1  0.66966451  0.42530947  0.12777077  1
  I  I30  1  0.97102483  0.10238485  0.90453871  1
  I  I31  1  0.65092473  0.74196556  0.10596050  1
  I  I32  1  0.84907527  0.24196556  0.39403950  1
  I  I33  1  0.87774048  0.42441918  0.81412777  1
  I  I34  1  0.83033549  0.92530947  0.37222923  1
  I  I35  1  0.86127815  0.58171673  0.45233682  1
