# generated using pymatgen
data_LiV2O2F3
_symmetry_space_group_name_H-M   'P 1'
_cell_length_a   5.14388284
_cell_length_b   5.93223760
_cell_length_c   7.66829676
_cell_angle_alpha   79.49030779
_cell_angle_beta   109.73108369
_cell_angle_gamma   64.49732911
_symmetry_Int_Tables_number   1
_chemical_formula_structural   LiV2O2F3
_chemical_formula_sum   'Li2 V4 O4 F6'
_cell_volume   183.40705718
_cell_formula_units_Z   2
loop_
 _symmetry_equiv_pos_site_id
 _symmetry_equiv_pos_as_xyz
  1  'x, y, z'
loop_
 _atom_site_type_symbol
 _atom_site_label
 _atom_site_symmetry_multiplicity
 _atom_site_fract_x
 _atom_site_fract_y
 _atom_site_fract_z
 _atom_site_occupancy
  Li  Li0  1  0.15844552  0.43089966  0.01879810  1
  Li  Li1  1  0.43199833  0.93300506  0.51969847  1
  V  V2  1  0.80778118  0.98505855  0.12238172  1
  V  V3  1  0.32861532  0.48638713  0.62236838  1
  V  V4  1  0.67090120  0.51802063  0.37241699  1
  V  V5  1  0.18162898  0.01831215  0.87201648  1
  O  O6  1  0.23380281  0.74743293  0.36325184  1
  O  O7  1  0.38226296  0.24741677  0.86334800  1
  O  O8  1  0.59138303  0.78263391  0.13809906  1
  O  O9  1  0.76222656  0.28279048  0.63824202  1
  F  F10  1  0.38814167  0.76726339  0.73994057  1
  F  F11  1  0.83957195  0.71612402  0.53554535  1
  F  F12  1  0.97966160  0.21595988  0.03471060  1
  F  F13  1  0.99964300  0.79355370  0.95392724  1
  F  F14  1  0.15815932  0.29498558  0.45384450  1
  F  F15  1  0.58697556  0.26359417  0.24143569  1
