# generated using pymatgen
data_Li4V3P8O29
_symmetry_space_group_name_H-M   'P 1'
_cell_length_a   9.78132392
_cell_length_b   9.72332670
_cell_length_c   14.24306458
_cell_angle_alpha   90.19229110
_cell_angle_beta   90.53613140
_cell_angle_gamma   60.31164836
_symmetry_Int_Tables_number   1
_chemical_formula_structural   Li4V3P8O29
_chemical_formula_sum   'Li8 V6 P16 O58'
_cell_volume   1176.74513307
_cell_formula_units_Z   2
loop_
 _symmetry_equiv_pos_site_id
 _symmetry_equiv_pos_as_xyz
  1  'x, y, z'
loop_
 _atom_site_type_symbol
 _atom_site_label
 _atom_site_symmetry_multiplicity
 _atom_site_fract_x
 _atom_site_fract_y
 _atom_site_fract_z
 _atom_site_occupancy
  Li  Li0  1  0.90833857  0.32878028  0.55616041  1
  Li  Li1  1  0.33889051  0.89577925  0.06038248  1
  Li  Li2  1  0.33108427  0.76653227  0.55701100  1
  Li  Li3  1  0.66402218  0.09720531  0.94334034  1
  Li  Li4  1  0.09329496  0.67247207  0.43759200  1
  Li  Li5  1  0.08888227  0.22827609  0.94487141  1
  Li  Li6  1  0.99074856  0.95299923  0.01661346  1
  Li  Li7  1  0.94204356  0.04222438  0.49261184  1
  V  V8  1  0.56798122  0.43342579  0.24630269  1
  V  V9  1  0.43508967  0.56392250  0.75534434  1
  V  V10  1  0.56793082  0.99770521  0.74075427  1
  V  V11  1  0.43570188  0.00176907  0.25818317  1
  V  V12  1  0.99867628  0.56600143  0.24579942  1
  V  V13  1  0.99953058  0.43900311  0.75396106  1
  P  P14  1  0.91594838  0.78494254  0.83656991  1
  P  P15  1  0.78276258  0.91584259  0.33971279  1
  P  P16  1  0.91370349  0.30899984  0.33878110  1
  P  P17  1  0.65976325  0.67267205  0.13352826  1
  P  P18  1  0.66372988  0.66258726  0.63203728  1
  P  P19  1  0.77688813  0.30705591  0.84370795  1
  P  P20  1  0.69200249  0.22726927  0.65851693  1
  P  P21  1  0.32008718  0.91278080  0.84282711  1
  P  P22  1  0.68680715  0.08520282  0.15715564  1
  P  P23  1  0.31673747  0.77076438  0.34303595  1
  P  P24  1  0.22081804  0.69505909  0.16107415  1
  P  P25  1  0.33306161  0.34061024  0.36701804  1
  P  P26  1  0.33984805  0.32481577  0.86659555  1
  P  P27  1  0.08926497  0.68622517  0.65563244  1
  P  P28  1  0.21928792  0.08602801  0.66174859  1
  P  P29  1  0.09048169  0.21850612  0.15948506  1
  O  O30  1  0.02211295  0.76379799  0.56355501  1
  O  O31  1  0.91704270  0.74189885  0.33669128  1
  O  O32  1  0.76765084  0.01411339  0.06663403  1
  O  O33  1  0.74013422  0.91941896  0.83155152  1
  O  O34  1  0.92088340  0.62178130  0.82667928  1
  O  O35  1  0.80815104  0.66979594  0.17286726  1
  O  O36  1  0.91929243  0.46341227  0.32589952  1
  O  O37  1  0.01937584  0.20175963  0.06988844  1
  O  O38  1  0.91639235  0.33985932  0.84230127  1
  O  O39  1  0.66744817  0.81313251  0.67441589  1
  O  O40  1  0.62066974  0.92092929  0.32955240  1
  O  O41  1  0.81239852  0.51430720  0.67061159  1
  O  O42  1  0.63527040  0.68631126  0.03009154  1
  O  O43  1  0.64839765  0.66807608  0.52806627  1
  O  O44  1  0.66299752  0.52117688  0.17683858  1
  O  O45  1  0.47572960  0.91054959  0.82282586  1
  O  O46  1  0.51279944  0.81670218  0.18225179  1
  O  O47  1  0.74092772  0.34410191  0.32845852  1
  O  O48  1  0.79867313  0.20428959  0.75010549  1
  O  O49  1  0.78897324  0.21553422  0.57542606  1
  O  O50  1  0.77947312  0.21267136  0.92622891  1
  O  O51  1  0.61926869  0.46598996  0.82841980  1
  O  O52  1  0.51361023  0.67171532  0.67868416  1
  O  O53  1  0.65302813  0.25866497  0.16603057  1
  O  O54  1  0.47214001  0.61688920  0.32649151  1
  O  O55  1  0.34529286  0.91429527  0.33856950  1
  O  O56  1  0.80272869  0.99176341  0.24300724  1
  O  O57  1  0.79669201  0.00147899  0.42180809  1
  O  O58  1  0.21144647  0.99368617  0.58044324  1
  O  O59  1  0.65570400  0.08836707  0.66340234  1
  O  O60  1  0.53736805  0.38550983  0.67120235  1
  O  O61  1  0.34574896  0.74236109  0.83534761  1
  O  O62  1  0.47548173  0.34117327  0.31700979  1
  O  O63  1  0.38144710  0.54269512  0.16787809  1
  O  O64  1  0.20010002  0.80322278  0.08088758  1
  O  O65  1  0.23526369  0.77098559  0.43222726  1
  O  O66  1  0.20017084  0.79428697  0.25724101  1
  O  O67  1  0.26140412  0.65846557  0.66698356  1
  O  O68  1  0.48781142  0.18108310  0.82074266  1
  O  O69  1  0.53257419  0.08192325  0.17330947  1
  O  O70  1  0.33642854  0.47560437  0.82045467  1
  O  O71  1  0.35575195  0.31769801  0.97054852  1
  O  O72  1  0.34197048  0.33618800  0.47092998  1
  O  O73  1  0.18315639  0.49004241  0.32963866  1
  O  O74  1  0.37902951  0.08525936  0.67184926  1
  O  O75  1  0.33355678  0.18945342  0.32235552  1
  O  O76  1  0.08647608  0.65539353  0.16532668  1
  O  O77  1  0.99207928  0.80426061  0.74060780  1
  O  O78  1  0.99600594  0.80333754  0.92017860  1
  O  O79  1  0.09067436  0.53069070  0.67395047  1
  O  O80  1  0.18861043  0.32350886  0.83151619  1
  O  O81  1  0.08897784  0.37516439  0.17154115  1
  O  O82  1  0.26359418  0.07729388  0.16779653  1
  O  O83  1  0.24491445  0.99158130  0.93362080  1
  O  O84  1  0.20014936  0.01054870  0.75885639  1
  O  O85  1  0.08094015  0.25863282  0.66352402  1
  O  O86  1  0.98133161  0.22511056  0.42994595  1
  O  O87  1  0.00359681  0.19660207  0.25037782  1
