# generated using pymatgen
data_Co2NiO6
_symmetry_space_group_name_H-M   'P 1'
_cell_length_a   6.36542365
_cell_length_b   2.80661044
_cell_length_c   5.63997598
_cell_angle_alpha   89.66408021
_cell_angle_beta   102.85550560
_cell_angle_gamma   77.57850192
_symmetry_Int_Tables_number   1
_chemical_formula_structural   Co2NiO6
_chemical_formula_sum   'Co2 Ni1 O6'
_cell_volume   95.78171894
_cell_formula_units_Z   1
loop_
 _symmetry_equiv_pos_site_id
 _symmetry_equiv_pos_as_xyz
  1  'x, y, z'
loop_
 _atom_site_type_symbol
 _atom_site_label
 _atom_site_symmetry_multiplicity
 _atom_site_fract_x
 _atom_site_fract_y
 _atom_site_fract_z
 _atom_site_occupancy
  Co  Co0  1  0.99968637  0.99650990  0.99755771  1
  Co  Co1  1  0.66220028  0.66631979  0.66573486  1
  Ni  Ni2  1  0.33168456  0.33173849  0.33049481  1
  O  O3  1  0.02335955  0.48216913  0.22447251  1
  O  O4  1  0.35022825  0.82044727  0.55572635  1
  O  O5  1  0.68614208  0.15139999  0.89335545  1
  O  O6  1  0.31218292  0.84366527  0.10489861  1
  O  O7  1  0.64004716  0.18036743  0.43871526  1
  O  O8  1  0.97518483  0.51107373  0.77025543  1
