# generated using pymatgen
data_Li6Cr5CuO12
_symmetry_space_group_name_H-M   'P 1'
_cell_length_a   5.09468784
_cell_length_b   5.09468800
_cell_length_c   9.99949180
_cell_angle_alpha   85.71621937
_cell_angle_beta   94.28442786
_cell_angle_gamma   59.93795144
_symmetry_Int_Tables_number   1
_chemical_formula_structural   Li6Cr5CuO12
_chemical_formula_sum   'Li6 Cr5 Cu1 O12'
_cell_volume   222.10613280
_cell_formula_units_Z   1
loop_
 _symmetry_equiv_pos_site_id
 _symmetry_equiv_pos_as_xyz
  1  'x, y, z'
loop_
 _atom_site_type_symbol
 _atom_site_label
 _atom_site_symmetry_multiplicity
 _atom_site_fract_x
 _atom_site_fract_y
 _atom_site_fract_z
 _atom_site_occupancy
  Li  Li0  1  0.11434436  0.88563270  0.25128773  1
  Li  Li1  1  0.22070401  0.44823396  0.74218818  1
  Li  Li2  1  0.55173004  0.77932277  0.74215425  1
  Li  Li3  1  0.44822417  0.22070399  0.25780181  1
  Li  Li4  1  0.77930877  0.55173045  0.25782842  1
  Li  Li5  1  0.88564153  0.11434453  0.74870783  1
  Cr  Cr6  1  0.83341183  0.83342797  0.50000761  1
  Cr  Cr7  1  0.49999097  0.49998167  0.50001716  1
  Cr  Cr8  1  0.16655924  0.16656270  0.50000459  1
  Cr  Cr9  1  0.66671742  0.66670253  0.00000437  1
  Cr  Cr10  1  0.33330371  0.33333208  0.99999431  1
  Cu  Cu11  1  0.00008657  0.00007879  0.99998601  1
  O  O12  1  0.19852613  0.80145872  0.61047408  1
  O  O13  1  0.69842298  0.96445948  0.11184402  1
  O  O14  1  0.03555798  0.30158708  0.11185882  1
  O  O15  1  0.13499547  0.53147624  0.38931898  1
  O  O16  1  0.46850124  0.86499084  0.38931673  1
  O  O17  1  0.37745807  0.62252945  0.11383897  1
  O  O18  1  0.62253339  0.37744871  0.88615130  1
  O  O19  1  0.53146735  0.13499262  0.61070240  1
  O  O20  1  0.86499900  0.46851089  0.61070559  1
  O  O21  1  0.96446240  0.69841921  0.88814482  1
  O  O22  1  0.30160090  0.03554757  0.88812624  1
  O  O23  1  0.80145746  0.19852204  0.38953377  1
