# generated using pymatgen
data_Li7Nb12O24
_symmetry_space_group_name_H-M   'P 1'
_cell_length_a   8.92551518
_cell_length_b   5.14690719
_cell_length_c   11.03008437
_cell_angle_alpha   76.39845968
_cell_angle_beta   97.75034981
_cell_angle_gamma   89.99704182
_symmetry_Int_Tables_number   1
_chemical_formula_structural   Li7Nb12O24
_chemical_formula_sum   'Li7 Nb12 O24'
_cell_volume   487.73355234
_cell_formula_units_Z   1
loop_
 _symmetry_equiv_pos_site_id
 _symmetry_equiv_pos_as_xyz
  1  'x, y, z'
loop_
 _atom_site_type_symbol
 _atom_site_label
 _atom_site_symmetry_multiplicity
 _atom_site_fract_x
 _atom_site_fract_y
 _atom_site_fract_z
 _atom_site_occupancy
  Li  Li0  1  0.00003599  0.00307241  0.00015396  1
  Li  Li1  1  0.16665531  0.49690643  0.99983503  1
  Li  Li2  1  0.24974725  0.25024878  0.49946559  1
  Li  Li3  1  0.58331207  0.25000155  0.49996679  1
  Li  Li4  1  0.49998415  0.49690311  0.99986229  1
  Li  Li5  1  0.66669991  0.00302480  0.00019998  1
  Li  Li6  1  0.91693886  0.24973723  0.50056456  1
  Nb  Nb7  1  0.12910048  0.95763591  0.75254999  1
  Nb  Nb8  1  0.03751811  0.54246407  0.24745495  1
  Nb  Nb9  1  0.29119243  0.45500329  0.74701795  1
  Nb  Nb10  1  0.21143086  0.03447374  0.25345923  1
  Nb  Nb11  1  0.45509817  0.95757814  0.75255428  1
  Nb  Nb12  1  0.37473983  0.55099186  0.24759940  1
  Nb  Nb13  1  0.62693229  0.46539016  0.74651272  1
  Nb  Nb14  1  0.53966878  0.03495429  0.25342660  1
  Nb  Nb15  1  0.79212998  0.94902242  0.75235933  1
  Nb  Nb16  1  0.71144849  0.54224366  0.24749871  1
  Nb  Nb17  1  0.95522703  0.46527814  0.74655802  1
  Nb  Nb18  1  0.87548816  0.04497816  0.25299172  1
  O  O19  1  0.02797667  0.26017888  0.13180471  1
  O  O20  1  0.10330759  0.34312055  0.62938880  1
  O  O21  1  0.06340071  0.15695725  0.37058422  1
  O  O22  1  0.13869799  0.23980437  0.86826380  1
  O  O23  1  0.18310845  0.76548592  0.12876023  1
  O  O24  1  0.22629406  0.63774804  0.36475010  1
  O  O25  1  0.31188589  0.71732822  0.87138035  1
  O  O26  1  0.27248101  0.85717863  0.63477872  1
  O  O27  1  0.35524820  0.27483717  0.13198062  1
  O  O28  1  0.39493793  0.16020997  0.37021775  1
  O  O29  1  0.43977828  0.34310581  0.62939898  1
  O  O30  1  0.48404086  0.23981028  0.86821545  1
  O  O31  1  0.52646363  0.76564835  0.12871459  1
  O  O32  1  0.60462299  0.86222360  0.63522747  1
  O  O33  1  0.64026730  0.73450086  0.87122485  1
  O  O34  1  0.56199785  0.63806536  0.36483715  1
  O  O35  1  0.68268953  0.26021479  0.13171463  1
  O  O36  1  0.81125934  0.22514399  0.86794550  1
  O  O37  1  0.77168826  0.33977216  0.62977796  1
  O  O38  1  0.72692430  0.15671272  0.37067650  1
  O  O39  1  0.85474283  0.78263204  0.12864418  1
  O  O40  1  0.89416405  0.64286464  0.36520820  1
  O  O41  1  0.94045674  0.86214850  0.63520861  1
  O  O42  1  0.98355438  0.73439873  0.87126653  1
