# generated using pymatgen
data_LiV2OF5
_symmetry_space_group_name_H-M   'P 1'
_cell_length_a   8.75371324
_cell_length_b   8.71230779
_cell_length_c   4.57955113
_cell_angle_alpha   90.63963409
_cell_angle_beta   89.84291046
_cell_angle_gamma   119.81604379
_symmetry_Int_Tables_number   1
_chemical_formula_structural   LiV2OF5
_chemical_formula_sum   'Li3 V6 O3 F15'
_cell_volume   303.00638852
_cell_formula_units_Z   3
loop_
 _symmetry_equiv_pos_site_id
 _symmetry_equiv_pos_as_xyz
  1  'x, y, z'
loop_
 _atom_site_type_symbol
 _atom_site_label
 _atom_site_symmetry_multiplicity
 _atom_site_fract_x
 _atom_site_fract_y
 _atom_site_fract_z
 _atom_site_occupancy
  Li  Li0  1  0.33371737  0.66651071  0.50078076  1
  Li  Li1  1  0.00007480  0.99885709  0.00464642  1
  Li  Li2  1  0.66387566  0.33239555  0.50773922  1
  V  V3  1  0.00676305  0.64899530  0.98441751  1
  V  V4  1  0.00324411  0.33285884  0.51511529  1
  V  V5  1  0.35032324  0.33742708  0.98441012  1
  V  V6  1  0.32644384  0.01295468  0.51485608  1
  V  V7  1  0.67588188  0.68760879  0.48184098  1
  V  V8  1  0.65097742  0.98718578  0.01753201  1
  O  O9  1  0.09267483  0.53683012  0.74425571  1
  O  O10  1  0.57718118  0.79454837  0.26359337  1
  O  O11  1  0.42757565  0.21974381  0.73585983  1
  F  F12  1  0.10824040  0.88253449  0.75781589  1
  F  F13  1  0.21314647  0.77827893  0.26533134  1
  F  F14  1  0.44076210  0.89446583  0.75014133  1
  F  F15  1  0.22640976  0.43629117  0.26281222  1
  F  F16  1  0.11632870  0.22711128  0.77134998  1
  F  F17  1  0.21967140  0.11261274  0.23484550  1
  F  F18  1  0.45931211  0.56574509  0.73833866  1
  F  F19  1  0.78368378  0.89461088  0.76480375  1
  F  F20  1  0.56036533  0.45361587  0.25030885  1
  F  F21  1  0.54123524  0.10706157  0.26011684  1
  F  F22  1  0.89385480  0.76898784  0.22937925  1
  F  F23  1  0.78459390  0.56636668  0.73358413  1
  F  F24  1  0.88637057  0.43237514  0.25596013  1
  F  F25  1  0.77106812  0.20681271  0.73880672  1
  F  F26  1  0.88612730  0.11721165  0.23135713  1
