# generated using pymatgen
data_Li4MnF8
_symmetry_space_group_name_H-M   'P 1'
_cell_length_a   5.12984229
_cell_length_b   5.20322965
_cell_length_c   6.06180076
_cell_angle_alpha   90.00000000
_cell_angle_beta   90.00000000
_cell_angle_gamma   111.86399171
_symmetry_Int_Tables_number   1
_chemical_formula_structural   Li4MnF8
_chemical_formula_sum   'Li4 Mn1 F8'
_cell_volume   150.16185500
_cell_formula_units_Z   1
loop_
 _symmetry_equiv_pos_site_id
 _symmetry_equiv_pos_as_xyz
  1  'x, y, z'
loop_
 _atom_site_type_symbol
 _atom_site_label
 _atom_site_symmetry_multiplicity
 _atom_site_fract_x
 _atom_site_fract_y
 _atom_site_fract_z
 _atom_site_occupancy
  Li  Li0  1  0.00000000  0.50000000  0.80933779  1
  Li  Li1  1  0.50000000  0.50000000  0.00946537  1
  Li  Li2  1  0.50000000  0.00000000  0.20902463  1
  Li  Li3  1  0.50000000  0.00000000  0.76627788  1
  Mn  Mn4  1  0.50000000  0.50000000  0.49639494  1
  F  F5  1  0.29316754  0.72449010  0.50924737  1
  F  F6  1  0.29529614  0.73951546  0.98106081  1
  F  F7  1  0.29009165  0.27155146  0.27865758  1
  F  F8  1  0.26895504  0.28204823  0.71780044  1
  F  F9  1  0.70990835  0.72844854  0.27865758  1
  F  F10  1  0.73104496  0.71795177  0.71780044  1
  F  F11  1  0.70470386  0.26048454  0.98106081  1
  F  F12  1  0.70683246  0.27550990  0.50924737  1
