# generated using pymatgen
data_Li4V3P8O29
_symmetry_space_group_name_H-M   'P 1'
_cell_length_a   9.80168388
_cell_length_b   9.75913340
_cell_length_c   14.22878164
_cell_angle_alpha   89.77756523
_cell_angle_beta   89.89049750
_cell_angle_gamma   60.01122298
_symmetry_Int_Tables_number   1
_chemical_formula_structural   Li4V3P8O29
_chemical_formula_sum   'Li8 V6 P16 O58'
_cell_volume   1178.84341753
_cell_formula_units_Z   2
loop_
 _symmetry_equiv_pos_site_id
 _symmetry_equiv_pos_as_xyz
  1  'x, y, z'
loop_
 _atom_site_type_symbol
 _atom_site_label
 _atom_site_symmetry_multiplicity
 _atom_site_fract_x
 _atom_site_fract_y
 _atom_site_fract_z
 _atom_site_occupancy
  Li  Li0  1  0.91375300  0.77225551  0.06138408  1
  Li  Li1  1  0.76629169  0.90634845  0.55891798  1
  Li  Li2  1  0.90669779  0.32829635  0.55602991  1
  Li  Li3  1  0.76921051  0.31670346  0.06222961  1
  Li  Li4  1  0.33034533  0.90358967  0.05913167  1
  Li  Li5  1  0.33383542  0.76403769  0.55680492  1
  Li  Li6  1  0.08676104  0.22437894  0.94139274  1
  Li  Li7  1  0.00089032  0.00030499  0.49111241  1
  V  V8  1  0.56313144  0.43298437  0.25312005  1
  V  V9  1  0.43482263  0.56667556  0.75015716  1
  V  V10  1  0.56676154  0.99932018  0.74965136  1
  V  V11  1  0.43444044  0.00293290  0.25330577  1
  V  V12  1  0.00153934  0.56686019  0.25095710  1
  V  V13  1  0.99708890  0.43689270  0.74691768  1
  P  P14  1  0.91233542  0.76901749  0.84255733  1
  P  P15  1  0.77399450  0.91440147  0.34308674  1
  P  P16  1  0.91354892  0.31001095  0.34107649  1
  P  P17  1  0.66534369  0.66734896  0.13125624  1
  P  P18  1  0.66363764  0.66796211  0.62813378  1
  P  P19  1  0.76888618  0.31835783  0.84501204  1
  P  P20  1  0.69379883  0.22335439  0.66274668  1
  P  P21  1  0.31849685  0.91163241  0.84199108  1
  P  P22  1  0.68634605  0.08729228  0.16121544  1
  P  P23  1  0.31068520  0.77452063  0.34242608  1
  P  P24  1  0.22759336  0.68770730  0.16038728  1
  P  P25  1  0.33306402  0.33417290  0.36862679  1
  P  P26  1  0.33264725  0.33194300  0.86594770  1
  P  P27  1  0.08474058  0.69537584  0.66144732  1
  P  P28  1  0.22398964  0.08430502  0.66015660  1
  P  P29  1  0.08900023  0.22881781  0.16033356  1
  O  O30  1  0.99379321  0.80409611  0.58263873  1
  O  O31  1  0.91128272  0.74457485  0.32911438  1
  O  O32  1  0.77539916  0.99293189  0.07864612  1
  O  O33  1  0.74371043  0.91447448  0.82728324  1
  O  O34  1  0.90155802  0.61864644  0.81856806  1
  O  O35  1  0.81575186  0.66687191  0.16708586  1
  O  O36  1  0.91491274  0.46456455  0.33072385  1
  O  O37  1  0.00066912  0.23891747  0.07181158  1
  O  O38  1  0.91796260  0.33419109  0.83600619  1
  O  O39  1  0.67348344  0.81370814  0.66918141  1
  O  O40  1  0.61636606  0.91378252  0.32818118  1
  O  O41  1  0.80875663  0.51237231  0.66426104  1
  O  O42  1  0.65417590  0.66882412  0.02671938  1
  O  O43  1  0.65037334  0.67639920  0.52373421  1
  O  O44  1  0.66436767  0.51816170  0.17467894  1
  O  O45  1  0.47947527  0.90166063  0.82088425  1
  O  O46  1  0.51762423  0.81879493  0.17429622  1
  O  O47  1  0.74213880  0.34088973  0.32806123  1
  O  O48  1  0.78344562  0.19985737  0.76193519  1
  O  O49  1  0.79876351  0.21059989  0.58338425  1
  O  O50  1  0.75590912  0.25693148  0.93751618  1
  O  O51  1  0.61908102  0.48039195  0.81942522  1
  O  O52  1  0.50968823  0.67705003  0.67215255  1
  O  O53  1  0.65825175  0.25866678  0.15991288  1
  O  O54  1  0.46834275  0.61658476  0.32901285  1
  O  O55  1  0.34268205  0.91426116  0.32874237  1
  O  O56  1  0.78620738  0.01497951  0.25756232  1
  O  O57  1  0.78572155  0.98157642  0.43453985  1
  O  O58  1  0.21249834  0.99234527  0.58048022  1
  O  O59  1  0.65797414  0.08459523  0.66026541  1
  O  O60  1  0.53731229  0.38363203  0.67137743  1
  O  O61  1  0.34030799  0.74428762  0.83374278  1
  O  O62  1  0.48471301  0.32869305  0.32200785  1
  O  O63  1  0.38065736  0.52703982  0.17884633  1
  O  O64  1  0.23746263  0.77555750  0.07835583  1
  O  O65  1  0.23055347  0.78865211  0.43404585  1
  O  O66  1  0.19945353  0.78951134  0.25673857  1
  O  O67  1  0.25920827  0.66109344  0.66178413  1
  O  O68  1  0.47764164  0.18187845  0.81768997  1
  O  O69  1  0.52686715  0.09288299  0.17801255  1
  O  O70  1  0.33998411  0.47588072  0.81876883  1
  O  O71  1  0.34244828  0.32669950  0.96954315  1
  O  O72  1  0.34568559  0.32213423  0.47201036  1
  O  O73  1  0.19147214  0.48152110  0.32639453  1
  O  O74  1  0.38325550  0.08057555  0.67074715  1
  O  O75  1  0.33255855  0.18460430  0.32245818  1
  O  O76  1  0.08441485  0.66218009  0.15897805  1
  O  O77  1  0.01573598  0.78675984  0.76093570  1
  O  O78  1  0.98126351  0.76038130  0.93565917  1
  O  O79  1  0.08339742  0.53980974  0.66859679  1
  O  O80  1  0.18309619  0.33216949  0.82846155  1
  O  O81  1  0.09621666  0.38014473  0.17767365  1
  O  O82  1  0.25792296  0.08274419  0.15952372  1
  O  O83  1  0.25002178  0.99446037  0.93283592  1
  O  O84  1  0.20072965  0.01321927  0.75885251  1
  O  O85  1  0.08555613  0.25781538  0.65999635  1
  O  O86  1  0.98106818  0.22032661  0.43043002  1
  O  O87  1  0.00586876  0.20052094  0.25069232  1
