# generated using pymatgen
data_Li5MnF8
_symmetry_space_group_name_H-M   'P 1'
_cell_length_a   6.03749876
_cell_length_b   6.03749889
_cell_length_c   5.71584802
_cell_angle_alpha   118.25277186
_cell_angle_beta   61.74723040
_cell_angle_gamma   122.19938634
_symmetry_Int_Tables_number   1
_chemical_formula_structural   Li5MnF8
_chemical_formula_sum   'Li5 Mn1 F8'
_cell_volume   148.31138813
_cell_formula_units_Z   1
loop_
 _symmetry_equiv_pos_site_id
 _symmetry_equiv_pos_as_xyz
  1  'x, y, z'
loop_
 _atom_site_type_symbol
 _atom_site_label
 _atom_site_symmetry_multiplicity
 _atom_site_fract_x
 _atom_site_fract_y
 _atom_site_fract_z
 _atom_site_occupancy
  Li  Li0  1  0.00000000  0.50000000  0.00000000  1
  Li  Li1  1  0.00000000  0.50000000  0.50000000  1
  Li  Li2  1  0.50000000  0.50000000  0.00000000  1
  Li  Li3  1  0.50000000  0.00000000  0.00000000  1
  Li  Li4  1  0.50000000  0.00000000  0.50000000  1
  Mn  Mn5  1  0.00000000  0.00000000  0.00000000  1
  F  F6  1  0.27418699  0.72581301  0.22581301  1
  F  F7  1  0.23299242  0.23299242  0.22718175  1
  F  F8  1  0.23874163  0.76125837  0.76125837  1
  F  F9  1  0.23299242  0.23299242  0.77281825  1
  F  F10  1  0.76700758  0.76700758  0.22718175  1
  F  F11  1  0.76125837  0.23874163  0.23874163  1
  F  F12  1  0.76700758  0.76700758  0.77281825  1
  F  F13  1  0.72581301  0.27418699  0.77418699  1
