# generated using pymatgen
data_LiFe2(PO4)2
_symmetry_space_group_name_H-M   'P 1'
_cell_length_a   5.17391465
_cell_length_b   10.23043344
_cell_length_c   6.93386744
_cell_angle_alpha   90.00000000
_cell_angle_beta   89.61064913
_cell_angle_gamma   90.00000000
_symmetry_Int_Tables_number   1
_chemical_formula_structural   LiFe2(PO4)2
_chemical_formula_sum   'Li2 Fe4 P4 O16'
_cell_volume   367.01076392
_cell_formula_units_Z   2
loop_
 _symmetry_equiv_pos_site_id
 _symmetry_equiv_pos_as_xyz
  1  'x, y, z'
loop_
 _atom_site_type_symbol
 _atom_site_label
 _atom_site_symmetry_multiplicity
 _atom_site_fract_x
 _atom_site_fract_y
 _atom_site_fract_z
 _atom_site_occupancy
  Li  Li0  1  0.70021539  0.37108496  0.00068916  1
  Li  Li1  1  0.79978461  0.87108496  0.49931084  1
  Fe  Fe2  1  0.20228812  0.16705358  0.01751376  1
  Fe  Fe3  1  0.29771188  0.66705358  0.48248624  1
  Fe  Fe4  1  0.69550045  0.32259978  0.49355567  1
  Fe  Fe5  1  0.80449955  0.82259978  0.00644433  1
  P  P6  1  0.19479307  0.40701324  0.26837390  1
  P  P7  1  0.30520693  0.90701324  0.23162610  1
  P  P8  1  0.70513208  0.09121247  0.76674062  1
  P  P9  1  0.79486792  0.59121247  0.73325938  1
  O  O10  1  0.08567138  0.62034769  0.69025750  1
  O  O11  1  0.17704698  0.84282639  0.41756416  1
  O  O12  1  0.18646554  0.84989523  0.04888494  1
  O  O13  1  0.25723467  0.05780173  0.23526544  1
  O  O14  1  0.24276533  0.55780173  0.26473456  1
  O  O15  1  0.31353446  0.34989523  0.45111506  1
  O  O16  1  0.32295302  0.34282639  0.08243584  1
  O  O17  1  0.41432862  0.12034769  0.80974250  1
  O  O18  1  0.59827043  0.87655476  0.24665332  1
  O  O19  1  0.72055755  0.64096306  0.93345612  1
  O  O20  1  0.64729707  0.66858216  0.56894922  1
  O  O21  1  0.74065679  0.44343595  0.72642551  1
  O  O22  1  0.75934321  0.94343595  0.77357449  1
  O  O23  1  0.85270293  0.16858216  0.93105078  1
  O  O24  1  0.77944245  0.14096306  0.56654388  1
  O  O25  1  0.90172957  0.37655476  0.25334668  1
