# generated using pymatgen
data_Li3VF6
_symmetry_space_group_name_H-M   'P 1'
_cell_length_a   5.32398866
_cell_length_b   8.66926960
_cell_length_c   5.16825010
_cell_angle_alpha   90.00000000
_cell_angle_beta   110.86978498
_cell_angle_gamma   90.00000000
_symmetry_Int_Tables_number   1
_chemical_formula_structural   Li3VF6
_chemical_formula_sum   'Li6 V2 F12'
_cell_volume   222.89097416
_cell_formula_units_Z   2
loop_
 _symmetry_equiv_pos_site_id
 _symmetry_equiv_pos_as_xyz
  1  'x, y, z'
loop_
 _atom_site_type_symbol
 _atom_site_label
 _atom_site_symmetry_multiplicity
 _atom_site_fract_x
 _atom_site_fract_y
 _atom_site_fract_z
 _atom_site_occupancy
  Li  Li0  1  0.01095523  0.16301362  0.83121665  1
  Li  Li1  1  0.10580845  0.33775624  0.34702926  1
  Li  Li2  1  0.45297510  0.66037215  0.45161036  1
  Li  Li3  1  0.54702490  0.16037215  0.04838964  1
  Li  Li4  1  0.98904477  0.66301362  0.66878335  1
  Li  Li5  1  0.89419155  0.83775624  0.15297074  1
  V  V6  1  0.48212951  0.99866036  0.50237960  1
  V  V7  1  0.51787049  0.49866036  0.99762040  1
  F  F8  1  0.22735626  0.82914751  0.50056256  1
  F  F9  1  0.27606949  0.50225424  0.59705757  1
  F  F10  1  0.27911707  0.16212900  0.60636632  1
  F  F11  1  0.26282741  0.64890602  0.04453560  1
  F  F12  1  0.26790601  0.02583194  0.10757368  1
  F  F13  1  0.29620589  0.33407292  0.07372204  1
  F  F14  1  0.72088293  0.66212900  0.89363368  1
  F  F15  1  0.72393051  0.00225424  0.90294243  1
  F  F16  1  0.77264374  0.32914751  0.99943744  1
  F  F17  1  0.70379411  0.83407292  0.42627796  1
  F  F18  1  0.73209399  0.52583194  0.39242632  1
  F  F19  1  0.73717259  0.14890602  0.45546440  1
