# generated using pymatgen
data_Li2Mn5Si5O16
_symmetry_space_group_name_H-M   'P 1'
_cell_length_a   7.06640963
_cell_length_b   10.49473806
_cell_length_c   5.13969525
_cell_angle_alpha   90.13202025
_cell_angle_beta   90.19210365
_cell_angle_gamma   89.16678778
_symmetry_Int_Tables_number   1
_chemical_formula_structural   Li2Mn5Si5O16
_chemical_formula_sum   'Li2 Mn5 Si5 O16'
_cell_volume   381.11699153
_cell_formula_units_Z   1
loop_
 _symmetry_equiv_pos_site_id
 _symmetry_equiv_pos_as_xyz
  1  'x, y, z'
loop_
 _atom_site_type_symbol
 _atom_site_label
 _atom_site_symmetry_multiplicity
 _atom_site_fract_x
 _atom_site_fract_y
 _atom_site_fract_z
 _atom_site_occupancy
  Li  Li0  1  0.49716010  0.66306791  0.35592290  1
  Li  Li1  1  0.00108029  0.85622683  0.82089289  1
  Mn  Mn2  1  0.98911456  0.14144996  0.18006413  1
  Mn  Mn3  1  0.48024164  0.15051899  0.18844057  1
  Mn  Mn4  1  0.50469849  0.35662994  0.69231212  1
  Mn  Mn5  1  0.50177101  0.84749420  0.83398388  1
  Mn  Mn6  1  0.00367952  0.34119812  0.67855654  1
  Si  Si7  1  0.00972563  0.66409408  0.30066719  1
  Si  Si8  1  0.23185144  0.41395314  0.17766669  1
  Si  Si9  1  0.25679445  0.89351402  0.34293048  1
  Si  Si10  1  0.77002317  0.59715617  0.79528345  1
  Si  Si11  1  0.74518522  0.08851938  0.68233246  1
  O  O12  1  0.05053034  0.33340924  0.27954592  1
  O  O13  1  0.06906415  0.80913812  0.21993278  1
  O  O14  1  0.24581432  0.40594809  0.86048825  1
  O  O15  1  0.23756494  0.04065321  0.23340811  1
  O  O16  1  0.24261463  0.88195521  0.65477717  1
  O  O17  1  0.19694125  0.56782711  0.26935645  1
  O  O18  1  0.42851603  0.35393374  0.29750612  1
  O  O19  1  0.44749076  0.82730419  0.22708678  1
  O  O20  1  0.56847568  0.65975962  0.72179017  1
  O  O21  1  0.55637813  0.16598925  0.79874095  1
  O  O22  1  0.83345980  0.62732108  0.10469894  1
  O  O23  1  0.73600551  0.10908744  0.36340262  1
  O  O24  1  0.76202902  0.44451859  0.75397940  1
  O  O25  1  0.75325487  0.94125927  0.77577892  1
  O  O26  1  0.94017444  0.65900981  0.60633730  1
  O  O27  1  0.94036163  0.15906329  0.78411585  1
