# generated using pymatgen
data_Li2Si2WO7
_symmetry_space_group_name_H-M   'P 1'
_cell_length_a   6.17162807
_cell_length_b   8.88065293
_cell_length_c   5.44063831
_cell_angle_alpha   90.64924780
_cell_angle_beta   95.19862434
_cell_angle_gamma   68.62344545
_symmetry_Int_Tables_number   1
_chemical_formula_structural   Li2Si2WO7
_chemical_formula_sum   'Li4 Si4 W2 O14'
_cell_volume   276.45905618
_cell_formula_units_Z   2
loop_
 _symmetry_equiv_pos_site_id
 _symmetry_equiv_pos_as_xyz
  1  'x, y, z'
loop_
 _atom_site_type_symbol
 _atom_site_label
 _atom_site_symmetry_multiplicity
 _atom_site_fract_x
 _atom_site_fract_y
 _atom_site_fract_z
 _atom_site_occupancy
  Li  Li0  1  0.08737199  0.85425653  0.70853074  1
  Li  Li1  1  0.34127565  0.46855840  0.74747485  1
  Li  Li2  1  0.65872435  0.53144160  0.25252515  1
  Li  Li3  1  0.91262801  0.14574347  0.29146926  1
  Si  Si4  1  0.06929545  0.65933084  0.30834794  1
  Si  Si5  1  0.66936023  0.13054476  0.79012985  1
  Si  Si6  1  0.33063977  0.86945524  0.20987015  1
  Si  Si7  1  0.93070455  0.34066916  0.69165206  1
  W  W8  1  0.30009701  0.27965813  0.23466685  1
  W  W9  1  0.69990299  0.72034187  0.76533315  1
  O  O10  1  0.97071142  0.35332702  0.39898791  1
  O  O11  1  0.13878793  0.34592345  0.89059488  1
  O  O12  1  0.25484424  0.06439274  0.21865164  1
  O  O13  1  0.09026955  0.84161585  0.28624744  1
  O  O14  1  0.31873126  0.51153432  0.25858975  1
  O  O15  1  0.46802542  0.22974992  0.57789332  1
  O  O16  1  0.62132254  0.20240216  0.06603077  1
  O  O17  1  0.37867746  0.79759784  0.93396923  1
  O  O18  1  0.53197458  0.77025008  0.42210668  1
  O  O19  1  0.68126874  0.48846568  0.74141025  1
  O  O20  1  0.90973045  0.15838415  0.71375256  1
  O  O21  1  0.74515576  0.93560726  0.78134836  1
  O  O22  1  0.86121207  0.65407655  0.10940512  1
  O  O23  1  0.02928858  0.64667298  0.60101209  1
