# generated using pymatgen
data_Li2VF6
_symmetry_space_group_name_H-M   'P 1'
_cell_length_a   5.22915243
_cell_length_b   8.74252181
_cell_length_c   5.23077662
_cell_angle_alpha   90.00000000
_cell_angle_beta   110.99678681
_cell_angle_gamma   90.00000000
_symmetry_Int_Tables_number   1
_chemical_formula_structural   Li2VF6
_chemical_formula_sum   'Li4 V2 F12'
_cell_volume   223.25196283
_cell_formula_units_Z   2
loop_
 _symmetry_equiv_pos_site_id
 _symmetry_equiv_pos_as_xyz
  1  'x, y, z'
loop_
 _atom_site_type_symbol
 _atom_site_label
 _atom_site_symmetry_multiplicity
 _atom_site_fract_x
 _atom_site_fract_y
 _atom_site_fract_z
 _atom_site_occupancy
  Li  Li0  1  0.05097060  0.33085591  0.37111475  1
  Li  Li1  1  0.47992022  0.66055952  0.49015400  1
  Li  Li2  1  0.52007978  0.16055952  0.00984600  1
  Li  Li3  1  0.94902940  0.83085591  0.12888525  1
  V  V4  1  0.50730671  0.00250579  0.49444383  1
  V  V5  1  0.49269329  0.50250579  0.00555617  1
  F  F6  1  0.25835678  0.84313213  0.50170803  1
  F  F7  1  0.29267109  0.48977018  0.62039520  1
  F  F8  1  0.31144616  0.15626816  0.59481740  1
  F  F9  1  0.25863428  0.64554152  0.08213386  1
  F  F10  1  0.28332512  0.01961404  0.12563470  1
  F  F11  1  0.29032885  0.34632175  0.08116268  1
  F  F12  1  0.68855384  0.65626816  0.90518260  1
  F  F13  1  0.70732891  0.98977018  0.87960480  1
  F  F14  1  0.74164322  0.34313213  0.99829197  1
  F  F15  1  0.70967115  0.84632175  0.41883732  1
  F  F16  1  0.71667488  0.51961404  0.37436530  1
  F  F17  1  0.74136572  0.14554152  0.41786614  1
