# generated using pymatgen
data_Ba10V10O29
_symmetry_space_group_name_H-M   'P 1'
_cell_length_a   11.62592769
_cell_length_b   10.00280840
_cell_length_c   13.23508231
_cell_angle_alpha   90.51558652
_cell_angle_beta   63.63839713
_cell_angle_gamma   90.27761543
_symmetry_Int_Tables_number   1
_chemical_formula_structural   Ba10V10O29
_chemical_formula_sum   'Ba20 V20 O58'
_cell_volume   1379.02159134
_cell_formula_units_Z   2
loop_
 _symmetry_equiv_pos_site_id
 _symmetry_equiv_pos_as_xyz
  1  'x, y, z'
loop_
 _atom_site_type_symbol
 _atom_site_label
 _atom_site_symmetry_multiplicity
 _atom_site_fract_x
 _atom_site_fract_y
 _atom_site_fract_z
 _atom_site_occupancy
  Ba  Ba0  1  0.85806188  0.16717904  0.78575862  1
  Ba  Ba1  1  0.95494441  0.83376218  0.59093703  1
  Ba  Ba2  1  0.60641267  0.66632853  0.78432954  1
  Ba  Ba3  1  0.70281257  0.33583236  0.59121825  1
  Ba  Ba4  1  0.89164469  0.33357394  0.21373949  1
  Ba  Ba5  1  0.79302799  0.66466786  0.40999916  1
  Ba  Ba6  1  0.63790873  0.83026530  0.21507532  1
  Ba  Ba7  1  0.35120311  0.16822167  0.78565533  1
  Ba  Ba8  1  0.45182298  0.83267123  0.59070451  1
  Ba  Ba9  1  0.54245614  0.16730394  0.40957934  1
  Ba  Ba10  1  0.74909356  0.49655253  0.00097802  1
  Ba  Ba11  1  0.11374602  0.66572774  0.78468158  1
  Ba  Ba12  1  0.39597860  0.33473832  0.21677286  1
  Ba  Ba13  1  0.20728482  0.33356390  0.59015709  1
  Ba  Ba14  1  0.30039838  0.66645609  0.40729787  1
  Ba  Ba15  1  0.49967697  0.99650611  0.00060937  1
  Ba  Ba16  1  0.14714772  0.83427477  0.21367341  1
  Ba  Ba17  1  0.04756661  0.16555468  0.41031078  1
  Ba  Ba18  1  0.24944039  0.50371900  0.99888254  1
  Ba  Ba19  1  0.00176996  0.00404805  -0.00001368  1
  V  V20  1  0.78854571  0.84326805  0.89245977  1
  V  V21  1  0.89985377  0.50443801  0.71805225  1
  V  V22  1  0.56950996  0.34390316  0.89506245  1
  V  V23  1  0.96119355  0.65718163  0.10882606  1
  V  V24  1  0.85036690  0.99715534  0.28382276  1
  V  V25  1  0.63198086  0.00642110  0.71665761  1
  V  V26  1  0.74589279  0.99864855  0.50003977  1
  V  V27  1  0.29492927  0.83124997  0.90565822  1
  V  V28  1  0.70764840  0.16620041  0.09058301  1
  V  V29  1  0.60951505  0.49926140  0.27814413  1
  V  V30  1  0.50083331  0.49962437  0.50033824  1
  V  V31  1  0.39130357  0.49859691  0.72259994  1
  V  V32  1  0.04955326  0.33172688  0.90576083  1
  V  V33  1  0.44995215  0.66970568  0.09642465  1
  V  V34  1  0.36751439  0.00499670  0.27772878  1
  V  V35  1  0.24831447  0.00133957  0.49902444  1
  V  V36  1  0.13826234  0.99761757  0.72167273  1
  V  V37  1  0.18095589  0.15692106  0.10923212  1
  V  V38  1  0.00340237  0.49908561  0.50129094  1
  V  V39  1  0.11472685  0.49851037  0.28486272  1
  O  O40  1  0.97218292  0.41980686  0.79958523  1
  O  O41  1  0.96343957  0.90585058  0.81934831  1
  O  O42  1  0.95333162  0.34897776  0.59828455  1
  O  O43  1  0.85137821  0.66847077  0.80762474  1
  O  O44  1  0.83861377  0.57728230  0.60744245  1
  O  O45  1  0.94790487  0.42082483  0.38956174  1
  O  O46  1  0.72636565  0.91734026  0.79799942  1
  O  O47  1  0.72607336  0.41832491  0.79817660  1
  O  O48  1  0.91232947  0.92139652  0.39018733  1
  O  O49  1  0.80141378  0.07791965  0.61061070  1
  O  O50  1  0.89993709  0.82384978  0.18539407  1
  O  O51  1  0.58677917  0.17417515  0.81297535  1
  O  O52  1  0.79757666  0.14954247  0.40056961  1
  O  O53  1  0.69695257  0.85032740  0.59860767  1
  O  O54  1  0.68570353  0.92014744  0.39530781  1
  O  O55  1  0.57954949  0.07923204  0.60508856  1
  O  O56  1  0.77714762  0.58824887  0.18842015  1
  O  O57  1  0.46443257  0.41036528  0.81389985  1
  O  O58  1  0.87486673  0.25198378  0.99905865  1
  O  O59  1  0.77976686  0.07816999  0.20163637  1
  O  O60  1  0.47917654  0.92062860  0.79975607  1
  O  O61  1  0.66401836  0.42540909  0.39750195  1
  O  O62  1  0.56287462  0.57351202  0.60633183  1
  O  O63  1  0.55517044  0.64774159  0.38956851  1
  O  O64  1  0.44579359  0.35107922  0.61014307  1
  O  O65  1  0.65277280  0.33670689  0.19793697  1
  O  O66  1  0.75207930  0.99495394  0.00294834  1
  O  O67  1  0.34990660  0.65897265  0.80054908  1
  O  O68  1  0.33975173  0.57548734  0.60067316  1
  O  O69  1  0.44055021  0.42377833  0.39408101  1
  O  O70  1  0.52431611  0.08434065  0.19669408  1
  O  O71  1  0.22337627  0.91531399  0.80604644  1
  O  O72  1  0.64412053  0.75516149  0.99365806  1
  O  O73  1  0.61637471  0.25089277  0.99681322  1
  O  O74  1  0.52783649  0.58457661  0.19198118  1
  O  O75  1  0.21916238  0.41537814  0.80701003  1
  O  O76  1  0.41621176  0.92384794  0.39215772  1
  O  O77  1  0.30903448  0.07464738  0.60117637  1
  O  O78  1  0.40230136  0.83329576  0.19344624  1
  O  O79  1  0.49658803  0.48607050  0.99647824  1
  O  O80  1  0.30373277  0.15312976  0.39414657  1
  O  O81  1  0.19225476  0.85150518  0.61093299  1
  O  O82  1  0.09822654  0.15697313  0.80131868  1
  O  O83  1  0.19111819  0.92719627  0.39618869  1
  O  O84  1  0.07958438  0.07141805  0.60796481  1
  O  O85  1  0.26963391  0.57824500  0.19973827  1
  O  O86  1  0.37720690  0.74952425  0.99710282  1
  O  O87  1  0.27891157  0.08561730  0.19237838  1
  O  O88  1  0.06562198  0.57870461  0.60399156  1
  O  O89  1  0.16901792  0.42162684  0.39485261  1
  O  O90  1  0.05278351  0.65032154  0.39943827  1
  O  O91  1  0.16638066  0.32445786  0.18403952  1
  O  O92  1  0.25486199  0.02354458  0.00292068  1
  O  O93  1  0.02368938  0.08022625  0.20067559  1
  O  O94  1  0.12251530  0.75243016  0.00232002  1
  O  O95  1  0.12400380  0.25091024  0.00371661  1
  O  O96  1  0.02524535  0.58075002  0.20069651  1
  O  O97  1  0.99199821  0.52258784  0.00425883  1
