# generated using pymatgen
data_Te2Mo(WS2)2
_symmetry_space_group_name_H-M   'P 1'
_cell_length_a   3.30294814
_cell_length_b   3.30287049
_cell_length_c   30.58254752
_cell_angle_alpha   90.00016073
_cell_angle_beta   90.00000000
_cell_angle_gamma   120.00077774
_symmetry_Int_Tables_number   1
_chemical_formula_structural   Te2Mo(WS2)2
_chemical_formula_sum   'Te2 Mo1 W2 S4'
_cell_volume   288.93103045
_cell_formula_units_Z   1
loop_
 _symmetry_equiv_pos_site_id
 _symmetry_equiv_pos_as_xyz
  1  'x, y, z'
loop_
 _atom_site_type_symbol
 _atom_site_label
 _atom_site_symmetry_multiplicity
 _atom_site_fract_x
 _atom_site_fract_y
 _atom_site_fract_z
 _atom_site_occupancy
  Te  Te0  1  0.33335756  0.66671611  0.41000341  1
  Te  Te1  1  0.33334938  0.66669975  0.28392183  1
  Mo  Mo2  1  0.33329542  0.66659084  0.11561501  1
  W  W3  1  0.33330957  0.66661914  0.57836697  1
  W  W4  1  0.66668923  0.33337846  0.34696317  1
  S  S5  1  0.66665476  0.33330852  0.06559605  1
  S  S6  1  0.66664448  0.33328796  0.52810073  1
  S  S7  1  0.66665598  0.33331096  0.16567094  1
  S  S8  1  0.66664463  0.33328826  0.62860289  1
