# generated using pymatgen
data_Li3TiCr3O8
_symmetry_space_group_name_H-M   'P 1'
_cell_length_a   5.94290735
_cell_length_b   5.98617865
_cell_length_c   5.98555536
_cell_angle_alpha   59.14104379
_cell_angle_beta   120.34494943
_cell_angle_gamma   120.35007066
_symmetry_Int_Tables_number   1
_chemical_formula_structural   Li3TiCr3O8
_chemical_formula_sum   'Li3 Ti1 Cr3 O8'
_cell_volume   148.78788533
_cell_formula_units_Z   1
loop_
 _symmetry_equiv_pos_site_id
 _symmetry_equiv_pos_as_xyz
  1  'x, y, z'
loop_
 _atom_site_type_symbol
 _atom_site_label
 _atom_site_symmetry_multiplicity
 _atom_site_fract_x
 _atom_site_fract_y
 _atom_site_fract_z
 _atom_site_occupancy
  Li  Li0  1  0.00000040  0.49997971  0.00002171  1
  Li  Li1  1  0.99999380  0.00000759  0.49998578  1
  Li  Li2  1  0.49997184  0.49998730  0.49998816  1
  Ti  Ti3  1  0.00004023  -0.00000923  -0.00000040  1
  Cr  Cr4  1  0.50002941  0.50006482  -0.00005055  1
  Cr  Cr5  1  0.49992241  0.00001369  0.50001676  1
  Cr  Cr6  1  0.00009208  0.50007590  0.49987287  1
  O  O7  1  0.74509174  0.26570510  0.26569331  1
  O  O8  1  0.25038545  0.23783262  0.23786827  1
  O  O9  1  0.76514990  0.74389154  0.23774817  1
  O  O10  1  0.76512378  0.23760754  0.74398929  1
  O  O11  1  0.23480417  0.76228698  0.25606191  1
  O  O12  1  0.23484462  0.25609114  0.76230559  1
  O  O13  1  0.74962374  0.76217330  0.76210648  1
  O  O14  1  0.25492843  0.73429201  0.73439165  1
