# generated using pymatgen
data_Gd2AsO5
_symmetry_space_group_name_H-M   'P 1'
_cell_length_a   8.49649327
_cell_length_b   8.49649327
_cell_length_c   5.84241649
_cell_angle_alpha   90.00000000
_cell_angle_beta   90.00000000
_cell_angle_gamma   90.00000000
_symmetry_Int_Tables_number   1
_chemical_formula_structural   Gd2AsO5
_chemical_formula_sum   'Gd8 As4 O20'
_cell_volume   421.76637104
_cell_formula_units_Z   4
loop_
 _symmetry_equiv_pos_site_id
 _symmetry_equiv_pos_as_xyz
  1  'x, y, z'
loop_
 _atom_site_type_symbol
 _atom_site_label
 _atom_site_symmetry_multiplicity
 _atom_site_fract_x
 _atom_site_fract_y
 _atom_site_fract_z
 _atom_site_occupancy
  Gd  Gd0  1  0.09861665  0.60802635  0.24878723  1
  Gd  Gd1  1  0.10802635  0.90138335  0.75121277  1
  Gd  Gd2  1  0.39197365  0.59861665  0.75121277  1
  Gd  Gd3  1  0.40138335  0.89197365  0.24878723  1
  Gd  Gd4  1  0.59861665  0.10802635  0.75121277  1
  Gd  Gd5  1  0.60802635  0.40138335  0.24878723  1
  Gd  Gd6  1  0.89197365  0.09861665  0.24878723  1
  Gd  Gd7  1  0.90138335  0.39197365  0.75121277  1
  As  As8  1  0.25000000  0.25000000  0.54410758  1
  As  As9  1  0.25000000  0.25000000  0.13969983  1
  As  As10  1  0.75000000  0.75000000  0.45589242  1
  As  As11  1  0.75000000  0.75000000  0.86030017  1
  O  O12  1  0.05578384  0.16356222  0.60577665  1
  O  O13  1  0.05541804  0.33868293  0.09905764  1
  O  O14  1  0.16131707  0.05541804  0.09905764  1
  O  O15  1  0.16356222  0.44421616  0.60577665  1
  O  O16  1  0.25000000  0.75000000  0.50000000  1
  O  O17  1  0.25000000  0.75000000  0.00000000  1
  O  O18  1  0.33643778  0.05578384  0.60577665  1
  O  O19  1  0.33868293  0.44458196  0.09905764  1
  O  O20  1  0.44458196  0.16131707  0.09905764  1
  O  O21  1  0.44421616  0.33643778  0.60577665  1
  O  O22  1  0.55578384  0.66356222  0.39422335  1
  O  O23  1  0.55541804  0.83868293  0.90094236  1
  O  O24  1  0.66131707  0.55541804  0.90094236  1
  O  O25  1  0.66356222  0.94421616  0.39422335  1
  O  O26  1  0.75000000  0.25000000  0.50000000  1
  O  O27  1  0.75000000  0.25000000  0.00000000  1
  O  O28  1  0.83643778  0.55578384  0.39422335  1
  O  O29  1  0.83868293  0.94458196  0.90094236  1
  O  O30  1  0.94458196  0.66131707  0.90094236  1
  O  O31  1  0.94421616  0.83643778  0.39422335  1
