# generated using pymatgen
data_Li4Ti2Mn3Ni3O16
_symmetry_space_group_name_H-M   'P 1'
_cell_length_a   5.87065639
_cell_length_b   5.76947956
_cell_length_c   9.46772318
_cell_angle_alpha   89.99260037
_cell_angle_beta   91.84551298
_cell_angle_gamma   119.43798337
_symmetry_Int_Tables_number   1
_chemical_formula_structural   Li4Ti2Mn3Ni3O16
_chemical_formula_sum   'Li4 Ti2 Mn3 Ni3 O16'
_cell_volume   279.08421545
_cell_formula_units_Z   1
loop_
 _symmetry_equiv_pos_site_id
 _symmetry_equiv_pos_as_xyz
  1  'x, y, z'
loop_
 _atom_site_type_symbol
 _atom_site_label
 _atom_site_symmetry_multiplicity
 _atom_site_fract_x
 _atom_site_fract_y
 _atom_site_fract_z
 _atom_site_occupancy
  Li  Li0  1  0.32102100  0.66051362  0.89468713  1
  Li  Li1  1  0.99000135  0.99504289  0.99263249  1
  Li  Li2  1  0.00489101  0.00244818  0.49627404  1
  Li  Li3  1  0.66468070  0.33233500  0.39458624  1
  Ti  Ti4  1  0.34396169  0.67205070  0.49703875  1
  Ti  Ti5  1  0.66335716  0.33168439  0.99428837  1
  Mn  Mn6  1  0.17456311  0.83186946  0.21571622  1
  Mn  Mn7  1  0.17459051  0.34271240  0.21572516  1
  Mn  Mn8  1  0.34532977  0.17267791  0.71777940  1
  Ni  Ni9  1  0.65985303  0.82995769  0.21304872  1
  Ni  Ni10  1  0.83002780  0.66140351  0.71415022  1
  Ni  Ni11  1  0.83004462  0.16869748  0.71414794  1
  O  O12  1  0.18735903  0.84443286  0.59526739  1
  O  O13  1  0.03841395  0.51914717  0.33279525  1
  O  O14  1  0.31338325  0.65677840  0.10636674  1
  O  O15  1  0.01521918  0.00753975  0.30759694  1
  O  O16  1  0.01096129  0.00563664  0.80418219  1
  O  O17  1  0.18756341  0.34300309  0.59522711  1
  O  O18  1  0.46747666  0.96106144  0.34235197  1
  O  O19  1  0.46756154  0.50653352  0.34229526  1
  O  O20  1  0.32644259  0.16325044  0.10265124  1
  O  O21  1  0.67989226  0.84012063  0.59536481  1
  O  O22  1  0.50234454  0.46886996  0.84493462  1
  O  O23  1  0.50225318  0.03340109  0.84492514  1
  O  O24  1  0.65948859  0.32961615  0.61327674  1
  O  O25  1  0.84450351  0.66527401  0.09164111  1
  O  O26  1  0.95038007  0.47512217  0.83720787  1
  O  O27  1  0.84443719  0.17912044  0.09167891  1
