# generated using pymatgen
data_Te4Mo2WS2
_symmetry_space_group_name_H-M   'P 1'
_cell_length_a   3.42322554
_cell_length_b   3.42323173
_cell_length_c   31.71924433
_cell_angle_alpha   89.99976115
_cell_angle_beta   90.00000000
_cell_angle_gamma   119.99994017
_symmetry_Int_Tables_number   1
_chemical_formula_structural   Te4Mo2WS2
_chemical_formula_sum   'Te4 Mo2 W1 S2'
_cell_volume   321.90338136
_cell_formula_units_Z   1
loop_
 _symmetry_equiv_pos_site_id
 _symmetry_equiv_pos_as_xyz
  1  'x, y, z'
loop_
 _atom_site_type_symbol
 _atom_site_label
 _atom_site_symmetry_multiplicity
 _atom_site_fract_x
 _atom_site_fract_y
 _atom_site_fract_z
 _atom_site_occupancy
  Te  Te0  1  0.33335740  0.66671581  0.40595044  1
  Te  Te1  1  0.66664893  0.33329687  0.51964571  1
  Te  Te2  1  0.66664257  0.33328413  0.63711397  1
  Te  Te3  1  0.33335166  0.66670432  0.28782107  1
  Mo  Mo4  1  0.33331060  0.66662121  0.11567856  1
  Mo  Mo5  1  0.33331235  0.66662471  0.57840986  1
  W  W6  1  0.66669074  0.33338149  0.34689065  1
  S  S7  1  0.66664461  0.33328823  0.06842037  1
  S  S8  1  0.66664212  0.33328324  0.16291038  1
