# generated using pymatgen
data_Li12MnNi3P4(CO7)4
_symmetry_space_group_name_H-M   'P 1'
_cell_length_a   8.37387714
_cell_length_b   9.98027934
_cell_length_c   6.46179125
_cell_angle_alpha   90.00000000
_cell_angle_beta   90.00000000
_cell_angle_gamma   85.24840660
_symmetry_Int_Tables_number   1
_chemical_formula_structural   Li12MnNi3P4(CO7)4
_chemical_formula_sum   'Li12 Mn1 Ni3 P4 C4 O28'
_cell_volume   538.17937614
_cell_formula_units_Z   1
loop_
 _symmetry_equiv_pos_site_id
 _symmetry_equiv_pos_as_xyz
  1  'x, y, z'
loop_
 _atom_site_type_symbol
 _atom_site_label
 _atom_site_symmetry_multiplicity
 _atom_site_fract_x
 _atom_site_fract_y
 _atom_site_fract_z
 _atom_site_occupancy
  Li  Li0  1  0.09916586  0.38254170  0.25000000  1
  Li  Li1  1  0.09240347  0.88139396  0.25000000  1
  Li  Li2  1  0.27670394  0.12368222  0.02130198  1
  Li  Li3  1  0.27670394  0.12368222  0.47869802  1
  Li  Li4  1  0.27489025  0.62277058  0.02125511  1
  Li  Li5  1  0.27489025  0.62277058  0.47874489  1
  Li  Li6  1  0.72307062  0.37433026  0.52168480  1
  Li  Li7  1  0.72307062  0.37433026  0.97831520  1
  Li  Li8  1  0.72446749  0.87886236  0.52231860  1
  Li  Li9  1  0.72446749  0.87886236  0.97768140  1
  Li  Li10  1  0.90289202  0.11744732  0.75000000  1
  Li  Li11  1  0.90243026  0.61656659  0.75000000  1
  Mn  Mn12  1  0.65928635  0.61124326  0.25000000  1
  Ni  Ni13  1  0.33257018  0.39557746  0.75000000  1
  Ni  Ni14  1  0.33192407  0.89716532  0.75000000  1
  Ni  Ni15  1  0.66690307  0.10287619  0.25000000  1
  P  P16  1  0.41477849  0.35682211  0.25000000  1
  P  P17  1  0.40986906  0.86456414  0.25000000  1
  P  P18  1  0.58451474  0.13898806  0.75000000  1
  P  P19  1  0.58512867  0.63819076  0.75000000  1
  C  C20  1  0.03981295  0.35139827  0.75000000  1
  C  C21  1  0.03948301  0.85164121  0.75000000  1
  C  C22  1  0.95985203  0.14898949  0.25000000  1
  C  C23  1  0.96901006  0.64900019  0.25000000  1
  O  O24  1  0.07653014  0.47501591  0.75000000  1
  O  O25  1  0.10699776  0.17963010  0.25000000  1
  O  O26  1  0.07553989  0.97531974  0.75000000  1
  O  O27  1  0.15681445  0.25700287  0.75000000  1
  O  O28  1  0.11703882  0.67864148  0.25000000  1
  O  O29  1  0.15706105  0.75759083  0.75000000  1
  O  O30  1  0.31040195  0.40940494  0.06328341  1
  O  O31  1  0.31040195  0.40940494  0.43671659  1
  O  O32  1  0.30750643  0.91730068  0.06251493  1
  O  O33  1  0.30750643  0.91730068  0.43748507  1
  O  O34  1  0.41776879  0.08427046  0.75000000  1
  O  O35  1  0.43577052  0.19962728  0.25000000  1
  O  O36  1  0.41834375  0.58321174  0.75000000  1
  O  O37  1  0.42628771  0.70796575  0.25000000  1
  O  O38  1  0.56118850  0.29580930  0.75000000  1
  O  O39  1  0.58254296  0.40939791  0.25000000  1
  O  O40  1  0.56107611  0.79511153  0.75000000  1
  O  O41  1  0.58142282  0.91220428  0.25000000  1
  O  O42  1  0.69019083  0.08806840  0.93669815  1
  O  O43  1  0.69019083  0.08806840  0.56330185  1
  O  O44  1  0.69153809  0.58693808  0.56545354  1
  O  O45  1  0.69153809  0.58693808  0.93454646  1
  O  O46  1  0.84265072  0.24317639  0.25000000  1
  O  O47  1  0.89249527  0.32046524  0.75000000  1
  O  O48  1  0.85565294  0.74661410  0.25000000  1
  O  O49  1  0.92263023  0.02545840  0.25000000  1
  O  O50  1  0.89228499  0.82035984  0.75000000  1
  O  O51  1  0.93234109  0.52600575  0.25000000  1
