# generated using pymatgen
data_LiV2F9
_symmetry_space_group_name_H-M   'P 1'
_cell_length_a   5.09173700
_cell_length_b   5.12745292
_cell_length_c   14.43927461
_cell_angle_alpha   90.34181258
_cell_angle_beta   90.24724168
_cell_angle_gamma   59.86065670
_symmetry_Int_Tables_number   1
_chemical_formula_structural   LiV2F9
_chemical_formula_sum   'Li2 V4 F18'
_cell_volume   326.00473252
_cell_formula_units_Z   2
loop_
 _symmetry_equiv_pos_site_id
 _symmetry_equiv_pos_as_xyz
  1  'x, y, z'
loop_
 _atom_site_type_symbol
 _atom_site_label
 _atom_site_symmetry_multiplicity
 _atom_site_fract_x
 _atom_site_fract_y
 _atom_site_fract_z
 _atom_site_occupancy
  Li  Li0  1  0.66553569  0.66446771  0.50243485  1
  Li  Li1  1  0.66830048  0.67033452  0.00250750  1
  V  V2  1  0.00278851  0.99910672  0.65235202  1
  V  V3  1  0.99454870  0.00538957  0.85084492  1
  V  V4  1  0.99669166  0.00025378  0.35083552  1
  V  V5  1  0.00354301  0.99635624  0.15237852  1
  F  F6  1  0.96289987  0.71522192  0.41271478  1
  F  F7  1  0.70832874  0.97628695  0.91701317  1
  F  F8  1  0.96242127  0.32352199  0.91456309  1
  F  F9  1  0.71139925  0.31636159  0.41814303  1
  F  F10  1  0.71904172  0.26656443  0.74979706  1
  F  F11  1  0.31841728  0.98028050  0.41272936  1
  F  F12  1  0.71050199  0.32128587  0.09053117  1
  F  F13  1  0.31797877  0.70541589  0.91209897  1
  F  F14  1  0.71962737  0.01338031  0.24965788  1
  F  F15  1  0.71129285  0.96381030  0.58980836  1
  F  F16  1  0.26702940  0.72167828  0.25317485  1
  F  F17  1  0.31718573  0.71180549  0.58476556  1
  F  F18  1  0.98308975  0.70168887  0.08935710  1
  F  F19  1  0.01127839  0.72485922  0.75129780  1
  F  F20  1  0.31896630  0.96740180  0.08587811  1
  F  F21  1  0.26659177  0.01132847  0.75351277  1
  F  F22  1  0.98391605  0.31337135  0.59125501  1
  F  F23  1  0.01196845  0.26331724  0.25172560  1
