# generated using pymatgen
data_LiFeP2O7
_symmetry_space_group_name_H-M   'P 1'
_cell_length_a   8.14329478
_cell_length_b   5.16133186
_cell_length_c   13.30037969
_cell_angle_alpha   90.00000000
_cell_angle_beta   74.90388760
_cell_angle_gamma   90.00000000
_symmetry_Int_Tables_number   1
_chemical_formula_structural   LiFeP2O7
_chemical_formula_sum   'Li4 Fe4 P8 O28'
_cell_volume   539.72669100
_cell_formula_units_Z   4
loop_
 _symmetry_equiv_pos_site_id
 _symmetry_equiv_pos_as_xyz
  1  'x, y, z'
loop_
 _atom_site_type_symbol
 _atom_site_label
 _atom_site_symmetry_multiplicity
 _atom_site_fract_x
 _atom_site_fract_y
 _atom_site_fract_z
 _atom_site_occupancy
  Li  Li0  1  0.25421908  0.74280592  0.17458996  1
  Li  Li1  1  0.13924088  0.32702944  0.83595884  1
  Li  Li2  1  0.63924088  0.17297056  0.33595884  1
  Li  Li3  1  0.75421908  0.75719408  0.67458996  1
  Fe  Fe4  1  0.09537612  0.23519451  0.63338950  1
  Fe  Fe5  1  0.59537612  0.26480549  0.13338950  1
  Fe  Fe6  1  0.41370959  0.74343822  0.85545296  1
  Fe  Fe7  1  0.91370959  0.75656178  0.35545296  1
  P  P8  1  0.02113421  0.79261858  0.79974183  1
  P  P9  1  0.28167616  0.23561440  0.01895847  1
  P  P10  1  0.21644190  0.72910991  0.48001041  1
  P  P11  1  0.52113421  0.70738142  0.29974183  1
  P  P12  1  0.48155281  0.26515430  0.69624414  1
  P  P13  1  0.78167616  0.26438560  0.51895847  1
  P  P14  1  0.71644190  0.77089009  0.98001041  1
  P  P15  1  0.98155281  0.23484570  0.19624414  1
  O  O16  1  0.08058222  0.27690999  0.07507281  1
  O  O17  1  0.04709144  0.97746146  0.22861519  1
  O  O18  1  0.02409066  0.46876490  0.25644009  1
  O  O19  1  0.11668469  0.80697477  0.40305144  1
  O  O20  1  0.31046758  0.94510949  0.99647649  1
  O  O21  1  0.18921436  0.44484931  0.51300188  1
  O  O22  1  0.37534549  0.34870315  0.09535433  1
  O  O23  1  0.19591401  0.90997060  0.57287044  1
  O  O24  1  0.20239247  0.75005365  0.80818741  1
  O  O25  1  0.46585250  0.90350589  0.22869899  1
  O  O26  1  0.29376894  0.28234968  0.69824798  1
  O  O27  1  0.48724214  0.42306864  0.27635824  1
  O  O28  1  0.41492887  0.75898083  0.41925086  1
  O  O29  1  0.30344087  0.39383370  0.91900274  1
  O  O30  1  0.69591401  0.59002940  0.07287044  1
  O  O31  1  0.58058222  0.22309001  0.57507281  1
  O  O32  1  0.54709144  0.52253854  0.72861519  1
  O  O33  1  0.70239247  0.74994635  0.30818741  1
  O  O34  1  0.52409066  0.03123510  0.75644009  1
  O  O35  1  0.79376894  0.21765032  0.19824798  1
  O  O36  1  0.80344087  0.10616630  0.41900274  1
  O  O37  1  0.61668469  0.69302523  0.90305144  1
  O  O38  1  0.81046758  0.55489051  0.49647649  1
  O  O39  1  0.68921436  0.05515069  0.01300288  1
  O  O40  1  0.87534549  0.15129685  0.59535433  1
  O  O41  1  0.96585250  0.59649411  0.72869899  1
  O  O42  1  0.98724214  0.07693136  0.77635824  1
  O  O43  1  0.91492887  0.74101917  0.91925086  1
