# generated using pymatgen
data_Li6CrFe3(PO4)6
_symmetry_space_group_name_H-M   'P 1'
_cell_length_a   8.57212313
_cell_length_b   8.62095065
_cell_length_c   8.62247944
_cell_angle_alpha   61.36711314
_cell_angle_beta   61.38789730
_cell_angle_gamma   61.40404399
_symmetry_Int_Tables_number   1
_chemical_formula_structural   Li6CrFe3(PO4)6
_chemical_formula_sum   'Li6 Cr1 Fe3 P6 O24'
_cell_volume   464.60113835
_cell_formula_units_Z   1
loop_
 _symmetry_equiv_pos_site_id
 _symmetry_equiv_pos_as_xyz
  1  'x, y, z'
loop_
 _atom_site_type_symbol
 _atom_site_label
 _atom_site_symmetry_multiplicity
 _atom_site_fract_x
 _atom_site_fract_y
 _atom_site_fract_z
 _atom_site_occupancy
  Li  Li0  1  0.02517239  0.00685442  0.99741280  1
  Li  Li1  1  0.75025030  0.15325032  0.34704235  1
  Li  Li2  1  0.47573448  0.50311683  0.49378648  1
  Li  Li3  1  0.24988429  0.84308777  0.65252541  1
  Li  Li4  1  0.65485905  0.25157355  0.84112348  1
  Li  Li5  1  0.84072716  0.65493286  0.24948337  1
  Cr  Cr6  1  0.85610715  0.85449340  0.85446490  1
  Fe  Fe7  1  0.14627624  0.14456835  0.13711953  1
  Fe  Fe8  1  0.35300440  0.36297496  0.35454581  1
  Fe  Fe9  1  0.64699683  0.64784982  0.64874041  1
  P  P10  1  0.04848473  0.75099683  0.45268379  1
  P  P11  1  0.45352170  0.04937838  0.74807499  1
  P  P12  1  0.74961288  0.45564839  0.04633954  1
  P  P13  1  0.24934634  0.54158261  0.95762599  1
  P  P14  1  0.54399737  0.96175390  0.25014070  1
  P  P15  1  0.95540204  0.24837269  0.53758411  1
  O  O16  1  0.12686365  0.29129042  0.49608631  1
  O  O17  1  0.30103466  0.50989918  0.11881335  1
  O  O18  1  0.04480139  0.92293462  0.27110695  1
  O  O19  1  0.52988521  0.12038637  0.29638524  1
  O  O20  1  0.23888379  0.59309748  0.42987847  1
  O  O21  1  0.01910003  0.80324615  0.61530749  1
  O  O22  1  0.26391630  0.06769630  0.90786257  1
  O  O23  1  0.45229729  0.23174451  0.57716087  1
  O  O24  1  0.59265705  0.43115323  0.24006422  1
  O  O25  1  0.19677864  0.38061009  0.99050268  1
  O  O26  1  0.08759966  0.73488326  0.93500698  1
  O  O27  1  0.37241857  0.00363195  0.20730285  1
  O  O28  1  0.61551928  0.01609101  0.80476741  1
  O  O29  1  0.90767995  0.26249589  0.06727470  1
  O  O30  1  0.80497258  0.61553149  0.01609415  1
  O  O31  1  0.41028408  0.56676657  0.76397072  1
  O  O32  1  0.56599763  0.76837359  0.41070426  1
  O  O33  1  0.73365451  0.93406802  0.08564328  1
  O  O34  1  0.96989762  0.20147605  0.37939494  1
  O  O35  1  0.76525131  0.41151432  0.56842727  1
  O  O36  1  0.48640150  0.88636272  0.69322434  1
  O  O37  1  0.93657139  0.08654425  0.73036049  1
  O  O38  1  0.69117341  0.48844165  0.88710413  1
  O  O39  1  0.88698016  0.69032682  0.48986370  1
