# generated using pymatgen
data_Li4Mn2Cr3Sb3O16
_symmetry_space_group_name_H-M   'P 1'
_cell_length_a   6.11290004
_cell_length_b   6.14736710
_cell_length_c   10.01914773
_cell_angle_alpha   89.99970363
_cell_angle_beta   89.90900282
_cell_angle_gamma   120.18657754
_symmetry_Int_Tables_number   1
_chemical_formula_structural   Li4Mn2Cr3Sb3O16
_chemical_formula_sum   'Li4 Mn2 Cr3 Sb3 O16'
_cell_volume   325.44495027
_cell_formula_units_Z   1
loop_
 _symmetry_equiv_pos_site_id
 _symmetry_equiv_pos_as_xyz
  1  'x, y, z'
loop_
 _atom_site_type_symbol
 _atom_site_label
 _atom_site_symmetry_multiplicity
 _atom_site_fract_x
 _atom_site_fract_y
 _atom_site_fract_z
 _atom_site_occupancy
  Li  Li0  1  0.34314525  0.67159217  0.90079785  1
  Li  Li1  1  0.01597864  0.00798857  0.00581217  1
  Li  Li2  1  0.01859830  0.00932567  0.49065334  1
  Li  Li3  1  0.67383817  0.33692174  0.36898311  1
  Mn  Mn4  1  0.30809157  0.65405585  0.47964884  1
  Mn  Mn5  1  0.65225339  0.32612879  0.01669349  1
  Cr  Cr6  1  0.16732593  0.83118262  0.21491551  1
  Cr  Cr7  1  0.16729330  0.33614077  0.21491419  1
  Cr  Cr8  1  0.33497916  0.16750875  0.71661588  1
  Sb  Sb9  1  0.66135826  0.83067756  0.21562156  1
  Sb  Sb10  1  0.82981072  0.66262335  0.71650207  1
  Sb  Sb11  1  0.82980987  0.16721700  0.71651078  1
  O  O12  1  0.14531382  0.84005486  0.60879942  1
  O  O13  1  0.03205672  0.51603910  0.32710583  1
  O  O14  1  0.33638594  0.66820784  0.10603559  1
  O  O15  1  0.99730947  0.99866350  0.31318828  1
  O  O16  1  0.99867207  0.99934968  0.81986549  1
  O  O17  1  0.14530218  0.30528723  0.60879911  1
  O  O18  1  0.48999166  0.96977861  0.33053371  1
  O  O19  1  0.48997679  0.52020024  0.33052239  1
  O  O20  1  0.30843105  0.15422360  0.10800289  1
  O  O21  1  0.69067592  0.84535780  0.60523155  1
  O  O22  1  0.52086773  0.48930597  0.82609874  1
  O  O23  1  0.52086792  0.03159830  0.82610929  1
  O  O24  1  0.66675779  0.33339403  0.60574597  1
  O  O25  1  0.83952854  0.69218879  0.10334186  1
  O  O26  1  0.97586273  0.48794787  0.82745079  1
  O  O27  1  0.83951714  0.14734074  0.10334133  1
