# generated using pymatgen
data_Li2Fe2Si3O10
_symmetry_space_group_name_H-M   'P 1'
_cell_length_a   5.42851656
_cell_length_b   5.46281518
_cell_length_c   16.93056801
_cell_angle_alpha   86.09047104
_cell_angle_beta   90.82880724
_cell_angle_gamma   60.51486373
_symmetry_Int_Tables_number   1
_chemical_formula_structural   Li2Fe2Si3O10
_chemical_formula_sum   'Li4 Fe4 Si6 O20'
_cell_volume   435.36437455
_cell_formula_units_Z   2
loop_
 _symmetry_equiv_pos_site_id
 _symmetry_equiv_pos_as_xyz
  1  'x, y, z'
loop_
 _atom_site_type_symbol
 _atom_site_label
 _atom_site_symmetry_multiplicity
 _atom_site_fract_x
 _atom_site_fract_y
 _atom_site_fract_z
 _atom_site_occupancy
  Li  Li0  1  0.43211321  0.38480652  0.76711136  1
  Li  Li1  1  0.56781869  0.60787038  0.25046520  1
  Li  Li2  1  0.65353707  0.50787060  0.54848614  1
  Li  Li3  1  0.84366045  0.49533336  0.04772863  1
  Fe  Fe4  1  0.00709948  0.81745363  0.57863203  1
  Fe  Fe5  1  0.17839519  0.80967523  0.08082117  1
  Fe  Fe6  1  0.99907661  0.19931321  0.41308917  1
  Fe  Fe7  1  0.81372019  0.18385816  0.91101632  1
  Si  Si8  1  0.13688214  0.99645991  0.74848779  1
  Si  Si9  1  0.46604587  0.83879680  0.90144710  1
  Si  Si10  1  0.68411420  0.85334132  0.40300749  1
  Si  Si11  1  0.33397357  0.15430770  0.60159695  1
  Si  Si12  1  0.51801358  0.14799356  0.09805764  1
  Si  Si13  1  0.86441552  0.99923384  0.25002557  1
  O  O14  1  0.18952899  0.90757856  0.95546995  1
  O  O15  1  0.08954162  0.79746692  0.69118063  1
  O  O16  1  0.38800254  0.76656171  0.81432264  1
  O  O17  1  0.13908408  0.81510289  0.19806383  1
  O  O18  1  0.62956828  0.86660838  0.58702395  1
  O  O19  1  0.33625716  0.44420493  0.57198664  1
  O  O20  1  0.06061746  0.14918666  0.55830125  1
  O  O21  1  0.51575740  0.84832422  0.09322062  1
  O  O22  1  0.74115090  0.54848287  0.93809581  1
  O  O23  1  0.27521198  0.17197656  0.69921261  1
  O  O24  1  0.22467377  0.43729039  0.06790482  1
  O  O25  1  0.77332548  0.80175763  0.30792170  1
  O  O26  1  0.70453500  0.55856795  0.43759319  1
  O  O27  1  0.92221533  0.90142347  0.45102354  1
  O  O28  1  0.50923019  0.11384658  0.89241958  1
  O  O29  1  0.37143892  0.12011575  0.40723799  1
  O  O30  1  0.86595002  0.20510602  0.79694478  1
  O  O31  1  0.58010147  0.19209228  0.18968502  1
  O  O32  1  0.88610361  0.22690120  0.30138527  1
  O  O33  1  0.79340703  0.12457081  0.05060862  1
