# generated using pymatgen
data_Li12MnCo3P4(CO7)4
_symmetry_space_group_name_H-M   'P 1'
_cell_length_a   8.46067113
_cell_length_b   10.02954956
_cell_length_c   6.49318925
_cell_angle_alpha   90.00000000
_cell_angle_beta   90.00000000
_cell_angle_gamma   85.11513487
_symmetry_Int_Tables_number   1
_chemical_formula_structural   Li12MnCo3P4(CO7)4
_chemical_formula_sum   'Li12 Mn1 Co3 P4 C4 O28'
_cell_volume   548.98944961
_cell_formula_units_Z   1
loop_
 _symmetry_equiv_pos_site_id
 _symmetry_equiv_pos_as_xyz
  1  'x, y, z'
loop_
 _atom_site_type_symbol
 _atom_site_label
 _atom_site_symmetry_multiplicity
 _atom_site_fract_x
 _atom_site_fract_y
 _atom_site_fract_z
 _atom_site_occupancy
  Li  Li0  1  0.09928183  0.38265473  0.25000000  1
  Li  Li1  1  0.09382475  0.88214151  0.25000000  1
  Li  Li2  1  0.27758042  0.12589414  0.02325140  1
  Li  Li3  1  0.27758042  0.12589414  0.47674860  1
  Li  Li4  1  0.27525657  0.62354969  0.02174229  1
  Li  Li5  1  0.27525657  0.62354969  0.47825771  1
  Li  Li6  1  0.72239995  0.37374282  0.52317954  1
  Li  Li7  1  0.72239995  0.37374282  0.97682046  1
  Li  Li8  1  0.72388571  0.87764456  0.52349166  1
  Li  Li9  1  0.72388571  0.87764456  0.97650834  1
  Li  Li10  1  0.90183666  0.11671510  0.75000000  1
  Li  Li11  1  0.90121422  0.61624157  0.75000000  1
  Mn  Mn12  1  0.66075012  0.61149499  0.25000000  1
  Co  Co13  1  0.33198057  0.39457978  0.75000000  1
  Co  Co14  1  0.33113836  0.89551862  0.75000000  1
  Co  Co15  1  0.66845150  0.10478780  0.25000000  1
  P  P16  1  0.41409912  0.35864233  0.25000000  1
  P  P17  1  0.41014741  0.86371014  0.25000000  1
  P  P18  1  0.58658467  0.13896571  0.75000000  1
  P  P19  1  0.58710210  0.63802334  0.75000000  1
  C  C20  1  0.03779302  0.35065028  0.75000000  1
  C  C21  1  0.03716232  0.85083470  0.75000000  1
  C  C22  1  0.96173481  0.15004111  0.25000000  1
  C  C23  1  0.96780228  0.64906664  0.25000000  1
  O  O24  1  0.07246468  0.47388992  0.75000000  1
  O  O25  1  0.10754859  0.18093889  0.25000000  1
  O  O26  1  0.07164994  0.97388093  0.75000000  1
  O  O27  1  0.15505476  0.25692229  0.75000000  1
  O  O28  1  0.11452773  0.67961645  0.25000000  1
  O  O29  1  0.15476663  0.75710108  0.75000000  1
  O  O30  1  0.31022901  0.41089201  0.06329080  1
  O  O31  1  0.31022901  0.41089201  0.43670920  1
  O  O32  1  0.30833136  0.91638295  0.06278977  1
  O  O33  1  0.30833136  0.91638295  0.43721023  1
  O  O34  1  0.42024544  0.08611038  0.75000000  1
  O  O35  1  0.43314677  0.20234969  0.25000000  1
  O  O36  1  0.41995230  0.58532829  0.75000000  1
  O  O37  1  0.42557658  0.70768221  0.25000000  1
  O  O38  1  0.56681447  0.29484500  0.75000000  1
  O  O39  1  0.58047039  0.41008967  0.25000000  1
  O  O40  1  0.56586043  0.79449750  0.75000000  1
  O  O41  1  0.57977495  0.91146193  0.25000000  1
  O  O42  1  0.69075494  0.08708536  0.93663183  1
  O  O43  1  0.69075494  0.08708536  0.56336817  1
  O  O44  1  0.69099888  0.58541547  0.56572991  1
  O  O45  1  0.69099888  0.58541547  0.93427009  1
  O  O46  1  0.84502369  0.24388010  0.25000000  1
  O  O47  1  0.89229880  0.31856180  0.75000000  1
  O  O48  1  0.85440492  0.74570549  0.25000000  1
  O  O49  1  0.92597764  0.02685011  0.25000000  1
  O  O50  1  0.89170362  0.81870581  0.75000000  1
  O  O51  1  0.93295523  0.52629912  0.25000000  1
