# generated using pymatgen
data_Li12VFe3P4(CO7)4
_symmetry_space_group_name_H-M   'P 1'
_cell_length_a   8.49464420
_cell_length_b   10.05787725
_cell_length_c   6.53275734
_cell_angle_alpha   90.00000000
_cell_angle_beta   90.00000000
_cell_angle_gamma   84.81626295
_symmetry_Int_Tables_number   1
_chemical_formula_structural   Li12VFe3P4(CO7)4
_chemical_formula_sum   'Li12 V1 Fe3 P4 C4 O28'
_cell_volume   555.86352915
_cell_formula_units_Z   1
loop_
 _symmetry_equiv_pos_site_id
 _symmetry_equiv_pos_as_xyz
  1  'x, y, z'
loop_
 _atom_site_type_symbol
 _atom_site_label
 _atom_site_symmetry_multiplicity
 _atom_site_fract_x
 _atom_site_fract_y
 _atom_site_fract_z
 _atom_site_occupancy
  Li  Li0  1  0.09231711  0.38176140  0.25000000  1
  Li  Li1  1  0.09577913  0.88192300  0.25000000  1
  Li  Li2  1  0.27489970  0.12473712  0.02201681  1
  Li  Li3  1  0.27489970  0.12473712  0.47798319  1
  Li  Li4  1  0.27601256  0.62381271  0.02069056  1
  Li  Li5  1  0.27601256  0.62381271  0.47930944  1
  Li  Li6  1  0.72415756  0.37623898  0.52622895  1
  Li  Li7  1  0.72415756  0.37623898  0.97377105  1
  Li  Li8  1  0.72404107  0.87483801  0.52454704  1
  Li  Li9  1  0.72404107  0.87483801  0.97545296  1
  Li  Li10  1  0.90630707  0.11878625  0.75000000  1
  Li  Li11  1  0.90440789  0.61904730  0.75000000  1
  V  V12  1  0.66912254  0.60419511  0.25000000  1
  Fe  Fe13  1  0.33441159  0.39424804  0.75000000  1
  Fe  Fe14  1  0.33440830  0.89342087  0.75000000  1
  Fe  Fe15  1  0.66644094  0.10571042  0.25000000  1
  P  P16  1  0.41141713  0.36113600  0.25000000  1
  P  P17  1  0.41237173  0.85882733  0.25000000  1
  P  P18  1  0.58812873  0.14004918  0.75000000  1
  P  P19  1  0.58906466  0.63927204  0.75000000  1
  C  C20  1  0.03444930  0.35070023  0.75000000  1
  C  C21  1  0.03439410  0.85033198  0.75000000  1
  C  C22  1  0.96631184  0.14991863  0.25000000  1
  C  C23  1  0.96431359  0.65043698  0.25000000  1
  O  O24  1  0.06994917  0.47288830  0.75000000  1
  O  O25  1  0.11217077  0.17904011  0.25000000  1
  O  O26  1  0.07040435  0.97269924  0.75000000  1
  O  O27  1  0.14864057  0.25477392  0.75000000  1
  O  O28  1  0.11005000  0.67782502  0.25000000  1
  O  O29  1  0.14819444  0.75441607  0.75000000  1
  O  O30  1  0.30925060  0.41356575  0.06346194  1
  O  O31  1  0.30925060  0.41356575  0.43653806  1
  O  O32  1  0.31057235  0.91146259  0.06326299  1
  O  O33  1  0.31057235  0.91146259  0.43673701  1
  O  O34  1  0.42138237  0.09050061  0.75000000  1
  O  O35  1  0.43027390  0.20503985  0.25000000  1
  O  O36  1  0.42125890  0.59028279  0.75000000  1
  O  O37  1  0.42890821  0.70325586  0.25000000  1
  O  O38  1  0.57136340  0.29610135  0.75000000  1
  O  O39  1  0.57775216  0.41111399  0.25000000  1
  O  O40  1  0.57063466  0.79610346  0.75000000  1
  O  O41  1  0.57874661  0.90984466  0.25000000  1
  O  O42  1  0.68990759  0.08718884  0.93667148  1
  O  O43  1  0.68990759  0.08718884  0.56332852  1
  O  O44  1  0.69224127  0.58592007  0.56707957  1
  O  O45  1  0.69224127  0.58592007  0.93292043  1
  O  O46  1  0.85190506  0.24607548  0.25000000  1
  O  O47  1  0.88830410  0.32079367  0.75000000  1
  O  O48  1  0.85062463  0.74679654  0.25000000  1
  O  O49  1  0.92996477  0.02766941  0.25000000  1
  O  O50  1  0.88798982  0.82132225  0.75000000  1
  O  O51  1  0.92567204  0.52816254  0.25000000  1
