# generated using pymatgen
data_LiBiB2O5
_symmetry_space_group_name_H-M   'P 1'
_cell_length_a   12.71161946
_cell_length_b   5.62857080
_cell_length_c   11.38489069
_cell_angle_alpha   90.00000000
_cell_angle_beta   90.00000000
_cell_angle_gamma   77.99453736
_symmetry_Int_Tables_number   1
_chemical_formula_structural   LiBiB2O5
_chemical_formula_sum   'Li8 Bi8 B16 O40'
_cell_volume   796.75256805
_cell_formula_units_Z   8
loop_
 _symmetry_equiv_pos_site_id
 _symmetry_equiv_pos_as_xyz
  1  'x, y, z'
loop_
 _atom_site_type_symbol
 _atom_site_label
 _atom_site_symmetry_multiplicity
 _atom_site_fract_x
 _atom_site_fract_y
 _atom_site_fract_z
 _atom_site_occupancy
  Li  Li0  1  0.22767262  0.24687687  0.62987886  1
  Li  Li1  1  0.26854777  0.25435604  0.13334202  1
  Li  Li2  1  0.22767262  0.74687687  0.87012114  1
  Li  Li3  1  0.26854777  0.75435604  0.36665798  1
  Li  Li4  1  0.73145223  0.24564396  0.63334202  1
  Li  Li5  1  0.77232738  0.25312313  0.12987886  1
  Li  Li6  1  0.73145223  0.74564396  0.86665798  1
  Li  Li7  1  0.77232738  0.75312313  0.37012114  1
  Bi  Bi8  1  0.11036625  0.38369141  0.38390847  1
  Bi  Bi9  1  0.11036625  0.88369141  0.11609153  1
  Bi  Bi10  1  0.39275629  0.14475262  0.87790527  1
  Bi  Bi11  1  0.39275629  0.64475262  0.62209473  1
  Bi  Bi12  1  0.60724371  0.35524738  0.37790527  1
  Bi  Bi13  1  0.60724371  0.85524738  0.12209473  1
  Bi  Bi14  1  0.88963375  0.11630859  0.88390847  1
  Bi  Bi15  1  0.88963375  0.61630859  0.61609153  1
  B  B16  1  0.01323272  0.12597652  0.62445557  1
  B  B17  1  0.01323272  0.62597652  0.87554443  1
  B  B18  1  0.17254080  0.29164349  0.88387977  1
  B  B19  1  0.17254080  0.79164349  0.61612023  1
  B  B20  1  0.32590415  0.19720121  0.37458931  1
  B  B21  1  0.32590415  0.69720121  0.12541069  1
  B  B22  1  0.51506321  0.14505750  0.62050693  1
  B  B23  1  0.48493679  0.35494250  0.12050693  1
  B  B24  1  0.51506321  0.64505750  0.87949307  1
  B  B25  1  0.48493679  0.85494250  0.37949307  1
  B  B26  1  0.67409585  0.30279879  0.87458931  1
  B  B27  1  0.67409585  0.80279879  0.62541069  1
  B  B28  1  0.82745920  0.20835651  0.38387977  1
  B  B29  1  0.82745920  0.70835651  0.11612023  1
  B  B30  1  0.98676728  0.37402348  0.12445557  1
  B  B31  1  0.98676728  0.87402348  0.37554443  1
  O  O32  1  0.06454362  0.30288185  0.58811410  1
  O  O33  1  0.06009608  0.37700082  0.88762634  1
  O  O34  1  0.08938242  0.31156481  0.17264105  1
  O  O35  1  0.06454362  0.80288185  0.91188590  1
  O  O36  1  0.06009608  0.87700082  0.61237366  1
  O  O37  1  0.08938242  0.81156481  0.32735895  1
  O  O38  1  0.22212601  0.09665969  0.95277875  1
  O  O39  1  0.26178413  0.09048925  0.44556004  1
  O  O40  1  0.23449852  0.39841943  0.81047010  1
  O  O41  1  0.22212601  0.59665969  0.54722125  1
  O  O42  1  0.28069434  0.39791276  0.30914303  1
  O  O43  1  0.26178413  0.59048925  0.05443996  1
  O  O44  1  0.23449852  0.89841943  0.68952990  1
  O  O45  1  0.28069434  0.89791276  0.19085697  1
  O  O46  1  0.41021447  0.22083466  0.66072057  1
  O  O47  1  0.43918280  0.10353096  0.36812450  1
  O  O48  1  0.43194598  0.18605163  0.07676685  1
  O  O49  1  0.41021447  0.72083466  0.83927943  1
  O  O50  1  0.43918280  0.60353096  0.13187550  1
  O  O51  1  0.43194598  0.68605163  0.42323315  1
  O  O52  1  0.56805402  0.31394837  0.57676685  1
  O  O53  1  0.56081720  0.39646904  0.86812450  1
  O  O54  1  0.58978553  0.27916534  0.16072057  1
  O  O55  1  0.56805402  0.81394837  0.92323315  1
  O  O56  1  0.56081720  0.89646904  0.63187550  1
  O  O57  1  0.58978553  0.77916534  0.33927943  1
  O  O58  1  0.71930566  0.10208724  0.80914303  1
  O  O59  1  0.76550148  0.10158057  0.31047010  1
  O  O60  1  0.73821587  0.40951075  0.94556004  1
  O  O61  1  0.71930566  0.60208724  0.69085697  1
  O  O62  1  0.77787399  0.40334031  0.45277875  1
  O  O63  1  0.76550148  0.60158057  0.18952990  1
  O  O64  1  0.73821587  0.90951075  0.55443996  1
  O  O65  1  0.77787399  0.90334031  0.04722125  1
  O  O66  1  0.91061758  0.18843519  0.67264105  1
  O  O67  1  0.93990392  0.12299918  0.38762634  1
  O  O68  1  0.93545638  0.19711815  0.08811410  1
  O  O69  1  0.91061758  0.68843519  0.82735895  1
  O  O70  1  0.93990392  0.62299918  0.11237366  1
  O  O71  1  0.93545638  0.69711815  0.41188590  1
