# generated using pymatgen
data_Li2NiP2O7
_symmetry_space_group_name_H-M   'P 1'
_cell_length_a   5.22481944
_cell_length_b   6.15759217
_cell_length_c   8.71267282
_cell_angle_alpha   68.23645512
_cell_angle_beta   89.17855024
_cell_angle_gamma   84.66778131
_symmetry_Int_Tables_number   1
_chemical_formula_structural   Li2NiP2O7
_chemical_formula_sum   'Li4 Ni2 P4 O14'
_cell_volume   259.13915661
_cell_formula_units_Z   2
loop_
 _symmetry_equiv_pos_site_id
 _symmetry_equiv_pos_as_xyz
  1  'x, y, z'
loop_
 _atom_site_type_symbol
 _atom_site_label
 _atom_site_symmetry_multiplicity
 _atom_site_fract_x
 _atom_site_fract_y
 _atom_site_fract_z
 _atom_site_occupancy
  Li  Li0  1  0.23771013  0.34267379  0.46451523  1
  Li  Li1  1  0.27524647  0.07862632  0.85541995  1
  Li  Li2  1  0.72475353  0.92137368  0.14458005  1
  Li  Li3  1  0.76228987  0.65732621  0.53548477  1
  Ni  Ni4  1  0.23037521  0.69649209  0.72650589  1
  Ni  Ni5  1  0.76962479  0.30350791  0.27349411  1
  P  P6  1  0.21586807  0.66303699  0.13517563  1
  P  P7  1  0.30278555  0.92675888  0.34479007  1
  P  P8  1  0.69721445  0.07324112  0.65520993  1
  P  P9  1  0.78413193  0.33696301  0.86482437  1
  O  O10  1  0.05612999  0.38031110  0.79767744  1
  O  O11  1  0.12350364  0.13559051  0.33941468  1
  O  O12  1  0.23179297  0.74201992  0.94900557  1
  O  O13  1  0.23898998  0.69361036  0.47830201  1
  O  O14  1  0.27232557  0.90856700  0.16052581  1
  O  O15  1  0.40790857  0.04060848  0.64996828  1
  O  O16  1  0.42209325  0.48183556  0.23895403  1
  O  O17  1  0.57790675  0.51816444  0.76104597  1
  O  O18  1  0.59209143  0.95939152  0.35003172  1
  O  O19  1  0.72767443  0.09143300  0.83947419  1
  O  O20  1  0.76101002  0.30638964  0.52169799  1
  O  O21  1  0.76820703  0.25798008  0.05099443  1
  O  O22  1  0.87649636  0.86440949  0.66058532  1
  O  O23  1  0.94387001  0.61968890  0.20232256  1
