# generated using pymatgen
data_Li3MgPCO7
_symmetry_space_group_name_H-M   'P 1'
_cell_length_a   8.39248691
_cell_length_b   6.47029557
_cell_length_c   4.95614417
_cell_angle_alpha   90.00000000
_cell_angle_beta   86.86917923
_cell_angle_gamma   90.00000000
_symmetry_Int_Tables_number   1
_chemical_formula_structural   Li3MgPCO7
_chemical_formula_sum   'Li6 Mg2 P2 C2 O14'
_cell_volume   268.72620971
_cell_formula_units_Z   2
loop_
 _symmetry_equiv_pos_site_id
 _symmetry_equiv_pos_as_xyz
  1  'x, y, z'
loop_
 _atom_site_type_symbol
 _atom_site_label
 _atom_site_symmetry_multiplicity
 _atom_site_fract_x
 _atom_site_fract_y
 _atom_site_fract_z
 _atom_site_occupancy
  Li  Li0  1  0.08905986  0.25000000  0.74439479  1
  Li  Li1  1  0.26652563  0.01902670  0.23384251  1
  Li  Li2  1  0.26652563  0.48097330  0.23384251  1
  Li  Li3  1  0.73347437  0.51902670  0.76615749  1
  Li  Li4  1  0.73347437  0.98097330  0.76615749  1
  Li  Li5  1  0.91094014  0.75000000  0.25560521  1
  Mg  Mg6  1  0.34440990  0.75000000  0.78896333  1
  Mg  Mg7  1  0.65559010  0.25000000  0.21103667  1
  P  P8  1  0.41389132  0.25000000  0.71272352  1
  P  P9  1  0.58610868  0.75000000  0.28727648  1
  C  C10  1  0.04418076  0.75000000  0.72438621  1
  C  C11  1  0.95581924  0.25000000  0.27561379  1
  O  O12  1  0.08503374  0.75000000  0.97249214  1
  O  O13  1  0.10552951  0.25000000  0.33547295  1
  O  O14  1  0.15435342  0.75000000  0.52991640  1
  O  O15  1  0.31260866  0.06130747  0.81295861  1
  O  O16  1  0.31260866  0.43869253  0.81295861  1
  O  O17  1  0.43304104  0.25000000  0.39796186  1
  O  O18  1  0.41684993  0.75000000  0.17694020  1
  O  O19  1  0.58315007  0.25000000  0.82305980  1
  O  O20  1  0.56695896  0.75000000  0.60203814  1
  O  O21  1  0.68739134  0.56130747  0.18704139  1
  O  O22  1  0.68739134  0.93869253  0.18704139  1
  O  O23  1  0.84564658  0.25000000  0.47008360  1
  O  O24  1  0.89447049  0.75000000  0.66452705  1
  O  O25  1  0.91496626  0.25000000  0.02750786  1
