# generated using pymatgen
data_Te2Mo(WS2)2
_symmetry_space_group_name_H-M   'P 1'
_cell_length_a   3.30167519
_cell_length_b   3.30170701
_cell_length_c   30.54439527
_cell_angle_alpha   89.99971575
_cell_angle_beta   90.00000000
_cell_angle_gamma   119.99968114
_symmetry_Int_Tables_number   1
_chemical_formula_structural   Te2Mo(WS2)2
_chemical_formula_sum   'Te2 Mo1 W2 S4'
_cell_volume   288.36094217
_cell_formula_units_Z   1
loop_
 _symmetry_equiv_pos_site_id
 _symmetry_equiv_pos_as_xyz
  1  'x, y, z'
loop_
 _atom_site_type_symbol
 _atom_site_label
 _atom_site_symmetry_multiplicity
 _atom_site_fract_x
 _atom_site_fract_y
 _atom_site_fract_z
 _atom_site_occupancy
  Te  Te0  1  0.66664505  0.33328909  0.51522587  1
  Te  Te1  1  0.66664343  0.33328586  0.64145156  1
  Mo  Mo2  1  0.33330190  0.66660380  0.11565260  1
  W  W3  1  0.33331094  0.66662188  0.57836482  1
  W  W4  1  0.66669094  0.33338187  0.34693968  1
  S  S5  1  0.33335590  0.66671280  0.39723854  1
  S  S6  1  0.66664975  0.33329850  0.06558041  1
  S  S7  1  0.66665164  0.33330228  0.16573366  1
  S  S8  1  0.33335146  0.66670391  0.29665385  1
