# generated using pymatgen
data_Li6(NiO2)13
_symmetry_space_group_name_H-M   'P 1'
_cell_length_a   9.92459960
_cell_length_b   4.89469111
_cell_length_c   9.86070365
_cell_angle_alpha   85.22474806
_cell_angle_beta   112.49122957
_cell_angle_gamma   97.77975943
_symmetry_Int_Tables_number   1
_chemical_formula_structural   Li6(NiO2)13
_chemical_formula_sum   'Li6 Ni13 O26'
_cell_volume   438.24453394
_cell_formula_units_Z   1
loop_
 _symmetry_equiv_pos_site_id
 _symmetry_equiv_pos_as_xyz
  1  'x, y, z'
loop_
 _atom_site_type_symbol
 _atom_site_label
 _atom_site_symmetry_multiplicity
 _atom_site_fract_x
 _atom_site_fract_y
 _atom_site_fract_z
 _atom_site_occupancy
  Li  Li0  1  0.76968627  0.69030410  0.38542266  1
  Li  Li1  1  0.70717045  0.92876634  0.85260101  1
  Li  Li2  1  0.45987704  0.61120242  0.23185671  1
  Li  Li3  1  0.38627596  0.85033658  0.69122029  1
  Li  Li4  1  0.13898355  0.53277166  0.07047599  1
  Li  Li5  1  0.07646773  0.77123390  0.53765334  1
  Ni  Ni6  1  0.96236838  0.61593355  0.22980553  1
  Ni  Ni7  1  0.88378562  0.84560445  0.69327147  1
  Ni  Ni8  1  0.80822055  0.07717925  0.15751860  1
  Ni  Ni9  1  0.73006759  0.30823177  0.61320395  1
  Ni  Ni10  1  0.57688980  0.76922627  0.53825771  1
  Ni  Ni11  1  0.65419930  0.53866209  0.07479358  1
  Ni  Ni12  1  0.42307700  0.23076900  0.46153800  1
  Ni  Ni13  1  0.49917909  0.99884647  0.00488361  1
  Ni  Ni14  1  0.34697491  0.46269153  0.91819339  1
  Ni  Ni15  1  0.19195470  0.92287591  0.84828342  1
  Ni  Ni16  1  0.26926420  0.69231273  0.38481929  1
  Ni  Ni17  1  0.11608641  0.15330623  0.30987305  1
  Ni  Ni18  1  0.03793345  0.38435875  0.76555840  1
  O  O19  1  0.98978685  0.31687425  0.14313707  1
  O  O20  1  0.90712164  0.55181213  0.59751583  1
  O  O21  1  0.93903236  0.90972687  0.32556117  1
  O  O22  1  0.85636715  0.14466375  0.77993993  1
  O  O23  1  0.74404523  0.97577866  0.52102285  1
  O  O24  1  0.81753054  0.75919905  0.06009925  1
  O  O25  1  0.67387090  0.22420664  0.98794043  1
  O  O26  1  0.79450661  0.40399075  0.24616921  1
  O  O27  1  0.71813324  0.63856717  0.71030988  1
  O  O28  1  0.55250232  0.06576713  0.63013616  1
  O  O29  1  0.60068179  0.47547828  0.44455277  1
  O  O30  1  0.52264336  0.70330537  0.90629508  1
  O  O31  1  0.62810733  0.82465459  0.17240481  1
  O  O32  1  0.35962030  0.13515498  0.83197421  1
  O  O33  1  0.43502100  0.90073907  0.36631670  1
  O  O34  1  0.41113300  0.56079893  0.55676030  1
  O  O35  1  0.48653270  0.32638402  0.09110279  1
  O  O36  1  0.17228210  0.23733136  0.93513657  1
  O  O37  1  0.29365168  0.39577087  0.29294084  1
  O  O38  1  0.21804667  0.63688341  0.75067119  1
  O  O39  1  0.32350964  0.75823263  0.01678192  1
  O  O40  1  0.24547221  0.98605972  0.47852423  1
  O  O41  1  0.05164739  0.05754725  0.67690779  1
  O  O42  1  0.10210877  0.48576034  0.40205415  1
  O  O43  1  0.02862246  0.70233895  0.86297775  1
  O  O44  1  0.12802076  0.82297183  0.21276712  1
