# generated using pymatgen
data_Dy(BiO2)3
_symmetry_space_group_name_H-M   'P 1'
_cell_length_a   7.00729605
_cell_length_b   7.00729636
_cell_length_c   7.00729661
_cell_angle_alpha   92.75440466
_cell_angle_beta   92.75440880
_cell_angle_gamma   92.75439751
_symmetry_Int_Tables_number   1
_chemical_formula_structural   Dy(BiO2)3
_chemical_formula_sum   'Dy2 Bi6 O12'
_cell_volume   342.84145096
_cell_formula_units_Z   2
loop_
 _symmetry_equiv_pos_site_id
 _symmetry_equiv_pos_as_xyz
  1  'x, y, z'
loop_
 _atom_site_type_symbol
 _atom_site_label
 _atom_site_symmetry_multiplicity
 _atom_site_fract_x
 _atom_site_fract_y
 _atom_site_fract_z
 _atom_site_occupancy
  Dy  Dy0  1  0.00000000  0.00000000  0.00000000  1
  Dy  Dy1  1  0.50000000  0.50000000  0.50000000  1
  Bi  Bi2  1  0.06814462  0.55337920  0.25057291  1
  Bi  Bi3  1  0.25057291  0.06814462  0.55337920  1
  Bi  Bi4  1  0.44662080  0.74942709  0.93185538  1
  Bi  Bi5  1  0.55337920  0.25057291  0.06814462  1
  Bi  Bi6  1  0.74942709  0.93185538  0.44662080  1
  Bi  Bi7  1  0.93185538  0.44662080  0.74942709  1
  O  O8  1  0.07257528  0.69154837  0.92503301  1
  O  O9  1  0.07496699  0.92742472  0.30845163  1
  O  O10  1  0.18787179  0.40023711  0.52619316  1
  O  O11  1  0.30845163  0.07496699  0.92742472  1
  O  O12  1  0.40023711  0.52619316  0.18787179  1
  O  O13  1  0.47380684  0.81212821  0.59976289  1
  O  O14  1  0.52619316  0.18787179  0.40023711  1
  O  O15  1  0.59976289  0.47380684  0.81212821  1
  O  O16  1  0.69154837  0.92503301  0.07257528  1
  O  O17  1  0.81212821  0.59976289  0.47380684  1
  O  O18  1  0.92503301  0.07257528  0.69154837  1
  O  O19  1  0.92742472  0.30845163  0.07496699  1
