# generated using pymatgen
data_Fe3Co2P6WO24
_symmetry_space_group_name_H-M   'P 1'
_cell_length_a   8.56021680
_cell_length_b   8.67777866
_cell_length_c   8.67777843
_cell_angle_alpha   60.00000183
_cell_angle_beta   59.54464604
_cell_angle_gamma   59.54465329
_symmetry_Int_Tables_number   1
_chemical_formula_structural   Fe3Co2P6WO24
_chemical_formula_sum   'Fe3 Co2 P6 W1 O24'
_cell_volume   452.65077949
_cell_formula_units_Z   1
loop_
 _symmetry_equiv_pos_site_id
 _symmetry_equiv_pos_as_xyz
  1  'x, y, z'
loop_
 _atom_site_type_symbol
 _atom_site_label
 _atom_site_symmetry_multiplicity
 _atom_site_fract_x
 _atom_site_fract_y
 _atom_site_fract_z
 _atom_site_occupancy
  Fe  Fe0  1  0.07155551  0.64281516  0.64281516  1
  Fe  Fe1  1  0.43634405  0.85455198  0.85455198  1
  Fe  Fe2  1  0.93007866  0.35664078  0.35664078  1
  Co  Co3  1  0.01651318  0.99449561  0.99449561  1
  Co  Co4  1  0.50265444  0.49911519  0.49911519  1
  P  P5  1  0.24395086  0.25352438  0.54867336  1
  P  P6  1  0.24395086  0.95385140  0.25352438  1
  P  P7  1  0.24395086  0.54867336  0.95385140  1
  P  P8  1  0.74925210  0.46132829  0.04458780  1
  P  P9  1  0.74925210  0.04458780  0.74483081  1
  P  P10  1  0.74925210  0.74483081  0.46132829  1
  W  W11  1  0.57318566  0.14227145  0.14227145  1
  O  O12  1  0.06726772  0.11001785  0.32167425  1
  O  O13  1  0.06726772  0.50104018  0.11001785  1
  O  O14  1  0.06726772  0.32167425  0.50104018  1
  O  O15  1  0.22664605  0.09120048  0.74095916  1
  O  O16  1  0.43102401  0.17956673  0.38881334  1
  O  O17  1  0.27870413  0.40985925  0.55294229  1
  O  O18  1  0.22664605  0.94119431  0.09120048  1
  O  O19  1  0.27870413  0.75849332  0.40985925  1
  O  O20  1  0.56663176  0.61082242  0.00285486  1
  O  O21  1  0.27870413  0.55294229  0.75849332  1
  O  O22  1  0.76758492  0.25852764  0.06500789  1
  O  O23  1  0.56663176  0.00285486  0.81969196  1
  O  O24  1  0.43102401  0.00059592  0.17956673  1
  O  O25  1  0.22664605  0.74095916  0.94119431  1
  O  O26  1  0.72595517  0.44169754  0.24227942  1
  O  O27  1  0.43102401  0.38881334  0.00059592  1
  O  O28  1  0.72595517  0.24227942  0.59006787  1
  O  O29  1  0.76758492  0.06500789  0.90887955  1
  O  O30  1  0.72595517  0.59006787  0.44169754  1
  O  O31  1  0.56663176  0.81969196  0.61082242  1
  O  O32  1  0.76758492  0.90887955  0.25852764  1
  O  O33  1  0.93287145  0.68802808  0.49293208  1
  O  O34  1  0.93287145  0.49293208  0.88616840  1
  O  O35  1  0.93287145  0.88616840  0.68802808  1
