# generated using pymatgen
data_Ba2YBr7
_symmetry_space_group_name_H-M   'P 1'
_cell_length_a   13.18367819
_cell_length_b   12.05825548
_cell_length_c   13.18367819
_cell_angle_alpha   93.15405990
_cell_angle_beta   117.64771890
_cell_angle_gamma   122.07088020
_symmetry_Int_Tables_number   1
_chemical_formula_structural   Ba2YBr7
_chemical_formula_sum   'Ba8 Y4 Br28'
_cell_volume   1440.81081991
_cell_formula_units_Z   4
loop_
 _symmetry_equiv_pos_site_id
 _symmetry_equiv_pos_as_xyz
  1  'x, y, z'
loop_
 _atom_site_type_symbol
 _atom_site_label
 _atom_site_symmetry_multiplicity
 _atom_site_fract_x
 _atom_site_fract_y
 _atom_site_fract_z
 _atom_site_occupancy
  Ba  Ba0  1  0.72388467  0.12480930  0.26045540  1
  Ba  Ba1  1  0.78824124  0.72466044  0.32026111  1
  Ba  Ba2  1  0.40439933  0.22466044  0.43641920  1
  Ba  Ba3  1  0.13564611  0.37519070  0.09907537  1
  Ba  Ba4  1  0.86435389  0.62480930  0.90092463  1
  Ba  Ba5  1  0.59560067  0.77533956  0.56358080  1
  Ba  Ba6  1  0.21175876  0.27533956  0.67973889  1
  Ba  Ba7  1  0.27611533  0.87519070  0.73954460  1
  Y  Y8  1  0.33673812  0.16831209  0.01164119  1
  Y  Y9  1  0.84332810  0.33168791  0.66842602  1
  Y  Y10  1  0.15667190  0.66831209  0.33157398  1
  Y  Y11  1  0.66326188  0.83168791  0.98835881  1
  Br  Br12  1  0.92952941  0.05273508  0.21886370  1
  Br  Br13  1  0.91548273  0.45330163  0.09164772  1
  Br  Br14  1  0.70091817  0.62616847  0.03678278  1
  Br  Br15  1  0.00827402  0.63849077  0.43949759  1
  Br  Br16  1  0.62089073  0.35316416  0.22542842  1
  Br  Br17  1  0.58938569  0.12616847  0.42525029  1
  Br  Br18  1  0.19899318  0.13849077  0.13021676  1
  Br  Br19  1  0.87226426  0.14683584  0.76772656  1
  Br  Br20  1  0.55313372  0.77892502  0.13185030  1
  Br  Br21  1  0.83387138  0.55273508  0.62320567  1
  Br  Br22  1  0.64707472  0.27892502  0.72579030  1
  Br  Br23  1  0.50441407  0.52445153  0.35281460  1
  Br  Br24  1  0.63834609  0.04669837  0.96218010  1
  Br  Br25  1  0.17163693  0.02445153  0.52003746  1
  Br  Br26  1  0.82836307  0.97554847  0.47996254  1
  Br  Br27  1  0.36165391  0.95330163  0.03781990  1
  Br  Br28  1  0.49558593  0.47554847  0.64718540  1
  Br  Br29  1  0.35292528  0.72107498  0.27420970  1
  Br  Br30  1  0.16612862  0.44726492  0.37679433  1
  Br  Br31  1  0.44686628  0.22107498  0.86814970  1
  Br  Br32  1  0.12773574  0.85316416  0.23227344  1
  Br  Br33  1  0.80100682  0.86150923  0.86978324  1
  Br  Br34  1  0.41061431  0.87383153  0.57474971  1
  Br  Br35  1  0.37910927  0.64683584  0.77457158  1
  Br  Br36  1  0.99172598  0.36150923  0.56050241  1
  Br  Br37  1  0.29908183  0.37383153  0.96321722  1
  Br  Br38  1  0.08451727  0.54669837  0.90835228  1
  Br  Br39  1  0.07047059  0.94726492  0.78113630  1
