# generated using pymatgen
data_Li3SiNiO5
_symmetry_space_group_name_H-M   'P 1'
_cell_length_a   4.90616596
_cell_length_b   5.40164676
_cell_length_c   15.74853562
_cell_angle_alpha   90.00000000
_cell_angle_beta   90.00000000
_cell_angle_gamma   90.00000000
_symmetry_Int_Tables_number   1
_chemical_formula_structural   Li3SiNiO5
_chemical_formula_sum   'Li12 Si4 Ni4 O20'
_cell_volume   417.35785544
_cell_formula_units_Z   4
loop_
 _symmetry_equiv_pos_site_id
 _symmetry_equiv_pos_as_xyz
  1  'x, y, z'
loop_
 _atom_site_type_symbol
 _atom_site_label
 _atom_site_symmetry_multiplicity
 _atom_site_fract_x
 _atom_site_fract_y
 _atom_site_fract_z
 _atom_site_occupancy
  Li  Li0  1  0.99814573  0.67054577  0.59407594  1
  Li  Li1  1  0.99814573  0.17054577  0.90592406  1
  Li  Li2  1  0.50008028  0.33813717  0.99537750  1
  Li  Li3  1  0.50008028  0.83813717  0.50462250  1
  Li  Li4  1  0.50873794  0.33184400  0.80271402  1
  Li  Li5  1  0.50873794  0.83184400  0.69728598  1
  Li  Li6  1  0.49814573  0.32945423  0.40592406  1
  Li  Li7  1  0.49814573  0.82945423  0.09407594  1
  Li  Li8  1  0.00008028  0.66186283  0.00462250  1
  Li  Li9  1  0.00008028  0.16186283  0.49537750  1
  Li  Li10  1  0.00873794  0.16815600  0.30271402  1
  Li  Li11  1  0.00873794  0.66815600  0.19728598  1
  Si  Si12  1  0.00596806  0.16121252  0.09794775  1
  Si  Si13  1  0.00596806  0.66121252  0.40205225  1
  Si  Si14  1  0.50596806  0.33878748  0.59794775  1
  Si  Si15  1  0.50596806  0.83878748  0.90205225  1
  Ni  Ni16  1  0.00030511  0.18166147  0.69988305  1
  Ni  Ni17  1  0.00030511  0.68166147  0.80011695  1
  Ni  Ni18  1  0.50030511  0.31833853  0.19988305  1
  Ni  Ni19  1  0.50030511  0.81833853  0.30011695  1
  O  O20  1  0.09948643  0.34961320  0.79622968  1
  O  O21  1  0.09948643  0.84961320  0.70377032  1
  O  O22  1  0.09915025  0.37407974  0.39796967  1
  O  O23  1  0.09915025  0.87407974  0.10203033  1
  O  O24  1  0.10194981  0.31041306  0.01430803  1
  O  O25  1  0.10194981  0.81041306  0.48569197  1
  O  O26  1  0.11739797  0.30812425  0.18636393  1
  O  O27  1  0.11739797  0.80812425  0.31363607  1
  O  O28  1  0.16377841  0.32065631  0.60468447  1
  O  O29  1  0.16377841  0.82065631  0.89531553  1
  O  O30  1  0.59948643  0.65038680  0.20377032  1
  O  O31  1  0.59948643  0.15038680  0.29622968  1
  O  O32  1  0.59915025  0.62592026  0.60203033  1
  O  O33  1  0.59915025  0.12592026  0.89796967  1
  O  O34  1  0.60194981  0.18958694  0.51430803  1
  O  O35  1  0.60194981  0.68958694  0.98569197  1
  O  O36  1  0.61739797  0.19187575  0.68636393  1
  O  O37  1  0.61739797  0.69187575  0.81363607  1
  O  O38  1  0.66377841  0.17934369  0.10468447  1
  O  O39  1  0.66377841  0.67934369  0.39531553  1
