# generated using pymatgen
data_La3Ti3CrO12
_symmetry_space_group_name_H-M   'P 1'
_cell_length_a   5.53418363
_cell_length_b   5.53226200
_cell_length_c   7.84630259
_cell_angle_alpha   90.02706811
_cell_angle_beta   90.12632101
_cell_angle_gamma   89.98588583
_symmetry_Int_Tables_number   1
_chemical_formula_structural   La3Ti3CrO12
_chemical_formula_sum   'La3 Ti3 Cr1 O12'
_cell_volume   240.22612742
_cell_formula_units_Z   1
loop_
 _symmetry_equiv_pos_site_id
 _symmetry_equiv_pos_as_xyz
  1  'x, y, z'
loop_
 _atom_site_type_symbol
 _atom_site_label
 _atom_site_symmetry_multiplicity
 _atom_site_fract_x
 _atom_site_fract_y
 _atom_site_fract_z
 _atom_site_occupancy
  La  La0  1  0.48302965  0.51931500  0.26005371  1
  La  La1  1  0.49362944  0.48991143  0.74925185  1
  La  La2  1  0.99624046  0.98564747  0.74136150  1
  Ti  Ti3  1  0.99286630  0.49538736  0.00773322  1
  Ti  Ti4  1  0.99861161  0.49676601  0.49274150  1
  Ti  Ti5  1  0.49632835  0.00069723  0.01574837  1
  Cr  Cr6  1  0.49966695  0.00147299  0.49831258  1
  O  O7  1  0.93597355  0.49518216  0.24724067  1
  O  O8  1  0.25501165  0.75090259  0.01619647  1
  O  O9  1  0.24286372  0.74878471  0.48161659  1
  O  O10  1  0.28553482  0.28271729  0.02081607  1
  O  O11  1  0.27494292  0.28144121  0.47939607  1
  O  O12  1  0.54619205  0.99165277  0.24537255  1
  O  O13  1  0.43295090  0.00765778  0.75034329  1
  O  O14  1  0.73519854  0.72952317  0.53778254  1
  O  O15  1  0.74293980  0.73504168  0.95907808  1
  O  O16  1  0.76282977  0.24414617  0.54259592  1
  O  O17  1  0.76809705  0.23928332  0.95409696  1
  O  O18  1  0.05525248  0.50303066  0.75026007  1
