# generated using pymatgen
data_Li2CoCu(PO4)2
_symmetry_space_group_name_H-M   'P 1'
_cell_length_a   10.16127373
_cell_length_b   6.03616997
_cell_length_c   4.75312336
_cell_angle_alpha   90.00000000
_cell_angle_beta   91.39844839
_cell_angle_gamma   90.00000000
_symmetry_Int_Tables_number   1
_chemical_formula_structural   Li2CoCu(PO4)2
_chemical_formula_sum   'Li4 Co2 Cu2 P4 O16'
_cell_volume   291.44682183
_cell_formula_units_Z   2
loop_
 _symmetry_equiv_pos_site_id
 _symmetry_equiv_pos_as_xyz
  1  'x, y, z'
loop_
 _atom_site_type_symbol
 _atom_site_label
 _atom_site_symmetry_multiplicity
 _atom_site_fract_x
 _atom_site_fract_y
 _atom_site_fract_z
 _atom_site_occupancy
  Li  Li0  1  0.00000000  0.00000000  0.00000000  1
  Li  Li1  1  0.00000000  0.50000000  0.00000000  1
  Li  Li2  1  0.50000000  0.00000000  0.50000000  1
  Li  Li3  1  0.50000000  0.50000000  0.50000000  1
  Co  Co4  1  0.21677942  0.75000000  0.48423935  1
  Co  Co5  1  0.78322058  0.25000000  0.51576065  1
  Cu  Cu6  1  0.28154938  0.25000000  0.96688839  1
  Cu  Cu7  1  0.71845062  0.75000000  0.03311161  1
  P  P8  1  0.09776045  0.25000000  0.42134611  1
  P  P9  1  0.40548624  0.75000000  0.92696706  1
  P  P10  1  0.59451376  0.25000000  0.07303294  1
  P  P11  1  0.90223955  0.75000000  0.57865389  1
  O  O12  1  0.04514412  0.75000000  0.70392884  1
  O  O13  1  0.10072352  0.25000000  0.74710959  1
  O  O14  1  0.16650081  0.04308357  0.29176181  1
  O  O15  1  0.16650081  0.45691643  0.29176181  1
  O  O16  1  0.33383987  0.54774804  0.78279714  1
  O  O17  1  0.33383987  0.95225196  0.78279714  1
  O  O18  1  0.40155170  0.75000000  0.24858782  1
  O  O19  1  0.45193581  0.25000000  0.18964736  1
  O  O20  1  0.54806419  0.75000000  0.81035264  1
  O  O21  1  0.59844830  0.25000000  0.75141218  1
  O  O22  1  0.66616013  0.04774804  0.21720286  1
  O  O23  1  0.66616013  0.45225196  0.21720286  1
  O  O24  1  0.83349919  0.54308357  0.70823819  1
  O  O25  1  0.83349919  0.95691643  0.70823819  1
  O  O26  1  0.89927648  0.75000000  0.25289041  1
  O  O27  1  0.95485588  0.25000000  0.29607116  1
