# generated using pymatgen
data_CuHCO4
_symmetry_space_group_name_H-M   'P 1'
_cell_length_a   10.75122059
_cell_length_b   10.75122040
_cell_length_c   6.08899422
_cell_angle_alpha   90.00000000
_cell_angle_beta   90.00000000
_cell_angle_gamma   120.00000145
_symmetry_Int_Tables_number   1
_chemical_formula_structural   CuHCO4
_chemical_formula_sum   'Cu6 H6 C6 O24'
_cell_volume   609.52528288
_cell_formula_units_Z   6
loop_
 _symmetry_equiv_pos_site_id
 _symmetry_equiv_pos_as_xyz
  1  'x, y, z'
loop_
 _atom_site_type_symbol
 _atom_site_label
 _atom_site_symmetry_multiplicity
 _atom_site_fract_x
 _atom_site_fract_y
 _atom_site_fract_z
 _atom_site_occupancy
  Cu  Cu0  1  0.00000000  0.50000000  0.50000000  1
  Cu  Cu1  1  0.00000000  0.50000000  0.00000000  1
  Cu  Cu2  1  0.50000000  0.50000000  0.50000000  1
  Cu  Cu3  1  0.50000000  0.50000000  0.00000000  1
  Cu  Cu4  1  0.50000000  0.00000000  0.50000000  1
  Cu  Cu5  1  0.50000000  0.00000000  0.00000000  1
  H  H6  1  0.18700365  0.59362851  0.75000000  1
  H  H7  1  0.40662586  0.81299635  0.75000000  1
  H  H8  1  0.40637149  0.59337414  0.75000000  1
  H  H9  1  0.59362851  0.40662586  0.25000000  1
  H  H10  1  0.59337414  0.18700365  0.25000000  1
  H  H11  1  0.81299635  0.40637149  0.25000000  1
  C  C12  1  0.19251798  0.75103266  0.25000000  1
  C  C13  1  0.24896734  0.44148532  0.25000000  1
  C  C14  1  0.55851468  0.80748202  0.25000000  1
  C  C15  1  0.44148532  0.19251798  0.75000000  1
  C  C16  1  0.75103266  0.55851468  0.75000000  1
  C  C17  1  0.80748202  0.24896734  0.75000000  1
  O  O18  1  0.14700975  0.68772733  0.44077173  1
  O  O19  1  0.14700975  0.68772733  0.05922827  1
  O  O20  1  0.28960956  0.88099637  0.25000000  1
  O  O21  1  0.10138797  0.49773568  0.75000000  1
  O  O22  1  0.11900363  0.40861319  0.25000000  1
  O  O23  1  0.39634671  0.89861203  0.75000000  1
  O  O24  1  0.31227267  0.45928243  0.44077173  1
  O  O25  1  0.31227267  0.45928243  0.05922827  1
  O  O26  1  0.54071757  0.85299025  0.05922827  1
  O  O27  1  0.54071757  0.85299025  0.44077173  1
  O  O28  1  0.50226432  0.60365329  0.75000000  1
  O  O29  1  0.59138681  0.71039044  0.25000000  1
  O  O30  1  0.40861319  0.28960956  0.75000000  1
  O  O31  1  0.49773568  0.39634671  0.25000000  1
  O  O32  1  0.45928243  0.14700975  0.55922827  1
  O  O33  1  0.45928243  0.14700975  0.94077173  1
  O  O34  1  0.68772733  0.54071757  0.94077173  1
  O  O35  1  0.68772733  0.54071757  0.55922827  1
  O  O36  1  0.60365329  0.10138797  0.25000000  1
  O  O37  1  0.88099637  0.59138681  0.75000000  1
  O  O38  1  0.89861203  0.50226432  0.25000000  1
  O  O39  1  0.71039044  0.11900363  0.75000000  1
  O  O40  1  0.85299025  0.31227267  0.94077173  1
  O  O41  1  0.85299025  0.31227267  0.55922827  1
