# generated using pymatgen
data_Na2NiPCO7
_symmetry_space_group_name_H-M   'P 1'
_cell_length_a   10.25018152
_cell_length_b   10.48491138
_cell_length_c   6.52318740
_cell_angle_alpha   90.00000000
_cell_angle_beta   90.00000000
_cell_angle_gamma   60.09488064
_symmetry_Int_Tables_number   1
_chemical_formula_structural   Na2NiPCO7
_chemical_formula_sum   'Na8 Ni4 P4 C4 O28'
_cell_volume   607.71678889
_cell_formula_units_Z   4
loop_
 _symmetry_equiv_pos_site_id
 _symmetry_equiv_pos_as_xyz
  1  'x, y, z'
loop_
 _atom_site_type_symbol
 _atom_site_label
 _atom_site_symmetry_multiplicity
 _atom_site_fract_x
 _atom_site_fract_y
 _atom_site_fract_z
 _atom_site_occupancy
  Na  Na0  1  0.00538616  0.25842565  0.48244815  1
  Na  Na1  1  0.00691161  0.25700860  0.01623651  1
  Na  Na2  1  0.49318814  0.23834106  0.98096110  1
  Na  Na3  1  0.84905463  0.06206853  0.75283216  1
  Na  Na4  1  0.34905463  0.56206853  0.74716784  1
  Na  Na5  1  0.50538616  0.75842565  0.01755185  1
  Na  Na6  1  0.50691161  0.75700860  0.48376349  1
  Na  Na7  1  0.99318814  0.73834106  0.51903890  1
  Ni  Ni8  1  0.28541320  0.06197875  0.75018875  1
  Ni  Ni9  1  0.21667593  0.43840213  0.24783265  1
  Ni  Ni10  1  0.78541320  0.56197875  0.74981125  1
  Ni  Ni11  1  0.71667593  0.93840213  0.25216735  1
  P  P12  1  0.35298045  0.07321893  0.25215029  1
  P  P13  1  0.14633165  0.43123223  0.74929995  1
  P  P14  1  0.85298045  0.57321893  0.24784971  1
  P  P15  1  0.64633165  0.93123223  0.75070005  1
  C  C16  1  0.82290498  0.10872253  0.25232159  1
  C  C17  1  0.32290498  0.60872253  0.24767841  1
  C  C18  1  0.68013464  0.39055153  0.75433740  1
  C  C19  1  0.18013464  0.89055153  0.74566260  1
  O  O20  1  0.09781447  0.03430306  0.75006392  1
  O  O21  1  0.26874443  0.05814604  0.06348207  1
  O  O22  1  0.26838371  0.05861298  0.43986264  1
  O  O23  1  0.14542013  0.28449844  0.74583883  1
  O  O24  1  0.01874164  0.44169251  0.24758746  1
  O  O25  1  0.47850211  0.05851303  0.75118842  1
  O  O26  1  0.35240954  0.21995363  0.24793001  1
  O  O27  1  0.23504173  0.44090543  0.93577800  1
  O  O28  1  0.22152485  0.45794692  0.56042594  1
  O  O29  1  0.67899762  0.15262580  0.24487164  1
  O  O30  1  0.17899762  0.65262580  0.25512836  1
  O  O31  1  0.40669813  0.46642129  0.23904181  1
  O  O32  1  0.62189750  0.30904725  0.76289289  1
  O  O33  1  0.12189750  0.80904725  0.73710711  1
  O  O34  1  0.87418526  0.19568282  0.25034937  1
  O  O35  1  0.37418526  0.69568282  0.24965063  1
  O  O36  1  0.59781447  0.53430306  0.74993608  1
  O  O37  1  0.82546451  0.33857085  0.74958878  1
  O  O38  1  0.32546451  0.83857085  0.75041122  1
  O  O39  1  0.76838371  0.55861298  0.06013736  1
  O  O40  1  0.76874443  0.55814604  0.43651793  1
  O  O41  1  0.64542013  0.78449844  0.75416117  1
  O  O42  1  0.51874164  0.94169251  0.25241254  1
  O  O43  1  0.97850211  0.55851303  0.74881158  1
  O  O44  1  0.85240954  0.71995363  0.25206999  1
  O  O45  1  0.73504173  0.94090543  0.56422200  1
  O  O46  1  0.72152485  0.95794692  0.93957406  1
  O  O47  1  0.90669813  0.96642129  0.26095819  1
