# generated using pymatgen
data_Li3V3CrO8
_symmetry_space_group_name_H-M   'P 1'
_cell_length_a   5.21721771
_cell_length_b   5.97288499
_cell_length_c   10.70790751
_cell_angle_alpha   106.19593580
_cell_angle_beta   85.38404039
_cell_angle_gamma   73.11347503
_symmetry_Int_Tables_number   1
_chemical_formula_structural   Li3V3CrO8
_chemical_formula_sum   'Li6 V6 Cr2 O16'
_cell_volume   301.84647783
_cell_formula_units_Z   2
loop_
 _symmetry_equiv_pos_site_id
 _symmetry_equiv_pos_as_xyz
  1  'x, y, z'
loop_
 _atom_site_type_symbol
 _atom_site_label
 _atom_site_symmetry_multiplicity
 _atom_site_fract_x
 _atom_site_fract_y
 _atom_site_fract_z
 _atom_site_occupancy
  Li  Li0  1  0.00672150  0.12047261  0.74594046  1
  Li  Li1  1  0.00252161  0.36532847  0.25230655  1
  Li  Li2  1  0.99811700  0.50678943  0.00198533  1
  Li  Li3  1  0.99451320  0.62970174  0.75203111  1
  Li  Li4  1  0.99854355  0.76011751  0.49896903  1
  Li  Li5  1  0.00104111  0.88587057  0.24999564  1
  V  V6  1  0.49728344  0.06247038  0.87778708  1
  V  V7  1  0.50250625  0.18272502  0.62315445  1
  V  V8  1  0.49301786  0.31248219  0.38194189  1
  V  V9  1  0.51386689  0.42777452  0.11942799  1
  V  V10  1  0.47949288  0.57308190  0.87659863  1
  V  V11  1  0.52209798  0.67812204  0.62052595  1
  Cr  Cr12  1  0.49295022  0.81225579  0.37259846  1
  Cr  Cr13  1  0.50030795  0.93701563  0.12569933  1
  O  O14  1  0.28321240  0.08652312  0.30777428  1
  O  O15  1  0.28411951  0.22246642  0.07012775  1
  O  O16  1  0.26564293  0.33752959  0.81315144  1
  O  O17  1  0.28192024  0.46047516  0.55277535  1
  O  O18  1  0.28138682  0.57901767  0.30650213  1
  O  O19  1  0.28123408  0.70313682  0.06926305  1
  O  O20  1  0.28220307  0.83827428  0.80091529  1
  O  O21  1  0.29122292  0.95052382  0.55979514  1
  O  O22  1  0.71529232  0.03101401  0.43175074  1
  O  O23  1  0.70816266  0.17341206  0.20101896  1
  O  O24  1  0.71666209  0.30156368  0.94808933  1
  O  O25  1  0.71600921  0.41362292  0.69458930  1
  O  O26  1  0.71903439  0.53736519  0.43065755  1
  O  O27  1  0.72397615  0.65816674  0.18625867  1
  O  O28  1  0.70918743  0.78697157  0.93895143  1
  O  O29  1  0.73775532  0.91572916  0.68942070  1
