# generated using pymatgen
data_Li3Co(BO3)2
_symmetry_space_group_name_H-M   'P 1'
_cell_length_a   5.00500720
_cell_length_b   6.31619263
_cell_length_c   8.01008715
_cell_angle_alpha   74.57913830
_cell_angle_beta   89.34794783
_cell_angle_gamma   88.94438562
_symmetry_Int_Tables_number   1
_chemical_formula_structural   Li3Co(BO3)2
_chemical_formula_sum   'Li6 Co2 B4 O12'
_cell_volume   244.05640357
_cell_formula_units_Z   2
loop_
 _symmetry_equiv_pos_site_id
 _symmetry_equiv_pos_as_xyz
  1  'x, y, z'
loop_
 _atom_site_type_symbol
 _atom_site_label
 _atom_site_symmetry_multiplicity
 _atom_site_fract_x
 _atom_site_fract_y
 _atom_site_fract_z
 _atom_site_occupancy
  Li  Li0  1  0.17426434  0.89676395  0.92647116  1
  Li  Li1  1  0.32634435  0.02585985  0.25856827  1
  Li  Li2  1  0.33176294  0.74031626  0.60919973  1
  Li  Li3  1  0.66823706  0.25968374  0.39080027  1
  Li  Li4  1  0.67365565  0.97414015  0.74143173  1
  Li  Li5  1  0.82573566  0.10323605  0.07352884  1
  Co  Co6  1  0.15380499  0.55013370  0.27006137  1
  Co  Co7  1  0.84619601  0.44986630  0.72993863  1
  B  B8  1  0.15746094  0.17006634  0.57420479  1
  B  B9  1  0.33161565  0.32333720  0.90956507  1
  B  B10  1  0.66838435  0.67666280  0.09043493  1
  B  B11  1  0.84253906  0.82993366  0.42579521  1
  O  O12  1  0.10995500  0.77078949  0.39727687  1
  O  O13  1  0.20268041  0.48788156  0.78320453  1
  O  O14  1  0.20161136  0.16597548  0.02865944  1
  O  O15  1  0.27328483  0.27800288  0.41347307  1
  O  O16  1  0.29236666  0.00778714  0.68703543  1
  O  O17  1  0.38652060  0.67805752  0.09617978  1
  O  O18  1  0.61347940  0.32194248  0.90382022  1
  O  O19  1  0.70763334  0.99221286  0.31296457  1
  O  O20  1  0.72671517  0.72199712  0.58652693  1
  O  O21  1  0.79838864  0.83402452  0.97134056  1
  O  O22  1  0.79731959  0.51211844  0.21679547  1
  O  O23  1  0.89004500  0.22921051  0.60272313  1
