# generated using pymatgen
data_Li4NbNi3O8
_symmetry_space_group_name_H-M   'P 1'
_cell_length_a   10.31021472
_cell_length_b   10.31137934
_cell_length_c   14.57897062
_cell_angle_alpha   19.46523176
_cell_angle_beta   19.46777921
_cell_angle_gamma   33.55424634
_symmetry_Int_Tables_number   1
_chemical_formula_structural   Li4NbNi3O8
_chemical_formula_sum   'Li4 Nb1 Ni3 O8'
_cell_volume   149.02940156
_cell_formula_units_Z   1
loop_
 _symmetry_equiv_pos_site_id
 _symmetry_equiv_pos_as_xyz
  1  'x, y, z'
loop_
 _atom_site_type_symbol
 _atom_site_label
 _atom_site_symmetry_multiplicity
 _atom_site_fract_x
 _atom_site_fract_y
 _atom_site_fract_z
 _atom_site_occupancy
  Li  Li0  1  0.00000267  0.00000336  0.49999722  1
  Li  Li1  1  -0.00000196  0.50004783  0.49996429  1
  Li  Li2  1  0.50003526  0.99997712  0.49999237  1
  Li  Li3  1  0.49996811  0.49994950  0.50005584  1
  Nb  Nb4  1  -0.00000807  -0.00004326  0.00002430  1
  Ni  Ni5  1  0.00000108  0.49999547  0.00000231  1
  Ni  Ni6  1  0.50002484  0.00002691  0.99996542  1
  Ni  Ni7  1  0.49996961  0.49999453  0.00002307  1
  O  O8  1  -0.00011597  0.00050224  0.26165827  1
  O  O9  1  0.00034426  0.51871454  0.24074804  1
  O  O10  1  0.51856251  0.00043036  0.24072772  1
  O  O11  1  0.00011282  0.99948485  0.73836336  1
  O  O12  1  0.48136685  0.48138552  0.27829738  1
  O  O13  1  0.99965428  0.48130648  0.75925067  1
  O  O14  1  0.48139870  0.99956065  0.75930109  1
  O  O15  1  0.51868500  0.51866389  0.72162866  1
