# generated using pymatgen
data_Li4Fe3Sb5O16
_symmetry_space_group_name_H-M   'P 1'
_cell_length_a   6.24308691
_cell_length_b   6.23445604
_cell_length_c   10.35825716
_cell_angle_alpha   90.25734196
_cell_angle_beta   90.29154092
_cell_angle_gamma   118.86010007
_symmetry_Int_Tables_number   1
_chemical_formula_structural   Li4Fe3Sb5O16
_chemical_formula_sum   'Li4 Fe3 Sb5 O16'
_cell_volume   353.07805002
_cell_formula_units_Z   1
loop_
 _symmetry_equiv_pos_site_id
 _symmetry_equiv_pos_as_xyz
  1  'x, y, z'
loop_
 _atom_site_type_symbol
 _atom_site_label
 _atom_site_symmetry_multiplicity
 _atom_site_fract_x
 _atom_site_fract_y
 _atom_site_fract_z
 _atom_site_occupancy
  Li  Li0  1  0.32327070  0.65799843  0.88896914  1
  Li  Li1  1  0.99159768  0.99633152  0.99087985  1
  Li  Li2  1  0.00141883  0.00147565  0.50179439  1
  Li  Li3  1  0.64084730  0.32016911  0.39576326  1
  Fe  Fe4  1  0.66122138  0.82936859  0.21337497  1
  Fe  Fe5  1  0.83696908  0.66651511  0.71433943  1
  Fe  Fe6  1  0.83628837  0.17180441  0.71534853  1
  Sb  Sb7  1  0.16361986  0.82970684  0.21577446  1
  Sb  Sb8  1  0.36189175  0.69025029  0.50971652  1
  Sb  Sb9  1  0.16519630  0.33304897  0.21623751  1
  Sb  Sb10  1  0.34204541  0.17351482  0.71887087  1
  Sb  Sb11  1  0.69671709  0.34934567  0.98011769  1
  O  O12  1  0.18086196  0.86509971  0.60659531  1
  O  O13  1  0.01026159  0.50866269  0.31800564  1
  O  O14  1  0.30770174  0.65205005  0.10644304  1
  O  O15  1  0.01269963  0.00742395  0.32050317  1
  O  O16  1  0.01847958  0.01718339  0.81232032  1
  O  O17  1  0.16206158  0.31180185  0.61064136  1
  O  O18  1  0.46471727  0.96633925  0.32584387  1
  O  O19  1  0.46781946  0.49432004  0.32079394  1
  O  O20  1  0.29138538  0.14033032  0.10934976  1
  O  O21  1  0.69699105  0.85959928  0.59993422  1
  O  O22  1  0.50364719  0.47382516  0.83263246  1
  O  O23  1  0.51722320  0.02924777  0.82873213  1
  O  O24  1  0.64953561  0.31465351  0.60946226  1
  O  O25  1  0.86661329  0.70175370  0.10209823  1
  O  O26  1  0.96228662  0.47192309  0.83803505  1
  O  O27  1  0.86662809  0.16655483  0.10526761  1
