# generated using pymatgen
data_Li3BiH8O7
_symmetry_space_group_name_H-M   'P 1'
_cell_length_a   6.46780680
_cell_length_b   7.06820617
_cell_length_c   8.05449047
_cell_angle_alpha   92.58688290
_cell_angle_beta   91.35367116
_cell_angle_gamma   115.79623828
_symmetry_Int_Tables_number   1
_chemical_formula_structural   Li3BiH8O7
_chemical_formula_sum   'Li6 Bi2 H16 O14'
_cell_volume   330.80233935
_cell_formula_units_Z   2
loop_
 _symmetry_equiv_pos_site_id
 _symmetry_equiv_pos_as_xyz
  1  'x, y, z'
loop_
 _atom_site_type_symbol
 _atom_site_label
 _atom_site_symmetry_multiplicity
 _atom_site_fract_x
 _atom_site_fract_y
 _atom_site_fract_z
 _atom_site_occupancy
  Li  Li0  1  0.02544271  0.34202087  0.38550331  1
  Li  Li1  1  0.32307906  0.83751683  0.37010641  1
  Li  Li2  1  0.21197328  0.11009974  0.60013142  1
  Li  Li3  1  0.78802672  0.88990026  0.39986858  1
  Li  Li4  1  0.67692094  0.16248317  0.62989359  1
  Li  Li5  1  0.97455729  0.65797913  0.61449669  1
  Bi  Bi6  1  0.46432508  0.62078251  0.67940321  1
  Bi  Bi7  1  0.53567492  0.37921749  0.32059679  1
  H  H8  1  0.98492053  0.31818604  0.03230448  1
  H  H9  1  0.01580939  0.33505763  0.74072548  1
  H  H10  1  0.32076956  0.93410922  0.75648663  1
  H  H11  1  0.37919325  0.83417467  0.06575573  1
  H  H12  1  0.17803811  0.54731213  0.10067205  1
  H  H13  1  0.12581655  0.03267272  0.25625019  1
  H  H14  1  0.21376284  0.02736034  0.96980712  1
  H  H15  1  0.23656314  0.25824185  0.96326978  1
  H  H16  1  0.76343686  0.74175815  0.03673022  1
  H  H17  1  0.78623716  0.97263966  0.03019288  1
  H  H18  1  0.87418345  0.96732728  0.74374981  1
  H  H19  1  0.82196189  0.45268787  0.89932795  1
  H  H20  1  0.62080675  0.16582533  0.93424427  1
  H  H21  1  0.67923044  0.06589078  0.24351337  1
  H  H22  1  0.98419061  0.66494237  0.25927452  1
  H  H23  1  0.01507947  0.68181396  0.96769552  1
  O  O24  1  0.22696942  0.81599023  0.09882592  1
  O  O25  1  0.07021291  0.39050292  0.63220205  1
  O  O26  1  0.32157558  0.88146387  0.64270623  1
  O  O27  1  0.13728566  0.39332104  0.09967093  1
  O  O28  1  0.16309971  0.11405672  0.36306372  1
  O  O29  1  0.44805126  0.63843641  0.41629797  1
  O  O30  1  0.24984019  0.14384400  0.89361704  1
  O  O31  1  0.75015981  0.85615600  0.10638296  1
  O  O32  1  0.55194874  0.36156359  0.58370203  1
  O  O33  1  0.83690029  0.88594328  0.63693628  1
  O  O34  1  0.86271434  0.60667896  0.90032907  1
  O  O35  1  0.67842442  0.11853613  0.35729377  1
  O  O36  1  0.92978709  0.60949708  0.36779795  1
  O  O37  1  0.77303058  0.18400977  0.90117408  1
