# generated using pymatgen
data_Li5Mn2P2(CO7)2
_symmetry_space_group_name_H-M   'P 1'
_cell_length_a   8.51357504
_cell_length_b   10.09104126
_cell_length_c   6.44234928
_cell_angle_alpha   90.00000000
_cell_angle_beta   90.00000000
_cell_angle_gamma   86.09875257
_symmetry_Int_Tables_number   1
_chemical_formula_structural   Li5Mn2P2(CO7)2
_chemical_formula_sum   'Li10 Mn4 P4 C4 O28'
_cell_volume   552.18512231
_cell_formula_units_Z   2
loop_
 _symmetry_equiv_pos_site_id
 _symmetry_equiv_pos_as_xyz
  1  'x, y, z'
loop_
 _atom_site_type_symbol
 _atom_site_label
 _atom_site_symmetry_multiplicity
 _atom_site_fract_x
 _atom_site_fract_y
 _atom_site_fract_z
 _atom_site_occupancy
  Li  Li0  1  0.09701455  0.38286390  0.25000000  1
  Li  Li1  1  0.24770559  0.11925766  0.02009790  1
  Li  Li2  1  0.24770559  0.11925766  0.47990210  1
  Li  Li3  1  0.26167669  0.63595776  0.02069427  1
  Li  Li4  1  0.26167669  0.63595776  0.47930573  1
  Li  Li5  1  0.73832331  0.36404224  0.52069427  1
  Li  Li6  1  0.73832331  0.36404224  0.97930573  1
  Li  Li7  1  0.75229441  0.88074234  0.52009790  1
  Li  Li8  1  0.75229441  0.88074234  0.97990210  1
  Li  Li9  1  0.90298545  0.61713610  0.75000000  1
  Mn  Mn10  1  0.33865468  0.39263439  0.75000000  1
  Mn  Mn11  1  0.34119025  0.89862286  0.75000000  1
  Mn  Mn12  1  0.65880975  0.10137714  0.25000000  1
  Mn  Mn13  1  0.66134532  0.60736561  0.25000000  1
  P  P14  1  0.41425377  0.36112311  0.25000000  1
  P  P15  1  0.41838924  0.86325190  0.25000000  1
  P  P16  1  0.58161076  0.13674910  0.75000000  1
  P  P17  1  0.58574623  0.63887689  0.75000000  1
  C  C18  1  0.03581306  0.36055222  0.75000000  1
  C  C19  1  0.04648333  0.85370670  0.75000000  1
  C  C20  1  0.95351667  0.14629330  0.25000000  1
  C  C21  1  0.96418694  0.63944778  0.25000000  1
  O  O22  1  0.07590972  0.48315354  0.75000000  1
  O  O23  1  0.09614904  0.18516361  0.25000000  1
  O  O24  1  0.08016999  0.97445498  0.75000000  1
  O  O25  1  0.15198976  0.26723139  0.75000000  1
  O  O26  1  0.10717067  0.66822418  0.25000000  1
  O  O27  1  0.16501157  0.75987975  0.75000000  1
  O  O28  1  0.31196356  0.41442941  0.06372402  1
  O  O29  1  0.31196356  0.41442941  0.43627598  1
  O  O30  1  0.32641964  0.92071301  0.05989232  1
  O  O31  1  0.32641964  0.92071301  0.44010768  1
  O  O32  1  0.40853597  0.09481037  0.75000000  1
  O  O33  1  0.42978433  0.20703357  0.25000000  1
  O  O34  1  0.41933901  0.58631124  0.75000000  1
  O  O35  1  0.42722291  0.70813774  0.25000000  1
  O  O36  1  0.57277709  0.29186226  0.75000000  1
  O  O37  1  0.58066099  0.41368876  0.25000000  1
  O  O38  1  0.57021567  0.79296643  0.75000000  1
  O  O39  1  0.59146403  0.90518963  0.25000000  1
  O  O40  1  0.67358036  0.07928699  0.94010768  1
  O  O41  1  0.67358036  0.07928699  0.55989232  1
  O  O42  1  0.68803644  0.58557059  0.56372402  1
  O  O43  1  0.68803644  0.58557059  0.93627598  1
  O  O44  1  0.83498843  0.24012025  0.25000000  1
  O  O45  1  0.89282933  0.33177582  0.75000000  1
  O  O46  1  0.84801024  0.73276861  0.25000000  1
  O  O47  1  0.91983001  0.02554502  0.25000000  1
  O  O48  1  0.90385096  0.81483639  0.75000000  1
  O  O49  1  0.92409028  0.51684646  0.25000000  1
