# generated using pymatgen
data_Te2Mo2WS4
_symmetry_space_group_name_H-M   'P 1'
_cell_length_a   3.30538483
_cell_length_b   3.30545937
_cell_length_c   30.51326651
_cell_angle_alpha   90.00001980
_cell_angle_beta   90.00000000
_cell_angle_gamma   119.99925390
_symmetry_Int_Tables_number   1
_chemical_formula_structural   Te2Mo2WS4
_chemical_formula_sum   'Te2 Mo2 W1 S4'
_cell_volume   288.71972297
_cell_formula_units_Z   1
loop_
 _symmetry_equiv_pos_site_id
 _symmetry_equiv_pos_as_xyz
  1  'x, y, z'
loop_
 _atom_site_type_symbol
 _atom_site_label
 _atom_site_symmetry_multiplicity
 _atom_site_fract_x
 _atom_site_fract_y
 _atom_site_fract_z
 _atom_site_occupancy
  Te  Te0  1  0.66665022  0.33329944  0.51520890  1
  Te  Te1  1  0.66664233  0.33328366  0.64144419  1
  Mo  Mo2  1  0.33331395  0.66662790  0.11564930  1
  Mo  Mo3  1  0.66671256  0.33342511  0.34695094  1
  W  W4  1  0.33331015  0.66662030  0.57835002  1
  S  S5  1  0.33334233  0.66668567  0.39707667  1
  S  S6  1  0.66664335  0.33328570  0.06549422  1
  S  S7  1  0.66664381  0.33328661  0.16582002  1
  S  S8  1  0.33334230  0.66668560  0.29684675  1
