# generated using pymatgen
data_Li5Fe2P2(CO7)2
_symmetry_space_group_name_H-M   'P 1'
_cell_length_a   8.43464866
_cell_length_b   5.04697900
_cell_length_c   6.49638817
_cell_angle_alpha   90.00000000
_cell_angle_beta   90.00000000
_cell_angle_gamma   85.22058306
_symmetry_Int_Tables_number   1
_chemical_formula_structural   Li5Fe2P2(CO7)2
_chemical_formula_sum   'Li5 Fe2 P2 C2 O14'
_cell_volume   275.58636397
_cell_formula_units_Z   1
loop_
 _symmetry_equiv_pos_site_id
 _symmetry_equiv_pos_as_xyz
  1  'x, y, z'
loop_
 _atom_site_type_symbol
 _atom_site_label
 _atom_site_symmetry_multiplicity
 _atom_site_fract_x
 _atom_site_fract_y
 _atom_site_fract_z
 _atom_site_occupancy
  Li  Li0  1  0.25957025  0.24939834  0.01698880  1
  Li  Li1  1  0.25957025  0.24939834  0.48301120  1
  Li  Li2  1  0.74106648  0.74624783  0.51461821  1
  Li  Li3  1  0.74106648  0.74624783  0.98538179  1
  Li  Li4  1  0.91006525  0.23563842  0.75000000  1
  Fe  Fe5  1  0.33712204  0.78794121  0.75000000  1
  Fe  Fe6  1  0.66356328  0.21089530  0.25000000  1
  P  P7  1  0.41769203  0.73681173  0.25000000  1
  P  P8  1  0.58515166  0.28609274  0.75000000  1
  C  C9  1  0.03690923  0.69819272  0.75000000  1
  C  C10  1  0.95372608  0.28498834  0.25000000  1
  O  O11  1  0.07350769  0.94149828  0.75000000  1
  O  O12  1  0.09897176  0.32816115  0.25000000  1
  O  O13  1  0.15099150  0.50768646  0.75000000  1
  O  O14  1  0.32519233  0.83702543  0.05976718  1
  O  O15  1  0.32519233  0.83702543  0.44023282  1
  O  O16  1  0.41818968  0.18660443  0.75000000  1
  O  O17  1  0.44743073  0.42214906  0.25000000  1
  O  O18  1  0.57429127  0.59467081  0.75000000  1
  O  O19  1  0.58989836  0.83860164  0.25000000  1
  O  O20  1  0.68782321  0.17723890  0.56228242  1
  O  O21  1  0.68782321  0.17723890  0.93771758  1
  O  O22  1  0.83707185  0.48150053  0.25000000  1
  O  O23  1  0.89043379  0.63835930  0.75000000  1
  O  O24  1  0.90075226  0.04964489  0.25000000  1
