# generated using pymatgen
data_Li5Mn2P2(CO7)2
_symmetry_space_group_name_H-M   'P 1'
_cell_length_a   9.59506231
_cell_length_b   8.19807291
_cell_length_c   8.21550894
_cell_angle_alpha   76.62789993
_cell_angle_beta   73.01172599
_cell_angle_gamma   106.97495916
_symmetry_Int_Tables_number   1
_chemical_formula_structural   Li5Mn2P2(CO7)2
_chemical_formula_sum   'Li10 Mn4 P4 C4 O28'
_cell_volume   554.58272498
_cell_formula_units_Z   2
loop_
 _symmetry_equiv_pos_site_id
 _symmetry_equiv_pos_as_xyz
  1  'x, y, z'
loop_
 _atom_site_type_symbol
 _atom_site_label
 _atom_site_symmetry_multiplicity
 _atom_site_fract_x
 _atom_site_fract_y
 _atom_site_fract_z
 _atom_site_occupancy
  Li  Li0  1  0.90799019  0.19809048  0.04626709  1
  Li  Li1  1  0.74434504  0.97330762  0.50891040  1
  Li  Li2  1  0.74735103  0.74510621  0.26582685  1
  Li  Li3  1  0.74711040  0.49898353  0.98303556  1
  Li  Li4  1  0.74153985  0.26039147  0.76312058  1
  Li  Li5  1  0.25264897  0.75489379  0.23417315  1
  Li  Li6  1  0.25565496  0.52669238  0.99108960  1
  Li  Li7  1  0.25846015  0.23960853  0.73687942  1
  Li  Li8  1  0.25288960  0.00101647  0.51696444  1
  Li  Li9  1  0.09200981  0.30190952  0.45373291  1
  Mn  Mn10  1  0.66062415  0.30567631  0.44400962  1
  Mn  Mn11  1  0.65790225  0.81490612  0.93784393  1
  Mn  Mn12  1  0.33937585  0.19432369  0.05599038  1
  Mn  Mn13  1  0.34209775  0.68509388  0.56215607  1
  P  P14  1  0.58323687  0.05999149  0.19278313  1
  P  P15  1  0.58367140  0.55080020  0.69806703  1
  P  P16  1  0.41632860  0.94919980  0.80193297  1
  P  P17  1  0.41676313  0.44000851  0.30721687  1
  C  C18  1  0.96032544  0.49625786  0.25775136  1
  C  C19  1  0.95569436  0.00247759  0.74460649  1
  C  C20  1  0.03967456  0.00374214  0.24224864  1
  C  C21  1  0.04430564  0.49752241  0.75539351  1
  O  O22  1  0.91120097  0.86630029  0.88660655  1
  O  O23  1  0.92445609  0.35323789  0.39364589  1
  O  O24  1  0.89840726  0.89917347  0.34734175  1
  O  O25  1  0.83809265  0.52650013  0.23158465  1
  O  O26  1  0.89605183  0.39531314  0.85643235  1
  O  O27  1  0.84825182  0.04678673  0.69743483  1
  O  O28  1  0.68916908  0.96939073  0.10104941  1
  O  O29  1  0.67294079  0.44162127  0.61331994  1
  O  O30  1  0.67566892  0.63711642  0.80008811  1
  O  O31  1  0.68303989  0.14980561  0.29260272  1
  O  O32  1  0.58443357  0.57632423  0.17809314  1
  O  O33  1  0.57075302  0.69590232  0.54930550  1
  O  O34  1  0.57090640  0.20857068  0.04657765  1
  O  O35  1  0.58932421  0.07949767  0.66769689  1
  O  O36  1  0.41556643  0.92367577  0.32190686  1
  O  O37  1  0.42924698  0.80409768  0.95069450  1
  O  O38  1  0.42909360  0.29142932  0.45342235  1
  O  O39  1  0.41067579  0.42050233  0.83230311  1
  O  O40  1  0.32433108  0.86288358  0.69991189  1
  O  O41  1  0.31083092  0.53060927  0.39895059  1
  O  O42  1  0.31696011  0.35019439  0.20739728  1
  O  O43  1  0.32705921  0.05837873  0.88668006  1
  O  O44  1  0.16190735  0.97349987  0.26841635  1
  O  O45  1  0.10159274  0.60082653  0.15265825  1
  O  O46  1  0.15174818  0.45321327  0.80256517  1
  O  O47  1  0.10394817  0.10468686  0.64356765  1
  O  O48  1  0.07554391  0.14676211  0.10635411  1
  O  O49  1  0.08879903  0.63369971  0.61339345  1
