# generated using pymatgen
data_Li3Fe2P2(CO7)2
_symmetry_space_group_name_H-M   'P 1'
_cell_length_a   8.38309857
_cell_length_b   10.27637472
_cell_length_c   6.47359356
_cell_angle_alpha   90.00000000
_cell_angle_beta   90.00000000
_cell_angle_gamma   85.05604822
_symmetry_Int_Tables_number   1
_chemical_formula_structural   Li3Fe2P2(CO7)2
_chemical_formula_sum   'Li6 Fe4 P4 C4 O28'
_cell_volume   555.61136308
_cell_formula_units_Z   2
loop_
 _symmetry_equiv_pos_site_id
 _symmetry_equiv_pos_as_xyz
  1  'x, y, z'
loop_
 _atom_site_type_symbol
 _atom_site_label
 _atom_site_symmetry_multiplicity
 _atom_site_fract_x
 _atom_site_fract_y
 _atom_site_fract_z
 _atom_site_occupancy
  Li  Li0  1  0.11065657  0.38737531  0.24614107  1
  Li  Li1  1  0.11065657  0.88737531  0.25385893  1
  Li  Li2  1  0.71470819  0.37417484  0.54455318  1
  Li  Li3  1  0.71470819  0.87417484  0.95544682  1
  Li  Li4  1  0.90188757  0.11970739  0.74812753  1
  Li  Li5  1  0.90188757  0.61970739  0.75187247  1
  Fe  Fe6  1  0.32946074  0.40106037  0.75374202  1
  Fe  Fe7  1  0.32946074  0.90106037  0.74625798  1
  Fe  Fe8  1  0.66664311  0.09930834  0.25273936  1
  Fe  Fe9  1  0.66664311  0.59930834  0.24726064  1
  P  P10  1  0.42251624  0.36173040  0.25685831  1
  P  P11  1  0.42251624  0.86173040  0.24314169  1
  P  P12  1  0.57931180  0.13559393  0.74797389  1
  P  P13  1  0.57931180  0.63559393  0.75202611  1
  C  C14  1  0.03822479  0.35370083  0.74186227  1
  C  C15  1  0.03822479  0.85370083  0.75813773  1
  C  C16  1  0.95673523  0.14951356  0.25008365  1
  C  C17  1  0.95673523  0.64951356  0.24991635  1
  O  O18  1  0.07121450  0.47518468  0.74949485  1
  O  O19  1  0.09291860  0.19125638  0.24775817  1
  O  O20  1  0.07121450  0.97518468  0.75050515  1
  O  O21  1  0.16102942  0.26832791  0.75945942  1
  O  O22  1  0.09291860  0.69125638  0.25224183  1
  O  O23  1  0.16102942  0.76832791  0.74054058  1
  O  O24  1  0.31954808  0.40112328  0.06541498  1
  O  O25  1  0.30748976  0.39385871  0.44041654  1
  O  O26  1  0.30748976  0.89385871  0.05958346  1
  O  O27  1  0.31954808  0.90112328  0.43458502  1
  O  O28  1  0.42631543  0.06499029  0.75251606  1
  O  O29  1  0.47652624  0.21375161  0.25080376  1
  O  O30  1  0.42631543  0.56499029  0.74748394  1
  O  O31  1  0.47652624  0.71375161  0.24919624  1
  O  O32  1  0.53612927  0.28622474  0.74030370  1
  O  O33  1  0.57903247  0.43168528  0.27813373  1
  O  O34  1  0.53612927  0.78622474  0.75969630  1
  O  O35  1  0.57903247  0.93168528  0.22186627  1
  O  O36  1  0.69140395  0.09777661  0.56101435  1
  O  O37  1  0.69313201  0.09383575  0.93335247  1
  O  O38  1  0.69313201  0.59383575  0.56664753  1
  O  O39  1  0.69140395  0.59777661  0.93898565  1
  O  O40  1  0.82939679  0.23390258  0.26025792  1
  O  O41  1  0.89829325  0.31614404  0.71743085  1
  O  O42  1  0.82939679  0.73390258  0.23974208  1
  O  O43  1  0.92631501  0.02715717  0.24239697  1
  O  O44  1  0.89829325  0.81614404  0.78256915  1
  O  O45  1  0.92631501  0.52715717  0.25760303  1
