# generated using pymatgen
data_Li3MnV(PO4)3
_symmetry_space_group_name_H-M   'P 1'
_cell_length_a   9.36154725
_cell_length_b   8.33622056
_cell_length_c   8.44594381
_cell_angle_alpha   60.13724516
_cell_angle_beta   62.99800511
_cell_angle_gamma   90.36532193
_symmetry_Int_Tables_number   1
_chemical_formula_structural   Li3MnV(PO4)3
_chemical_formula_sum   'Li6 Mn2 V2 P6 O24'
_cell_volume   485.70206831
_cell_formula_units_Z   2
loop_
 _symmetry_equiv_pos_site_id
 _symmetry_equiv_pos_as_xyz
  1  'x, y, z'
loop_
 _atom_site_type_symbol
 _atom_site_label
 _atom_site_symmetry_multiplicity
 _atom_site_fract_x
 _atom_site_fract_y
 _atom_site_fract_z
 _atom_site_occupancy
  Li  Li0  1  0.13419491  0.74529916  0.18438202  1
  Li  Li1  1  0.08624837  0.04681898  0.65754134  1
  Li  Li2  1  0.40089723  0.21062995  0.33113054  1
  Li  Li3  1  0.59910277  0.78937005  0.66886946  1
  Li  Li4  1  0.91375163  0.95318102  0.34245866  1
  Li  Li5  1  0.86580509  0.25470084  0.81561798  1
  Mn  Mn6  1  0.56573227  0.84587485  0.29010990  1
  Mn  Mn7  1  0.43426773  0.15412515  0.70989010  1
  V  V8  1  0.03702480  0.35633463  0.29731930  1
  V  V9  1  0.96297520  0.64366537  0.70268070  1
  P  P10  1  0.24605341  0.04574335  0.22097544  1
  P  P11  1  0.24085668  0.45867256  0.48945054  1
  P  P12  1  0.24208184  0.74125959  0.80108653  1
  P  P13  1  0.75791816  0.25874041  0.19891347  1
  P  P14  1  0.75914332  0.54132744  0.51054946  1
  P  P15  1  0.75394659  0.95425665  0.77902456  1
  O  O16  1  0.10300994  0.83846419  0.38064301  1
  O  O17  1  0.25970256  0.12200008  0.00937011  1
  O  O18  1  0.17572843  0.17300844  0.31307357  1
  O  O19  1  0.17898320  0.49688423  0.33115496  1
  O  O20  1  0.09391294  0.46248594  0.67729245  1
  O  O21  1  0.11880528  0.79061184  0.71611062  1
  O  O22  1  0.40531112  0.03349459  0.22884001  1
  O  O23  1  0.25490885  0.24917572  0.58236952  1
  O  O24  1  0.40330919  0.60938258  0.37172353  1
  O  O25  1  0.16484528  0.52360812  0.00046877  1
  O  O26  1  0.24645836  0.87032197  0.87988647  1
  O  O27  1  0.41537359  0.76956427  0.62905744  1
  O  O28  1  0.58462641  0.23043573  0.37094256  1
  O  O29  1  0.75354164  0.12967803  0.12011353  1
  O  O30  1  0.83515472  0.47639188  -0.00046877  1
  O  O31  1  0.59669081  0.39061742  0.62827647  1
  O  O32  1  0.74509115  0.75082428  0.41763048  1
  O  O33  1  0.59468888  0.96650541  0.77115999  1
  O  O34  1  0.88119472  0.20938816  0.28388938  1
  O  O35  1  0.90608706  0.53751406  0.32270755  1
  O  O36  1  0.82101680  0.50311577  0.66884504  1
  O  O37  1  0.82427157  0.82699156  0.68692643  1
  O  O38  1  0.74029744  0.87799992  0.99062989  1
  O  O39  1  0.89699006  0.16153581  0.61935699  1
