# generated using pymatgen
data_Li5Mn2P2(CO7)2
_symmetry_space_group_name_H-M   'P 1'
_cell_length_a   8.46242809
_cell_length_b   5.02636291
_cell_length_c   6.63206798
_cell_angle_alpha   90.00000000
_cell_angle_beta   90.00000000
_cell_angle_gamma   85.50202703
_symmetry_Int_Tables_number   1
_chemical_formula_structural   Li5Mn2P2(CO7)2
_chemical_formula_sum   'Li5 Mn2 P2 C2 O14'
_cell_volume   281.22774124
_cell_formula_units_Z   1
loop_
 _symmetry_equiv_pos_site_id
 _symmetry_equiv_pos_as_xyz
  1  'x, y, z'
loop_
 _atom_site_type_symbol
 _atom_site_label
 _atom_site_symmetry_multiplicity
 _atom_site_fract_x
 _atom_site_fract_y
 _atom_site_fract_z
 _atom_site_occupancy
  Li  Li0  1  0.26320045  0.24605974  0.02705073  1
  Li  Li1  1  0.26320045  0.24605974  0.47294927  1
  Li  Li2  1  0.73396781  0.75226231  0.52601561  1
  Li  Li3  1  0.73396781  0.75226231  0.97398439  1
  Li  Li4  1  0.90303989  0.23438671  0.75000000  1
  Mn  Mn5  1  0.34215860  0.78450343  0.75000000  1
  Mn  Mn6  1  0.66475671  0.21283451  0.25000000  1
  P  P7  1  0.41901558  0.73468106  0.25000000  1
  P  P8  1  0.58814684  0.27707171  0.75000000  1
  C  C9  1  0.03675353  0.70413697  0.75000000  1
  C  C10  1  0.95344157  0.28998496  0.25000000  1
  O  O11  1  0.06935597  0.95038221  0.75000000  1
  O  O12  1  0.09908779  0.32655189  0.25000000  1
  O  O13  1  0.15217836  0.51621040  0.75000000  1
  O  O14  1  0.32720462  0.83762815  0.06233265  1
  O  O15  1  0.32720462  0.83762815  0.43766735  1
  O  O16  1  0.41761287  0.18743864  0.75000000  1
  O  O17  1  0.44247179  0.41820851  0.25000000  1
  O  O18  1  0.57665339  0.58896176  0.75000000  1
  O  O19  1  0.59076109  0.83169270  0.25000000  1
  O  O20  1  0.68887919  0.16928478  0.93245463  1
  O  O21  1  0.68887919  0.16928478  0.56754537  1
  O  O22  1  0.83997340  0.48582422  0.25000000  1
  O  O23  1  0.89143932  0.63651665  0.75000000  1
  O  O24  1  0.89748915  0.05457371  0.25000000  1
