# generated using pymatgen
data_Li4Fe5Sb3O16
_symmetry_space_group_name_H-M   'P 1'
_cell_length_a   6.15766770
_cell_length_b   6.11970644
_cell_length_c   9.81265263
_cell_angle_alpha   89.95399365
_cell_angle_beta   90.68415448
_cell_angle_gamma   119.78824461
_symmetry_Int_Tables_number   1
_chemical_formula_structural   Li4Fe5Sb3O16
_chemical_formula_sum   'Li4 Fe5 Sb3 O16'
_cell_volume   320.88402047
_cell_formula_units_Z   1
loop_
 _symmetry_equiv_pos_site_id
 _symmetry_equiv_pos_as_xyz
  1  'x, y, z'
loop_
 _atom_site_type_symbol
 _atom_site_label
 _atom_site_symmetry_multiplicity
 _atom_site_fract_x
 _atom_site_fract_y
 _atom_site_fract_z
 _atom_site_occupancy
  Li  Li0  1  0.32445491  0.66237211  0.88212174  1
  Li  Li1  1  0.98098632  0.99029764  0.99116749  1
  Li  Li2  1  0.98402563  0.99201728  0.50244885  1
  Li  Li3  1  0.65112374  0.32549409  0.39648984  1
  Fe  Fe4  1  0.35404974  0.67700425  0.50123941  1
  Fe  Fe5  1  0.66598256  0.83266037  0.21701169  1
  Fe  Fe6  1  0.69216295  0.34550739  0.98741268  1
  Fe  Fe7  1  0.83058221  0.65659876  0.71648152  1
  Fe  Fe8  1  0.83011741  0.17377111  0.71652038  1
  Sb  Sb9  1  0.16971648  0.83125293  0.21650765  1
  Sb  Sb10  1  0.17030411  0.33885536  0.21670911  1
  Sb  Sb11  1  0.34337625  0.17135192  0.71342979  1
  O  O12  1  0.17053852  0.84627859  0.59761330  1
  O  O13  1  0.02782248  0.51371046  0.33716685  1
  O  O14  1  0.31865166  0.65955943  0.10241786  1
  O  O15  1  0.01724300  0.00845399  0.32075172  1
  O  O16  1  0.00763630  0.00387962  0.80722107  1
  O  O17  1  0.17084908  0.32444245  0.59765502  1
  O  O18  1  0.46149102  0.95765212  0.34165494  1
  O  O19  1  0.46170167  0.50424226  0.34159758  1
  O  O20  1  0.31860821  0.15967645  0.10560991  1
  O  O21  1  0.67289003  0.83648623  0.59722547  1
  O  O22  1  0.51141431  0.48034448  0.83248967  1
  O  O23  1  0.51095128  0.03085286  0.83199203  1
  O  O24  1  0.66069206  0.33045861  0.60146881  1
  O  O25  1  0.86286198  0.69087727  0.10374750  1
  O  O26  1  0.96755383  0.48386603  0.82865760  1
  O  O27  1  0.86221424  0.17233595  0.10303249  1
