# generated using pymatgen
data_Li2CoSn3(PO4)6
_symmetry_space_group_name_H-M   'P 1'
_cell_length_a   8.79101880
_cell_length_b   8.79101901
_cell_length_c   8.79101949
_cell_angle_alpha   59.06873862
_cell_angle_beta   59.06873537
_cell_angle_gamma   59.06873381
_symmetry_Int_Tables_number   1
_chemical_formula_structural   Li2CoSn3(PO4)6
_chemical_formula_sum   'Li2 Co1 Sn3 P6 O24'
_cell_volume   470.19882158
_cell_formula_units_Z   1
loop_
 _symmetry_equiv_pos_site_id
 _symmetry_equiv_pos_as_xyz
  1  'x, y, z'
loop_
 _atom_site_type_symbol
 _atom_site_label
 _atom_site_symmetry_multiplicity
 _atom_site_fract_x
 _atom_site_fract_y
 _atom_site_fract_z
 _atom_site_occupancy
  Li  Li0  1  0.98316030  0.98316030  0.98316030  1
  Li  Li1  1  0.49856747  0.49856747  0.49856747  1
  Co  Co2  1  0.85681803  0.85681803  0.85681803  1
  Sn  Sn3  1  0.14222499  0.14222499  0.14222499  1
  Sn  Sn4  1  0.35712476  0.35712476  0.35712476  1
  Sn  Sn5  1  0.64409445  0.64409445  0.64409445  1
  P  P6  1  0.04117651  0.74995620  0.46784652  1
  P  P7  1  0.46784652  0.04117651  0.74995620  1
  P  P8  1  0.74995620  0.46784652  0.04117651  1
  P  P9  1  0.24156377  0.55084365  0.95459616  1
  P  P10  1  0.55084365  0.95459616  0.24156377  1
  P  P11  1  0.95459616  0.24156377  0.55084365  1
  O  O12  1  0.11424494  0.29245107  0.52005796  1
  O  O13  1  0.29245107  0.52005796  0.11424494  1
  O  O14  1  0.06195870  0.91127403  0.27405257  1
  O  O15  1  0.52005796  0.11424494  0.29245107  1
  O  O16  1  0.23410301  0.58439456  0.44898981  1
  O  O17  1  0.00343301  0.80148307  0.62792137  1
  O  O18  1  0.27405257  0.06195870  0.91127403  1
  O  O19  1  0.44898981  0.23410301  0.58439456  1
  O  O20  1  0.58439456  0.44898981  0.23410301  1
  O  O21  1  0.20009397  0.38554386  0.98857643  1
  O  O22  1  0.07264254  0.73781705  0.93732993  1
  O  O23  1  0.38554386  0.98857643  0.20009397  1
  O  O24  1  0.62792137  0.00343301  0.80148307  1
  O  O25  1  0.91127403  0.27405257  0.06195870  1
  O  O26  1  0.80148307  0.62792137  0.00343301  1
  O  O27  1  0.40793879  0.56998414  0.76479469  1
  O  O28  1  0.56998414  0.76479469  0.40793879  1
  O  O29  1  0.73781705  0.93732993  0.07264254  1
  O  O30  1  0.98857643  0.20009397  0.38554386  1
  O  O31  1  0.76479469  0.40793879  0.56998414  1
  O  O32  1  0.48932709  0.89175941  0.69185615  1
  O  O33  1  0.93732993  0.07264254  0.73781705  1
  O  O34  1  0.69185615  0.48932709  0.89175941  1
  O  O35  1  0.89175941  0.69185615  0.48932709  1
