# generated using pymatgen
data_Na6Cr2P(CO4)4
_symmetry_space_group_name_H-M   'P 1'
_cell_length_a   9.90528971
_cell_length_b   9.90528960
_cell_length_c   9.90528925
_cell_angle_alpha   59.99999889
_cell_angle_beta   60.00000184
_cell_angle_gamma   60.00000299
_symmetry_Int_Tables_number   1
_chemical_formula_structural   Na6Cr2P(CO4)4
_chemical_formula_sum   'Na12 Cr4 P2 C8 O32'
_cell_volume   687.20535674
_cell_formula_units_Z   2
loop_
 _symmetry_equiv_pos_site_id
 _symmetry_equiv_pos_as_xyz
  1  'x, y, z'
loop_
 _atom_site_type_symbol
 _atom_site_label
 _atom_site_symmetry_multiplicity
 _atom_site_fract_x
 _atom_site_fract_y
 _atom_site_fract_z
 _atom_site_occupancy
  Na  Na0  1  0.16935640  0.08064360  0.08064360  1
  Na  Na1  1  0.16935640  0.08064360  0.66935640  1
  Na  Na2  1  0.16935640  0.66935640  0.08064360  1
  Na  Na3  1  0.41935640  0.33064360  0.33064360  1
  Na  Na4  1  0.58064360  0.08064360  0.66935640  1
  Na  Na5  1  0.58064360  0.66935640  0.08064360  1
  Na  Na6  1  0.41935640  0.33064360  0.91935640  1
  Na  Na7  1  0.41935640  0.91935640  0.33064360  1
  Na  Na8  1  0.58064360  0.66935640  0.66935640  1
  Na  Na9  1  0.83064360  0.91935640  0.33064360  1
  Na  Na10  1  0.83064360  0.33064360  0.91935640  1
  Na  Na11  1  0.83064360  0.91935640  0.91935640  1
  Cr  Cr12  1  0.00000000  0.50000000  0.00000000  1
  Cr  Cr13  1  0.00000000  0.00000000  0.50000000  1
  Cr  Cr14  1  0.00000000  0.50000000  0.50000000  1
  Cr  Cr15  1  0.50000000  0.50000000  0.50000000  1
  P  P16  1  0.62500000  0.12500000  0.12500000  1
  P  P17  1  0.37500000  0.87500000  0.87500000  1
  C  C18  1  0.14722299  0.28425867  0.28425867  1
  C  C19  1  0.21574133  0.71574133  0.35277701  1
  C  C20  1  0.21574133  0.35277701  0.71574133  1
  C  C21  1  0.21574133  0.71574133  0.71574133  1
  C  C22  1  0.78425867  0.28425867  0.28425867  1
  C  C23  1  0.78425867  0.28425867  0.64722299  1
  C  C24  1  0.78425867  0.64722299  0.28425867  1
  C  C25  1  0.85277701  0.71574133  0.71574133  1
  O  O26  1  0.14951629  0.30883054  0.14149427  1
  O  O27  1  0.14951629  0.14149427  0.40015889  1
  O  O28  1  0.14951629  0.40015889  0.30883054  1
  O  O29  1  0.09984111  0.69116946  0.35048371  1
  O  O30  1  0.56062652  0.06062652  0.06062652  1
  O  O31  1  0.19116946  0.35048371  0.59984111  1
  O  O32  1  0.09984111  0.35048371  0.85850573  1
  O  O33  1  0.56062652  0.31812143  0.06062652  1
  O  O34  1  0.56062652  0.06062652  0.31812143  1
  O  O35  1  0.19116946  0.85850573  0.35048371  1
  O  O36  1  0.35850573  0.59984111  0.35048371  1
  O  O37  1  0.81812043  0.06062652  0.06062652  1
  O  O38  1  0.09984111  0.85850573  0.69116946  1
  O  O39  1  0.35850573  0.35048371  0.69116946  1
  O  O40  1  0.19116946  0.59984111  0.85850573  1
  O  O41  1  0.64149427  0.30883054  0.40015889  1
  O  O42  1  0.35850573  0.69116946  0.59984111  1
  O  O43  1  0.80883054  0.40015889  0.14149427  1
  O  O44  1  0.64149427  0.64951629  0.30883054  1
  O  O45  1  0.90015889  0.14149427  0.30883054  1
  O  O46  1  0.18187957  0.93937348  0.93937348  1
  O  O47  1  0.64149427  0.40015889  0.64951629  1
  O  O48  1  0.80883054  0.14149427  0.64951629  1
  O  O49  1  0.43937348  0.93937348  0.68187857  1
  O  O50  1  0.43937348  0.68187857  0.93937348  1
  O  O51  1  0.90015889  0.64951629  0.14149427  1
  O  O52  1  0.80883054  0.64951629  0.40015889  1
  O  O53  1  0.43937348  0.93937348  0.93937348  1
  O  O54  1  0.90015889  0.30883054  0.64951629  1
  O  O55  1  0.85048371  0.59984111  0.69116946  1
  O  O56  1  0.85048371  0.85850573  0.59984111  1
  O  O57  1  0.85048371  0.69116946  0.85850573  1
