# generated using pymatgen
data_Li2MnAlO4
_symmetry_space_group_name_H-M   'P 1'
_cell_length_a   5.32689422
_cell_length_b   5.90881048
_cell_length_c   11.12814818
_cell_angle_alpha   90.00000000
_cell_angle_beta   69.10449159
_cell_angle_gamma   90.00000000
_symmetry_Int_Tables_number   1
_chemical_formula_structural   Li2MnAlO4
_chemical_formula_sum   'Li8 Mn4 Al4 O16'
_cell_volume   327.22914330
_cell_formula_units_Z   4
loop_
 _symmetry_equiv_pos_site_id
 _symmetry_equiv_pos_as_xyz
  1  'x, y, z'
loop_
 _atom_site_type_symbol
 _atom_site_label
 _atom_site_symmetry_multiplicity
 _atom_site_fract_x
 _atom_site_fract_y
 _atom_site_fract_z
 _atom_site_occupancy
  Li  Li0  1  0.06825344  0.33888372  0.80550859  1
  Li  Li1  1  0.06825344  0.16111628  0.30550859  1
  Li  Li2  1  0.30478244  0.15522976  0.57054277  1
  Li  Li3  1  0.30478244  0.34477024  0.07054277  1
  Li  Li4  1  0.69521756  0.65522976  0.92945723  1
  Li  Li5  1  0.69521756  0.84477024  0.42945723  1
  Li  Li6  1  0.93174656  0.83888372  0.69449141  1
  Li  Li7  1  0.93174656  0.66111628  0.19449141  1
  Mn  Mn8  1  0.56420325  0.18612260  0.81781432  1
  Mn  Mn9  1  0.43579675  0.68612260  0.68218568  1
  Mn  Mn10  1  0.56420325  0.31387740  0.31781432  1
  Mn  Mn11  1  0.43579675  0.81387740  0.18218568  1
  Al  Al12  1  0.18950541  0.82850421  0.94095056  1
  Al  Al13  1  0.18950541  0.67149579  0.44095056  1
  Al  Al14  1  0.81049459  0.32850421  0.55904944  1
  Al  Al15  1  0.81049459  0.17149579  0.05904944  1
  O  O16  1  0.09295861  0.68841355  0.81783115  1
  O  O17  1  0.09295861  0.81158645  0.31783115  1
  O  O18  1  0.18913250  0.14201502  0.94324287  1
  O  O19  1  0.18913250  0.35798498  0.44324287  1
  O  O20  1  0.29417072  0.81551410  0.55660089  1
  O  O21  1  0.45142649  0.33102726  0.68583089  1
  O  O22  1  0.29417072  0.68448590  0.05660089  1
  O  O23  1  0.45142649  0.16897274  0.18583089  1
  O  O24  1  0.54857351  0.83102726  0.81416911  1
  O  O25  1  0.70582928  0.31551410  0.94339911  1
  O  O26  1  0.54857351  0.66897274  0.31416911  1
  O  O27  1  0.70582928  0.18448590  0.44339911  1
  O  O28  1  0.81086750  0.64201502  0.55675713  1
  O  O29  1  0.81086750  0.85798498  0.05675713  1
  O  O30  1  0.90704139  0.18841355  0.68216885  1
  O  O31  1  0.90704139  0.31158645  0.18216885  1
