# generated using pymatgen
data_Li6Cr2O7
_symmetry_space_group_name_H-M   'P 1'
_cell_length_a   9.31440211
_cell_length_b   5.80589531
_cell_length_c   5.06244879
_cell_angle_alpha   90.00000000
_cell_angle_beta   80.02518873
_cell_angle_gamma   90.00000000
_symmetry_Int_Tables_number   1
_chemical_formula_structural   Li6Cr2O7
_chemical_formula_sum   'Li12 Cr4 O14'
_cell_volume   269.63105298
_cell_formula_units_Z   2
loop_
 _symmetry_equiv_pos_site_id
 _symmetry_equiv_pos_as_xyz
  1  'x, y, z'
loop_
 _atom_site_type_symbol
 _atom_site_label
 _atom_site_symmetry_multiplicity
 _atom_site_fract_x
 _atom_site_fract_y
 _atom_site_fract_z
 _atom_site_occupancy
  Li  Li0  1  0.13726470  0.78295962  0.63329511  1
  Li  Li1  1  0.13213404  0.23106009  0.63144705  1
  Li  Li2  1  0.13074490  0.50470919  0.06090083  1
  Li  Li3  1  0.36786596  0.73106009  0.86855295  1
  Li  Li4  1  0.36273530  0.28295962  0.86670489  1
  Li  Li5  1  0.36925510  0.00470919  0.43909917  1
  Li  Li6  1  0.63074490  0.99529081  0.56090083  1
  Li  Li7  1  0.63726470  0.71704038  0.13329511  1
  Li  Li8  1  0.63213404  0.26893991  0.13144705  1
  Li  Li9  1  0.86925510  0.49529081  0.93909917  1
  Li  Li10  1  0.86786596  0.76893991  0.36855295  1
  Li  Li11  1  0.86273530  0.21704038  0.36670489  1
  Cr  Cr12  1  0.13278478  0.00728943  0.12712098  1
  Cr  Cr13  1  0.36721522  0.50728943  0.37287902  1
  Cr  Cr14  1  0.63278478  0.49271057  0.62712098  1
  Cr  Cr15  1  0.86721522  0.99271057  0.87287902  1
  O  O16  1  0.00000000  0.00000000  0.50000000  1
  O  O17  1  0.00606687  0.77539716  0.00967924  1
  O  O18  1  0.25389006  0.00732232  0.80064317  1
  O  O19  1  0.24610994  0.50732232  0.69935683  1
  O  O20  1  0.23713643  0.26469543  0.24739975  1
  O  O21  1  0.26286357  0.76469543  0.25260025  1
  O  O22  1  0.49393313  0.27539716  0.49032076  1
  O  O23  1  0.50606687  0.72460284  0.50967924  1
  O  O24  1  0.50000000  0.50000000  0.00000000  1
  O  O25  1  0.73713643  0.23530457  0.74739975  1
  O  O26  1  0.76286357  0.73530457  0.75260025  1
  O  O27  1  0.75389006  0.49267768  0.30064317  1
  O  O28  1  0.74610994  0.99267768  0.19935683  1
  O  O29  1  0.99393313  0.22460284  0.99032076  1
