# generated using pymatgen
data_VGa2O5
_symmetry_space_group_name_H-M   'P 1'
_cell_length_a   5.05193958
_cell_length_b   5.62246345
_cell_length_c   6.98233651
_cell_angle_alpha   71.75085036
_cell_angle_beta   90.06478433
_cell_angle_gamma   63.27811767
_symmetry_Int_Tables_number   1
_chemical_formula_structural   VGa2O5
_chemical_formula_sum   'V2 Ga4 O10'
_cell_volume   165.86532709
_cell_formula_units_Z   2
loop_
 _symmetry_equiv_pos_site_id
 _symmetry_equiv_pos_as_xyz
  1  'x, y, z'
loop_
 _atom_site_type_symbol
 _atom_site_label
 _atom_site_symmetry_multiplicity
 _atom_site_fract_x
 _atom_site_fract_y
 _atom_site_fract_z
 _atom_site_occupancy
  V  V0  1  0.00082046  0.00001471  0.49996605  1
  V  V1  1  0.99861594  0.00093950  0.99988064  1
  Ga  Ga2  1  0.64107995  0.72724080  0.72852892  1
  Ga  Ga3  1  0.63130078  0.73008605  0.22829044  1
  Ga  Ga4  1  0.36705042  0.27126076  0.77257936  1
  Ga  Ga5  1  0.36126783  0.27348460  0.27250355  1
  O  O6  1  0.75347397  0.82457708  0.95376114  1
  O  O7  1  0.42292106  0.82272358  0.45647868  1
  O  O8  1  0.03275816  0.63639736  0.64596910  1
  O  O9  1  0.66818642  0.36354060  0.85573153  1
  O  O10  1  0.32884281  0.63879237  0.14813026  1
  O  O11  1  0.96656434  0.36222469  0.35024443  1
  O  O12  1  0.57865547  0.17578153  0.54654592  1
  O  O13  1  0.19942211  0.00207501  0.74974516  1
  O  O14  1  0.24896941  0.17282234  0.04725973  1
  O  O15  1  0.79707888  0.99921602  0.25067411  1
