# generated using pymatgen
data_Mg(IO3)2
_symmetry_space_group_name_H-M   'P 1'
_cell_length_a   5.70445961
_cell_length_b   17.26379043
_cell_length_c   5.39032359
_cell_angle_alpha   90.00000000
_cell_angle_beta   90.00000000
_cell_angle_gamma   90.00000000
_symmetry_Int_Tables_number   1
_chemical_formula_structural   Mg(IO3)2
_chemical_formula_sum   'Mg4 I8 O24'
_cell_volume   530.84227559
_cell_formula_units_Z   4
loop_
 _symmetry_equiv_pos_site_id
 _symmetry_equiv_pos_as_xyz
  1  'x, y, z'
loop_
 _atom_site_type_symbol
 _atom_site_label
 _atom_site_symmetry_multiplicity
 _atom_site_fract_x
 _atom_site_fract_y
 _atom_site_fract_z
 _atom_site_occupancy
  Mg  Mg0  1  0.16804614  0.09467507  0.71306028  1
  Mg  Mg1  1  0.33195386  0.90532493  0.21306028  1
  Mg  Mg2  1  0.66804614  0.40532493  0.28693972  1
  Mg  Mg3  1  0.83195386  0.59467507  0.78693972  1
  I  I4  1  0.13691064  0.42472334  0.96830901  1
  I  I5  1  0.22075818  0.20650216  0.25340009  1
  I  I6  1  0.27924182  0.79349784  0.75340009  1
  I  I7  1  0.36308936  0.57527666  0.46830901  1
  I  I8  1  0.63691064  0.07527666  0.03169099  1
  I  I9  1  0.72075818  0.29349784  0.74659991  1
  I  I10  1  0.77924182  0.70650216  0.24659991  1
  I  I11  1  0.86308936  0.92472334  0.53169099  1
  O  O12  1  0.99574862  0.33652795  0.11007533  1
  O  O13  1  0.02333853  0.15749527  0.03050010  1
  O  O14  1  0.02623418  0.20144165  0.52546024  1
  O  O15  1  0.11742344  0.98358195  0.43371993  1
  O  O16  1  0.12112238  0.87915650  0.88044872  1
  O  O17  1  0.17018459  0.54684972  0.73547589  1
  O  O18  1  0.32981541  0.45315028  0.23547589  1
  O  O19  1  0.37887762  0.12084350  0.38044872  1
  O  O20  1  0.38257656  0.01641805  0.93371993  1
  O  O21  1  0.47376582  0.79855835  0.02546024  1
  O  O22  1  0.47666147  0.84250473  0.53050010  1
  O  O23  1  0.50425138  0.66347205  0.61007533  1
  O  O24  1  0.49574862  0.16347205  0.88992467  1
  O  O25  1  0.52333853  0.34250473  0.96949990  1
  O  O26  1  0.52623418  0.29855835  0.47453976  1
  O  O27  1  0.61742344  0.51641805  0.56628007  1
  O  O28  1  0.62112238  0.62084350  0.11955128  1
  O  O29  1  0.67018459  0.95315028  0.26452411  1
  O  O30  1  0.82981541  0.04684972  0.76452411  1
  O  O31  1  0.87887762  0.37915650  0.61955128  1
  O  O32  1  0.88257656  0.48358195  0.06628007  1
  O  O33  1  0.97376582  0.70144165  0.97453976  1
  O  O34  1  0.97666147  0.65749527  0.46949990  1
  O  O35  1  0.00425138  0.83652795  0.38992467  1
