# generated using pymatgen
data_HfMg14Ti
_symmetry_space_group_name_H-M   'P 1'
_cell_length_a   6.36931269
_cell_length_b   6.36931217
_cell_length_c   10.10130202
_cell_angle_alpha   90.00000000
_cell_angle_beta   90.00000000
_cell_angle_gamma   120.00000263
_symmetry_Int_Tables_number   1
_chemical_formula_structural   HfMg14Ti
_chemical_formula_sum   'Hf1 Mg14 Ti1'
_cell_volume   354.88944416
_cell_formula_units_Z   1
loop_
 _symmetry_equiv_pos_site_id
 _symmetry_equiv_pos_as_xyz
  1  'x, y, z'
loop_
 _atom_site_type_symbol
 _atom_site_label
 _atom_site_symmetry_multiplicity
 _atom_site_fract_x
 _atom_site_fract_y
 _atom_site_fract_z
 _atom_site_occupancy
  Hf  Hf0  1  0.16666700  0.33333300  0.62500000  1
  Mg  Mg1  1  0.16850048  0.83424974  0.12500000  1
  Mg  Mg2  1  0.17054379  0.83527139  0.62500000  1
  Mg  Mg3  1  0.66575026  0.33149952  0.12500000  1
  Mg  Mg4  1  0.66472861  0.32945621  0.62500000  1
  Mg  Mg5  1  0.66575026  0.83424974  0.12500000  1
  Mg  Mg6  1  0.66472861  0.83527139  0.62500000  1
  Mg  Mg7  1  0.33044879  0.16955121  0.37372613  1
  Mg  Mg8  1  0.33044879  0.16955121  0.87627387  1
  Mg  Mg9  1  0.33044879  0.66089858  0.37372613  1
  Mg  Mg10  1  0.33044879  0.66089858  0.87627387  1
  Mg  Mg11  1  0.83910142  0.16955121  0.37372613  1
  Mg  Mg12  1  0.83910142  0.16955121  0.87627387  1
  Mg  Mg13  1  0.83333300  0.66666700  0.37578495  1
  Mg  Mg14  1  0.83333300  0.66666700  0.87421505  1
  Ti  Ti15  1  0.16666700  0.33333300  0.12500000  1
