# generated using pymatgen
data_Li5CrP2(O4F)2
_symmetry_space_group_name_H-M   'P 1'
_cell_length_a   10.05719399
_cell_length_b   10.05718578
_cell_length_c   6.50512965
_cell_angle_alpha   90.00020920
_cell_angle_beta   89.99950365
_cell_angle_gamma   119.99998904
_symmetry_Int_Tables_number   1
_chemical_formula_structural   Li5CrP2(O4F)2
_chemical_formula_sum   'Li15 Cr3 P6 O24 F6'
_cell_volume   569.82294932
_cell_formula_units_Z   3
loop_
 _symmetry_equiv_pos_site_id
 _symmetry_equiv_pos_as_xyz
  1  'x, y, z'
loop_
 _atom_site_type_symbol
 _atom_site_label
 _atom_site_symmetry_multiplicity
 _atom_site_fract_x
 _atom_site_fract_y
 _atom_site_fract_z
 _atom_site_occupancy
  Li  Li0  1  0.16733156  0.83422379  0.50349945  1
  Li  Li1  1  0.33334917  0.66667771  0.54697102  1
  Li  Li2  1  0.33335865  0.66668465  0.96628163  1
  Li  Li3  1  0.00002382  0.00000508  0.46303843  1
  Li  Li4  1  0.00002692  0.00001436  0.04452802  1
  Li  Li5  1  0.16582475  0.33310077  0.50349503  1
  Li  Li6  1  0.66689479  0.83267517  0.50350058  1
  Li  Li7  1  0.46738911  0.48272209  0.74142757  1
  Li  Li8  1  0.32337341  0.13980547  0.26781191  1
  Li  Li9  1  0.81642124  0.67666475  0.26783126  1
  Li  Li10  1  0.66667404  0.33333385  0.96704738  1
  Li  Li11  1  0.66667853  0.33332695  0.48658845  1
  Li  Li12  1  0.51728081  0.98467086  0.74141252  1
  Li  Li13  1  0.01536061  0.53265807  0.74141373  1
  Li  Li14  1  0.86026420  0.18357334  0.26783341  1
  Cr  Cr15  1  0.16748850  0.83378949  0.00506817  1
  Cr  Cr16  1  0.16585393  0.33367963  0.00485855  1
  Cr  Cr17  1  0.66632921  0.83238763  0.00484268  1
  P  P18  1  0.03652736  0.52430064  0.26535543  1
  P  P19  1  0.48776970  0.96345477  0.26531533  1
  P  P20  1  0.29723722  0.14425190  0.74536765  1
  P  P21  1  0.47568543  0.51224582  0.26528269  1
  P  P22  1  0.84702226  0.70275383  0.74534066  1
  P  P23  1  0.85573495  0.15298947  0.74529700  1
  O  O24  1  0.01562461  0.73397206  0.76968002  1
  O  O25  1  0.12076734  0.62644957  0.07367806  1
  O  O26  1  0.11825113  0.61244779  0.46250354  1
  O  O27  1  0.32027670  0.93514849  0.23950164  1
  O  O28  1  0.06482100  0.38511236  0.23950614  1
  O  O29  1  0.49421247  0.88176444  0.46249827  1
  O  O30  1  0.50573740  0.87922223  0.07368121  1
  O  O31  1  0.26600244  0.28162778  0.76968075  1
  O  O32  1  0.37344877  0.49427179  0.07368069  1
  O  O33  1  0.38758418  0.50582694  0.46250438  1
  O  O34  1  0.21831784  0.05644622  0.54715279  1
  O  O35  1  0.21331553  0.04111233  0.93594369  1
  O  O36  1  0.61489939  0.67972994  0.23946680  1
  O  O37  1  0.71838473  0.98438038  0.76963653  1
  O  O38  1  0.52931144  0.39372073  0.26538357  1
  O  O39  1  0.47060895  0.20154461  0.74856033  1
  O  O40  1  0.82787160  0.78670144  0.93594848  1
  O  O41  1  0.83814367  0.78168606  0.54715936  1
  O  O42  1  0.73096680  0.52939538  0.74859625  1
  O  O43  1  0.60631591  0.13559628  0.26539154  1
  O  O44  1  0.86440495  0.47070504  0.26540699  1
  O  O45  1  0.79847095  0.26906815  0.74855743  1
  O  O46  1  0.94358751  0.16188536  0.54715197  1
  O  O47  1  0.95879636  0.17214154  0.93593904  1
  F  F48  1  0.03184730  0.84217583  0.22092937  1
  F  F49  1  0.30255548  0.82465469  0.78888916  1
  F  F50  1  0.17529252  0.47792953  0.78879313  1
  F  F51  1  0.15778000  0.18971379  0.22080474  1
  F  F52  1  0.52214354  0.69743475  0.78883339  1
  F  F53  1  0.81035932  0.96814245  0.22085920  1
