# generated using pymatgen
data_Li3Cu4NiO8
_symmetry_space_group_name_H-M   'P 1'
_cell_length_a   6.32044780
_cell_length_b   6.32044776
_cell_length_c   6.17974255
_cell_angle_alpha   78.57455723
_cell_angle_beta   53.13109417
_cell_angle_gamma   52.62325672
_symmetry_Int_Tables_number   1
_chemical_formula_structural   Li3Cu4NiO8
_chemical_formula_sum   'Li3 Cu4 Ni1 O8'
_cell_volume   151.49016435
_cell_formula_units_Z   1
loop_
 _symmetry_equiv_pos_site_id
 _symmetry_equiv_pos_as_xyz
  1  'x, y, z'
loop_
 _atom_site_type_symbol
 _atom_site_label
 _atom_site_symmetry_multiplicity
 _atom_site_fract_x
 _atom_site_fract_y
 _atom_site_fract_z
 _atom_site_occupancy
  Li  Li0  1  0.00000000  0.00000000  0.50000000  1
  Li  Li1  1  0.50000000  0.00000000  0.50000000  1
  Li  Li2  1  0.50000000  0.50000000  0.50000000  1
  Cu  Cu3  1  0.00000000  0.50000000  0.50000000  1
  Cu  Cu4  1  0.00000000  0.00000000  0.00000000  1
  Cu  Cu5  1  0.50000000  0.00000000  0.00000000  1
  Cu  Cu6  1  0.00000000  0.50000000  0.00000000  1
  Ni  Ni7  1  0.50000000  0.50000000  0.00000000  1
  O  O8  1  0.46341354  0.28081227  0.81739873  1
  O  O9  1  -0.00055647  0.23067664  0.70466600  1
  O  O10  1  0.52601065  0.70411053  0.70466600  1
  O  O11  1  0.96088148  0.79900050  0.83811902  1
  O  O12  1  0.03911852  0.20099950  0.16188098  1
  O  O13  1  0.47398935  0.29588947  0.29533400  1
  O  O14  1  0.00055647  0.76932336  0.29533400  1
  O  O15  1  0.53658646  0.71918773  0.18260127  1
