# generated using pymatgen
data_Li3FeO3
_symmetry_space_group_name_H-M   'P 1'
_cell_length_a   5.90473978
_cell_length_b   5.88602581
_cell_length_c   8.42948832
_cell_angle_alpha   90.00000000
_cell_angle_beta   90.00000000
_cell_angle_gamma   90.00000000
_symmetry_Int_Tables_number   1
_chemical_formula_structural   Li3FeO3
_chemical_formula_sum   'Li12 Fe4 O12'
_cell_volume   292.97066612
_cell_formula_units_Z   4
loop_
 _symmetry_equiv_pos_site_id
 _symmetry_equiv_pos_as_xyz
  1  'x, y, z'
loop_
 _atom_site_type_symbol
 _atom_site_label
 _atom_site_symmetry_multiplicity
 _atom_site_fract_x
 _atom_site_fract_y
 _atom_site_fract_z
 _atom_site_occupancy
  Li  Li0  1  0.99442684  0.48252936  0.75133807  1
  Li  Li1  1  0.99442684  0.01747064  0.75133807  1
  Li  Li2  1  0.25550458  0.75000000  0.47575980  1
  Li  Li3  1  0.24449542  0.25000000  0.97575980  1
  Li  Li4  1  0.50557316  0.51747064  0.25133807  1
  Li  Li5  1  0.50557316  0.98252936  0.25133807  1
  Li  Li6  1  0.49442684  0.48252936  0.74866193  1
  Li  Li7  1  0.49442684  0.01747064  0.74866193  1
  Li  Li8  1  0.75550458  0.75000000  0.02424020  1
  Li  Li9  1  0.74449542  0.25000000  0.52424020  1
  Li  Li10  1  0.00557316  0.98252936  0.24866193  1
  Li  Li11  1  0.00557316  0.51747064  0.24866193  1
  Fe  Fe12  1  0.21897999  0.75000000  0.01718815  1
  Fe  Fe13  1  0.28102001  0.25000000  0.51718815  1
  Fe  Fe14  1  0.71897999  0.75000000  0.48281185  1
  Fe  Fe15  1  0.78102001  0.25000000  0.98281185  1
  O  O16  1  0.00000000  0.00000000  0.00000000  1
  O  O17  1  0.00000000  0.50000000  0.00000000  1
  O  O18  1  0.02305682  0.25000000  0.39024432  1
  O  O19  1  0.24001121  0.25000000  0.73778346  1
  O  O20  1  0.25998879  0.75000000  0.23778346  1
  O  O21  1  0.47694318  0.75000000  0.89024432  1
  O  O22  1  0.50000000  0.50000000  0.50000000  1
  O  O23  1  0.50000000  0.00000000  0.50000000  1
  O  O24  1  0.52305682  0.25000000  0.10975568  1
  O  O25  1  0.74001121  0.25000000  0.76221654  1
  O  O26  1  0.75998879  0.75000000  0.26221654  1
  O  O27  1  0.97694318  0.75000000  0.60975568  1
