# generated using pymatgen
data_LiMnAlO4
_symmetry_space_group_name_H-M   'P 1'
_cell_length_a   9.16002320
_cell_length_b   2.86353967
_cell_length_c   10.34160522
_cell_angle_alpha   90.00000000
_cell_angle_beta   90.00000000
_cell_angle_gamma   90.00000000
_symmetry_Int_Tables_number   1
_chemical_formula_structural   LiMnAlO4
_chemical_formula_sum   'Li4 Mn4 Al4 O16'
_cell_volume   271.26123371
_cell_formula_units_Z   4
loop_
 _symmetry_equiv_pos_site_id
 _symmetry_equiv_pos_as_xyz
  1  'x, y, z'
loop_
 _atom_site_type_symbol
 _atom_site_label
 _atom_site_symmetry_multiplicity
 _atom_site_fract_x
 _atom_site_fract_y
 _atom_site_fract_z
 _atom_site_occupancy
  Li  Li0  1  0.10132043  0.25000000  0.61080373  1
  Li  Li1  1  0.39867957  0.75000000  0.11080373  1
  Li  Li2  1  0.60132043  0.25000000  0.88919627  1
  Li  Li3  1  0.89867957  0.75000000  0.38919627  1
  Mn  Mn4  1  0.23242981  0.75000000  0.33895718  1
  Mn  Mn5  1  0.26757019  0.25000000  0.83895718  1
  Mn  Mn6  1  0.73242981  0.75000000  0.16104282  1
  Mn  Mn7  1  0.76757019  0.25000000  0.66104282  1
  Al  Al8  1  0.01164356  0.25000000  0.12329860  1
  Al  Al9  1  0.48835644  0.75000000  0.62329860  1
  Al  Al10  1  0.51164356  0.25000000  0.37670140  1
  Al  Al11  1  0.98835644  0.75000000  0.87670140  1
  O  O12  1  0.10291144  0.25000000  0.95811822  1
  O  O13  1  0.12982403  0.25000000  0.42122600  1
  O  O14  1  0.10849721  0.75000000  0.19493800  1
  O  O15  1  0.14897784  0.75000000  0.75541967  1
  O  O16  1  0.35102216  0.25000000  0.25541967  1
  O  O17  1  0.39150279  0.25000000  0.69493800  1
  O  O18  1  0.37017597  0.75000000  0.92122600  1
  O  O19  1  0.39708856  0.75000000  0.45811822  1
  O  O20  1  0.60291144  0.25000000  0.54188178  1
  O  O21  1  0.62982403  0.25000000  0.07877400  1
  O  O22  1  0.60849721  0.75000000  0.30506200  1
  O  O23  1  0.64897784  0.75000000  0.74458033  1
  O  O24  1  0.85102216  0.25000000  0.24458033  1
  O  O25  1  0.89150279  0.25000000  0.80506200  1
  O  O26  1  0.87017597  0.75000000  0.57877400  1
  O  O27  1  0.89708856  0.75000000  0.04188178  1
