# generated using pymatgen
data_Li(CoO2)2
_symmetry_space_group_name_H-M   'P 1'
_cell_length_a   5.77824656
_cell_length_b   5.77824643
_cell_length_c   5.77824650
_cell_angle_alpha   59.26009679
_cell_angle_beta   59.26009721
_cell_angle_gamma   59.26009250
_symmetry_Int_Tables_number   1
_chemical_formula_structural   Li(CoO2)2
_chemical_formula_sum   'Li2 Co4 O8'
_cell_volume   134.11959371
_cell_formula_units_Z   2
loop_
 _symmetry_equiv_pos_site_id
 _symmetry_equiv_pos_as_xyz
  1  'x, y, z'
loop_
 _atom_site_type_symbol
 _atom_site_label
 _atom_site_symmetry_multiplicity
 _atom_site_fract_x
 _atom_site_fract_y
 _atom_site_fract_z
 _atom_site_occupancy
  Li  Li0  1  0.12139702  0.12139702  0.12139702  1
  Li  Li1  1  0.50002274  0.50002274  0.50002274  1
  Co  Co2  1  0.00567040  0.49859646  0.49859646  1
  Co  Co3  1  0.49859646  0.49859646  0.00567040  1
  Co  Co4  1  0.49859646  0.00567040  0.49859646  1
  Co  Co5  1  0.87864912  0.87864912  0.87864912  1
  O  O6  1  0.26312708  0.26312708  0.26312708  1
  O  O7  1  0.24993174  0.70658434  0.24993174  1
  O  O8  1  0.24993174  0.24993174  0.70658434  1
  O  O9  1  0.70658434  0.24993174  0.24993174  1
  O  O10  1  0.29020547  0.74888135  0.74888135  1
  O  O11  1  0.74888135  0.74888135  0.29020547  1
  O  O12  1  0.74888135  0.29020547  0.74888135  1
  O  O13  1  0.73952473  0.73952473  0.73952473  1
