# generated using pymatgen
data_ScFeO3
_symmetry_space_group_name_H-M   'P 1'
_cell_length_a   5.84717349
_cell_length_b   5.84718464
_cell_length_c   11.58148645
_cell_angle_alpha   90.00006755
_cell_angle_beta   89.99997849
_cell_angle_gamma   120.00050618
_symmetry_Int_Tables_number   1
_chemical_formula_structural   ScFeO3
_chemical_formula_sum   'Sc6 Fe6 O18'
_cell_volume   342.91423021
_cell_formula_units_Z   6
loop_
 _symmetry_equiv_pos_site_id
 _symmetry_equiv_pos_as_xyz
  1  'x, y, z'
loop_
 _atom_site_type_symbol
 _atom_site_label
 _atom_site_symmetry_multiplicity
 _atom_site_fract_x
 _atom_site_fract_y
 _atom_site_fract_z
 _atom_site_occupancy
  Sc  Sc0  1  0.33333288  0.66668295  0.23488781  1
  Sc  Sc1  1  0.99999894  0.00001297  0.27690866  1
  Sc  Sc2  1  0.99997878  0.99998454  0.77691109  1
  Sc  Sc3  1  0.33331782  0.66664775  0.73487810  1
  Sc  Sc4  1  0.66665024  0.33331777  0.73488003  1
  Sc  Sc5  1  0.66666733  0.33335016  0.23488361  1
  Fe  Fe6  1  0.99997963  0.66610259  0.50271942  1
  Fe  Fe7  1  0.00000898  0.33389638  0.00271785  1
  Fe  Fe8  1  0.33386056  0.33386101  0.50271933  1
  Fe  Fe9  1  0.66612333  0.66613575  0.00271926  1
  Fe  Fe10  1  0.33389052  0.00002064  0.00271806  1
  Fe  Fe11  1  0.66610377  0.99998167  0.50272006  1
  O  O12  1  0.99998728  0.69865680  0.67307010  1
  O  O13  1  0.99999750  0.63249115  0.33610734  1
  O  O14  1  0.99999010  0.36750666  0.83610361  1
  O  O15  1  0.99999871  0.30134439  0.17307099  1
  O  O16  1  0.33333519  0.66668224  0.03029359  1
  O  O17  1  0.99998765  0.99998958  0.47185184  1
  O  O18  1  0.00000151  0.00000870  0.97185098  1
  O  O19  1  0.33331793  0.66665111  0.53029470  1
  O  O20  1  0.30131878  0.30131997  0.67306956  1
  O  O21  1  0.36751342  0.36752462  0.33610758  1
  O  O22  1  0.30133426  0.00001343  0.17307072  1
  O  O23  1  0.63247274  0.63247636  0.83610459  1
  O  O24  1  0.69866318  0.69867809  0.17307154  1
  O  O25  1  0.36750821  0.99999420  0.83610415  1
  O  O26  1  0.66665201  0.33331870  0.53029438  1
  O  O27  1  0.66667411  0.33335090  0.03029372  1
  O  O28  1  0.63248072  0.00000847  0.33610806  1
  O  O29  1  0.69865596  0.99998947  0.67306925  1
