# generated using pymatgen
data_Ba3(BrO)2
_symmetry_space_group_name_H-M   'P 1'
_cell_length_a   12.77368064
_cell_length_b   10.69661369
_cell_length_c   14.42148669
_cell_angle_alpha   90.00000000
_cell_angle_beta   67.94663529
_cell_angle_gamma   90.00000000
_symmetry_Int_Tables_number   1
_chemical_formula_structural   Ba3(BrO)2
_chemical_formula_sum   'Ba24 Br16 O16'
_cell_volume   1826.31048564
_cell_formula_units_Z   8
loop_
 _symmetry_equiv_pos_site_id
 _symmetry_equiv_pos_as_xyz
  1  'x, y, z'
loop_
 _atom_site_type_symbol
 _atom_site_label
 _atom_site_symmetry_multiplicity
 _atom_site_fract_x
 _atom_site_fract_y
 _atom_site_fract_z
 _atom_site_occupancy
  Ba  Ba0  1  0.01025141  0.81895912  0.36861326  1
  Ba  Ba1  1  0.09241803  0.41606498  0.37647594  1
  Ba  Ba2  1  0.20841337  0.10899571  0.14013727  1
  Ba  Ba3  1  0.01025141  0.68104088  0.86861326  1
  Ba  Ba4  1  0.33923024  0.47478067  0.07907618  1
  Ba  Ba5  1  0.09241803  0.08393502  0.87647594  1
  Ba  Ba6  1  0.20841337  0.39100429  0.64013727  1
  Ba  Ba7  1  0.42347379  0.94391299  0.27593511  1
  Ba  Ba8  1  0.33923024  0.02521933  0.57907618  1
  Ba  Ba9  1  0.56470520  0.15819935  0.01621237  1
  Ba  Ba10  1  0.43529480  0.65819935  0.48378763  1
  Ba  Ba11  1  0.57652621  0.44391299  0.22406489  1
  Ba  Ba12  1  0.42347379  0.55608701  0.77593511  1
  Ba  Ba13  1  0.56470520  0.34180065  0.51621337  1
  Ba  Ba14  1  0.43529480  0.84180065  0.98378663  1
  Ba  Ba15  1  0.66076976  0.97478067  0.42092382  1
  Ba  Ba16  1  0.57652621  0.05608701  0.72406489  1
  Ba  Ba17  1  0.79158663  0.60899571  0.35986273  1
  Ba  Ba18  1  0.90758197  0.91606498  0.12352406  1
  Ba  Ba19  1  0.66076976  0.52521933  0.92092382  1
  Ba  Ba20  1  0.98974859  0.31895912  0.13138674  1
  Ba  Ba21  1  0.79158663  0.89100429  0.85986273  1
  Ba  Ba22  1  0.90758197  0.58393502  0.62352406  1
  Ba  Ba23  1  0.98974859  0.18104088  0.63138674  1
  Br  Br24  1  0.15144993  0.77244170  0.12107286  1
  Br  Br25  1  0.15236331  0.06766668  0.38980623  1
  Br  Br26  1  0.15144993  0.72755830  0.62107286  1
  Br  Br27  1  0.32047318  0.62717685  0.29931719  1
  Br  Br28  1  0.15236331  0.43233332  0.88980623  1
  Br  Br29  1  0.38239172  0.26607618  0.40279811  1
  Br  Br30  1  0.32047318  0.87282315  0.79931719  1
  Br  Br31  1  0.61760828  0.76607618  0.09720189  1
  Br  Br32  1  0.38239172  0.23392382  0.90279811  1
  Br  Br33  1  0.67952682  0.12717685  0.20068281  1
  Br  Br34  1  0.61760828  0.73392382  0.59720189  1
  Br  Br35  1  0.84763669  0.56766668  0.11019377  1
  Br  Br36  1  0.67952682  0.37282315  0.70068281  1
  Br  Br37  1  0.84855007  0.27244170  0.37892714  1
  Br  Br38  1  0.84763669  0.93233332  0.61019377  1
  Br  Br39  1  0.84855007  0.22755830  0.87892714  1
  O  O40  1  0.04224369  0.10291252  0.07119174  1
  O  O41  1  0.15542864  0.33861476  0.18187023  1
  O  O42  1  0.04224369  0.39708748  0.57119174  1
  O  O43  1  0.15542864  0.16138524  0.68187023  1
  O  O44  1  0.40238770  0.02241055  0.11810215  1
  O  O45  1  0.52759403  0.39238357  0.07212314  1
  O  O46  1  0.47240597  0.89238357  0.42787686  1
  O  O47  1  0.40238770  0.47758945  0.61810215  1
  O  O48  1  0.59761230  0.52241055  0.38189785  1
  O  O49  1  0.52759403  0.10761643  0.57212314  1
  O  O50  1  0.47240597  0.60761643  0.92787686  1
  O  O51  1  0.59761230  0.97758945  0.88189785  1
  O  O52  1  0.84457136  0.83861476  0.31812977  1
  O  O53  1  0.95775631  0.60291252  0.42880826  1
  O  O54  1  0.84457136  0.66138524  0.81812977  1
  O  O55  1  0.95775631  0.89708748  0.92880826  1
