# generated using pymatgen
data_Li3FePCO7
_symmetry_space_group_name_H-M   'P 1'
_cell_length_a   8.39244495
_cell_length_b   5.07136971
_cell_length_c   6.55896815
_cell_angle_alpha   90.00000000
_cell_angle_beta   90.00000000
_cell_angle_gamma   88.44303509
_symmetry_Int_Tables_number   1
_chemical_formula_structural   Li3FePCO7
_chemical_formula_sum   'Li6 Fe2 P2 C2 O14'
_cell_volume   279.05443352
_cell_formula_units_Z   2
loop_
 _symmetry_equiv_pos_site_id
 _symmetry_equiv_pos_as_xyz
  1  'x, y, z'
loop_
 _atom_site_type_symbol
 _atom_site_label
 _atom_site_symmetry_multiplicity
 _atom_site_fract_x
 _atom_site_fract_y
 _atom_site_fract_z
 _atom_site_occupancy
  Li  Li0  1  0.99997903  0.02276259  0.50198610  1
  Li  Li1  1  0.17235006  0.46203572  0.18288660  1
  Li  Li2  1  0.50601986  0.44924039  0.43762505  1
  Li  Li3  1  0.49398014  0.55075961  0.93762505  1
  Li  Li4  1  0.82764994  0.53796428  0.68288660  1
  Li  Li5  1  0.00002097  0.97723741  0.00198610  1
  Fe  Fe6  1  0.28962837  0.01579494  0.75063862  1
  Fe  Fe7  1  0.71037163  0.98420506  0.25063862  1
  P  P8  1  0.32714698  0.96789690  0.24641521  1
  P  P9  1  0.67285302  0.03210310  0.74641521  1
  C  C10  1  0.13824832  0.50411035  0.74129903  1
  C  C11  1  0.86175168  0.49588965  0.24129903  1
  O  O12  1  0.03014255  0.32574302  0.72404176  1
  O  O13  1  0.09364538  0.74888421  0.77058608  1
  O  O14  1  0.22980221  0.10102322  0.06920586  1
  O  O15  1  0.22774966  0.00542902  0.44144699  1
  O  O16  1  0.28885267  0.43931146  0.73377247  1
  O  O17  1  0.36446621  0.67240338  0.20071758  1
  O  O18  1  0.48615942  0.11830508  0.27397866  1
  O  O19  1  0.51384058  0.88169492  0.77397866  1
  O  O20  1  0.63553379  0.32759662  0.70071758  1
  O  O21  1  0.71114733  0.56068854  0.23377247  1
  O  O22  1  0.77225034  0.99457098  0.94144699  1
  O  O23  1  0.77019779  0.89897678  0.56920586  1
  O  O24  1  0.90635462  0.25111579  0.27058608  1
  O  O25  1  0.96985745  0.67425698  0.22404176  1
