# generated using pymatgen
data_Li5Mn2P2(CO7)2
_symmetry_space_group_name_H-M   'P 1'
_cell_length_a   8.51274243
_cell_length_b   10.10881067
_cell_length_c   6.43606915
_cell_angle_alpha   90.00000000
_cell_angle_beta   90.00000000
_cell_angle_gamma   86.04100894
_symmetry_Int_Tables_number   1
_chemical_formula_structural   Li5Mn2P2(CO7)2
_chemical_formula_sum   'Li10 Mn4 P4 C4 O28'
_cell_volume   552.52593952
_cell_formula_units_Z   2
loop_
 _symmetry_equiv_pos_site_id
 _symmetry_equiv_pos_as_xyz
  1  'x, y, z'
loop_
 _atom_site_type_symbol
 _atom_site_label
 _atom_site_symmetry_multiplicity
 _atom_site_fract_x
 _atom_site_fract_y
 _atom_site_fract_z
 _atom_site_occupancy
  Li  Li0  1  0.09503804  0.88406475  0.25000000  1
  Li  Li1  1  0.25404026  0.13655308  0.01688458  1
  Li  Li2  1  0.25404026  0.13655308  0.48311542  1
  Li  Li3  1  0.25838140  0.61978314  0.02305867  1
  Li  Li4  1  0.25838140  0.61978314  0.47694133  1
  Li  Li5  1  0.74595974  0.36344692  0.51688458  1
  Li  Li6  1  0.74595974  0.36344692  0.98311542  1
  Li  Li7  1  0.74161860  0.88021686  0.52305867  1
  Li  Li8  1  0.74161860  0.88021686  0.97694133  1
  Li  Li9  1  0.90496196  0.61593525  0.75000000  1
  Mn  Mn10  1  0.34236874  0.39491807  0.75000000  1
  Mn  Mn11  1  0.33576984  0.89627170  0.75000000  1
  Mn  Mn12  1  0.65763126  0.10508193  0.25000000  1
  Mn  Mn13  1  0.66423016  0.60372830  0.25000000  1
  P  P14  1  0.41770856  0.36212845  0.25000000  1
  P  P15  1  0.41467776  0.86033453  0.25000000  1
  P  P16  1  0.58229144  0.13787155  0.75000000  1
  P  P17  1  0.58532224  0.63966547  0.75000000  1
  C  C18  1  0.04137743  0.36147005  0.75000000  1
  C  C19  1  0.04082643  0.85170320  0.75000000  1
  C  C20  1  0.95862257  0.13852995  0.25000000  1
  C  C21  1  0.95917357  0.64829680  0.25000000  1
  O  O22  1  0.07977404  0.48322441  0.75000000  1
  O  O23  1  0.10147000  0.16960934  0.25000000  1
  O  O24  1  0.07637047  0.97162475  0.75000000  1
  O  O25  1  0.15936016  0.26878462  0.75000000  1
  O  O26  1  0.10360762  0.68442547  0.25000000  1
  O  O27  1  0.15614617  0.75612528  0.75000000  1
  O  O28  1  0.32572730  0.41936699  0.05937792  1
  O  O29  1  0.32572730  0.41936699  0.44062208  1
  O  O30  1  0.31223047  0.91366720  0.06399429  1
  O  O31  1  0.31223047  0.91366720  0.43600571  1
  O  O32  1  0.41006099  0.09412233  0.75000000  1
  O  O33  1  0.42555414  0.20768883  0.25000000  1
  O  O34  1  0.41839903  0.58826966  0.75000000  1
  O  O35  1  0.43127689  0.70619764  0.25000000  1
  O  O36  1  0.57444586  0.29231117  0.75000000  1
  O  O37  1  0.58993901  0.40587767  0.25000000  1
  O  O38  1  0.56872311  0.79380236  0.75000000  1
  O  O39  1  0.58160097  0.91173034  0.25000000  1
  O  O40  1  0.67427270  0.08063301  0.94062208  1
  O  O41  1  0.67427270  0.08063301  0.55937792  1
  O  O42  1  0.68776953  0.58633280  0.56399429  1
  O  O43  1  0.68776953  0.58633280  0.93600571  1
  O  O44  1  0.84063984  0.23121538  0.25000000  1
  O  O45  1  0.89853000  0.33039066  0.75000000  1
  O  O46  1  0.84385383  0.74387472  0.25000000  1
  O  O47  1  0.92022596  0.01677559  0.25000000  1
  O  O48  1  0.89639238  0.81557453  0.75000000  1
  O  O49  1  0.92362953  0.52837525  0.25000000  1
