# generated using pymatgen
data_Li4Ti3Fe5O16
_symmetry_space_group_name_H-M   'P 1'
_cell_length_a   5.94536428
_cell_length_b   5.94678453
_cell_length_c   9.62622033
_cell_angle_alpha   89.52696813
_cell_angle_beta   90.52073141
_cell_angle_gamma   119.90303974
_symmetry_Int_Tables_number   1
_chemical_formula_structural   Li4Ti3Fe5O16
_chemical_formula_sum   'Li4 Ti3 Fe5 O16'
_cell_volume   295.01809067
_cell_formula_units_Z   1
loop_
 _symmetry_equiv_pos_site_id
 _symmetry_equiv_pos_as_xyz
  1  'x, y, z'
loop_
 _atom_site_type_symbol
 _atom_site_label
 _atom_site_symmetry_multiplicity
 _atom_site_fract_x
 _atom_site_fract_y
 _atom_site_fract_z
 _atom_site_occupancy
  Li  Li0  1  0.33645624  0.67206557  0.89207520  1
  Li  Li1  1  0.99155665  0.99609858  0.99583393  1
  Li  Li2  1  0.99648460  0.99682072  0.49703567  1
  Li  Li3  1  0.66654260  0.33396888  0.39547644  1
  Ti  Ti4  1  0.17093019  0.83199373  0.21386500  1
  Ti  Ti5  1  0.17255346  0.34010587  0.21590256  1
  Ti  Ti6  1  0.34104479  0.17055121  0.71561097  1
  Fe  Fe7  1  0.33513729  0.66440679  0.49149176  1
  Fe  Fe8  1  0.66087995  0.83205433  0.21320801  1
  Fe  Fe9  1  0.67153137  0.33673888  0.98959511  1
  Fe  Fe10  1  0.83155688  0.66061268  0.71405220  1
  Fe  Fe11  1  0.83093267  0.16955679  0.71380538  1
  O  O12  1  0.16709638  0.83672171  0.60135742  1
  O  O13  1  0.03829378  0.51745482  0.33460671  1
  O  O14  1  0.32013999  0.66198817  0.10306892  1
  O  O15  1  0.00678085  0.00297966  0.31054731  1
  O  O16  1  0.00817562  0.00414984  0.81038002  1
  O  O17  1  0.17019849  0.32666721  0.59957562  1
  O  O18  1  0.47264813  0.95895574  0.33847025  1
  O  O19  1  0.47289587  0.51166724  0.33725415  1
  O  O20  1  0.32669748  0.16470211  0.10304907  1
  O  O21  1  0.67404019  0.82894369  0.60087599  1
  O  O22  1  0.51811107  0.48092922  0.83744086  1
  O  O23  1  0.51477895  0.04160044  0.84024594  1
  O  O24  1  0.65590031  0.32573908  0.60239388  1
  O  O25  1  0.84260696  0.67379477  0.10272903  1
  O  O26  1  0.96313351  0.48855158  0.83747189  1
  O  O27  1  0.84289675  0.17047970  0.10041673  1
