# generated using pymatgen
data_Ba5(Ga3O7)2
_symmetry_space_group_name_H-M   'P 1'
_cell_length_a   8.54774283
_cell_length_b   8.54774283
_cell_length_c   11.53987578
_cell_angle_alpha   90.00000000
_cell_angle_beta   90.00000000
_cell_angle_gamma   91.69369027
_symmetry_Int_Tables_number   1
_chemical_formula_structural   Ba5(Ga3O7)2
_chemical_formula_sum   'Ba10 Ga12 O28'
_cell_volume   842.78006247
_cell_formula_units_Z   2
loop_
 _symmetry_equiv_pos_site_id
 _symmetry_equiv_pos_as_xyz
  1  'x, y, z'
loop_
 _atom_site_type_symbol
 _atom_site_label
 _atom_site_symmetry_multiplicity
 _atom_site_fract_x
 _atom_site_fract_y
 _atom_site_fract_z
 _atom_site_occupancy
  Ba  Ba0  1  0.28367853  0.97615444  0.93508006  1
  Ba  Ba1  1  0.02384556  0.71632147  0.43508006  1
  Ba  Ba2  1  0.68732830  0.97495931  0.86816670  1
  Ba  Ba3  1  0.02504069  0.31267170  0.36816670  1
  Ba  Ba4  1  0.48758464  0.48758464  0.40971840  1
  Ba  Ba5  1  0.51241536  0.51241536  0.90971840  1
  Ba  Ba6  1  0.31267170  0.02504069  0.36816670  1
  Ba  Ba7  1  0.97495931  0.68732830  0.86816670  1
  Ba  Ba8  1  0.97615444  0.28367853  0.93508006  1
  Ba  Ba9  1  0.71632147  0.02384556  0.43508006  1
  Ga  Ga10  1  0.35558022  0.84150395  0.65075098  1
  Ga  Ga11  1  0.15849605  0.64441978  0.15075098  1
  Ga  Ga12  1  0.51164679  0.78642223  0.17144393  1
  Ga  Ga13  1  0.21357777  0.48835321  0.67144393  1
  Ga  Ga14  1  0.69943866  0.69943866  0.62678403  1
  Ga  Ga15  1  0.30056134  0.30056134  0.12678403  1
  Ga  Ga16  1  0.00590449  0.00590449  0.64933285  1
  Ga  Ga17  1  0.99409551  0.99409551  0.14933285  1
  Ga  Ga18  1  0.78642223  0.51164679  0.17144393  1
  Ga  Ga19  1  0.48835321  0.21357777  0.67144393  1
  Ga  Ga20  1  0.84150395  0.35558022  0.65075098  1
  Ga  Ga21  1  0.64441978  0.15849605  0.15075098  1
  O  O22  1  0.18541124  0.93168050  0.57047356  1
  O  O23  1  0.06831950  0.81458876  0.07047356  1
  O  O24  1  0.31329291  0.73322991  0.24848344  1
  O  O25  1  0.26677009  0.68670709  0.74848344  1
  O  O26  1  0.55935383  0.98869093  0.23752368  1
  O  O27  1  0.01130907  0.44064617  0.73752368  1
  O  O28  1  0.49503289  0.79897262  0.01385844  1
  O  O29  1  0.20102738  0.50496711  0.51385844  1
  O  O30  1  0.51624802  0.77247626  0.55023630  1
  O  O31  1  0.22752374  0.48375198  0.05023630  1
  O  O32  1  0.00050722  0.00050722  0.80864714  1
  O  O33  1  0.14524996  0.14524996  0.08955181  1
  O  O34  1  0.64866893  0.64866893  0.24024598  1
  O  O35  1  0.99949278  0.99949278  0.30864714  1
  O  O36  1  0.35133107  0.35133107  0.74024598  1
  O  O37  1  0.69419124  0.69419124  0.78336960  1
  O  O38  1  0.30580876  0.30580876  0.28336960  1
  O  O39  1  0.85475004  0.85475004  0.58955181  1
  O  O40  1  0.77247626  0.51624802  0.55023630  1
  O  O41  1  0.48375198  0.22752374  0.05023630  1
  O  O42  1  0.50496711  0.20102738  0.51385844  1
  O  O43  1  0.79897262  0.49503289  0.01385844  1
  O  O44  1  0.44064617  0.01130907  0.73752368  1
  O  O45  1  0.98869093  0.55935383  0.23752368  1
  O  O46  1  0.68670709  0.26677009  0.74848344  1
  O  O47  1  0.73322991  0.31329291  0.24848344  1
  O  O48  1  0.93168050  0.18541124  0.57047356  1
  O  O49  1  0.81458876  0.06831950  0.07047356  1
