# generated using pymatgen
data_Li3Mn(BO2)5
_symmetry_space_group_name_H-M   'P 1'
_cell_length_a   6.98763970
_cell_length_b   7.18951438
_cell_length_c   9.46578403
_cell_angle_alpha   80.59641769
_cell_angle_beta   69.26093494
_cell_angle_gamma   62.22741876
_symmetry_Int_Tables_number   1
_chemical_formula_structural   Li3Mn(BO2)5
_chemical_formula_sum   'Li6 Mn2 B10 O20'
_cell_volume   393.49456130
_cell_formula_units_Z   2
loop_
 _symmetry_equiv_pos_site_id
 _symmetry_equiv_pos_as_xyz
  1  'x, y, z'
loop_
 _atom_site_type_symbol
 _atom_site_label
 _atom_site_symmetry_multiplicity
 _atom_site_fract_x
 _atom_site_fract_y
 _atom_site_fract_z
 _atom_site_occupancy
  Li  Li0  1  0.22127984  0.50832057  0.24464031  1
  Li  Li1  1  0.79912909  0.01216964  0.16024889  1
  Li  Li2  1  0.02585924  0.18078795  0.46684202  1
  Li  Li3  1  0.97414076  0.81921205  0.53315798  1
  Li  Li4  1  0.20087091  0.98783036  0.83975111  1
  Li  Li5  1  0.77872016  0.49167943  0.75535969  1
  Mn  Mn6  1  0.22307593  0.52062112  0.87960353  1
  Mn  Mn7  1  0.77692407  0.47937888  0.12039647  1
  B  B8  1  0.30450424  0.81605598  0.07519635  1
  B  B9  1  0.40662291  0.86566651  0.29452716  1
  B  B10  1  0.36218977  0.75760683  0.56906846  1
  B  B11  1  0.22005874  0.17186505  0.13678821  1
  B  B12  1  0.73985780  0.72287266  0.39997245  1
  B  B13  1  0.26014220  0.27712734  0.60002755  1
  B  B14  1  0.77994126  0.82813495  0.86321179  1
  B  B15  1  0.63781023  0.24239317  0.43093154  1
  B  B16  1  0.59337709  0.13433349  0.70547284  1
  B  B17  1  0.69549576  0.18394402  0.92480365  1
  O  O18  1  0.26738692  0.70980586  0.99508706  1
  O  O19  1  0.27038996  0.84425647  0.45023330  1
  O  O20  1  0.40516488  0.73035243  0.18954373  1
  O  O21  1  0.22077491  0.75322594  0.70766357  1
  O  O22  1  0.13586966  0.38036770  0.10597963  1
  O  O23  1  0.64961578  0.79308363  0.27771785  1
  O  O24  1  0.05263706  0.30090581  0.61850715  1
  O  O25  1  0.70015569  0.90857892  0.74151782  1
  O  O26  1  0.59693027  0.68641746  0.53922721  1
  O  O27  1  0.76739224  0.96744145  0.95754781  1
  O  O28  1  0.23260776  0.03255855  0.04245219  1
  O  O29  1  0.40306973  0.31358254  0.46077279  1
  O  O30  1  0.29984431  0.09142108  0.25848218  1
  O  O31  1  0.94736294  0.69909419  0.38149285  1
  O  O32  1  0.35038422  0.20691637  0.72228215  1
  O  O33  1  0.86413034  0.61963230  0.89402037  1
  O  O34  1  0.77922509  0.24677406  0.29233643  1
  O  O35  1  0.59483512  0.26964757  0.81045627  1
  O  O36  1  0.72961004  0.15574353  0.54976670  1
  O  O37  1  0.73261308  0.29019414  0.00491294  1
