# generated using pymatgen
data_Li5Cr2Ni3O10
_symmetry_space_group_name_H-M   'P 1'
_cell_length_a   5.09780627
_cell_length_b   5.06216005
_cell_length_c   7.74118102
_cell_angle_alpha   109.99497568
_cell_angle_beta   101.84379473
_cell_angle_gamma   99.60494013
_symmetry_Int_Tables_number   1
_chemical_formula_structural   Li5Cr2Ni3O10
_chemical_formula_sum   'Li5 Cr2 Ni3 O10'
_cell_volume   177.52342629
_cell_formula_units_Z   1
loop_
 _symmetry_equiv_pos_site_id
 _symmetry_equiv_pos_as_xyz
  1  'x, y, z'
loop_
 _atom_site_type_symbol
 _atom_site_label
 _atom_site_symmetry_multiplicity
 _atom_site_fract_x
 _atom_site_fract_y
 _atom_site_fract_z
 _atom_site_occupancy
  Li  Li0  1  0.21158517  0.90710131  0.40218743  1
  Li  Li1  1  0.40482382  0.30077828  0.79722112  1
  Li  Li2  1  0.50000000  0.50000000  0.50000000  1
  Li  Li3  1  0.59517618  0.69922172  0.20277888  1
  Li  Li4  1  0.78841483  0.09289869  0.59781257  1
  Cr  Cr5  1  0.10975939  0.70221289  0.69581840  1
  Cr  Cr6  1  0.89024061  0.29778711  0.30418160  1
  Ni  Ni7  1  0.00000000  0.50000000  0.00000000  1
  Ni  Ni8  1  0.69863610  0.89769278  0.89902154  1
  Ni  Ni9  1  0.30136390  0.10230722  0.10097846  1
  O  O10  1  0.05180860  0.07879381  0.84544772  1
  O  O11  1  0.33671859  0.70565771  0.94136389  1
  O  O12  1  0.12957214  0.32316828  0.54972485  1
  O  O13  1  0.22450173  0.47652524  0.24529681  1
  O  O14  1  0.43104433  0.88876106  0.65915597  1
  O  O15  1  0.56895567  0.11123894  0.34084403  1
  O  O16  1  0.77549827  0.52347476  0.75470319  1
  O  O17  1  0.87042786  0.67683172  0.45027515  1
  O  O18  1  0.66328141  0.29434229  0.05863611  1
  O  O19  1  0.94819140  0.92120619  0.15455228  1
