# generated using pymatgen
data_LiCrBO3
_symmetry_space_group_name_H-M   'P 1'
_cell_length_a   14.26342510
_cell_length_b   14.25605996
_cell_length_c   3.17572558
_cell_angle_alpha   89.11970251
_cell_angle_beta   90.89422488
_cell_angle_gamma   119.96027644
_symmetry_Int_Tables_number   1
_chemical_formula_structural   LiCrBO3
_chemical_formula_sum   'Li9 Cr9 B9 O27'
_cell_volume   559.37256443
_cell_formula_units_Z   9
loop_
 _symmetry_equiv_pos_site_id
 _symmetry_equiv_pos_as_xyz
  1  'x, y, z'
loop_
 _atom_site_type_symbol
 _atom_site_label
 _atom_site_symmetry_multiplicity
 _atom_site_fract_x
 _atom_site_fract_y
 _atom_site_fract_z
 _atom_site_occupancy
  Li  Li0  1  0.25514043  0.82615655  0.05589088  1
  Li  Li1  1  0.17241810  0.42831685  0.00474841  1
  Li  Li2  1  0.22603246  0.09739803  0.01280857  1
  Li  Li3  1  0.57089449  0.74511751  0.94859714  1
  Li  Li4  1  0.58699753  0.48169024  0.97080898  1
  Li  Li5  1  0.51800903  0.10572621  0.02418477  1
  Li  Li6  1  0.87065358  0.77371958  0.98306135  1
  Li  Li7  1  0.89334001  0.41216070  0.99227901  1
  Li  Li8  1  0.90224678  0.12863798  0.01022230  1
  Cr  Cr9  1  0.08802569  0.86832509  0.52416085  1
  Cr  Cr10  1  0.11913983  0.57092554  0.49065302  1
  Cr  Cr11  1  0.45143176  0.87997329  0.55675035  1
  Cr  Cr12  1  0.13091524  0.21962843  0.52075717  1
  Cr  Cr13  1  0.42824417  0.54927331  0.45009076  1
  Cr  Cr14  1  0.45271828  0.26393481  0.49181091  1
  Cr  Cr15  1  0.77982902  0.91175364  0.47509434  1
  Cr  Cr16  1  0.81023369  0.54669848  0.48086722  1
  Cr  Cr17  1  0.73551008  0.18892132  0.51655037  1
  B  B18  1  0.00866548  0.66594651  0.99947609  1
  B  B19  1  0.33301829  0.66678177  0.99928256  1
  B  B20  1  0.33321692  0.34320877  0.98775549  1
  B  B21  1  0.65684797  0.99083749  0.01438031  1
  B  B22  1  0.33088662  0.01517703  0.53002580  1
  B  B23  1  0.68364655  0.66893719  0.46688166  1
  B  B24  1  0.66606880  0.33310726  0.99574229  1
  B  B25  1  0.99954246  0.99980736  0.00686837  1
  B  B26  1  0.98377561  0.31535895  0.50358406  1
  O  O27  1  0.02030639  0.91437483  0.01479446  1
  O  O28  1  0.02347418  0.57614427  0.98322532  1
  O  O29  1  0.09678365  0.77021706  0.03646206  1
  O  O30  1  0.31301860  0.91023682  0.55560018  1
  O  O31  1  0.08873408  0.40236967  0.50038942  1
  O  O32  1  0.22437340  0.58930280  0.99859230  1
  O  O33  1  0.36452842  0.77416571  0.06382990  1
  O  O34  1  0.08478872  0.10584350  0.02572148  1
  O  O35  1  0.55255986  0.97559045  0.05478042  1
  O  O36  1  0.22875641  0.32649338  0.02241906  1
  O  O37  1  0.40995377  0.63675741  0.93555403  1
  O  O38  1  0.67297248  0.90318014  0.96156065  1
  O  O39  1  0.34888894  0.25452334  0.98327220  1
  O  O40  1  0.42240144  0.44791610  0.95762138  1
  O  O41  1  0.24227032  0.03091056  0.51749812  1
  O  O42  1  0.59677512  0.68714143  0.45349283  1
  O  O43  1  0.66395807  0.56283527  0.46985636  1
  O  O44  1  0.43678661  0.10152593  0.51721437  1
  O  O45  1  0.89359800  0.97919760  0.97946518  1
  O  O46  1  0.78794245  0.75739063  0.47746710  1
  O  O47  1  0.56603587  0.32714826  0.99666154  1
  O  O48  1  0.67218466  0.23905171  0.00646170  1
  O  O49  1  0.76004382  0.43325089  0.98438634  1
  O  O50  1  0.90457959  0.65071507  0.97863357  1
  O  O51  1  0.74563826  0.09494981  0.02707894  1
  O  O52  1  0.89741235  0.33504985  0.49930630  1
  O  O53  1  0.96825766  0.21111159  0.51113975  1
