# generated using pymatgen
data_Li3MnNi3O8
_symmetry_space_group_name_H-M   'P 1'
_cell_length_a   10.29035428
_cell_length_b   10.29220886
_cell_length_c   14.61712520
_cell_angle_alpha   18.98757184
_cell_angle_beta   18.99079681
_cell_angle_gamma   32.66311533
_symmetry_Int_Tables_number   1
_chemical_formula_structural   Li3MnNi3O8
_chemical_formula_sum   'Li3 Mn1 Ni3 O8'
_cell_volume   142.55030826
_cell_formula_units_Z   1
loop_
 _symmetry_equiv_pos_site_id
 _symmetry_equiv_pos_as_xyz
  1  'x, y, z'
loop_
 _atom_site_type_symbol
 _atom_site_label
 _atom_site_symmetry_multiplicity
 _atom_site_fract_x
 _atom_site_fract_y
 _atom_site_fract_z
 _atom_site_occupancy
  Li  Li0  1  0.99999396  0.49997656  0.50002006  1
  Li  Li1  1  0.49999495  0.00000672  0.49999754  1
  Li  Li2  1  0.50000541  0.50001822  0.49998333  1
  Mn  Mn3  1  0.00001968  0.00000269  -0.00002051  1
  Ni  Ni4  1  -0.00000308  0.50000214  -0.00000308  1
  Ni  Ni5  1  0.50001137  0.00000102  -0.00001351  1
  Ni  Ni6  1  0.49998768  0.49999390  0.00000779  1
  O  O7  1  0.00407886  0.00421850  0.25751639  1
  O  O8  1  0.00637223  0.53082131  0.23532455  1
  O  O9  1  0.52888761  0.00248572  0.23914192  1
  O  O10  1  0.99592101  0.99577574  0.74248195  1
  O  O11  1  0.47138397  0.47348333  0.29790139  1
  O  O12  1  0.99362535  0.46922467  0.76465667  1
  O  O13  1  0.47114308  0.99751152  0.76084646  1
  O  O14  1  0.52857890  0.52647796  0.70215905  1
