# generated using pymatgen
data_LiVPO5
_symmetry_space_group_name_H-M   'P 1'
_cell_length_a   12.74251482
_cell_length_b   6.34184091
_cell_length_c   10.58401558
_cell_angle_alpha   90.00000000
_cell_angle_beta   90.00000000
_cell_angle_gamma   90.00000000
_symmetry_Int_Tables_number   1
_chemical_formula_structural   LiVPO5
_chemical_formula_sum   'Li8 V8 P8 O40'
_cell_volume   855.30490189
_cell_formula_units_Z   8
loop_
 _symmetry_equiv_pos_site_id
 _symmetry_equiv_pos_as_xyz
  1  'x, y, z'
loop_
 _atom_site_type_symbol
 _atom_site_label
 _atom_site_symmetry_multiplicity
 _atom_site_fract_x
 _atom_site_fract_y
 _atom_site_fract_z
 _atom_site_occupancy
  Li  Li0  1  0.10175314  0.95890732  0.03485809  1
  Li  Li1  1  0.17140933  0.35499746  0.76378943  1
  Li  Li2  1  0.32859067  0.85499746  0.26378943  1
  Li  Li3  1  0.39824686  0.45890732  0.53485809  1
  Li  Li4  1  0.60175314  0.54109268  0.03485809  1
  Li  Li5  1  0.67140933  0.14500254  0.76378943  1
  Li  Li6  1  0.82859067  0.64500254  0.26378943  1
  Li  Li7  1  0.89824686  0.04109268  0.53485809  1
  V  V8  1  0.12881613  0.98829904  0.50661921  1
  V  V9  1  0.24500227  0.27210807  0.26268394  1
  V  V10  1  0.25499773  0.77210807  0.76268394  1
  V  V11  1  0.37118387  0.48829904  0.00661921  1
  V  V12  1  0.62881613  0.51170096  0.50661921  1
  V  V13  1  0.74500227  0.22789193  0.26268394  1
  V  V14  1  0.75499773  0.72789193  0.76268394  1
  V  V15  1  0.87118387  0.01170096  0.00661921  1
  P  P16  1  0.00472336  0.82365519  0.77258027  1
  P  P17  1  0.18552947  0.49367004  0.52211896  1
  P  P18  1  0.31447053  0.99367004  0.02211896  1
  P  P19  1  0.49527664  0.32365519  0.27258027  1
  P  P20  1  0.50472336  0.67634481  0.77258027  1
  P  P21  1  0.68552947  0.00632996  0.52211896  1
  P  P22  1  0.81447053  0.50632996  0.02211896  1
  P  P23  1  0.99527664  0.17634481  0.27258027  1
  O  O24  1  0.00059437  0.03256357  0.39316663  1
  O  O25  1  0.01180801  0.96471003  0.65208414  1
  O  O26  1  0.09310435  0.31907709  0.26724916  1
  O  O27  1  0.10311575  0.67829981  0.78345231  1
  O  O28  1  0.11319536  0.68049022  0.49315182  1
  O  O29  1  0.12057215  0.29805148  0.55861830  1
  O  O30  1  0.21989569  0.02181019  0.38633655  1
  O  O31  1  0.22671927  0.95170254  0.64559231  1
  O  O32  1  0.23533844  0.95498150  0.91209113  1
  O  O33  1  0.23644806  0.03070659  0.13610775  1
  O  O34  1  0.26355194  0.53070659  0.63610775  1
  O  O35  1  0.26466156  0.45498150  0.41209113  1
  O  O36  1  0.27328073  0.45170254  0.14559231  1
  O  O37  1  0.28010431  0.52181019  0.88633655  1
  O  O38  1  0.37942785  0.79805148  0.05861830  1
  O  O39  1  0.38680464  0.18049022  0.99315182  1
  O  O40  1  0.39688425  0.17829881  0.28345231  1
  O  O41  1  0.40689565  0.81907709  0.76724916  1
  O  O42  1  0.48819199  0.46471003  0.15208414  1
  O  O43  1  0.49940563  0.53256357  0.89316663  1
  O  O44  1  0.50059437  0.46743643  0.39316663  1
  O  O45  1  0.51180801  0.53528997  0.65208414  1
  O  O46  1  0.59310435  0.18092291  0.26724916  1
  O  O47  1  0.60311575  0.82170019  0.78345231  1
  O  O48  1  0.61319536  0.81950978  0.49315182  1
  O  O49  1  0.62057215  0.20194852  0.55861830  1
  O  O50  1  0.71989569  0.47818981  0.38633655  1
  O  O51  1  0.72671927  0.54829746  0.64559231  1
  O  O52  1  0.73533844  0.54501850  0.91209113  1
  O  O53  1  0.73644806  0.46929341  0.13610775  1
  O  O54  1  0.76355194  0.96929341  0.63610775  1
  O  O55  1  0.76466156  0.04501850  0.41209113  1
  O  O56  1  0.77328073  0.04829746  0.14559231  1
  O  O57  1  0.78010431  0.97818981  0.88633655  1
  O  O58  1  0.87942785  0.70194852  0.05861830  1
  O  O59  1  0.88680464  0.31950978  0.99315182  1
  O  O60  1  0.89688425  0.32170019  0.28345231  1
  O  O61  1  0.90689565  0.68092291  0.76724916  1
  O  O62  1  0.98819199  0.03528997  0.15208414  1
  O  O63  1  0.99940563  0.96743643  0.89316663  1
