# generated using pymatgen
data_Ni(IO3)2
_symmetry_space_group_name_H-M   'P 1'
_cell_length_a   14.69710671
_cell_length_b   6.89597487
_cell_length_c   5.20093704
_cell_angle_alpha   90.00000000
_cell_angle_beta   90.00000000
_cell_angle_gamma   90.00000000
_symmetry_Int_Tables_number   1
_chemical_formula_structural   Ni(IO3)2
_chemical_formula_sum   'Ni4 I8 O24'
_cell_volume   527.11953820
_cell_formula_units_Z   4
loop_
 _symmetry_equiv_pos_site_id
 _symmetry_equiv_pos_as_xyz
  1  'x, y, z'
loop_
 _atom_site_type_symbol
 _atom_site_label
 _atom_site_symmetry_multiplicity
 _atom_site_fract_x
 _atom_site_fract_y
 _atom_site_fract_z
 _atom_site_occupancy
  Ni  Ni0  1  0.00000000  0.37233754  0.25000000  1
  Ni  Ni1  1  0.00000000  0.62766246  0.75000000  1
  Ni  Ni2  1  0.50000000  0.12766246  0.75000000  1
  Ni  Ni3  1  0.50000000  0.87233754  0.25000000  1
  I  I4  1  0.14756265  0.21817090  0.76725089  1
  I  I5  1  0.14756265  0.78182910  0.26725089  1
  I  I6  1  0.35243735  0.28182910  0.26725089  1
  I  I7  1  0.35243735  0.71817090  0.76725089  1
  I  I8  1  0.64756265  0.28182910  0.23274911  1
  I  I9  1  0.64756265  0.71817090  0.73274911  1
  I  I10  1  0.85243735  0.21817090  0.73274911  1
  I  I11  1  0.85243735  0.78182910  0.23274911  1
  O  O12  1  0.07726079  0.59916726  0.08932710  1
  O  O13  1  0.07726079  0.40083274  0.58932710  1
  O  O14  1  0.07879023  0.17224088  0.05852081  1
  O  O15  1  0.07879023  0.82775912  0.55852081  1
  O  O16  1  0.26294518  0.12726792  0.39115062  1
  O  O17  1  0.26294518  0.87273208  0.89115062  1
  O  O18  1  0.23705482  0.62726792  0.39115062  1
  O  O19  1  0.23705482  0.37273208  0.89115062  1
  O  O20  1  0.42120977  0.32775912  0.55852081  1
  O  O21  1  0.42120977  0.67224088  0.05852081  1
  O  O22  1  0.42273921  0.09916726  0.08932710  1
  O  O23  1  0.42273921  0.90083274  0.58932710  1
  O  O24  1  0.57726079  0.09916726  0.41067290  1
  O  O25  1  0.57726079  0.90083274  0.91067290  1
  O  O26  1  0.57879023  0.32775912  0.94147919  1
  O  O27  1  0.57879023  0.67224088  0.44147919  1
  O  O28  1  0.76294518  0.37273208  0.60884938  1
  O  O29  1  0.76294518  0.62726792  0.10884938  1
  O  O30  1  0.73705482  0.12726792  0.10884938  1
  O  O31  1  0.73705482  0.87273208  0.60884938  1
  O  O32  1  0.92120977  0.17224088  0.44147919  1
  O  O33  1  0.92120977  0.82775912  0.94147919  1
  O  O34  1  0.92273921  0.40083274  0.91067290  1
  O  O35  1  0.92273921  0.59916726  0.41067290  1
