# generated using pymatgen
data_Mn5P6WO24
_symmetry_space_group_name_H-M   'P 1'
_cell_length_a   8.75764939
_cell_length_b   8.76857194
_cell_length_c   8.76857192
_cell_angle_alpha   60.00000292
_cell_angle_beta   59.95873364
_cell_angle_gamma   59.95873326
_symmetry_Int_Tables_number   1
_chemical_formula_structural   Mn5P6WO24
_chemical_formula_sum   'Mn5 P6 W1 O24'
_cell_volume   475.83801359
_cell_formula_units_Z   1
loop_
 _symmetry_equiv_pos_site_id
 _symmetry_equiv_pos_as_xyz
  1  'x, y, z'
loop_
 _atom_site_type_symbol
 _atom_site_label
 _atom_site_symmetry_multiplicity
 _atom_site_fract_x
 _atom_site_fract_y
 _atom_site_fract_z
 _atom_site_occupancy
  Mn  Mn0  1  0.02692397  0.99102534  0.99102534  1
  Mn  Mn1  1  0.06346842  0.64551086  0.64551086  1
  Mn  Mn2  1  0.49980819  0.50006427  0.50006427  1
  Mn  Mn3  1  0.44465722  0.85178093  0.85178093  1
  Mn  Mn4  1  0.93377265  0.35540945  0.35540945  1
  P  P5  1  0.24509053  0.25238199  0.54745595  1
  P  P6  1  0.24509053  0.95507154  0.25238199  1
  P  P7  1  0.24509053  0.54745595  0.95507154  1
  P  P8  1  0.74811512  0.45874366  0.04879250  1
  P  P9  1  0.74811512  0.04879250  0.74434873  1
  P  P10  1  0.74811512  0.74434873  0.45874366  1
  W  W11  1  0.56839241  0.14386886  0.14386886  1
  O  O12  1  0.07098237  0.10790989  0.31636879  1
  O  O13  1  0.07098237  0.50473895  0.10790989  1
  O  O14  1  0.07098237  0.31636879  0.50473895  1
  O  O15  1  0.23730927  0.08646398  0.73286918  1
  O  O16  1  0.42275930  0.17902712  0.38100515  1
  O  O17  1  0.28557253  0.40416008  0.54522919  1
  O  O18  1  0.23730927  0.94335757  0.08646398  1
  O  O19  1  0.28557253  0.76503820  0.40416008  1
  O  O20  1  0.56873717  0.60976311  0.01466424  1
  O  O21  1  0.28557253  0.54522919  0.76503820  1
  O  O22  1  0.74762405  0.25960494  0.07673480  1
  O  O23  1  0.56873717  0.01466424  0.80683648  1
  O  O24  1  0.42275930  0.01720844  0.17902712  1
  O  O25  1  0.23730927  0.73286918  0.94335757  1
  O  O26  1  0.73209299  0.43211785  0.24420703  1
  O  O27  1  0.42275930  0.38100515  0.01720844  1
  O  O28  1  0.73209299  0.24420703  0.59158213  1
  O  O29  1  0.74762405  0.07673480  0.91603621  1
  O  O30  1  0.73209299  0.59158213  0.43211785  1
  O  O31  1  0.56873717  0.80683648  0.60976311  1
  O  O32  1  0.74762405  0.91603621  0.25960494  1
  O  O33  1  0.92937638  0.70153663  0.47524984  1
  O  O34  1  0.92937638  0.47524984  0.89383715  1
  O  O35  1  0.92937638  0.89383715  0.70153663  1
