# generated using pymatgen
data_Tm2WO6
_symmetry_space_group_name_H-M   'P 1'
_cell_length_a   5.34113063
_cell_length_b   9.78324836
_cell_length_c   9.78324836
_cell_angle_alpha   68.29995391
_cell_angle_beta   75.83290734
_cell_angle_gamma   75.83290734
_symmetry_Int_Tables_number   1
_chemical_formula_structural   Tm2WO6
_chemical_formula_sum   'Tm8 W4 O24'
_cell_volume   453.73423280
_cell_formula_units_Z   4
loop_
 _symmetry_equiv_pos_site_id
 _symmetry_equiv_pos_as_xyz
  1  'x, y, z'
loop_
 _atom_site_type_symbol
 _atom_site_label
 _atom_site_symmetry_multiplicity
 _atom_site_fract_x
 _atom_site_fract_y
 _atom_site_fract_z
 _atom_site_occupancy
  Tm  Tm0  1  0.61846323  0.05512016  0.28349339  1
  Tm  Tm1  1  0.11846323  0.28349339  0.05512016  1
  Tm  Tm2  1  0.75000000  0.63483633  0.36516467  1
  Tm  Tm3  1  0.75000000  0.10409013  0.89590987  1
  Tm  Tm4  1  0.25000000  0.89590987  0.10409013  1
  Tm  Tm5  1  0.25000000  0.36516467  0.63483633  1
  Tm  Tm6  1  0.88153677  0.71650661  0.94487984  1
  Tm  Tm7  1  0.38153677  0.94487984  0.71650661  1
  W  W8  1  0.93236561  0.19935654  0.49358638  1
  W  W9  1  0.43236561  0.49358638  0.19935654  1
  W  W10  1  0.56763439  0.50641362  0.80064346  1
  W  W11  1  0.06763439  0.80064346  0.50641362  1
  O  O12  1  0.92199068  0.10776618  0.07427944  1
  O  O13  1  0.42199068  0.07427944  0.10776618  1
  O  O14  1  0.74241940  0.47380025  0.05865572  1
  O  O15  1  0.85250538  0.21495523  0.31330518  1
  O  O16  1  0.24241940  0.05865572  0.47380025  1
  O  O17  1  0.35250538  0.31330518  0.21495523  1
  O  O18  1  0.60915749  0.17686046  0.62101019  1
  O  O19  1  0.10915749  0.62101019  0.17686046  1
  O  O20  1  0.98119023  0.39003362  0.45502316  1
  O  O21  1  0.57789786  0.69015651  0.15877331  1
  O  O22  1  0.48119023  0.45502316  0.39003362  1
  O  O23  1  0.07789786  0.15877331  0.69015651  1
  O  O24  1  0.92210214  0.84122669  0.30984349  1
  O  O25  1  0.51880977  0.54497684  0.60996638  1
  O  O26  1  0.42210214  0.30984349  0.84122669  1
  O  O27  1  0.01880977  0.60996638  0.54497684  1
  O  O28  1  0.89084251  0.37898981  0.82313954  1
  O  O29  1  0.39084251  0.82313954  0.37898981  1
  O  O30  1  0.64749462  0.68669482  0.78504477  1
  O  O31  1  0.75758060  0.94134428  0.52619975  1
  O  O32  1  0.14749462  0.78504477  0.68669482  1
  O  O33  1  0.25758060  0.52619975  0.94134428  1
  O  O34  1  0.57800932  0.92572056  0.89223382  1
  O  O35  1  0.07800932  0.89223382  0.92572056  1
