# generated using pymatgen
data_Li6V3Ni(PO4)6
_symmetry_space_group_name_H-M   'P 1'
_cell_length_a   8.50818344
_cell_length_b   8.56631495
_cell_length_c   8.52907867
_cell_angle_alpha   62.06990276
_cell_angle_beta   62.31360435
_cell_angle_gamma   62.05328281
_symmetry_Int_Tables_number   1
_chemical_formula_structural   Li6V3Ni(PO4)6
_chemical_formula_sum   'Li6 V3 Ni1 P6 O24'
_cell_volume   460.62712881
_cell_formula_units_Z   1
loop_
 _symmetry_equiv_pos_site_id
 _symmetry_equiv_pos_as_xyz
  1  'x, y, z'
loop_
 _atom_site_type_symbol
 _atom_site_label
 _atom_site_symmetry_multiplicity
 _atom_site_fract_x
 _atom_site_fract_y
 _atom_site_fract_z
 _atom_site_occupancy
  Li  Li0  1  0.01766388  0.99848764  0.98742122  1
  Li  Li1  1  0.76382032  0.14149067  0.34764258  1
  Li  Li2  1  0.48049692  0.51470443  0.49541440  1
  Li  Li3  1  0.20957367  0.85260827  0.66337168  1
  Li  Li4  1  0.66942968  0.20511712  0.85099196  1
  Li  Li5  1  0.84797086  0.66897960  0.20913278  1
  V  V6  1  0.14060120  0.14249040  0.13709950  1
  V  V7  1  0.35807052  0.36363467  0.35436823  1
  V  V8  1  0.64332808  0.64654686  0.64460097  1
  Ni  Ni9  1  0.85457895  0.85068000  0.85324119  1
  P  P10  1  0.05027638  0.74963812  0.45246935  1
  P  P11  1  0.45011391  0.05359947  0.74877769  1
  P  P12  1  0.74949052  0.45463422  0.05082620  1
  P  P13  1  0.25095965  0.54202760  0.95952169  1
  P  P14  1  0.54391300  0.96471228  0.24984902  1
  P  P15  1  0.95686890  0.25055312  0.53775151  1
  O  O16  1  0.12071550  0.32039798  0.47410851  1
  O  O17  1  0.33005792  0.48960225  0.11525781  1
  O  O18  1  0.04333987  0.91714451  0.26960363  1
  O  O19  1  0.51735203  0.11774159  0.31792671  1
  O  O20  1  0.24379720  0.59352996  0.41823370  1
  O  O21  1  0.03489404  0.80028374  0.61055753  1
  O  O22  1  0.26177695  0.06515087  0.90897877  1
  O  O23  1  0.42718715  0.24429024  0.58404073  1
  O  O24  1  0.59430795  0.42270081  0.24911202  1
  O  O25  1  0.19648507  0.38239125  0.99230982  1
  O  O26  1  0.08625270  0.72883739  0.96166261  1
  O  O27  1  0.37236809  0.00414327  0.20744570  1
  O  O28  1  0.61262592  0.03262692  0.79807662  1
  O  O29  1  0.90192669  0.25871745  0.06939138  1
  O  O30  1  0.80670125  0.60869826  0.03174129  1
  O  O31  1  0.39817888  0.58155411  0.75976730  1
  O  O32  1  0.57972901  0.76458131  0.39747415  1
  O  O33  1  0.72777291  0.95906188  0.08063967  1
  O  O34  1  0.96948648  0.19798100  0.38165441  1
  O  O35  1  0.75995522  0.39924135  0.58195327  1
  O  O36  1  0.49112944  0.89336959  0.68601223  1
  O  O37  1  0.96451360  0.08392827  0.72271009  1
  O  O38  1  0.68507605  0.49717386  0.89160128  1
  O  O39  1  0.88721363  0.68594664  0.49825878  1
