# generated using pymatgen
data_Mg14TiNb
_symmetry_space_group_name_H-M   'P 1'
_cell_length_a   6.35519958
_cell_length_b   6.17275801
_cell_length_c   10.10140220
_cell_angle_alpha   90.00000000
_cell_angle_beta   90.00000000
_cell_angle_gamma   119.05482855
_symmetry_Int_Tables_number   1
_chemical_formula_structural   Mg14TiNb
_chemical_formula_sum   'Mg14 Ti1 Nb1'
_cell_volume   346.40068394
_cell_formula_units_Z   1
loop_
 _symmetry_equiv_pos_site_id
 _symmetry_equiv_pos_as_xyz
  1  'x, y, z'
loop_
 _atom_site_type_symbol
 _atom_site_label
 _atom_site_symmetry_multiplicity
 _atom_site_fract_x
 _atom_site_fract_y
 _atom_site_fract_z
 _atom_site_occupancy
  Mg  Mg0  1  0.16665842  0.33332871  0.62500000  1
  Mg  Mg1  1  0.16588266  0.83294083  0.62500000  1
  Mg  Mg2  1  0.66270722  0.33154724  0.12500000  1
  Mg  Mg3  1  0.66501802  0.33275716  0.62500000  1
  Mg  Mg4  1  0.66270722  0.83115899  0.12500000  1
  Mg  Mg5  1  0.66501802  0.83225986  0.62500000  1
  Mg  Mg6  1  0.32927063  0.16248503  0.36707254  1
  Mg  Mg7  1  0.32927063  0.16248503  0.88292746  1
  Mg  Mg8  1  0.32927063  0.66678660  0.36707254  1
  Mg  Mg9  1  0.32927063  0.66678660  0.88292746  1
  Mg  Mg10  1  0.84081781  0.17040941  0.37075539  1
  Mg  Mg11  1  0.84081781  0.17040941  0.87924461  1
  Mg  Mg12  1  0.84317644  0.67158872  0.36893183  1
  Mg  Mg13  1  0.84317644  0.67158872  0.88106817  1
  Ti  Ti14  1  0.16525496  0.33262698  0.12500000  1
  Nb  Nb15  1  0.16168245  0.83084072  0.12500000  1
