# generated using pymatgen
data_KLi4FeO5
_symmetry_space_group_name_H-M   'P 1'
_cell_length_a   8.04804494
_cell_length_b   5.89731478
_cell_length_c   5.84166890
_cell_angle_alpha   122.11061714
_cell_angle_beta   90.89857822
_cell_angle_gamma   99.82932277
_symmetry_Int_Tables_number   1
_chemical_formula_structural   KLi4FeO5
_chemical_formula_sum   'K2 Li8 Fe2 O10'
_cell_volume   229.50627183
_cell_formula_units_Z   2
loop_
 _symmetry_equiv_pos_site_id
 _symmetry_equiv_pos_as_xyz
  1  'x, y, z'
loop_
 _atom_site_type_symbol
 _atom_site_label
 _atom_site_symmetry_multiplicity
 _atom_site_fract_x
 _atom_site_fract_y
 _atom_site_fract_z
 _atom_site_occupancy
  K  K0  1  0.42022797  0.61287367  0.84582265  1
  K  K1  1  0.57977203  0.38712633  0.15417735  1
  Li  Li2  1  0.10185097  0.61578359  0.20896217  1
  Li  Li3  1  0.12150051  0.65924594  0.66333208  1
  Li  Li4  1  0.11773584  0.09351416  0.68989373  1
  Li  Li5  1  0.39792845  0.88326869  0.56599713  1
  Li  Li6  1  0.60207155  0.11673131  0.43400287  1
  Li  Li7  1  0.88226416  0.90648584  0.31010627  1
  Li  Li8  1  0.87849949  0.34075406  0.33666792  1
  Li  Li9  1  0.89814903  0.38421641  0.79103783  1
  Fe  Fe10  1  0.18234991  0.14178150  0.19972865  1
  Fe  Fe11  1  0.81765009  0.85821850  0.80027135  1
  O  O12  1  0.02602779  0.78265027  0.01068514  1
  O  O13  1  0.05440924  0.26031157  0.50215201  1
  O  O14  1  0.27906372  0.51225492  0.34517723  1
  O  O15  1  0.28400357  0.02944091  0.88185702  1
  O  O16  1  0.34102382  0.04702403  0.36197467  1
  O  O17  1  0.65897618  0.95297597  0.63802533  1
  O  O18  1  0.71599643  0.97055909  0.11814298  1
  O  O19  1  0.72093628  0.48774508  0.65482277  1
  O  O20  1  0.94559076  0.73968843  0.49784799  1
  O  O21  1  0.97397221  0.21734973  0.98931486  1
