# generated using pymatgen
data_Li2Mn3CuO8
_symmetry_space_group_name_H-M   'P 1'
_cell_length_a   5.81911081
_cell_length_b   5.82266097
_cell_length_c   9.67334872
_cell_angle_alpha   87.36334492
_cell_angle_beta   91.31878773
_cell_angle_gamma   120.02017992
_symmetry_Int_Tables_number   1
_chemical_formula_structural   Li2Mn3CuO8
_chemical_formula_sum   'Li4 Mn6 Cu2 O16'
_cell_volume   283.48967591
_cell_formula_units_Z   2
loop_
 _symmetry_equiv_pos_site_id
 _symmetry_equiv_pos_as_xyz
  1  'x, y, z'
loop_
 _atom_site_type_symbol
 _atom_site_label
 _atom_site_symmetry_multiplicity
 _atom_site_fract_x
 _atom_site_fract_y
 _atom_site_fract_z
 _atom_site_occupancy
  Li  Li0  1  0.33340517  0.65743477  0.89053899  1
  Li  Li1  1  0.99961026  0.01299009  0.99657455  1
  Li  Li2  1  0.00038974  0.01337983  0.49657455  1
  Li  Li3  1  0.66659483  0.32402960  0.39053899  1
  Mn  Mn4  1  0.16770164  0.83238164  0.21549426  1
  Mn  Mn5  1  0.17061908  0.33877500  0.21444821  1
  Mn  Mn6  1  0.66293318  0.83026687  0.21518706  1
  Mn  Mn7  1  0.33706682  0.16733470  0.71518706  1
  Mn  Mn8  1  0.83229836  0.66468000  0.71549426  1
  Mn  Mn9  1  0.82938092  0.16815593  0.71444821  1
  Cu  Cu10  1  0.33255872  0.66900237  0.49381188  1
  Cu  Cu11  1  0.66744128  0.33644265  0.99381188  1
  O  O12  1  0.15687894  0.84930334  0.60763673  1
  O  O13  1  0.03608629  0.50875040  0.33057544  1
  O  O14  1  0.33285954  0.67507591  0.10837323  1
  O  O15  1  0.00033732  0.99405745  0.31213362  1
  O  O16  1  0.99966268  0.99372012  0.81213362  1
  O  O17  1  0.15939131  0.32502959  0.60454096  1
  O  O18  1  0.48147541  0.95386527  0.33519061  1
  O  O19  1  0.48451062  0.50603389  0.32420249  1
  O  O20  1  0.31629347  0.16451438  0.10521198  1
  O  O21  1  0.68370653  0.84822090  0.60521198  1
  O  O22  1  0.51852459  0.47238986  0.83519061  1
  O  O23  1  0.51548938  0.02152327  0.82420249  1
  O  O24  1  0.66714046  0.34221737  0.60837323  1
  O  O25  1  0.84312106  0.69242340  0.10763673  1
  O  O26  1  0.96391371  0.47266411  0.83057544  1
  O  O27  1  0.84060869  0.16563828  0.10454096  1
