# generated using pymatgen
data_Mn3SnO8
_symmetry_space_group_name_H-M   'P 1'
_cell_length_a   5.82649106
_cell_length_b   5.82634174
_cell_length_c   9.43078642
_cell_angle_alpha   89.99732100
_cell_angle_beta   90.00134575
_cell_angle_gamma   119.99916108
_symmetry_Int_Tables_number   1
_chemical_formula_structural   Mn3SnO8
_chemical_formula_sum   'Mn6 Sn2 O16'
_cell_volume   277.25874369
_cell_formula_units_Z   2
loop_
 _symmetry_equiv_pos_site_id
 _symmetry_equiv_pos_as_xyz
  1  'x, y, z'
loop_
 _atom_site_type_symbol
 _atom_site_label
 _atom_site_symmetry_multiplicity
 _atom_site_fract_x
 _atom_site_fract_y
 _atom_site_fract_z
 _atom_site_occupancy
  Mn  Mn0  1  0.16770064  0.83230228  0.21340927  1
  Mn  Mn1  1  0.16770263  0.33541866  0.21341217  1
  Mn  Mn2  1  0.66458463  0.83229984  0.21341447  1
  Mn  Mn3  1  0.33541537  0.16771521  0.71341447  1
  Mn  Mn4  1  0.83229936  0.66460164  0.71340927  1
  Mn  Mn5  1  0.83229737  0.16771603  0.71341217  1
  Sn  Sn6  1  0.33333010  0.66667459  0.49336994  1
  Sn  Sn7  1  0.66666990  0.33334449  0.99336994  1
  O  O8  1  0.15869816  0.84132009  0.60439306  1
  O  O9  1  0.03436412  0.51718269  0.32954979  1
  O  O10  1  0.33333128  0.66668608  0.10881817  1
  O  O11  1  0.99999407  0.99999331  0.31361211  1
  O  O12  1  0.00000593  0.00000024  0.81361211  1
  O  O13  1  0.15868592  0.31738761  0.60439187  1
  O  O14  1  0.48280751  0.96563759  0.32954616  1
  O  O15  1  0.48280008  0.51718027  0.32955183  1
  O  O16  1  0.31738952  0.15871131  0.10439116  1
  O  O17  1  0.68261048  0.84132179  0.60439116  1
  O  O18  1  0.51719249  0.48283008  0.82954616  1
  O  O19  1  0.51719992  0.03438019  0.82955183  1
  O  O20  1  0.66666872  0.33335480  0.60881817  1
  O  O21  1  0.84130184  0.68262193  0.10439306  1
  O  O22  1  0.96563588  0.48281858  0.82954979  1
  O  O23  1  0.84131408  0.15870169  0.10439187  1
