# generated using pymatgen
data_Ca(SeO3)2
_symmetry_space_group_name_H-M   'P 1'
_cell_length_a   7.29321821
_cell_length_b   12.05855770
_cell_length_c   6.98933705
_cell_angle_alpha   90.00000000
_cell_angle_beta   103.05221132
_cell_angle_gamma   90.00000000
_symmetry_Int_Tables_number   1
_chemical_formula_structural   Ca(SeO3)2
_chemical_formula_sum   'Ca4 Se8 O24'
_cell_volume   598.80157408
_cell_formula_units_Z   4
loop_
 _symmetry_equiv_pos_site_id
 _symmetry_equiv_pos_as_xyz
  1  'x, y, z'
loop_
 _atom_site_type_symbol
 _atom_site_label
 _atom_site_symmetry_multiplicity
 _atom_site_fract_x
 _atom_site_fract_y
 _atom_site_fract_z
 _atom_site_occupancy
  Ca  Ca0  1  0.23751748  0.58697943  0.55285105  1
  Ca  Ca1  1  0.26248252  0.08697943  0.94714895  1
  Ca  Ca2  1  0.73751748  0.91302057  0.05285105  1
  Ca  Ca3  1  0.76248252  0.41302057  0.44714895  1
  Se  Se4  1  0.15795688  0.36570309  0.87892250  1
  Se  Se5  1  0.34204312  0.86570309  0.62107750  1
  Se  Se6  1  0.24412455  0.31836174  0.39534905  1
  Se  Se7  1  0.25587545  0.81836174  0.10465095  1
  Se  Se8  1  0.74412455  0.18163826  0.89534905  1
  Se  Se9  1  0.75587545  0.68163826  0.60465095  1
  Se  Se10  1  0.65795688  0.13429691  0.37892250  1
  Se  Se11  1  0.84204312  0.63429691  0.12107750  1
  O  O12  1  0.08821629  0.41315859  0.43709853  1
  O  O13  1  0.23758112  0.98709663  0.61841178  1
  O  O14  1  0.07088423  0.63231472  0.22444608  1
  O  O15  1  0.22881512  0.76516353  0.71521418  1
  O  O16  1  0.27118488  0.26516353  0.78478582  1
  O  O17  1  0.06294143  0.89661303  0.07416964  1
  O  O18  1  0.26241888  0.48709663  0.88158822  1
  O  O19  1  0.15743158  0.30473346  0.10743376  1
  O  O20  1  0.34256842  0.80473346  0.39256624  1
  O  O21  1  0.58821629  0.08684141  0.93709853  1
  O  O22  1  0.43705857  0.39661303  0.42583036  1
  O  O23  1  0.57088423  0.86768528  0.72444608  1
  O  O24  1  0.42911577  0.13231472  0.27555392  1
  O  O25  1  0.56294143  0.60338697  0.57416964  1
  O  O26  1  0.41178371  0.91315859  0.06290147  1
  O  O27  1  0.65743158  0.19526654  0.60743376  1
  O  O28  1  0.84256842  0.69526654  0.89256624  1
  O  O29  1  0.73758112  0.51290337  0.11841178  1
  O  O30  1  0.93705857  0.10338697  0.92583036  1
  O  O31  1  0.72881512  0.73483647  0.21521418  1
  O  O32  1  0.77118488  0.23483647  0.28478582  1
  O  O33  1  0.92911577  0.36768528  0.77555392  1
  O  O34  1  0.76241888  0.01290337  0.38158822  1
  O  O35  1  0.91178371  0.58684141  0.56290147  1
