# generated using pymatgen
data_NaCrCSO7
_symmetry_space_group_name_H-M   'P 1'
_cell_length_a   9.06159946
_cell_length_b   6.43428235
_cell_length_c   5.29649762
_cell_angle_alpha   90.00000000
_cell_angle_beta   87.65369080
_cell_angle_gamma   90.00000000
_symmetry_Int_Tables_number   1
_chemical_formula_structural   NaCrCSO7
_chemical_formula_sum   'Na2 Cr2 C2 S2 O14'
_cell_volume   308.55281080
_cell_formula_units_Z   2
loop_
 _symmetry_equiv_pos_site_id
 _symmetry_equiv_pos_as_xyz
  1  'x, y, z'
loop_
 _atom_site_type_symbol
 _atom_site_label
 _atom_site_symmetry_multiplicity
 _atom_site_fract_x
 _atom_site_fract_y
 _atom_site_fract_z
 _atom_site_occupancy
  Na  Na0  1  0.22105063  0.48511214  0.23835964  1
  Na  Na1  1  0.77894937  0.98511214  0.76164036  1
  Cr  Cr2  1  0.34017097  0.75940312  0.77945271  1
  Cr  Cr3  1  0.65982903  0.25940312  0.22054729  1
  C  C4  1  0.07824339  0.74228661  0.72419875  1
  C  C5  1  0.92175661  0.24228661  0.27580125  1
  S  S6  1  0.42817027  0.25471288  0.72327145  1
  S  S7  1  0.57182973  0.75471288  0.27672855  1
  O  O8  1  0.05534169  0.24316147  0.30676407  1
  O  O9  1  0.14214300  0.74492160  0.94662161  1
  O  O10  1  0.18276468  0.74122299  0.53696839  1
  O  O11  1  0.33280683  0.07423581  0.78276120  1
  O  O12  1  0.33937356  0.43974514  0.80270609  1
  O  O13  1  0.43264361  0.74546438  0.13880887  1
  O  O14  1  0.46441752  0.26758387  0.44546683  1
  O  O15  1  0.53558248  0.76758387  0.55453317  1
  O  O16  1  0.56735639  0.24546438  0.86119113  1
  O  O17  1  0.66062644  0.93974514  0.19729391  1
  O  O18  1  0.66719317  0.57423581  0.21723880  1
  O  O19  1  0.81723532  0.24122299  0.46303161  1
  O  O20  1  0.85785700  0.24492160  0.05337839  1
  O  O21  1  0.94465831  0.74316147  0.69323593  1
