# generated using pymatgen
data_Mg14CdMo
_symmetry_space_group_name_H-M   'P 1'
_cell_length_a   6.30428218
_cell_length_b   6.30428169
_cell_length_c   9.96235096
_cell_angle_alpha   90.00000000
_cell_angle_beta   90.00000000
_cell_angle_gamma   120.00000259
_symmetry_Int_Tables_number   1
_chemical_formula_structural   Mg14CdMo
_chemical_formula_sum   'Mg14 Cd1 Mo1'
_cell_volume   342.89702053
_cell_formula_units_Z   1
loop_
 _symmetry_equiv_pos_site_id
 _symmetry_equiv_pos_as_xyz
  1  'x, y, z'
loop_
 _atom_site_type_symbol
 _atom_site_label
 _atom_site_symmetry_multiplicity
 _atom_site_fract_x
 _atom_site_fract_y
 _atom_site_fract_z
 _atom_site_occupancy
  Mg  Mg0  1  0.16763399  0.83381650  0.12500000  1
  Mg  Mg1  1  0.16694078  0.83346989  0.62500000  1
  Mg  Mg2  1  0.66618350  0.33236601  0.12500000  1
  Mg  Mg3  1  0.66653011  0.33305922  0.62500000  1
  Mg  Mg4  1  0.66618350  0.83381650  0.12500000  1
  Mg  Mg5  1  0.66653011  0.83346989  0.62500000  1
  Mg  Mg6  1  0.32688240  0.17311760  0.36786314  1
  Mg  Mg7  1  0.32688240  0.17311760  0.88213686  1
  Mg  Mg8  1  0.32688240  0.65376580  0.36786314  1
  Mg  Mg9  1  0.32688240  0.65376580  0.88213686  1
  Mg  Mg10  1  0.84623420  0.17311760  0.36786314  1
  Mg  Mg11  1  0.84623420  0.17311760  0.88213686  1
  Mg  Mg12  1  0.83333300  0.66666700  0.37408598  1
  Mg  Mg13  1  0.83333300  0.66666700  0.87591402  1
  Cd  Cd14  1  0.16666700  0.33333300  0.62500000  1
  Mo  Mo15  1  0.16666700  0.33333300  0.12500000  1
