# generated using pymatgen
data_Li9Mn7V12O48
_symmetry_space_group_name_H-M   'P 1'
_cell_length_a   5.02400911
_cell_length_b   10.25294344
_cell_length_c   17.08067216
_cell_angle_alpha   90.21437402
_cell_angle_beta   90.58368739
_cell_angle_gamma   90.23750493
_symmetry_Int_Tables_number   1
_chemical_formula_structural   Li9Mn7V12O48
_chemical_formula_sum   'Li9 Mn7 V12 O48'
_cell_volume   879.78096274
_cell_formula_units_Z   1
loop_
 _symmetry_equiv_pos_site_id
 _symmetry_equiv_pos_as_xyz
  1  'x, y, z'
loop_
 _atom_site_type_symbol
 _atom_site_label
 _atom_site_symmetry_multiplicity
 _atom_site_fract_x
 _atom_site_fract_y
 _atom_site_fract_z
 _atom_site_occupancy
  Li  Li0  1  0.24523858  0.42037625  0.96556185  1
  Li  Li1  1  0.26095480  0.74395574  0.30562473  1
  Li  Li2  1  0.25482521  0.25901700  0.79887311  1
  Li  Li3  1  0.25453845  0.58344608  0.46834418  1
  Li  Li4  1  0.40111441  0.74666835  0.74919806  1
  Li  Li5  1  0.59720581  0.25122985  0.25067030  1
  Li  Li6  1  0.74767857  0.08394128  0.53282624  1
  Li  Li7  1  0.74778058  0.74271054  0.20235508  1
  Li  Li8  1  0.74585483  0.25002079  0.69703623  1
  Mn  Mn9  1  0.09651758  0.25178969  0.25331458  1
  Mn  Mn10  1  0.23947438  0.06903980  0.97418948  1
  Mn  Mn11  1  0.26605149  0.93565141  0.47606648  1
  Mn  Mn12  1  0.73169190  0.43565940  0.52374801  1
  Mn  Mn13  1  0.75696720  0.56527946  0.02614579  1
  Mn  Mn14  1  0.74424508  0.92441585  0.02823318  1
  Mn  Mn15  1  0.90122290  0.74698765  0.74586533  1
  V  V16  1  0.20892269  0.74253882  0.94267625  1
  V  V17  1  0.22055005  0.02414955  0.66008973  1
  V  V18  1  0.20758910  0.47469051  0.65182817  1
  V  V19  1  0.28060255  0.52817576  0.15559691  1
  V  V20  1  0.29174832  0.97449829  0.15791920  1
  V  V21  1  0.27040622  0.25335080  0.44455163  1
  V  V22  1  0.72817831  0.75307705  0.55471061  1
  V  V23  1  0.69872968  0.02677381  0.84142600  1
  V  V24  1  0.72643698  0.47371971  0.84202650  1
  V  V25  1  0.78471049  0.52517627  0.34223675  1
  V  V26  1  0.79062400  0.97579931  0.34660596  1
  V  V27  1  0.78416367  0.25011062  0.05757311  1
  O  O28  1  0.06304954  0.23430855  0.99484031  1
  O  O29  1  0.05483344  0.61164152  0.37037241  1
  O  O30  1  0.08215540  0.89092616  0.37876946  1
  O  O31  1  0.09932386  0.62903853  0.20786595  1
  O  O32  1  0.10308518  0.87816516  0.20981030  1
  O  O33  1  0.10135218  0.10852231  0.46680857  1
  O  O34  1  0.05012938  0.37495008  0.46755658  1
  O  O35  1  0.07883277  0.00552576  0.07138774  1
  O  O36  1  0.06914529  0.49454966  0.07282674  1
  O  O37  1  0.13033296  0.74664219  0.84545363  1
  O  O38  1  0.13416752  0.62168745  0.70381795  1
  O  O39  1  0.13663439  0.87567324  0.70898237  1
  O  O40  1  0.33246284  0.12422544  0.20558584  1
  O  O41  1  0.32330973  0.37619471  0.20375006  1
  O  O42  1  0.32730495  0.25389500  0.34212923  1
  O  O43  1  0.41840270  0.98899580  0.57348719  1
  O  O44  1  0.42398383  0.50993367  0.57138921  1
  O  O45  1  0.40209546  0.89158951  0.96611838  1
  O  O46  1  0.43571402  0.62467720  0.96647154  1
  O  O47  1  0.42351509  0.11368392  0.72041175  1
  O  O48  1  0.39010243  0.37588707  0.70598424  1
  O  O49  1  0.40916847  0.11073752  0.88082998  1
  O  O50  1  0.44778986  0.39370974  0.86909601  1
  O  O51  1  0.43917608  0.76719649  0.49416223  1
  O  O52  1  0.55833067  0.26698496  0.50556017  1
  O  O53  1  0.57796167  0.60884180  0.12097396  1
  O  O54  1  0.58142683  0.88830811  0.12447541  1
  O  O55  1  0.58695908  0.61773523  0.28518283  1
  O  O56  1  0.61219013  0.87982214  0.28748646  1
  O  O57  1  0.55841203  0.11722322  0.03623856  1
  O  O58  1  0.60204857  0.39027871  0.03516525  1
  O  O59  1  0.57431369  0.00791945  0.42728591  1
  O  O60  1  0.58082639  0.48805170  0.42682729  1
  O  O61  1  0.67247295  0.75430088  0.65693596  1
  O  O62  1  0.66670671  0.62362719  0.79020953  1
  O  O63  1  0.67184004  0.87437279  0.79654032  1
  O  O64  1  0.86619645  0.12214553  0.29588958  1
  O  O65  1  0.86365727  0.37591480  0.29099937  1
  O  O66  1  0.86846937  0.24474842  0.15483484  1
  O  O67  1  0.91912385  0.51802517  0.92992241  1
  O  O68  1  0.91306596  0.98783923  0.93114846  1
  O  O69  1  0.89854450  0.60874301  0.53322558  1
  O  O70  1  0.94845481  0.87562451  0.53187574  1
  O  O71  1  0.90929577  0.12116851  0.79652683  1
  O  O72  1  0.91634546  0.37459058  0.78854945  1
  O  O73  1  0.95189739  0.11122803  0.63278329  1
  O  O74  1  0.91391290  0.39005765  0.61961975  1
  O  O75  1  0.92745929  0.73784305  0.00854193  1
