# generated using pymatgen
data_Er2P4O13
_symmetry_space_group_name_H-M   'P 1'
_cell_length_a   6.75799783
_cell_length_b   6.86152942
_cell_length_c   12.94670517
_cell_angle_alpha   76.01252392
_cell_angle_beta   90.00000272
_cell_angle_gamma   60.49789061
_symmetry_Int_Tables_number   1
_chemical_formula_structural   Er2P4O13
_chemical_formula_sum   'Er4 P8 O26'
_cell_volume   501.94560499
_cell_formula_units_Z   2
loop_
 _symmetry_equiv_pos_site_id
 _symmetry_equiv_pos_as_xyz
  1  'x, y, z'
loop_
 _atom_site_type_symbol
 _atom_site_label
 _atom_site_symmetry_multiplicity
 _atom_site_fract_x
 _atom_site_fract_y
 _atom_site_fract_z
 _atom_site_occupancy
  Er  Er0  1  0.30836322  0.38784315  0.94887838  1
  Er  Er1  1  0.30379363  0.38784315  0.44887838  1
  Er  Er2  1  0.69620637  0.61215685  0.55112162  1
  Er  Er3  1  0.69163678  0.61215685  0.05112162  1
  P  P4  1  0.16127904  0.97637600  0.86652669  1
  P  P5  1  0.23994945  0.53314785  0.65955077  1
  P  P6  1  0.13765504  0.02362400  0.63347331  1
  P  P7  1  0.77309730  0.46685215  0.84044923  1
  P  P8  1  0.22690270  0.53314785  0.15955077  1
  P  P9  1  0.86234496  0.97637600  0.36652669  1
  P  P10  1  0.76005055  0.46685215  0.34044923  1
  P  P11  1  0.83872096  0.02362400  0.13347331  1
  O  O12  1  0.32706495  0.98996245  0.94089107  1
  O  O13  1  0.12312830  0.77399747  0.89693973  1
  O  O14  1  0.10105216  0.80640837  0.65304408  1
  O  O15  1  0.10287423  0.77399747  0.39693973  1
  O  O16  1  0.07545101  0.49832046  0.59452554  1
  O  O17  1  0.09254047  0.80640837  0.15304408  1
  O  O18  1  0.30669014  0.39809859  0.77662881  1
  O  O19  1  0.57377148  0.50167954  0.90547446  1
  O  O20  1  0.68297260  0.98996245  0.44089107  1
  O  O21  1  0.43843526  0.48754397  0.59306563  1
  O  O22  1  0.70478873  0.60190141  0.72337119  1
  O  O23  1  0.07402178  0.48754397  0.09306563  1
  O  O24  1  0.24643931  0.00000000  0.75000000  1
  O  O25  1  0.92597822  0.51245603  0.90693437  1
  O  O26  1  0.29521127  0.39809859  0.27662881  1
  O  O27  1  0.56156474  0.51245603  0.40693437  1
  O  O28  1  0.31702740  0.01003755  0.55910893  1
  O  O29  1  0.42622852  0.49832046  0.09452554  1
  O  O30  1  0.69330986  0.60190141  0.22337119  1
  O  O31  1  0.90745953  0.19359163  0.84695592  1
  O  O32  1  0.92454899  0.50167954  0.40547446  1
  O  O33  1  0.89712577  0.22600253  0.60306027  1
  O  O34  1  0.89894784  0.19359163  0.34695592  1
  O  O35  1  0.75356069  0.00000000  0.25000000  1
  O  O36  1  0.87687170  0.22600253  0.10306027  1
  O  O37  1  0.67293505  0.01003755  0.05910893  1
