# generated using pymatgen
data_Na2CrSiCO7
_symmetry_space_group_name_H-M   'P 1'
_cell_length_a   9.04811238
_cell_length_b   6.47395679
_cell_length_c   5.26686759
_cell_angle_alpha   90.00000000
_cell_angle_beta   88.91382164
_cell_angle_gamma   90.00000000
_symmetry_Int_Tables_number   1
_chemical_formula_structural   Na2CrSiCO7
_chemical_formula_sum   'Na4 Cr2 Si2 C2 O14'
_cell_volume   308.46233306
_cell_formula_units_Z   2
loop_
 _symmetry_equiv_pos_site_id
 _symmetry_equiv_pos_as_xyz
  1  'x, y, z'
loop_
 _atom_site_type_symbol
 _atom_site_label
 _atom_site_symmetry_multiplicity
 _atom_site_fract_x
 _atom_site_fract_y
 _atom_site_fract_z
 _atom_site_occupancy
  Na  Na0  1  0.23555108  0.00714564  0.23830933  1
  Na  Na1  1  0.23555108  0.49285436  0.23830933  1
  Na  Na2  1  0.76444892  0.50714564  0.76169067  1
  Na  Na3  1  0.76444892  0.99285436  0.76169067  1
  Cr  Cr4  1  0.34766587  0.75000000  0.79464779  1
  Cr  Cr5  1  0.65233413  0.25000000  0.20535221  1
  Si  Si6  1  0.42899902  0.25000000  0.70541142  1
  Si  Si7  1  0.57100098  0.75000000  0.29458858  1
  C  C8  1  0.07688840  0.75000000  0.72816727  1
  C  C9  1  0.92311160  0.25000000  0.27183273  1
  O  O10  1  0.05957616  0.25000000  0.29978999  1
  O  O11  1  0.14061722  0.75000000  0.95125277  1
  O  O12  1  0.17521374  0.75000000  0.53843588  1
  O  O13  1  0.33184186  0.04311685  0.78015402  1
  O  O14  1  0.33184186  0.45688315  0.78015402  1
  O  O15  1  0.41807436  0.75000000  0.12957633  1
  O  O16  1  0.46393617  0.25000000  0.39893933  1
  O  O17  1  0.53606383  0.75000000  0.60106067  1
  O  O18  1  0.58192564  0.25000000  0.87042367  1
  O  O19  1  0.66815814  0.54311685  0.21984598  1
  O  O20  1  0.66815814  0.95688315  0.21984598  1
  O  O21  1  0.82478626  0.25000000  0.46156412  1
  O  O22  1  0.85938278  0.25000000  0.04874723  1
  O  O23  1  0.94042384  0.75000000  0.70021001  1
