# generated using pymatgen
data_LiZn(Fe5O8)2
_symmetry_space_group_name_H-M   'P 1'
_cell_length_a   6.06153939
_cell_length_b   6.06153939
_cell_length_c   12.12715755
_cell_angle_alpha   60.01112523
_cell_angle_beta   60.01112523
_cell_angle_gamma   60.00000000
_symmetry_Int_Tables_number   1
_chemical_formula_structural   LiZn(Fe5O8)2
_chemical_formula_sum   'Li1 Zn1 Fe10 O16'
_cell_volume   315.12502674
_cell_formula_units_Z   1
loop_
 _symmetry_equiv_pos_site_id
 _symmetry_equiv_pos_as_xyz
  1  'x, y, z'
loop_
 _atom_site_type_symbol
 _atom_site_label
 _atom_site_symmetry_multiplicity
 _atom_site_fract_x
 _atom_site_fract_y
 _atom_site_fract_z
 _atom_site_occupancy
  Li  Li0  1  0.00185925  0.00185925  0.49721113  1
  Zn  Zn1  1  0.62375708  0.62375708  0.06436439  1
  Fe  Fe2  1  0.00271738  0.00271738  0.99592444  1
  Fe  Fe3  1  0.24588776  0.24588776  0.13116787  1
  Fe  Fe4  1  0.62383818  0.12075340  0.31578512  1
  Fe  Fe5  1  0.62383818  0.62383818  0.31578512  1
  Fe  Fe6  1  0.12075340  0.62383818  0.31578512  1
  Fe  Fe7  1  0.24750396  0.24750396  0.62874355  1
  Fe  Fe8  1  0.62683839  0.12483086  0.81074568  1
  Fe  Fe9  1  0.62874829  0.62874829  0.55687806  1
  Fe  Fe10  1  0.12483086  0.62683839  0.81074568  1
  Fe  Fe11  1  0.62683839  0.62683839  0.81074568  1
  O  O12  1  0.37717203  0.37717203  0.19429534  1
  O  O13  1  0.85706426  0.37717203  0.19429534  1
  O  O14  1  0.37717203  0.85706426  0.19429534  1
  O  O15  1  0.38977122  0.38977122  0.41534317  1
  O  O16  1  0.86441016  0.41189265  0.42964401  1
  O  O17  1  0.87163147  0.87163147  0.19255179  1
  O  O18  1  0.41189265  0.86441016  0.42964401  1
  O  O19  1  0.86441016  0.86441016  0.42964401  1
  O  O20  1  0.83668311  0.38659537  0.69506308  1
  O  O21  1  0.38659537  0.38659537  0.69506308  1
  O  O22  1  0.38659537  0.83668311  0.69506308  1
  O  O23  1  0.37985621  0.37985621  0.93021469  1
  O  O24  1  0.86004639  0.86004639  0.70993092  1
  O  O25  1  0.87309047  0.39310553  0.93035676  1
  O  O26  1  0.87309047  0.87309047  0.93035676  1
  O  O27  1  0.39310553  0.87309047  0.93035676  1
