# generated using pymatgen
data_LiCrCSO7
_symmetry_space_group_name_H-M   'P 1'
_cell_length_a   8.87521809
_cell_length_b   6.37376013
_cell_length_c   5.13096734
_cell_angle_alpha   90.00000000
_cell_angle_beta   85.75670047
_cell_angle_gamma   90.00000000
_symmetry_Int_Tables_number   1
_chemical_formula_structural   LiCrCSO7
_chemical_formula_sum   'Li2 Cr2 C2 S2 O14'
_cell_volume   289.45556025
_cell_formula_units_Z   2
loop_
 _symmetry_equiv_pos_site_id
 _symmetry_equiv_pos_as_xyz
  1  'x, y, z'
loop_
 _atom_site_type_symbol
 _atom_site_label
 _atom_site_symmetry_multiplicity
 _atom_site_fract_x
 _atom_site_fract_y
 _atom_site_fract_z
 _atom_site_occupancy
  Li  Li0  1  0.16330454  0.53447657  0.23012225  1
  Li  Li1  1  0.83669546  0.03447657  0.76987775  1
  Cr  Cr2  1  0.34111445  0.74373091  0.78454869  1
  Cr  Cr3  1  0.65888555  0.24373091  0.21545131  1
  C  C4  1  0.07343787  0.74681695  0.72429098  1
  C  C5  1  0.92656213  0.24681695  0.27570902  1
  S  S6  1  0.42245625  0.24443687  0.72943662  1
  S  S7  1  0.57754375  0.74443687  0.27056338  1
  O  O8  1  0.06108321  0.27812103  0.30936804  1
  O  O9  1  0.13183900  0.74077136  0.95594168  1
  O  O10  1  0.18211424  0.72342412  0.53235201  1
  O  O11  1  0.32626609  0.05993337  0.79059938  1
  O  O12  1  0.33000186  0.42741771  0.82375394  1
  O  O13  1  0.43371524  0.73644061  0.14066988  1
  O  O14  1  0.45962317  0.26227950  0.44168418  1
  O  O15  1  0.54037683  0.76227950  0.55831582  1
  O  O16  1  0.56628476  0.23644061  0.85933012  1
  O  O17  1  0.66999814  0.92741771  0.17624606  1
  O  O18  1  0.67373391  0.55993337  0.20940062  1
  O  O19  1  0.81788576  0.22342412  0.46764799  1
  O  O20  1  0.86816100  0.24077136  0.04405832  1
  O  O21  1  0.93891679  0.77812103  0.69063196  1
