# generated using pymatgen
data_Li4Mn5Fe3O16
_symmetry_space_group_name_H-M   'P 1'
_cell_length_a   5.90266524
_cell_length_b   5.88660673
_cell_length_c   9.49848907
_cell_angle_alpha   89.99892685
_cell_angle_beta   88.89198865
_cell_angle_gamma   119.89260569
_symmetry_Int_Tables_number   1
_chemical_formula_structural   Li4Mn5Fe3O16
_chemical_formula_sum   'Li4 Mn5 Fe3 O16'
_cell_volume   286.06132154
_cell_formula_units_Z   1
loop_
 _symmetry_equiv_pos_site_id
 _symmetry_equiv_pos_as_xyz
  1  'x, y, z'
loop_
 _atom_site_type_symbol
 _atom_site_label
 _atom_site_symmetry_multiplicity
 _atom_site_fract_x
 _atom_site_fract_y
 _atom_site_fract_z
 _atom_site_occupancy
  Li  Li0  1  0.33952361  0.66997442  0.89736637  1
  Li  Li1  1  0.99563173  0.99765818  0.99604246  1
  Li  Li2  1  0.99940564  0.99967860  0.49219783  1
  Li  Li3  1  0.67428537  0.33701003  0.39590628  1
  Mn  Mn4  1  0.33128390  0.66561132  0.48454132  1
  Mn  Mn5  1  0.65433193  0.82718662  0.21339284  1
  Mn  Mn6  1  0.66105176  0.33057855  0.98534915  1
  Mn  Mn7  1  0.83334464  0.66224867  0.71337251  1
  Mn  Mn8  1  0.83335318  0.17105107  0.71336779  1
  Fe  Fe9  1  0.16369796  0.82581706  0.21243413  1
  Fe  Fe10  1  0.16365962  0.33796737  0.21237610  1
  Fe  Fe11  1  0.33926922  0.16965643  0.71237205  1
  O  O12  1  0.16390808  0.83428859  0.59979168  1
  O  O13  1  0.03723611  0.51869122  0.34427371  1
  O  O14  1  0.34639989  0.67317715  0.10393928  1
  O  O15  1  0.98134716  0.99081067  0.30583788  1
  O  O16  1  0.98943310  0.99463386  0.80760936  1
  O  O17  1  0.16383454  0.32942368  0.59972651  1
  O  O18  1  0.48645644  0.95912732  0.34296916  1
  O  O19  1  0.48666716  0.52751648  0.34298348  1
  O  O20  1  0.33120186  0.16559613  0.09446195  1
  O  O21  1  0.67338721  0.83673085  0.60463761  1
  O  O22  1  0.52964004  0.48576328  0.84237366  1
  O  O23  1  0.52970174  0.04407686  0.84243058  1
  O  O24  1  0.68165914  0.34088065  0.60768371  1
  O  O25  1  0.82435576  0.66388852  0.09957272  1
  O  O26  1  0.96170405  0.48083089  0.84127113  1
  O  O27  1  0.82422915  0.16042853  0.09955576  1
