# generated using pymatgen
data_Li2Cr4O13
_symmetry_space_group_name_H-M   'P 1'
_cell_length_a   7.89020765
_cell_length_b   9.80376792
_cell_length_c   8.91970264
_cell_angle_alpha   90.00000000
_cell_angle_beta   90.00000000
_cell_angle_gamma   66.27126827
_symmetry_Int_Tables_number   1
_chemical_formula_structural   Li2Cr4O13
_chemical_formula_sum   'Li4 Cr8 O26'
_cell_volume   631.64292888
_cell_formula_units_Z   2
loop_
 _symmetry_equiv_pos_site_id
 _symmetry_equiv_pos_as_xyz
  1  'x, y, z'
loop_
 _atom_site_type_symbol
 _atom_site_label
 _atom_site_symmetry_multiplicity
 _atom_site_fract_x
 _atom_site_fract_y
 _atom_site_fract_z
 _atom_site_occupancy
  Li  Li0  1  0.41012711  0.68986490  0.39079467  1
  Li  Li1  1  0.90000799  0.68986490  0.60920533  1
  Li  Li2  1  0.09999201  0.31013510  0.10920533  1
  Li  Li3  1  0.58987289  0.31013510  0.89079467  1
  Cr  Cr4  1  0.83771283  0.88576299  0.97191775  1
  Cr  Cr5  1  0.27652418  0.88576299  0.02808225  1
  Cr  Cr6  1  0.92363554  0.67300228  0.26131578  1
  Cr  Cr7  1  0.40336218  0.67300228  0.73868422  1
  Cr  Cr8  1  0.59663782  0.32699772  0.23868422  1
  Cr  Cr9  1  0.07636446  0.32699772  0.76131578  1
  Cr  Cr10  1  0.16228717  0.11423701  0.47191775  1
  Cr  Cr11  1  0.72347582  0.11423701  0.52808225  1
  O  O12  1  0.74345754  0.94826675  0.56631786  1
  O  O13  1  0.30827570  0.94826675  0.43368214  1
  O  O14  1  0.05740458  0.88519084  0.00000000  1
  O  O15  1  0.39346280  0.82838085  0.86131401  1
  O  O16  1  0.77815634  0.82838085  0.13868599  1
  O  O17  1  0.84769614  0.77340127  0.83714187  1
  O  O18  1  0.37890259  0.77340127  0.16285813  1
  O  O19  1  0.09613234  0.70562662  0.32529071  1
  O  O20  1  0.19824104  0.70562662  0.67470929  1
  O  O21  1  0.53965251  0.66223926  0.59838792  1
  O  O22  1  0.79810923  0.66223926  0.40161208  1
  O  O23  1  0.99656237  0.52009358  0.16348868  1
  O  O24  1  0.48334405  0.52009358  0.83651132  1
  O  O25  1  0.51665595  0.47990642  0.33651132  1
  O  O26  1  0.00343763  0.47990642  0.66348868  1
  O  O27  1  0.46034749  0.33776174  0.09838792  1
  O  O28  1  0.20189077  0.33776174  0.90161208  1
  O  O29  1  0.90386766  0.29437338  0.82529071  1
  O  O30  1  0.80175896  0.29437338  0.17470929  1
  O  O31  1  0.15230386  0.22659873  0.33714187  1
  O  O32  1  0.62109741  0.22659873  0.66285813  1
  O  O33  1  0.60653720  0.17161915  0.36131401  1
  O  O34  1  0.22184366  0.17161915  0.63868599  1
  O  O35  1  0.94259542  0.11480916  0.50000000  1
  O  O36  1  0.69172430  0.05173325  0.93368214  1
  O  O37  1  0.25654246  0.05173325  0.06631786  1
