# generated using pymatgen
data_LaMg14V
_symmetry_space_group_name_H-M   'P 1'
_cell_length_a   6.53053686
_cell_length_b   6.36508775
_cell_length_c   10.40235472
_cell_angle_alpha   90.00000000
_cell_angle_beta   90.00000000
_cell_angle_gamma   119.16542057
_symmetry_Int_Tables_number   1
_chemical_formula_structural   LaMg14V
_chemical_formula_sum   'La1 Mg14 V1'
_cell_volume   377.57810318
_cell_formula_units_Z   1
loop_
 _symmetry_equiv_pos_site_id
 _symmetry_equiv_pos_as_xyz
  1  'x, y, z'
loop_
 _atom_site_type_symbol
 _atom_site_label
 _atom_site_symmetry_multiplicity
 _atom_site_fract_x
 _atom_site_fract_y
 _atom_site_fract_z
 _atom_site_occupancy
  La  La0  1  0.16371418  0.83185659  0.12500000  1
  Mg  Mg1  1  0.16543635  0.33271768  0.62500000  1
  Mg  Mg2  1  0.16652491  0.83326196  0.62500000  1
  Mg  Mg3  1  0.66104265  0.33588026  0.12500000  1
  Mg  Mg4  1  0.66563794  0.33186592  0.62500000  1
  Mg  Mg5  1  0.66104265  0.82516139  0.12500000  1
  Mg  Mg6  1  0.66563794  0.83377102  0.62500000  1
  Mg  Mg7  1  0.33545334  0.17513476  0.37954518  1
  Mg  Mg8  1  0.33545334  0.17513476  0.87045482  1
  Mg  Mg9  1  0.33545334  0.66031959  0.37954518  1
  Mg  Mg10  1  0.33545334  0.66031959  0.87045482  1
  Mg  Mg11  1  0.83979669  0.16989885  0.36775751  1
  Mg  Mg12  1  0.83979669  0.16989885  0.88224249  1
  Mg  Mg13  1  0.82950822  0.66475461  0.38339884  1
  Mg  Mg14  1  0.82950822  0.66475461  0.86660116  1
  V  V15  1  0.17054018  0.33526959  0.12500000  1
