# generated using pymatgen
data_Na3V(BO3)2
_symmetry_space_group_name_H-M   'P 1'
_cell_length_a   5.54207229
_cell_length_b   9.55649719
_cell_length_c   10.68466073
_cell_angle_alpha   90.00000000
_cell_angle_beta   93.45179563
_cell_angle_gamma   90.00000000
_symmetry_Int_Tables_number   1
_chemical_formula_structural   Na3V(BO3)2
_chemical_formula_sum   'Na12 V4 B8 O24'
_cell_volume   564.86289852
_cell_formula_units_Z   4
loop_
 _symmetry_equiv_pos_site_id
 _symmetry_equiv_pos_as_xyz
  1  'x, y, z'
loop_
 _atom_site_type_symbol
 _atom_site_label
 _atom_site_symmetry_multiplicity
 _atom_site_fract_x
 _atom_site_fract_y
 _atom_site_fract_z
 _atom_site_occupancy
  Na  Na0  1  0.14760341  0.96312830  0.66029868  1
  Na  Na1  1  0.16741589  0.65852836  0.62347251  1
  Na  Na2  1  0.18978420  0.98164138  0.11368957  1
  Na  Na3  1  0.33258411  0.15852836  0.87652749  1
  Na  Na4  1  0.31021580  0.48164138  0.38631043  1
  Na  Na5  1  0.35239659  0.46312830  0.83970132  1
  Na  Na6  1  0.64760341  0.53687170  0.16029868  1
  Na  Na7  1  0.68978420  0.51835862  0.61368957  1
  Na  Na8  1  0.66741589  0.84147164  0.12347251  1
  Na  Na9  1  0.81021580  0.01835862  0.88631043  1
  Na  Na10  1  0.83258411  0.34147164  0.37652749  1
  Na  Na11  1  0.85239659  0.03687170  0.33970132  1
  V  V12  1  0.13641973  0.31689303  0.12287815  1
  V  V13  1  0.36358027  0.81689303  0.37712185  1
  V  V14  1  0.63641973  0.18310697  0.62287815  1
  V  V15  1  0.86358027  0.68310697  0.87712185  1
  B  B16  1  0.16635718  0.30944009  0.61827732  1
  B  B17  1  0.15567300  0.64906384  0.13463156  1
  B  B18  1  0.33364282  0.80944009  0.88172268  1
  B  B19  1  0.34432700  0.14906384  0.36536844  1
  B  B20  1  0.65567300  0.85093616  0.63463156  1
  B  B21  1  0.66635718  0.19055991  0.11827732  1
  B  B22  1  0.84432700  0.35093616  0.86536844  1
  B  B23  1  0.83364282  0.69055991  0.38172268  1
  O  O24  1  0.06248804  0.32724782  0.93228314  1
  O  O25  1  0.08324499  0.69649433  0.40811949  1
  O  O26  1  0.20612025  0.93172087  0.89052347  1
  O  O27  1  0.20074081  0.25699121  0.31828188  1
  O  O28  1  0.26622056  0.01013411  0.34064106  1
  O  O29  1  0.21153594  0.68676132  0.84445117  1
  O  O30  1  0.28846406  0.18676132  0.65554883  1
  O  O31  1  0.23377944  0.51013411  0.15935894  1
  O  O32  1  0.29925919  0.75699121  0.18171812  1
  O  O33  1  0.29387975  0.43172087  0.60947653  1
  O  O34  1  0.43751196  0.82724782  0.56771686  1
  O  O35  1  0.41675501  0.19649433  0.09188051  1
  O  O36  1  0.58324499  0.80350567  0.90811949  1
  O  O37  1  0.56248804  0.17275218  0.43228314  1
  O  O38  1  0.70612025  0.56827913  0.39052347  1
  O  O39  1  0.70074081  0.24300879  0.81828188  1
  O  O40  1  0.76622056  0.48986589  0.84064106  1
  O  O41  1  0.71153594  0.81323868  0.34445117  1
  O  O42  1  0.78846406  0.31323868  0.15554883  1
  O  O43  1  0.73377944  0.98986589  0.65935894  1
  O  O44  1  0.79925919  0.74300879  0.68171812  1
  O  O45  1  0.79387975  0.06827913  0.10947653  1
  O  O46  1  0.91675501  0.30350567  0.59188051  1
  O  O47  1  0.93751196  0.67275218  0.06771686  1
