# generated using pymatgen
data_Li2MgCr3Se3(SO8)3
_symmetry_space_group_name_H-M   'P 1'
_cell_length_a   9.17260590
_cell_length_b   9.31007524
_cell_length_c   9.08139743
_cell_angle_alpha   55.48391133
_cell_angle_beta   55.79236959
_cell_angle_gamma   55.86579046
_symmetry_Int_Tables_number   1
_chemical_formula_structural   Li2MgCr3Se3(SO8)3
_chemical_formula_sum   'Li2 Mg1 Cr3 Se3 S3 O24'
_cell_volume   493.84817642
_cell_formula_units_Z   1
loop_
 _symmetry_equiv_pos_site_id
 _symmetry_equiv_pos_as_xyz
  1  'x, y, z'
loop_
 _atom_site_type_symbol
 _atom_site_label
 _atom_site_symmetry_multiplicity
 _atom_site_fract_x
 _atom_site_fract_y
 _atom_site_fract_z
 _atom_site_occupancy
  Li  Li0  1  0.23078162  0.83036287  0.57291132  1
  Li  Li1  1  0.57794642  0.23926985  0.80684169  1
  Mg  Mg2  1  0.83267960  0.84748974  0.86094112  1
  Cr  Cr3  1  0.15474472  0.15065624  0.14691779  1
  Cr  Cr4  1  0.35530843  0.34586328  0.36750807  1
  Cr  Cr5  1  0.64814549  0.64818655  0.63553075  1
  Se  Se6  1  0.05431875  0.74510700  0.45291207  1
  Se  Se7  1  0.24223177  0.54146055  0.96796044  1
  Se  Se8  1  0.74364564  0.45535637  0.04727738  1
  S  S9  1  0.52976542  0.96903629  0.25151814  1
  S  S10  1  0.45335905  0.04596594  0.75464287  1
  S  S11  1  0.96982819  0.24332608  0.53031008  1
  O  O12  1  0.02280073  0.96795060  0.30278196  1
  O  O13  1  0.03990190  0.72485952  0.65669032  1
  O  O14  1  0.01996672  0.67859042  0.00625374  1
  O  O15  1  0.34072646  0.97553363  0.29174378  1
  O  O16  1  0.49194619  0.89822055  0.70955551  1
  O  O17  1  0.27135826  0.59778984  0.37307462  1
  O  O18  1  0.64780461  0.00328674  0.04615483  1
  O  O19  1  0.37989128  0.63491412  0.74337615  1
  O  O20  1  0.31131960  0.51533682  0.11791176  1
  O  O21  1  0.10519762  0.29827378  0.51078928  1
  O  O22  1  0.61683240  0.78020779  0.37266779  1
  O  O23  1  0.29989043  0.32980748  0.97268011  1
  O  O24  1  0.69768460  0.66169737  0.03205039  1
  O  O25  1  0.36391480  0.23463577  0.62784159  1
  O  O26  1  0.89428024  0.69726233  0.47521209  1
  O  O27  1  0.69875727  0.46884497  0.88502845  1
  O  O28  1  0.61476583  0.34475602  0.26741917  1
  O  O29  1  0.32039614  0.02209295  0.95668448  1
  O  O30  1  0.77363913  0.35618640  0.61816532  1
  O  O31  1  0.49653314  0.11126170  0.30385718  1
  O  O32  1  0.63101171  0.04405093  0.73031010  1
  O  O33  1  0.97307589  0.31981708  0.00745682  1
  O  O34  1  0.99250148  0.28005414  0.33586438  1
  O  O35  1  0.00074947  0.04178729  0.65495645  1
