# generated using pymatgen
data_V4O7F5
_symmetry_space_group_name_H-M   'P 1'
_cell_length_a   5.23917080
_cell_length_b   5.32672754
_cell_length_c   9.14692716
_cell_angle_alpha   71.82546181
_cell_angle_beta   89.03245758
_cell_angle_gamma   61.75585929
_symmetry_Int_Tables_number   1
_chemical_formula_structural   V4O7F5
_chemical_formula_sum   'V4 O7 F5'
_cell_volume   211.03578034
_cell_formula_units_Z   1
loop_
 _symmetry_equiv_pos_site_id
 _symmetry_equiv_pos_as_xyz
  1  'x, y, z'
loop_
 _atom_site_type_symbol
 _atom_site_label
 _atom_site_symmetry_multiplicity
 _atom_site_fract_x
 _atom_site_fract_y
 _atom_site_fract_z
 _atom_site_occupancy
  V  V0  1  0.78854071  0.47077687  0.26868451  1
  V  V1  1  0.54255510  0.99236167  0.49615264  1
  V  V2  1  0.29539831  0.49467937  0.76018078  1
  V  V3  1  0.04195309  0.95855016  0.02020093  1
  O  O4  1  0.88331746  0.76618787  0.58646098  1
  O  O5  1  0.90542243  0.76782448  0.15185265  1
  O  O6  1  0.39871892  0.75876778  0.08485919  1
  O  O7  1  0.39105393  0.74955045  0.65661693  1
  O  O8  1  0.57233160  0.25367679  0.34109973  1
  O  O9  1  0.57528795  0.25872437  0.90235751  1
  O  O10  1  0.07558774  0.25063320  0.40830410  1
  F  F11  1  0.94920494  0.26514263  0.11303694  1
  F  F12  1  0.53730713  0.75010218  0.37751750  1
  F  F13  1  0.42567477  0.25298616  0.62440155  1
  F  F14  1  0.04444804  0.75094896  0.87419605  1
  F  F15  1  0.07319988  0.25908904  0.83407601  1
