# generated using pymatgen
data_NaLi2MnPCO7
_symmetry_space_group_name_H-M   'P 1'
_cell_length_a   8.68565189
_cell_length_b   6.70204367
_cell_length_c   10.06552143
_cell_angle_alpha   89.86606248
_cell_angle_beta   88.64103532
_cell_angle_gamma   90.52388774
_symmetry_Int_Tables_number   1
_chemical_formula_structural   NaLi2MnPCO7
_chemical_formula_sum   'Na4 Li8 Mn4 P4 C4 O28'
_cell_volume   585.73908850
_cell_formula_units_Z   4
loop_
 _symmetry_equiv_pos_site_id
 _symmetry_equiv_pos_as_xyz
  1  'x, y, z'
loop_
 _atom_site_type_symbol
 _atom_site_label
 _atom_site_symmetry_multiplicity
 _atom_site_fract_x
 _atom_site_fract_y
 _atom_site_fract_z
 _atom_site_occupancy
  Na  Na0  1  0.08390700  0.25913424  0.87777798  1
  Na  Na1  1  0.25205942  0.99929963  0.62330088  1
  Na  Na2  1  0.25167589  0.99881163  0.12651664  1
  Na  Na3  1  0.74865897  0.49950801  0.37544148  1
  Li  Li4  1  0.08133700  0.25303257  0.37623567  1
  Li  Li5  1  0.26863414  0.47810041  0.61236953  1
  Li  Li6  1  0.26856696  0.48100510  0.11816354  1
  Li  Li7  1  0.73373380  0.52024012  0.88235539  1
  Li  Li8  1  0.73267895  0.97849725  0.88511388  1
  Li  Li9  1  0.73627022  0.98466156  0.38368761  1
  Li  Li10  1  0.91436157  0.74560124  0.62589078  1
  Li  Li11  1  0.91287435  0.74876042  0.12469974  1
  Mn  Mn12  1  0.35766618  0.74617756  0.88707841  1
  Mn  Mn13  1  0.35732510  0.74476771  0.38831131  1
  Mn  Mn14  1  0.64649148  0.24588147  0.61311150  1
  Mn  Mn15  1  0.64435268  0.24853629  0.11015391  1
  P  P16  1  0.41462661  0.25454929  0.85129657  1
  P  P17  1  0.40474932  0.24878635  0.35216047  1
  P  P18  1  0.59691840  0.74486027  0.64866300  1
  P  P19  1  0.59408438  0.74985361  0.14574520  1
  C  C20  1  0.04116091  0.74845180  0.86711743  1
  C  C21  1  0.04522585  0.75613608  0.36495984  1
  C  C22  1  0.95510724  0.25826397  0.62981591  1
  C  C23  1  0.94818313  0.25677906  0.13950992  1
  O  O24  1  0.10115139  0.27739764  0.64767666  1
  O  O25  1  0.09530131  0.27486884  0.15549344  1
  O  O26  1  0.08798989  0.75156234  0.98882965  1
  O  O27  1  0.08862159  0.75041671  0.48759921  1
  O  O28  1  0.14126574  0.74398486  0.76885904  1
  O  O29  1  0.14617718  0.73783315  0.26814283  1
  O  O30  1  0.32334347  0.06312167  0.89305442  1
  O  O31  1  0.32197642  0.43203390  0.91041874  1
  O  O32  1  0.30341017  0.06266999  0.38782097  1
  O  O33  1  0.31375426  0.42935602  0.40922334  1
  O  O34  1  0.42055606  0.27039054  0.69637623  1
  O  O35  1  0.42937367  0.73428228  0.59705234  1
  O  O36  1  0.41988677  0.26985856  0.19738379  1
  O  O37  1  0.42726181  0.73367160  0.09441360  1
  O  O38  1  0.58418551  0.25330744  0.89906951  1
  O  O39  1  0.58568852  0.75206884  0.80446468  1
  O  O40  1  0.57002028  0.23357301  0.40673590  1
  O  O41  1  0.58188028  0.76528573  0.30061968  1
  O  O42  1  0.69646334  0.56394005  0.60551665  1
  O  O43  1  0.68768291  0.93023799  0.59501526  1
  O  O44  1  0.69560250  0.56829012  0.10428855  1
  O  O45  1  0.68388216  0.93339737  0.08804419  1
  O  O46  1  0.85983205  0.24481014  0.73170183  1
  O  O47  1  0.85655344  0.24180121  0.24356496  1
  O  O48  1  0.90218375  0.25113084  0.50977187  1
  O  O49  1  0.88903117  0.25274440  0.02232181  1
  O  O50  1  0.89498313  0.74940233  0.84120991  1
  O  O51  1  0.90128866  0.77886776  0.33585734  1
