# generated using pymatgen
data_Co(IO3)2
_symmetry_space_group_name_H-M   'P 1'
_cell_length_a   14.77395424
_cell_length_b   7.07798121
_cell_length_c   5.23791952
_cell_angle_alpha   89.99999322
_cell_angle_beta   89.99192014
_cell_angle_gamma   90.00008681
_symmetry_Int_Tables_number   1
_chemical_formula_structural   Co(IO3)2
_chemical_formula_sum   'Co4 I8 O24'
_cell_volume   547.72803631
_cell_formula_units_Z   4
loop_
 _symmetry_equiv_pos_site_id
 _symmetry_equiv_pos_as_xyz
  1  'x, y, z'
loop_
 _atom_site_type_symbol
 _atom_site_label
 _atom_site_symmetry_multiplicity
 _atom_site_fract_x
 _atom_site_fract_y
 _atom_site_fract_z
 _atom_site_occupancy
  Co  Co0  1  0.99999987  0.12352894  0.25000004  1
  Co  Co1  1  0.00000001  0.87646968  0.75000046  1
  Co  Co2  1  0.50000007  0.37635920  0.74999973  1
  Co  Co3  1  0.50000004  0.62359146  0.24999970  1
  I  I4  1  0.14759584  0.28091127  0.73025617  1
  I  I5  1  0.14759580  0.71907556  0.23028804  1
  I  I6  1  0.35240716  0.21914786  0.23029462  1
  I  I7  1  0.35241542  0.78087333  0.73033192  1
  I  I8  1  0.64759292  0.21914788  0.26970540  1
  I  I9  1  0.64758459  0.78087375  0.76966813  1
  I  I10  1  0.85240409  0.28091110  0.76974496  1
  I  I11  1  0.85240400  0.71907482  0.26971264  1
  O  O12  1  0.07900559  0.89960633  0.40851306  1
  O  O13  1  0.07898875  0.10041361  0.90849453  1
  O  O14  1  0.07966800  0.32093854  0.43743234  1
  O  O15  1  0.07964460  0.67902713  0.93751464  1
  O  O16  1  0.26212707  0.63246436  0.60771156  1
  O  O17  1  0.26211136  0.36755921  0.10770922  1
  O  O18  1  0.23786628  0.13254339  0.60776548  1
  O  O19  1  0.23784461  0.86745772  0.10772938  1
  O  O20  1  0.42029813  0.17907444  0.93743692  1
  O  O21  1  0.42031787  0.82096604  0.43751057  1
  O  O22  1  0.42100520  0.39958634  0.40844903  1
  O  O23  1  0.42101906  0.60038170  0.90847906  1
  O  O24  1  0.57899505  0.39958577  0.09155008  1
  O  O25  1  0.57898117  0.60038242  0.59152054  1
  O  O26  1  0.57970188  0.17907440  0.56256328  1
  O  O27  1  0.57968200  0.82096608  0.06248976  1
  O  O28  1  0.76213386  0.13254337  0.89223344  1
  O  O29  1  0.76215525  0.86745805  0.39227120  1
  O  O30  1  0.73788852  0.36755928  0.39229057  1
  O  O31  1  0.73787290  0.63246529  0.89228870  1
  O  O32  1  0.92033158  0.32093790  0.06256708  1
  O  O33  1  0.92035530  0.67902694  0.56248493  1
  O  O34  1  0.92101217  0.10041071  0.59150521  1
  O  O35  1  0.92099399  0.89960611  0.09148764  1
