# generated using pymatgen
data_Li3Ni4SbO8
_symmetry_space_group_name_H-M   'P 1'
_cell_length_a   10.41386854
_cell_length_b   10.41386802
_cell_length_c   14.65132303
_cell_angle_alpha   19.54649398
_cell_angle_beta   19.54649799
_cell_angle_gamma   33.79366165
_symmetry_Int_Tables_number   1
_chemical_formula_structural   Li3Ni4SbO8
_chemical_formula_sum   'Li3 Ni4 Sb1 O8'
_cell_volume   153.05948258
_cell_formula_units_Z   1
loop_
 _symmetry_equiv_pos_site_id
 _symmetry_equiv_pos_as_xyz
  1  'x, y, z'
loop_
 _atom_site_type_symbol
 _atom_site_label
 _atom_site_symmetry_multiplicity
 _atom_site_fract_x
 _atom_site_fract_y
 _atom_site_fract_z
 _atom_site_occupancy
  Li  Li0  1  0.00000000  0.50000000  0.50000000  1
  Li  Li1  1  0.50000000  0.00000000  0.50000000  1
  Li  Li2  1  0.50000000  0.50000000  0.50000000  1
  Ni  Ni3  1  0.00000000  0.00000000  0.00000000  1
  Ni  Ni4  1  0.00000000  0.50000000  0.00000000  1
  Ni  Ni5  1  0.50000000  0.00000000  0.00000000  1
  Ni  Ni6  1  0.00000000  0.00000000  0.50000000  1
  Sb  Sb7  1  0.50000000  0.50000000  0.00000000  1
  O  O8  1  0.98260600  0.98260600  0.27828698  1
  O  O9  1  0.02857388  0.50203501  0.23380373  1
  O  O10  1  0.50203501  0.02857388  0.23380373  1
  O  O11  1  0.01739400  0.01739400  0.72171302  1
  O  O12  1  0.51645685  0.51645685  0.23342411  1
  O  O13  1  0.97142612  0.49796499  0.76619627  1
  O  O14  1  0.49796499  0.97142612  0.76619627  1
  O  O15  1  0.48354315  0.48354315  0.76657589  1
