# generated using pymatgen
data_Li3V2(PO4)3
_symmetry_space_group_name_H-M   'P 1'
_cell_length_a   8.62726914
_cell_length_b   8.63614542
_cell_length_c   8.63614578
_cell_angle_alpha   61.50638758
_cell_angle_beta   61.63816641
_cell_angle_gamma   61.63816336
_symmetry_Int_Tables_number   1
_chemical_formula_structural   Li3V2(PO4)3
_chemical_formula_sum   'Li6 V4 P6 O24'
_cell_volume   471.25627115
_cell_formula_units_Z   2
loop_
 _symmetry_equiv_pos_site_id
 _symmetry_equiv_pos_as_xyz
  1  'x, y, z'
loop_
 _atom_site_type_symbol
 _atom_site_label
 _atom_site_symmetry_multiplicity
 _atom_site_fract_x
 _atom_site_fract_y
 _atom_site_fract_z
 _atom_site_occupancy
  Li  Li0  1  0.02809086  0.00539096  0.99665713  1
  Li  Li1  1  0.75000000  0.15088665  0.34911335  1
  Li  Li2  1  0.47190914  0.50334287  0.49460904  1
  Li  Li3  1  0.25000000  0.84603326  0.65396674  1
  Li  Li4  1  0.65416611  0.25365769  0.84232106  1
  Li  Li5  1  0.84583389  0.65767894  0.24634231  1
  V  V6  1  0.14220107  0.14516057  0.13812419  1
  V  V7  1  0.35779893  0.36187581  0.35483943  1
  V  V8  1  0.64573036  0.64539320  0.64534176  1
  V  V9  1  0.85426964  0.85465824  0.85460680  1
  P  P10  1  0.04875281  0.75125641  0.45059445  1
  P  P11  1  0.45124719  0.04940555  0.74874359  1
  P  P12  1  0.75000000  0.45341534  0.04658466  1
  P  P13  1  0.25000000  0.54215582  0.95784418  1
  P  P14  1  0.54362607  0.96254796  0.25070902  1
  P  P15  1  0.95637393  0.24929098  0.53745204  1
  O  O16  1  0.12711961  0.28880533  0.49807001  1
  O  O17  1  0.30619754  0.50826344  0.11637547  1
  O  O18  1  0.04873925  0.92040505  0.26771933  1
  O  O19  1  0.53025059  0.12057316  0.29804888  1
  O  O20  1  0.23723514  0.59259727  0.42799411  1
  O  O21  1  0.02021455  0.80440732  0.61114103  1
  O  O22  1  0.26276486  0.07200589  0.90740273  1
  O  O23  1  0.45126075  0.23228067  0.57959495  1
  O  O24  1  0.59608627  0.43255282  0.23948629  1
  O  O25  1  0.19380246  0.38362453  0.99173656  1
  O  O26  1  0.09061593  0.73550055  0.93508887  1
  O  O27  1  0.37288039  0.00192999  0.21119467  1
  O  O28  1  0.61243919  0.01322688  0.80788203  1
  O  O29  1  0.90391373  0.26051371  0.06744718  1
  O  O30  1  0.81097668  0.61171830  0.01280156  1
  O  O31  1  0.40938407  0.56491113  0.76449945  1
  O  O32  1  0.56726897  0.76958315  0.41130211  1
  O  O33  1  0.73148976  0.93388354  0.08875738  1
  O  O34  1  0.96974941  0.20195112  0.37942684  1
  O  O35  1  0.76851024  0.41124262  0.56611646  1
  O  O36  1  0.47978545  0.88885897  0.69559268  1
  O  O37  1  0.93273103  0.08869789  0.73041685  1
  O  O38  1  0.68902332  0.48719844  0.88828170  1
  O  O39  1  0.88756081  0.69211797  0.48677312  1
