# generated using pymatgen
data_Li4Y3VO8
_symmetry_space_group_name_H-M   'P 1'
_cell_length_a   5.93968436
_cell_length_b   5.94142043
_cell_length_c   11.88452843
_cell_angle_alpha   136.88784352
_cell_angle_beta   136.91551779
_cell_angle_gamma   62.53671489
_symmetry_Int_Tables_number   1
_chemical_formula_structural   Li4Y3VO8
_chemical_formula_sum   'Li4 Y3 V1 O8'
_cell_volume   193.45152700
_cell_formula_units_Z   1
loop_
 _symmetry_equiv_pos_site_id
 _symmetry_equiv_pos_as_xyz
  1  'x, y, z'
loop_
 _atom_site_type_symbol
 _atom_site_label
 _atom_site_symmetry_multiplicity
 _atom_site_fract_x
 _atom_site_fract_y
 _atom_site_fract_z
 _atom_site_occupancy
  Li  Li0  1  0.25052891  0.75077083  0.75078793  1
  Li  Li1  1  0.50019642  0.50017119  0.50027070  1
  Li  Li2  1  0.24932584  0.74952114  0.24929891  1
  Li  Li3  1  0.49963141  0.50002848  0.99992492  1
  Y  Y4  1  0.00032960  0.00026689  0.50033675  1
  Y  Y5  1  0.75796440  0.25839796  0.75790994  1
  Y  Y6  1  0.74276175  0.24333529  0.24306418  1
  V  V7  1  0.00070450  0.00147464  0.00121595  1
  O  O8  1  0.53793533  0.01843168  0.76175141  1
  O  O9  1  0.22196374  0.22135546  0.49984740  1
  O  O10  1  0.98664647  0.50371270  0.76151102  1
  O  O11  1  0.49431184  0.01142382  0.23639754  1
  O  O12  1  0.21159666  0.21116323  0.00001916  1
  O  O13  1  0.77791406  0.77850526  0.50003144  1
  O  O14  1  0.97942663  0.46186384  0.23718083  1
  O  O15  1  0.78876143  0.78957557  0.00045191  1
