# generated using pymatgen
data_Li2FeCuO4
_symmetry_space_group_name_H-M   'P 1'
_cell_length_a   5.15325618
_cell_length_b   10.30013082
_cell_length_c   9.86357152
_cell_angle_alpha   16.74109762
_cell_angle_beta   29.24485650
_cell_angle_gamma   33.32598619
_symmetry_Int_Tables_number   1
_chemical_formula_structural   Li2FeCuO4
_chemical_formula_sum   'Li2 Fe1 Cu1 O4'
_cell_volume   73.67590386
_cell_formula_units_Z   1
loop_
 _symmetry_equiv_pos_site_id
 _symmetry_equiv_pos_as_xyz
  1  'x, y, z'
loop_
 _atom_site_type_symbol
 _atom_site_label
 _atom_site_symmetry_multiplicity
 _atom_site_fract_x
 _atom_site_fract_y
 _atom_site_fract_z
 _atom_site_occupancy
  Li  Li0  1  0.00000000  0.00000000  0.00000000  1
  Li  Li1  1  0.00000000  0.50000000  0.00000000  1
  Fe  Fe2  1  0.50000000  0.50000000  0.50000000  1
  Cu  Cu3  1  0.50000000  0.00000000  0.50000000  1
  O  O4  1  0.24646849  1.00000000  0.24329495  1
  O  O5  1  0.23920587  0.50000000  0.24616696  1
  O  O6  1  0.75353151  0.00000000  0.75670505  1
  O  O7  1  0.76079413  0.50000000  0.75383304  1
