# generated using pymatgen
data_Mn(SO4)2
_symmetry_space_group_name_H-M   'P 1'
_cell_length_a   8.85318510
_cell_length_b   8.85318529
_cell_length_c   8.85318521
_cell_angle_alpha   55.78006690
_cell_angle_beta   55.78007300
_cell_angle_gamma   55.78007154
_symmetry_Int_Tables_number   1
_chemical_formula_structural   Mn(SO4)2
_chemical_formula_sum   'Mn3 S6 O24'
_cell_volume   442.64729765
_cell_formula_units_Z   3
loop_
 _symmetry_equiv_pos_site_id
 _symmetry_equiv_pos_as_xyz
  1  'x, y, z'
loop_
 _atom_site_type_symbol
 _atom_site_label
 _atom_site_symmetry_multiplicity
 _atom_site_fract_x
 _atom_site_fract_y
 _atom_site_fract_z
 _atom_site_occupancy
  Mn  Mn0  1  0.35210771  0.35210771  0.35210771  1
  Mn  Mn1  1  0.64413784  0.64413784  0.64413784  1
  Mn  Mn2  1  0.84814645  0.84814645  0.84814645  1
  S  S3  1  0.03565885  0.74745066  0.46704520  1
  S  S4  1  0.46704520  0.03565885  0.74745066  1
  S  S5  1  0.74745066  0.46704520  0.03565885  1
  S  S6  1  0.25410458  0.53616463  0.95457056  1
  S  S7  1  0.53616463  0.95457056  0.25410458  1
  S  S8  1  0.95457056  0.25410458  0.53616463  1
  O  O9  1  0.10593582  0.29536380  0.52357095  1
  O  O10  1  0.29536380  0.52357095  0.10593582  1
  O  O11  1  0.00502616  0.94769464  0.33923230  1
  O  O12  1  0.52357095  0.10593582  0.29536380  1
  O  O13  1  0.02246828  0.70747624  0.66444933  1
  O  O14  1  0.23592129  0.61331257  0.38490602  1
  O  O15  1  0.38490602  0.23592129  0.61331257  1
  O  O16  1  0.33923230  0.00502616  0.94769464  1
  O  O17  1  0.61331257  0.38490602  0.23592129  1
  O  O18  1  0.04779904  0.68102598  0.97838711  1
  O  O19  1  0.28957096  0.35118025  0.96893715  1
  O  O20  1  0.35118025  0.96893715  0.28957096  1
  O  O21  1  0.66444933  0.02246828  0.70747624  1
  O  O22  1  0.70747624  0.66444933  0.02246828  1
  O  O23  1  0.94769464  0.33923230  0.00502616  1
  O  O24  1  0.37955742  0.64234922  0.75617915  1
  O  O25  1  0.68102598  0.97838711  0.04779904  1
  O  O26  1  0.64234922  0.75617915  0.37955742  1
  O  O27  1  0.75617915  0.37955742  0.64234922  1
  O  O28  1  0.96893715  0.28957096  0.35118025  1
  O  O29  1  0.49867807  0.89468688  0.67926191  1
  O  O30  1  0.97838711  0.04779904  0.68102598  1
  O  O31  1  0.67926191  0.49867807  0.89468688  1
  O  O32  1  0.89468688  0.67926191  0.49867807  1
