# generated using pymatgen
data_TiFe(PO4)2
_symmetry_space_group_name_H-M   'P 1'
_cell_length_a   10.01482387
_cell_length_b   6.02190730
_cell_length_c   4.99000826
_cell_angle_alpha   90.00000000
_cell_angle_beta   89.44967291
_cell_angle_gamma   90.00000000
_symmetry_Int_Tables_number   1
_chemical_formula_structural   TiFe(PO4)2
_chemical_formula_sum   'Ti2 Fe2 P4 O16'
_cell_volume   300.92523790
_cell_formula_units_Z   2
loop_
 _symmetry_equiv_pos_site_id
 _symmetry_equiv_pos_as_xyz
  1  'x, y, z'
loop_
 _atom_site_type_symbol
 _atom_site_label
 _atom_site_symmetry_multiplicity
 _atom_site_fract_x
 _atom_site_fract_y
 _atom_site_fract_z
 _atom_site_occupancy
  Ti  Ti0  1  0.22413878  0.75000000  0.47271114  1
  Ti  Ti1  1  0.77586122  0.25000000  0.52728886  1
  Fe  Fe2  1  0.27125235  0.25000000  0.96664556  1
  Fe  Fe3  1  0.72874765  0.75000000  0.03335444  1
  P  P4  1  0.09623225  0.25000000  0.44419020  1
  P  P5  1  0.39857183  0.75000000  0.89532054  1
  P  P6  1  0.60142817  0.25000000  0.10467946  1
  P  P7  1  0.90376775  0.75000000  0.55580980  1
  O  O8  1  0.05359092  0.75000000  0.64383292  1
  O  O9  1  0.10466570  0.25000000  0.74301132  1
  O  O10  1  0.16874706  0.04594548  0.30693703  1
  O  O11  1  0.16874706  0.45405452  0.30693703  1
  O  O12  1  0.32563656  0.94455672  0.74231333  1
  O  O13  1  0.32563656  0.55544328  0.74231333  1
  O  O14  1  0.35687441  0.75000000  0.19529495  1
  O  O15  1  0.45307039  0.25000000  0.14044685  1
  O  O16  1  0.54692961  0.75000000  0.85955315  1
  O  O17  1  0.64312559  0.25000000  0.80470505  1
  O  O18  1  0.67436344  0.05544328  0.25768667  1
  O  O19  1  0.67436344  0.44455672  0.25768667  1
  O  O20  1  0.83125294  0.54594548  0.69306297  1
  O  O21  1  0.83125294  0.95405452  0.69306297  1
  O  O22  1  0.89533430  0.75000000  0.25698868  1
  O  O23  1  0.94640908  0.25000000  0.35616708  1
