# generated using pymatgen
data_LiV2F9
_symmetry_space_group_name_H-M   'P 1'
_cell_length_a   5.03422352
_cell_length_b   8.91914971
_cell_length_c   10.03997383
_cell_angle_alpha   123.22867798
_cell_angle_beta   107.67902181
_cell_angle_gamma   93.05925390
_symmetry_Int_Tables_number   1
_chemical_formula_structural   LiV2F9
_chemical_formula_sum   'Li2 V4 F18'
_cell_volume   345.35322077
_cell_formula_units_Z   2
loop_
 _symmetry_equiv_pos_site_id
 _symmetry_equiv_pos_as_xyz
  1  'x, y, z'
loop_
 _atom_site_type_symbol
 _atom_site_label
 _atom_site_symmetry_multiplicity
 _atom_site_fract_x
 _atom_site_fract_y
 _atom_site_fract_z
 _atom_site_occupancy
  Li  Li0  1  0.34750913  0.25346425  0.38846025  1
  Li  Li1  1  0.65279623  0.74678973  0.61177936  1
  V  V2  1  0.05842721  0.49957804  0.74401908  1
  V  V3  1  0.38000828  0.12196343  0.78707358  1
  V  V4  1  0.61946168  0.87790230  0.21295187  1
  V  V5  1  0.94181744  0.50052742  0.25599999  1
  F  F6  1  0.02634348  0.97345398  0.68999765  1
  F  F7  1  0.05586619  0.31401176  0.27004494  1
  F  F8  1  0.25006732  0.68383214  0.45977018  1
  F  F9  1  0.20410578  0.30827091  0.77801382  1
  F  F10  1  0.30400049  0.47170931  0.63516055  1
  F  F11  1  0.11332979  0.46435243  0.11449634  1
  F  F12  1  0.42781101  0.86414796  0.32757324  1
  F  F13  1  0.42280926  0.69948259  0.97320154  1
  F  F14  1  0.55949299  0.95381395  0.80311923  1
  F  F15  1  0.44035442  0.04628007  0.19710884  1
  F  F16  1  0.57722798  0.30052348  0.02679576  1
  F  F17  1  0.57185777  0.13586193  0.67256804  1
  F  F18  1  0.88675988  0.53561552  0.88541003  1
  F  F19  1  0.69625500  0.52837927  0.36484950  1
  F  F20  1  0.79585052  0.69175316  0.22209097  1
  F  F21  1  0.75034805  0.31610042  0.54027152  1
  F  F22  1  0.94438794  0.68606137  0.72989688  1
  F  F23  1  0.97311215  0.02612558  0.30934780  1
