# generated using pymatgen
data_Na2NiPCO7
_symmetry_space_group_name_H-M   'P 1'
_cell_length_a   9.01195354
_cell_length_b   10.36609645
_cell_length_c   6.51687168
_cell_angle_alpha   90.00000000
_cell_angle_beta   90.00000000
_cell_angle_gamma   88.54703554
_symmetry_Int_Tables_number   1
_chemical_formula_structural   Na2NiPCO7
_chemical_formula_sum   'Na8 Ni4 P4 C4 O28'
_cell_volume   608.60245647
_cell_formula_units_Z   4
loop_
 _symmetry_equiv_pos_site_id
 _symmetry_equiv_pos_as_xyz
  1  'x, y, z'
loop_
 _atom_site_type_symbol
 _atom_site_label
 _atom_site_symmetry_multiplicity
 _atom_site_fract_x
 _atom_site_fract_y
 _atom_site_fract_z
 _atom_site_occupancy
  Na  Na0  1  0.26180286  0.12383401  0.01605321  1
  Na  Na1  1  0.26133902  0.12584106  0.48132258  1
  Na  Na2  1  0.26133902  0.62584106  0.01867742  1
  Na  Na3  1  0.26180286  0.62383401  0.48394679  1
  Na  Na4  1  0.73276488  0.37215592  0.51975820  1
  Na  Na5  1  0.73276488  0.87215592  0.98024180  1
  Na  Na6  1  0.90996677  0.10527902  0.74568381  1
  Na  Na7  1  0.90996677  0.60527902  0.75431619  1
  Ni  Ni8  1  0.34838511  0.38907831  0.75264408  1
  Ni  Ni9  1  0.34838511  0.88907831  0.74735592  1
  Ni  Ni10  1  0.65762554  0.11032613  0.24822120  1
  Ni  Ni11  1  0.65762554  0.61032613  0.25177880  1
  P  P12  1  0.42646300  0.35903718  0.24930962  1
  P  P13  1  0.42646300  0.85903718  0.25069038  1
  P  P14  1  0.57710276  0.14384414  0.74835599  1
  P  P15  1  0.57710276  0.64384414  0.75164401  1
  C  C16  1  0.07341788  0.35596024  0.74373233  1
  C  C17  1  0.07341788  0.85596024  0.75626767  1
  C  C18  1  0.92877263  0.14210273  0.24622001  1
  C  C19  1  0.92877263  0.64210273  0.25377999  1
  O  O20  1  0.06720643  0.16004805  0.24820598  1
  O  O21  1  0.06720643  0.66004805  0.25179402  1
  O  O22  1  0.13425942  0.46956493  0.74899522  1
  O  O23  1  0.13425942  0.96956493  0.75100478  1
  O  O24  1  0.16701116  0.25756490  0.75026869  1
  O  O25  1  0.16701116  0.75756490  0.74973131  1
  O  O26  1  0.32820245  0.39649685  0.06210222  1
  O  O27  1  0.32841712  0.39443589  0.43886044  1
  O  O28  1  0.32841712  0.89443589  0.06113956  1
  O  O29  1  0.32820245  0.89649685  0.43789778  1
  O  O30  1  0.42983431  0.07125174  0.74437587  1
  O  O31  1  0.42983431  0.57125174  0.75562413  1
  O  O32  1  0.45915263  0.20974647  0.24712228  1
  O  O33  1  0.45915263  0.70974647  0.25287772  1
  O  O34  1  0.53852332  0.29190567  0.75136700  1
  O  O35  1  0.53852332  0.79190567  0.74863300  1
  O  O36  1  0.57268333  0.43257503  0.25380485  1
  O  O37  1  0.57268333  0.93257503  0.24619515  1
  O  O38  1  0.67833829  0.11905640  0.55888621  1
  O  O39  1  0.67483004  0.10304182  0.93515805  1
  O  O40  1  0.67483004  0.60304182  0.56484195  1
  O  O41  1  0.67833829  0.61905640  0.94111379  1
  O  O42  1  0.82948781  0.23615480  0.25412146  1
  O  O43  1  0.82948781  0.73615480  0.24587854  1
  O  O44  1  0.86965638  0.02922687  0.23759413  1
  O  O45  1  0.86965638  0.52922687  0.26240587  1
  O  O46  1  0.93443387  0.34350582  0.73290688  1
  O  O47  1  0.93443387  0.84350582  0.76709312  1
