# generated using pymatgen
data_Co3Sn(PO4)4
_symmetry_space_group_name_H-M   'P 1'
_cell_length_a   4.91871333
_cell_length_b   9.90642173
_cell_length_c   5.97610792
_cell_angle_alpha   90.00000000
_cell_angle_beta   90.00000000
_cell_angle_gamma   89.58732727
_symmetry_Int_Tables_number   1
_chemical_formula_structural   Co3Sn(PO4)4
_chemical_formula_sum   'Co3 Sn1 P4 O16'
_cell_volume   291.18935260
_cell_formula_units_Z   1
loop_
 _symmetry_equiv_pos_site_id
 _symmetry_equiv_pos_as_xyz
  1  'x, y, z'
loop_
 _atom_site_type_symbol
 _atom_site_label
 _atom_site_symmetry_multiplicity
 _atom_site_fract_x
 _atom_site_fract_y
 _atom_site_fract_z
 _atom_site_occupancy
  Co  Co0  1  0.03183756  0.73251134  0.75000000  1
  Co  Co1  1  0.45779282  0.22420976  0.75000000  1
  Co  Co2  1  0.53913936  0.76764363  0.25000000  1
  Sn  Sn3  1  0.95985691  0.27699798  0.25000000  1
  P  P4  1  0.09923698  0.60349444  0.25000000  1
  P  P5  1  0.40312609  0.09082687  0.25000000  1
  P  P6  1  0.58934788  0.89822926  0.75000000  1
  P  P7  1  0.91497077  0.41046258  0.75000000  1
  O  O8  1  0.16909227  0.45085632  0.25000000  1
  O  O9  1  0.24242595  0.67257602  0.04769928  1
  O  O10  1  0.24242595  0.67257602  0.45230072  1
  O  O11  1  0.21627921  0.38239247  0.75000000  1
  O  O12  1  0.27924295  0.87207169  0.75000000  1
  O  O13  1  0.25307440  0.16558572  0.05084542  1
  O  O14  1  0.25307440  0.16558572  0.44915458  1
  O  O15  1  0.35501898  0.93858647  0.25000000  1
  O  O16  1  0.64361909  0.04816449  0.75000000  1
  O  O17  1  0.73507038  0.82549580  0.54787755  1
  O  O18  1  0.73507038  0.82549580  0.95212245  1
  O  O19  1  0.71164783  0.11531990  0.25000000  1
  O  O20  1  0.78740220  0.62250413  0.25000000  1
  O  O21  1  0.76467399  0.33806925  0.54600744  1
  O  O22  1  0.76467399  0.33806925  0.95399256  1
  O  O23  1  0.85189966  0.56227711  0.75000000  1
