# generated using pymatgen
data_Li2VCo3O8
_symmetry_space_group_name_H-M   'P 1'
_cell_length_a   5.78318243
_cell_length_b   5.78318286
_cell_length_c   5.69089031
_cell_angle_alpha   59.46207105
_cell_angle_beta   120.53793726
_cell_angle_gamma   120.00000314
_symmetry_Int_Tables_number   1
_chemical_formula_structural   Li2VCo3O8
_chemical_formula_sum   'Li2 V1 Co3 O8'
_cell_volume   133.48103454
_cell_formula_units_Z   1
loop_
 _symmetry_equiv_pos_site_id
 _symmetry_equiv_pos_as_xyz
  1  'x, y, z'
loop_
 _atom_site_type_symbol
 _atom_site_label
 _atom_site_symmetry_multiplicity
 _atom_site_fract_x
 _atom_site_fract_y
 _atom_site_fract_z
 _atom_site_occupancy
  Li  Li0  1  0.87505665  0.12494335  0.62516894  1
  Li  Li1  1  0.12494335  0.87505665  0.37483106  1
  V  V2  1  0.50000000  0.50000000  0.50000000  1
  Co  Co3  1  0.50000000  0.50000000  0.00000000  1
  Co  Co4  1  0.50000000  0.00000000  0.00000000  1
  Co  Co5  1  0.00000000  0.50000000  0.00000000  1
  O  O6  1  0.73454277  0.71175069  0.75733485  1
  O  O7  1  0.73454277  0.26545723  0.75733485  1
  O  O8  1  0.26468049  0.73531951  0.79404047  1
  O  O9  1  0.28824931  0.26545723  0.75733485  1
  O  O10  1  0.71175069  0.73454277  0.24266515  1
  O  O11  1  0.73531951  0.26468049  0.20595953  1
  O  O12  1  0.26545723  0.73454277  0.24266515  1
  O  O13  1  0.26545723  0.28824931  0.24266515  1
