# generated using pymatgen
data_Li5Fe8(BO3)8
_symmetry_space_group_name_H-M   'P 1'
_cell_length_a   5.25470741
_cell_length_b   9.11514695
_cell_length_c   10.13290065
_cell_angle_alpha   90.93696066
_cell_angle_beta   91.40003297
_cell_angle_gamma   89.44876658
_symmetry_Int_Tables_number   1
_chemical_formula_structural   Li5Fe8(BO3)8
_chemical_formula_sum   'Li5 Fe8 B8 O24'
_cell_volume   485.10949731
_cell_formula_units_Z   1
loop_
 _symmetry_equiv_pos_site_id
 _symmetry_equiv_pos_as_xyz
  1  'x, y, z'
loop_
 _atom_site_type_symbol
 _atom_site_label
 _atom_site_symmetry_multiplicity
 _atom_site_fract_x
 _atom_site_fract_y
 _atom_site_fract_z
 _atom_site_occupancy
  Li  Li0  1  0.84865210  0.82581581  0.66537416  1
  Li  Li1  1  0.81399830  0.83748402  0.15829857  1
  Li  Li2  1  0.67552030  0.66999100  0.40446863  1
  Li  Li3  1  0.31702647  0.33773419  0.14535841  1
  Li  Li4  1  0.18385177  0.16648175  0.41767797  1
  Fe  Fe5  1  0.84236622  0.16526280  0.63658723  1
  Fe  Fe6  1  0.81378957  0.50551360  0.12256463  1
  Fe  Fe7  1  0.66506108  0.00684608  0.87877952  1
  Fe  Fe8  1  0.67572711  0.33594171  0.37909686  1
  Fe  Fe9  1  0.34771342  0.65148165  0.63536405  1
  Fe  Fe10  1  0.31430391  0.00286081  0.12538786  1
  Fe  Fe11  1  0.16674798  0.83789352  0.38347635  1
  Fe  Fe12  1  0.16875314  0.50077328  0.87757684  1
  B  B13  1  0.84466018  0.50316571  0.62110893  1
  B  B14  1  0.83009157  0.16967853  0.13298050  1
  B  B15  1  0.66108143  0.00542737  0.37497413  1
  B  B16  1  0.66677915  0.33362789  0.88209743  1
  B  B17  1  0.33075510  0.99315888  0.62801217  1
  B  B18  1  0.32431674  0.67076469  0.13003602  1
  B  B19  1  0.17487118  0.49859826  0.37529740  1
  B  B20  1  0.17327048  0.83433287  0.87614776  1
  O  O21  1  0.91108909  0.50104252  0.34566610  1
  O  O22  1  0.91494901  0.85522057  0.85835751  1
  O  O23  1  0.77793781  0.20178477  0.84121266  1
  O  O24  1  0.79098884  0.13436281  0.41229393  1
  O  O25  1  0.79118139  0.87342997  0.36652470  1
  O  O26  1  0.82550412  0.44790436  0.92217268  1
  O  O27  1  0.72257521  0.63742356  0.60495070  1
  O  O28  1  0.70479202  0.04276784  0.08495921  1
  O  O29  1  0.73177511  0.37465359  0.57246575  1
  O  O30  1  0.68213195  0.29071026  0.17737128  1
  O  O31  1  0.58549386  0.67643768  0.14065804  1
  O  O32  1  0.58749105  0.98740763  0.67430875  1
  O  O33  1  0.40374611  0.01229734  0.34406347  1
  O  O34  1  0.40934148  0.34775120  0.88865231  1
  O  O35  1  0.28416377  0.69931731  0.84665049  1
  O  O36  1  0.29795285  0.62515042  0.41517388  1
  O  O37  1  0.30826063  0.36714169  0.36029454  1
  O  O38  1  0.32568085  0.94878945  0.92172066  1
  O  O39  1  0.20314142  0.53994102  0.08907545  1
  O  O40  1  0.20888014  0.12433814  0.60790439  1
  O  O41  1  0.20707819  0.86107454  0.59699876  1
  O  O42  1  0.17750120  0.79343212  0.16429148  1
  O  O43  1  0.08734656  0.17694166  0.13925614  1
  O  O44  1  0.08502114  0.49501014  0.68026871  1
