# generated using pymatgen
data_Li2Cr3FeO8
_symmetry_space_group_name_H-M   'P 1'
_cell_length_a   5.87647561
_cell_length_b   5.87955960
_cell_length_c   9.53501017
_cell_angle_alpha   89.16648971
_cell_angle_beta   90.41696598
_cell_angle_gamma   120.01736094
_symmetry_Int_Tables_number   1
_chemical_formula_structural   Li2Cr3FeO8
_chemical_formula_sum   'Li4 Cr6 Fe2 O16'
_cell_volume   285.22761399
_cell_formula_units_Z   2
loop_
 _symmetry_equiv_pos_site_id
 _symmetry_equiv_pos_as_xyz
  1  'x, y, z'
loop_
 _atom_site_type_symbol
 _atom_site_label
 _atom_site_symmetry_multiplicity
 _atom_site_fract_x
 _atom_site_fract_y
 _atom_site_fract_z
 _atom_site_occupancy
  Li  Li0  1  0.33182641  0.66826456  0.89501550  1
  Li  Li1  1  0.00044039  0.00034028  0.99715379  1
  Li  Li2  1  0.99955961  0.99989988  0.49715379  1
  Li  Li3  1  0.66817359  0.33643815  0.39501550  1
  Cr  Cr4  1  0.16898954  0.83192970  0.21245430  1
  Cr  Cr5  1  0.17016444  0.34006363  0.21506810  1
  Cr  Cr6  1  0.66241912  0.83191720  0.21246024  1
  Cr  Cr7  1  0.33758088  0.16949808  0.71246024  1
  Cr  Cr8  1  0.83101046  0.66294015  0.71245430  1
  Cr  Cr9  1  0.82983556  0.16989819  0.71506810  1
  Fe  Fe10  1  0.33652178  0.66478384  0.48836935  1
  Fe  Fe11  1  0.66347822  0.32826206  0.98836935  1
  O  O12  1  0.16383665  0.83841567  0.60651982  1
  O  O13  1  0.04029351  0.52740329  0.33571360  1
  O  O14  1  0.33479303  0.67161597  0.10345197  1
  O  O15  1  0.99874743  0.99564160  0.31260428  1
  O  O16  1  0.00125257  0.99689316  0.81260428  1
  O  O17  1  0.17253873  0.32449221  0.60340294  1
  O  O18  1  0.48271908  0.96302389  0.33207853  1
  O  O19  1  0.48980894  0.52798906  0.33512541  1
  O  O20  1  0.32457071  0.15310600  0.10450215  1
  O  O21  1  0.67542929  0.82853429  0.60450215  1
  O  O22  1  0.51728092  0.48030480  0.83207853  1
  O  O23  1  0.51019106  0.03818012  0.83512541  1
  O  O24  1  0.66520697  0.33682193  0.60345197  1
  O  O25  1  0.83616335  0.67458003  0.10651982  1
  O  O26  1  0.95970649  0.48710978  0.83571360  1
  O  O27  1  0.82746127  0.15195348  0.10340294  1
