# generated using pymatgen
data_LiV3O8
_symmetry_space_group_name_H-M   'P 1'
_cell_length_a   6.96986060
_cell_length_b   3.62309515
_cell_length_c   12.62385505
_cell_angle_alpha   90.00000000
_cell_angle_beta   107.31337384
_cell_angle_gamma   90.00000000
_symmetry_Int_Tables_number   1
_chemical_formula_structural   LiV3O8
_chemical_formula_sum   'Li2 V6 O16'
_cell_volume   304.33985127
_cell_formula_units_Z   2
loop_
 _symmetry_equiv_pos_site_id
 _symmetry_equiv_pos_as_xyz
  1  'x, y, z'
loop_
 _atom_site_type_symbol
 _atom_site_label
 _atom_site_symmetry_multiplicity
 _atom_site_fract_x
 _atom_site_fract_y
 _atom_site_fract_z
 _atom_site_occupancy
  Li  Li0  1  0.58301573  0.25000000  0.04050055  1
  Li  Li1  1  0.65653684  0.25000000  0.30171154  1
  V  V2  1  0.05987892  0.25000000  0.80027328  1
  V  V3  1  0.15656457  0.75000000  0.46275786  1
  V  V4  1  0.21237970  0.25000000  0.07280862  1
  V  V5  1  0.79966904  0.75000000  0.92242431  1
  V  V6  1  0.86345122  0.25000000  0.54778425  1
  V  V7  1  0.96569037  0.75000000  0.20261990  1
  O  O8  1  0.00918790  0.75000000  0.82998336  1
  O  O9  1  0.28034842  0.25000000  0.95115397  1
  O  O10  1  0.06045588  0.25000000  0.45573206  1
  O  O11  1  0.21509502  0.25000000  0.72748745  1
  O  O12  1  0.19069104  0.75000000  0.32377725  1
  O  O13  1  0.13444974  0.75000000  0.07829431  1
  O  O14  1  0.37615316  0.75000000  0.54915093  1
  O  O15  1  0.58364170  0.75000000  0.83036049  1
  O  O16  1  0.44132238  0.25000000  0.16419117  1
  O  O17  1  0.64383600  0.25000000  0.45344829  1
  O  O18  1  0.88737585  0.25000000  0.93504875  1
  O  O19  1  0.82083108  0.25000000  0.67876416  1
  O  O20  1  0.79370902  0.75000000  0.27132686  1
  O  O21  1  0.95470277  0.75000000  0.54899099  1
  O  O22  1  0.73266452  0.75000000  0.05149174  1
  O  O23  1  0.00227915  0.25000000  0.17201392  1
