# generated using pymatgen
data_Li3Cr2(PO4)3
_symmetry_space_group_name_H-M   'P 1'
_cell_length_a   8.55285689
_cell_length_b   8.58849775
_cell_length_c   8.58849756
_cell_angle_alpha   61.32234358
_cell_angle_beta   61.28035471
_cell_angle_gamma   61.28035537
_symmetry_Int_Tables_number   1
_chemical_formula_structural   Li3Cr2(PO4)3
_chemical_formula_sum   'Li6 Cr4 P6 O24'
_cell_volume   459.07807276
_cell_formula_units_Z   2
loop_
 _symmetry_equiv_pos_site_id
 _symmetry_equiv_pos_as_xyz
  1  'x, y, z'
loop_
 _atom_site_type_symbol
 _atom_site_label
 _atom_site_symmetry_multiplicity
 _atom_site_fract_x
 _atom_site_fract_y
 _atom_site_fract_z
 _atom_site_occupancy
  Li  Li0  1  0.02761921  0.00487794  0.99702106  1
  Li  Li1  1  0.75000000  0.15059623  0.34940377  1
  Li  Li2  1  0.47238079  0.50297894  0.49512206  1
  Li  Li3  1  0.25000000  0.84643310  0.65356690  1
  Li  Li4  1  0.65382532  0.25055962  0.84342934  1
  Li  Li5  1  0.84617468  0.65657066  0.24944038  1
  Cr  Cr6  1  0.14210042  0.14485213  0.13850458  1
  Cr  Cr7  1  0.35789958  0.36149542  0.35514787  1
  Cr  Cr8  1  0.64457235  0.64569701  0.64533934  1
  Cr  Cr9  1  0.85542765  0.85466066  0.85430299  1
  P  P10  1  0.04766417  0.75089220  0.45173390  1
  P  P11  1  0.45233583  0.04826610  0.74910780  1
  P  P12  1  0.75000000  0.45573032  0.04426968  1
  P  P13  1  0.25000000  0.54005993  0.95994007  1
  P  P14  1  0.54151275  0.96307424  0.25037509  1
  P  P15  1  0.95848725  0.24962491  0.53692576  1
  O  O16  1  0.13037979  0.28701185  0.50096209  1
  O  O17  1  0.29419232  0.51434039  0.12326343  1
  O  O18  1  0.04560132  0.92394051  0.26922112  1
  O  O19  1  0.53012826  0.12326829  0.29285972  1
  O  O20  1  0.23824118  0.59196933  0.43013476  1
  O  O21  1  0.01838916  0.80397677  0.61435899  1
  O  O22  1  0.26175882  0.06986524  0.90803067  1
  O  O23  1  0.45439868  0.23077888  0.57605949  1
  O  O24  1  0.59188689  0.43233919  0.23867374  1
  O  O25  1  0.20580768  0.37673657  0.98565961  1
  O  O26  1  0.08729636  0.73448425  0.93380524  1
  O  O27  1  0.36962021  0.99903791  0.21298815  1
  O  O28  1  0.61440658  0.01600553  0.80567816  1
  O  O29  1  0.90811311  0.26132626  0.06766081  1
  O  O30  1  0.80565515  0.61508659  0.01559940  1
  O  O31  1  0.41270364  0.56619476  0.76551575  1
  O  O32  1  0.56533716  0.76945258  0.41263523  1
  O  O33  1  0.73275873  0.93381424  0.08586801  1
  O  O34  1  0.96987174  0.20714028  0.37673171  1
  O  O35  1  0.76724127  0.41413199  0.56618576  1
  O  O36  1  0.48161084  0.88564101  0.69602323  1
  O  O37  1  0.93466284  0.08736477  0.73054742  1
  O  O38  1  0.69434485  0.48440060  0.88491341  1
  O  O39  1  0.88559342  0.69432184  0.48399447  1
