# generated using pymatgen
data_V3Fe2Cu(PO4)6
_symmetry_space_group_name_H-M   'P 1'
_cell_length_a   8.46833403
_cell_length_b   8.64036047
_cell_length_c   8.64036078
_cell_angle_alpha   59.99999864
_cell_angle_beta   59.32571016
_cell_angle_gamma   59.32571211
_symmetry_Int_Tables_number   1
_chemical_formula_structural   V3Fe2Cu(PO4)6
_chemical_formula_sum   'V3 Fe2 Cu1 P6 O24'
_cell_volume   442.42985322
_cell_formula_units_Z   1
loop_
 _symmetry_equiv_pos_site_id
 _symmetry_equiv_pos_as_xyz
  1  'x, y, z'
loop_
 _atom_site_type_symbol
 _atom_site_label
 _atom_site_symmetry_multiplicity
 _atom_site_fract_x
 _atom_site_fract_y
 _atom_site_fract_z
 _atom_site_occupancy
  V  V0  1  0.06966357  0.64344514  0.64344514  1
  V  V1  1  0.42403434  0.85865555  0.85865555  1
  V  V2  1  0.92968912  0.35676996  0.35676996  1
  Fe  Fe3  1  0.99031719  0.00322727  0.00322727  1
  Fe  Fe4  1  0.49694084  0.50101972  0.50101972  1
  Cu  Cu5  1  0.56682073  0.14439309  0.14439309  1
  P  P6  1  0.25373708  0.24801977  0.54221336  1
  P  P7  1  0.25373708  0.95602980  0.24801977  1
  P  P8  1  0.25373708  0.54221336  0.95602980  1
  P  P9  1  0.75075912  0.45729128  0.04221647  1
  P  P10  1  0.75075912  0.04221647  0.74973313  1
  P  P11  1  0.75075912  0.74973313  0.45729128  1
  O  O12  1  0.06539566  0.12064766  0.31075212  1
  O  O13  1  0.06539566  0.50320556  0.12064766  1
  O  O14  1  0.06539566  0.31075212  0.50320556  1
  O  O15  1  0.22750964  0.08859434  0.74200936  1
  O  O16  1  0.44160786  0.18919280  0.38894401  1
  O  O17  1  0.26095821  0.41207857  0.56790548  1
  O  O18  1  0.22750964  0.94188665  0.08859434  1
  O  O19  1  0.26095821  0.75905673  0.41207857  1
  O  O20  1  0.56302744  0.62060873  0.00336458  1
  O  O21  1  0.26095821  0.56790548  0.75905673  1
  O  O22  1  0.78062610  0.26472002  0.05006451  1
  O  O23  1  0.56302744  0.00336458  0.81300025  1
  O  O24  1  0.44160786  0.98025533  0.18919280  1
  O  O25  1  0.22750964  0.74200936  0.94188665  1
  O  O26  1  0.72996992  0.44672699  0.23840769  1
  O  O27  1  0.44160786  0.38894401  0.98025533  1
  O  O28  1  0.72996992  0.23840769  0.58489440  1
  O  O29  1  0.78062610  0.05006451  0.90458937  1
  O  O30  1  0.72996992  0.58489440  0.44672699  1
  O  O31  1  0.56302744  0.81300025  0.62060873  1
  O  O32  1  0.78062610  0.90458937  0.26472002  1
  O  O33  1  0.93392071  0.67359614  0.50771480  1
  O  O34  1  0.93392071  0.50771480  0.88476835  1
  O  O35  1  0.93392071  0.88476835  0.67359614  1
