# generated using pymatgen
data_VCo(PO4)2
_symmetry_space_group_name_H-M   'P 1'
_cell_length_a   9.90301067
_cell_length_b   5.96264312
_cell_length_c   4.87588056
_cell_angle_alpha   90.00000000
_cell_angle_beta   88.90467164
_cell_angle_gamma   90.00000000
_symmetry_Int_Tables_number   1
_chemical_formula_structural   VCo(PO4)2
_chemical_formula_sum   'V2 Co2 P4 O16'
_cell_volume   287.85896428
_cell_formula_units_Z   2
loop_
 _symmetry_equiv_pos_site_id
 _symmetry_equiv_pos_as_xyz
  1  'x, y, z'
loop_
 _atom_site_type_symbol
 _atom_site_label
 _atom_site_symmetry_multiplicity
 _atom_site_fract_x
 _atom_site_fract_y
 _atom_site_fract_z
 _atom_site_occupancy
  V  V0  1  0.22609561  0.75000000  0.48364276  1
  V  V1  1  0.77390439  0.25000000  0.51635724  1
  Co  Co2  1  0.26713052  0.25000000  0.96841922  1
  Co  Co3  1  0.73286948  0.75000000  0.03158078  1
  P  P4  1  0.09636497  0.25000000  0.42868467  1
  P  P5  1  0.40100183  0.75000000  0.89971028  1
  P  P6  1  0.59899817  0.25000000  0.10028972  1
  P  P7  1  0.90363503  0.75000000  0.57131533  1
  O  O8  1  0.05835112  0.75000000  0.65197586  1
  O  O9  1  0.10479159  0.25000000  0.73645346  1
  O  O10  1  0.16530823  0.04401208  0.28304179  1
  O  O11  1  0.16530823  0.45598792  0.28304179  1
  O  O12  1  0.32623967  0.94857057  0.74656621  1
  O  O13  1  0.32623967  0.55142943  0.74656621  1
  O  O14  1  0.36340442  0.75000000  0.21067806  1
  O  O15  1  0.44912946  0.25000000  0.14352577  1
  O  O16  1  0.55087054  0.75000000  0.85647423  1
  O  O17  1  0.63659558  0.25000000  0.78932194  1
  O  O18  1  0.67376033  0.05142943  0.25343379  1
  O  O19  1  0.67376033  0.44857057  0.25343379  1
  O  O20  1  0.83469177  0.54401208  0.71695821  1
  O  O21  1  0.83469177  0.95598792  0.71695821  1
  O  O22  1  0.89520841  0.75000000  0.26354654  1
  O  O23  1  0.94164888  0.25000000  0.34802414  1
