# generated using pymatgen
data_LaTiNO2
_symmetry_space_group_name_H-M   'P 1'
_cell_length_a   5.61057162
_cell_length_b   5.62136000
_cell_length_c   7.94823656
_cell_angle_alpha   90.02001420
_cell_angle_beta   90.07790038
_cell_angle_gamma   89.27619854
_symmetry_Int_Tables_number   1
_chemical_formula_structural   LaTiNO2
_chemical_formula_sum   'La4 Ti4 N4 O8'
_cell_volume   250.65952599
_cell_formula_units_Z   4
loop_
 _symmetry_equiv_pos_site_id
 _symmetry_equiv_pos_as_xyz
  1  'x, y, z'
loop_
 _atom_site_type_symbol
 _atom_site_label
 _atom_site_symmetry_multiplicity
 _atom_site_fract_x
 _atom_site_fract_y
 _atom_site_fract_z
 _atom_site_occupancy
  La  La0  1  0.49412944  0.00715846  0.26210736  1
  La  La1  1  0.99279078  0.50666519  0.26331897  1
  La  La2  1  0.49250692  0.00558065  0.74487286  1
  La  La3  1  0.99390180  0.50509350  0.74456071  1
  Ti  Ti4  1  0.99384967  0.00440282  0.01601348  1
  Ti  Ti5  1  0.49483922  0.50696207  0.98778293  1
  Ti  Ti6  1  0.99469759  0.01890555  0.50081389  1
  Ti  Ti7  1  0.49561114  0.48780461  0.50810107  1
  N  N8  1  0.95003214  0.04662741  0.24493284  1
  N  N9  1  0.75038228  0.24804561  0.54894370  1
  N  N10  1  0.25063599  0.24994423  0.49984620  1
  N  N11  1  0.45292189  0.55233193  0.75355820  1
  O  O12  1  0.25413924  0.24565394  0.99718622  1
  O  O13  1  0.75279230  0.74758724  0.99795101  1
  O  O14  1  0.56124829  0.44532272  0.24551611  1
  O  O15  1  0.25270905  0.74628059  0.05537265  1
  O  O16  1  0.75460644  0.74625081  0.49710501  1
  O  O17  1  0.25574182  0.74861527  0.44171008  1
  O  O18  1  0.75375203  0.24690402  0.94229553  1
  O  O19  1  0.05865095  0.93392337  0.74807117  1
