# generated using pymatgen
data_Li4V2Cr3Sn3O16
_symmetry_space_group_name_H-M   'P 1'
_cell_length_a   6.09969880
_cell_length_b   6.13265673
_cell_length_c   9.63924418
_cell_angle_alpha   90.00158344
_cell_angle_beta   89.49181458
_cell_angle_gamma   120.18043748
_symmetry_Int_Tables_number   1
_chemical_formula_structural   Li4V2Cr3Sn3O16
_chemical_formula_sum   'Li4 V2 Cr3 Sn3 O16'
_cell_volume   311.68460926
_cell_formula_units_Z   1
loop_
 _symmetry_equiv_pos_site_id
 _symmetry_equiv_pos_as_xyz
  1  'x, y, z'
loop_
 _atom_site_type_symbol
 _atom_site_label
 _atom_site_symmetry_multiplicity
 _atom_site_fract_x
 _atom_site_fract_y
 _atom_site_fract_z
 _atom_site_occupancy
  Li  Li0  1  0.34112069  0.67058072  0.88745389  1
  Li  Li1  1  0.97418224  0.98708637  0.99067222  1
  Li  Li2  1  0.98607399  0.99304086  0.50131315  1
  Li  Li3  1  0.66993235  0.33498382  0.39869258  1
  V  V4  1  0.35421136  0.67711269  0.49714629  1
  V  V5  1  0.67732481  0.33867914  0.98467505  1
  Cr  Cr6  1  0.66081632  0.83040969  0.21454140  1
  Cr  Cr7  1  0.83332822  0.65599895  0.71496217  1
  Cr  Cr8  1  0.83333441  0.17735774  0.71496330  1
  Sn  Sn9  1  0.16880707  0.83064028  0.21364748  1
  Sn  Sn10  1  0.16878863  0.33818355  0.21364569  1
  Sn  Sn11  1  0.34079130  0.17040489  0.71401572  1
  O  O12  1  0.16321190  0.82916094  0.59365817  1
  O  O13  1  0.04295095  0.52149304  0.34940413  1
  O  O14  1  0.34324321  0.67163337  0.09869531  1
  O  O15  1  0.98952552  0.99477304  0.31618945  1
  O  O16  1  0.98907062  0.99455483  0.80530893  1
  O  O17  1  0.16321087  0.33404136  0.59364441  1
  O  O18  1  0.48363101  0.95643230  0.34531886  1
  O  O19  1  0.48361391  0.52723836  0.34531773  1
  O  O20  1  0.32510862  0.16256995  0.09454029  1
  O  O21  1  0.64688930  0.82344822  0.59680011  1
  O  O22  1  0.52754936  0.48722687  0.84211987  1
  O  O23  1  0.52754263  0.04034790  0.84211865  1
  O  O24  1  0.67712358  0.33855923  0.60342067  1
  O  O25  1  0.83428601  0.67238916  0.10003895  1
  O  O26  1  0.96005057  0.48005105  0.83550564  1
  O  O27  1  0.83428053  0.16190267  0.10003087  1
