# generated using pymatgen
data_Li3Fe2(PO4)3
_symmetry_space_group_name_H-M   'P 1'
_cell_length_a   8.54442012
_cell_length_b   8.60310083
_cell_length_c   8.60310127
_cell_angle_alpha   61.72075867
_cell_angle_beta   61.71496538
_cell_angle_gamma   61.71496369
_symmetry_Int_Tables_number   1
_chemical_formula_structural   Li3Fe2(PO4)3
_chemical_formula_sum   'Li6 Fe4 P6 O24'
_cell_volume   464.38284843
_cell_formula_units_Z   2
loop_
 _symmetry_equiv_pos_site_id
 _symmetry_equiv_pos_as_xyz
  1  'x, y, z'
loop_
 _atom_site_type_symbol
 _atom_site_label
 _atom_site_symmetry_multiplicity
 _atom_site_fract_x
 _atom_site_fract_y
 _atom_site_fract_z
 _atom_site_occupancy
  Li  Li0  1  0.02390029  0.00557176  0.99628146  1
  Li  Li1  1  0.75000000  0.14966400  0.35033600  1
  Li  Li2  1  0.47609971  0.50371854  0.49442824  1
  Li  Li3  1  0.25000000  0.84748957  0.65251043  1
  Li  Li4  1  0.65517875  0.25147400  0.84485902  1
  Li  Li5  1  0.84482125  0.65514098  0.24852600  1
  Fe  Fe6  1  0.14752770  0.14619812  0.13673128  1
  Fe  Fe7  1  0.35247230  0.36326872  0.35380188  1
  Fe  Fe8  1  0.64765478  0.64779966  0.64880154  1
  Fe  Fe9  1  0.85234522  0.85119846  0.85220034  1
  P  P10  1  0.05028710  0.75164789  0.44872548  1
  P  P11  1  0.44971290  0.05127452  0.74835211  1
  P  P12  1  0.75000000  0.45130142  0.04869858  1
  P  P13  1  0.25000000  0.54453995  0.95546005  1
  P  P14  1  0.54685594  0.96062438  0.25105225  1
  P  P15  1  0.95314406  0.24894775  0.53937562  1
  O  O16  1  0.12606098  0.29500659  0.49316776  1
  O  O17  1  0.30592935  0.50830108  0.11710427  1
  O  O18  1  0.04624939  0.92111928  0.26764734  1
  O  O19  1  0.53108319  0.11855171  0.30085987  1
  O  O20  1  0.24044388  0.59468828  0.42910327  1
  O  O21  1  0.01531838  0.80851576  0.61206952  1
  O  O22  1  0.25955612  0.07089673  0.90531172  1
  O  O23  1  0.45375061  0.23235266  0.57888072  1
  O  O24  1  0.59404358  0.43130836  0.24134747  1
  O  O25  1  0.19407065  0.38289573  0.99169892  1
  O  O26  1  0.08994930  0.73727286  0.93406716  1
  O  O27  1  0.37393902  0.00683224  0.20499341  1
  O  O28  1  0.61115788  0.01168311  0.81223776  1
  O  O29  1  0.90595642  0.25865253  0.06869164  1
  O  O30  1  0.81105250  0.61133964  0.01287412  1
  O  O31  1  0.41005070  0.56593284  0.76272714  1
  O  O32  1  0.56442718  0.76800439  0.41063853  1
  O  O33  1  0.73606263  0.93240128  0.08793498  1
  O  O34  1  0.96891681  0.19914013  0.38144829  1
  O  O35  1  0.76393737  0.41206502  0.56759872  1
  O  O36  1  0.48468162  0.88793048  0.69148424  1
  O  O37  1  0.93557282  0.08936147  0.73199561  1
  O  O38  1  0.68894750  0.48712588  0.88866036  1
  O  O39  1  0.88884212  0.68776224  0.48831689  1
