# generated using pymatgen
data_LiV3OF11
_symmetry_space_group_name_H-M   'P 1'
_cell_length_a   5.28681345
_cell_length_b   5.45257560
_cell_length_c   15.46025628
_cell_angle_alpha   80.23247953
_cell_angle_beta   89.90826031
_cell_angle_gamma   89.51882717
_symmetry_Int_Tables_number   1
_chemical_formula_structural   LiV3OF11
_chemical_formula_sum   'Li2 V6 O2 F22'
_cell_volume   439.19313217
_cell_formula_units_Z   2
loop_
 _symmetry_equiv_pos_site_id
 _symmetry_equiv_pos_as_xyz
  1  'x, y, z'
loop_
 _atom_site_type_symbol
 _atom_site_label
 _atom_site_symmetry_multiplicity
 _atom_site_fract_x
 _atom_site_fract_y
 _atom_site_fract_z
 _atom_site_occupancy
  Li  Li0  1  0.81293221  0.69988041  0.16068719  1
  Li  Li1  1  0.23072123  0.18565528  0.17656602  1
  V  V2  1  0.47279284  0.85858685  0.33969583  1
  V  V3  1  0.01296649  0.00843894  0.99859806  1
  V  V4  1  0.00057417  0.66645318  0.66727866  1
  V  V5  1  0.50537694  0.50625956  0.98950216  1
  V  V6  1  0.00161220  0.32765684  0.34437803  1
  V  V7  1  0.50045565  0.16632439  0.66733215  1
  O  O8  1  0.06911978  0.95929742  0.10876782  1
  O  O9  1  0.28148301  0.12343526  0.31242492  1
  F  F10  1  0.19901295  0.97566280  0.64454265  1
  F  F11  1  0.31470181  0.81188426  0.97075731  1
  F  F12  1  0.69882398  0.85563069  0.69081023  1
  F  F13  1  0.08705382  0.62444500  0.77906491  1
  F  F14  1  0.43436555  0.76115071  0.45497823  1
  F  F15  1  0.92043786  0.70792855  0.55457878  1
  F  F16  1  0.57613369  0.87671029  0.21842160  1
  F  F17  1  0.60090942  0.53937270  0.88026514  1
  F  F18  1  0.20323685  0.62769854  0.31519689  1
  F  F19  1  0.30241497  0.47595041  0.64334933  1
  F  F20  1  0.20340774  0.32545832  0.96994837  1
  F  F21  1  0.79460804  0.68243115  0.02771280  1
  F  F22  1  0.71043271  0.53667609  0.35111306  1
  F  F23  1  0.80110505  0.35820629  0.68925046  1
  F  F24  1  0.41425964  0.45820343  0.10822107  1
  F  F25  1  0.08503402  0.29062271  0.45491498  1
  F  F26  1  0.41574242  0.12893169  0.77908339  1
  F  F27  1  0.94085461  0.37967258  0.22027743  1
  F  F28  1  0.58393987  0.20114077  0.55491248  1
  F  F29  1  0.89763088  0.02694398  0.88732423  1
  F  F30  1  0.69114983  0.20002041  0.01943662  1
  F  F31  1  0.78840477  0.04038050  0.35926520  1
