# generated using pymatgen
data_Li3Mn4(BO3)4
_symmetry_space_group_name_H-M   'P 1'
_cell_length_a   5.89123720
_cell_length_b   5.26504384
_cell_length_c   8.25708812
_cell_angle_alpha   90.91192120
_cell_angle_beta   78.09881910
_cell_angle_gamma   89.84421960
_symmetry_Int_Tables_number   1
_chemical_formula_structural   Li3Mn4(BO3)4
_chemical_formula_sum   'Li3 Mn4 B4 O12'
_cell_volume   250.57351887
_cell_formula_units_Z   1
loop_
 _symmetry_equiv_pos_site_id
 _symmetry_equiv_pos_as_xyz
  1  'x, y, z'
loop_
 _atom_site_type_symbol
 _atom_site_label
 _atom_site_symmetry_multiplicity
 _atom_site_fract_x
 _atom_site_fract_y
 _atom_site_fract_z
 _atom_site_occupancy
  Li  Li0  1  0.43847814  0.83864467  0.22536734  1
  Li  Li1  1  0.53911587  0.15451536  0.77059744  1
  Li  Li2  1  0.95839498  0.33993765  0.72083262  1
  Mn  Mn3  1  0.17117619  0.81082391  0.57462815  1
  Mn  Mn4  1  0.30921557  0.67733844  0.92937699  1
  Mn  Mn5  1  0.67906443  0.32935948  0.07823343  1
  Mn  Mn6  1  0.83827423  0.17844118  0.40887157  1
  B  B7  1  0.16796254  0.17580392  0.08764220  1
  B  B8  1  0.34441402  0.32465606  0.40803747  1
  B  B9  1  0.66269084  0.67411079  0.60168945  1
  B  B10  1  0.82763512  0.83026965  0.90361580  1
  O  O11  1  0.18199879  0.92160180  0.11625530  1
  O  O12  1  0.01395137  0.68108587  0.81675167  1
  O  O13  1  0.16429529  0.20462724  0.51705113  1
  O  O14  1  0.34999480  0.58318521  0.39074466  1
  O  O15  1  0.51996758  0.17308416  0.31180115  1
  O  O16  1  0.64606218  0.70816775  0.00886452  1
  O  O17  1  0.34581603  0.29685034  0.97640508  1
  O  O18  1  0.46281868  0.81116071  0.68331983  1
  O  O19  1  0.68138467  0.41597501  0.61838412  1
  O  O20  1  0.84675559  0.81944768  0.51823594  1
  O  O21  1  0.98142594  0.31634097  0.17501423  1
  O  O22  1  0.82025715  0.08594017  0.87564290  1
