# generated using pymatgen
data_Ti3CuSn2(PO4)6
_symmetry_space_group_name_H-M   'P 1'
_cell_length_a   9.01160949
_cell_length_b   9.01160884
_cell_length_c   9.01160936
_cell_angle_alpha   57.39493002
_cell_angle_beta   57.39492546
_cell_angle_gamma   57.39493249
_symmetry_Int_Tables_number   1
_chemical_formula_structural   Ti3CuSn2(PO4)6
_chemical_formula_sum   'Ti3 Cu1 Sn2 P6 O24'
_cell_volume   486.45660044
_cell_formula_units_Z   1
loop_
 _symmetry_equiv_pos_site_id
 _symmetry_equiv_pos_as_xyz
  1  'x, y, z'
loop_
 _atom_site_type_symbol
 _atom_site_label
 _atom_site_symmetry_multiplicity
 _atom_site_fract_x
 _atom_site_fract_y
 _atom_site_fract_z
 _atom_site_occupancy
  Ti  Ti0  1  0.14441844  0.14441844  0.14441844  1
  Ti  Ti1  1  0.35234698  0.35234698  0.35234698  1
  Ti  Ti2  1  0.65046498  0.65046498  0.65046498  1
  Cu  Cu3  1  0.84834549  0.84834549  0.84834549  1
  Sn  Sn4  1  0.98792987  0.98792987  0.98792987  1
  Sn  Sn5  1  0.50153257  0.50153257  0.50153257  1
  P  P6  1  0.04122551  0.75164262  0.46249083  1
  P  P7  1  0.46249083  0.04122551  0.75164262  1
  P  P8  1  0.25250325  0.53527498  0.96231839  1
  P  P9  1  0.53527498  0.96231839  0.25250325  1
  P  P10  1  0.96231839  0.25250325  0.53527498  1
  P  P11  1  0.75164262  0.46249083  0.04122551  1
  O  O12  1  0.12383214  0.30227181  0.49349712  1
  O  O13  1  0.30227181  0.49349712  0.12383214  1
  O  O14  1  0.06431348  0.92338656  0.27628067  1
  O  O15  1  0.49349712  0.12383214  0.30227181  1
  O  O16  1  0.02218267  0.78274180  0.62019124  1
  O  O17  1  0.22284655  0.57810824  0.42735210  1
  O  O18  1  0.27628067  0.06431348  0.92338656  1
  O  O19  1  0.42735210  0.22284655  0.57810824  1
  O  O20  1  0.21009342  0.37212124  0.99700141  1
  O  O21  1  0.57810824  0.42735210  0.22284655  1
  O  O22  1  0.08390193  0.71971444  0.94463406  1
  O  O23  1  0.37212124  0.99700141  0.21009342  1
  O  O24  1  0.62019124  0.02218267  0.78274180  1
  O  O25  1  0.92338656  0.27628067  0.06431348  1
  O  O26  1  0.42748262  0.55688118  0.77762722  1
  O  O27  1  0.78274180  0.62019124  0.02218267  1
  O  O28  1  0.55688118  0.77762722  0.42748262  1
  O  O29  1  0.71971444  0.94463406  0.08390193  1
  O  O30  1  0.77762722  0.42748262  0.55688118  1
  O  O31  1  0.99700141  0.21009342  0.37212124  1
  O  O32  1  0.49829492  0.87146725  0.71328399  1
  O  O33  1  0.94463406  0.08390193  0.71971444  1
  O  O34  1  0.71328399  0.49829492  0.87146725  1
  O  O35  1  0.87146725  0.71328399  0.49829492  1
