# generated using pymatgen
data_Li3Fe2F7
_symmetry_space_group_name_H-M   'P 1'
_cell_length_a   5.12944002
_cell_length_b   5.93479233
_cell_length_c   10.33745424
_cell_angle_alpha   99.88368262
_cell_angle_beta   90.00000000
_cell_angle_gamma   64.39592317
_symmetry_Int_Tables_number   1
_chemical_formula_structural   Li3Fe2F7
_chemical_formula_sum   'Li6 Fe4 F14'
_cell_volume   278.60381901
_cell_formula_units_Z   2
loop_
 _symmetry_equiv_pos_site_id
 _symmetry_equiv_pos_as_xyz
  1  'x, y, z'
loop_
 _atom_site_type_symbol
 _atom_site_label
 _atom_site_symmetry_multiplicity
 _atom_site_fract_x
 _atom_site_fract_y
 _atom_site_fract_z
 _atom_site_occupancy
  Li  Li0  1  0.30929224  0.88521825  0.86706113  1
  Li  Li1  1  0.80548951  0.88521825  0.36706113  1
  Li  Li2  1  0.50000000  0.50000000  0.50000000  1
  Li  Li3  1  0.00000000  0.50000000  0.00000000  1
  Li  Li4  1  0.19451049  0.11478175  0.63293887  1
  Li  Li5  1  0.69070776  0.11478175  0.13293887  1
  Fe  Fe6  1  0.91338184  0.66627184  0.65493749  1
  Fe  Fe7  1  0.42034632  0.66627184  0.15493749  1
  Fe  Fe8  1  0.57965368  0.33372816  0.84506251  1
  Fe  Fe9  1  0.08661816  0.33372816  0.34506251  1
  F  F10  1  0.58623973  0.68308001  0.96903164  1
  F  F11  1  0.17143650  0.59208375  0.82162876  1
  F  F12  1  0.16592457  0.81460089  0.60240316  1
  F  F13  1  0.73068026  0.68308001  0.46903164  1
  F  F14  1  0.23648075  0.59208375  0.32162876  1
  F  F15  1  0.01947455  0.81460089  0.10240316  1
  F  F16  1  0.98052545  0.18539911  0.89759684  1
  F  F17  1  0.76351925  0.40791625  0.67837124  1
  F  F18  1  0.26931974  0.31691999  0.53096836  1
  F  F19  1  0.83407543  0.18539911  0.39759684  1
  F  F20  1  0.53313262  0.00000000  0.75000000  1
  F  F21  1  0.82856350  0.40791625  0.17837124  1
  F  F22  1  0.41376027  0.31691999  0.03096836  1
  F  F23  1  0.46686738  0.00000000  0.25000000  1
