# generated using pymatgen
data_LiFeF3
_symmetry_space_group_name_H-M   'P 1'
_cell_length_a   5.80141261
_cell_length_b   5.84842556
_cell_length_c   23.26951872
_cell_angle_alpha   89.99659275
_cell_angle_beta   89.95894445
_cell_angle_gamma   59.88322225
_symmetry_Int_Tables_number   1
_chemical_formula_structural   LiFeF3
_chemical_formula_sum   'Li12 Fe12 F36'
_cell_volume   682.93341833
_cell_formula_units_Z   12
loop_
 _symmetry_equiv_pos_site_id
 _symmetry_equiv_pos_as_xyz
  1  'x, y, z'
loop_
 _atom_site_type_symbol
 _atom_site_label
 _atom_site_symmetry_multiplicity
 _atom_site_fract_x
 _atom_site_fract_y
 _atom_site_fract_z
 _atom_site_occupancy
  Li  Li0  1  0.99685235  0.67892640  0.62347607  1
  Li  Li1  1  0.31829187  0.00467354  0.62372259  1
  Li  Li2  1  0.34091677  0.99598007  0.12679301  1
  Li  Li3  1  0.32828463  0.67529253  0.37646937  1
  Li  Li4  1  0.32988130  0.66576510  0.87274424  1
  Li  Li5  1  0.99637880  0.33792831  0.87259442  1
  Li  Li6  1  0.00362120  0.66207169  0.12740558  1
  Li  Li7  1  0.67011870  0.33423490  0.12725576  1
  Li  Li8  1  0.67171537  0.32470747  0.62353063  1
  Li  Li9  1  0.65908323  0.00401993  0.87320699  1
  Li  Li10  1  0.68170813  0.99532646  0.37627741  1
  Li  Li11  1  0.00314765  0.32107360  0.37652393  1
  Fe  Fe12  1  0.66846708  0.66471263  0.98532905  1
  Fe  Fe13  1  0.67335296  0.66161174  0.23787801  1
  Fe  Fe14  1  0.99260926  0.00406430  0.76044966  1
  Fe  Fe15  1  0.65846330  0.67328175  0.73222365  1
  Fe  Fe16  1  0.66683442  0.66636228  0.48409177  1
  Fe  Fe17  1  0.33316558  0.33363772  0.51590823  1
  Fe  Fe18  1  0.34153670  0.32671825  0.26777635  1
  Fe  Fe19  1  0.00739074  0.99593570  0.23955034  1
  Fe  Fe20  1  0.32664704  0.33838826  0.76212199  1
  Fe  Fe21  1  0.33153292  0.33528737  0.01467095  1
  Fe  Fe22  1  0.00000000  0.00000000  0.00000000  1
  Fe  Fe23  1  0.00000000  0.00000000  0.50000000  1
  F  F24  1  0.66616728  0.95390628  0.78849265  1
  F  F25  1  0.65328444  0.05021561  0.96112438  1
  F  F26  1  0.95063625  0.69462055  0.03960485  1
  F  F27  1  0.05312933  0.62250840  0.21171575  1
  F  F28  1  0.35664603  0.95824334  0.53739002  1
  F  F29  1  0.28150674  0.05421916  0.71225787  1
  F  F30  1  0.66197718  0.66570649  0.64393188  1
  F  F31  1  0.66943244  0.66250921  0.39287538  1
  F  F32  1  0.00392072  0.99877249  0.38421313  1
  F  F33  1  0.00456197  0.99791409  0.13727416  1
  F  F34  1  0.66775291  0.66535209  0.14395963  1
  F  F35  1  0.65758440  0.67427162  0.89630732  1
  F  F36  1  0.95664422  0.33993931  0.28858558  1
  F  F37  1  0.36477969  0.67999416  0.78792538  1
  F  F38  1  0.04987915  0.31253079  0.46223818  1
  F  F39  1  0.29989819  0.64362467  0.96070008  1
  F  F40  1  0.33925395  0.70570435  0.28795455  1
  F  F41  1  0.31150658  0.64249653  0.46255121  1
  F  F42  1  0.68849342  0.35750347  0.53744879  1
  F  F43  1  0.66074605  0.29429565  0.71204545  1
  F  F44  1  0.70010181  0.35637533  0.03929992  1
  F  F45  1  0.95012085  0.68746921  0.53776182  1
  F  F46  1  0.63522031  0.32000584  0.21207462  1
  F  F47  1  0.04335578  0.66006069  0.71141442  1
  F  F48  1  0.34241560  0.32572838  0.10369268  1
  F  F49  1  0.33224709  0.33464791  0.85604037  1
  F  F50  1  0.99543803  0.00208591  0.86272584  1
  F  F51  1  0.99607928  0.00122751  0.61578687  1
  F  F52  1  0.33056756  0.33749079  0.60712462  1
  F  F53  1  0.33802282  0.33429351  0.35606812  1
  F  F54  1  0.71849326  0.94578084  0.28774213  1
  F  F55  1  0.64335397  0.04175666  0.46260998  1
  F  F56  1  0.94687067  0.37749160  0.78828425  1
  F  F57  1  0.04936375  0.30537945  0.96039515  1
  F  F58  1  0.34671556  0.94978439  0.03887562  1
  F  F59  1  0.33383272  0.04609372  0.21150735  1
