# generated using pymatgen
data_Li5Mn2Fe17O32
_symmetry_space_group_name_H-M   'P 1'
_cell_length_a   8.45437883
_cell_length_b   8.47448208
_cell_length_c   8.47731798
_cell_angle_alpha   89.86842164
_cell_angle_beta   90.00141403
_cell_angle_gamma   89.91282532
_symmetry_Int_Tables_number   1
_chemical_formula_structural   Li5Mn2Fe17O32
_chemical_formula_sum   'Li5 Mn2 Fe17 O32'
_cell_volume   607.36770449
_cell_formula_units_Z   1
loop_
 _symmetry_equiv_pos_site_id
 _symmetry_equiv_pos_as_xyz
  1  'x, y, z'
loop_
 _atom_site_type_symbol
 _atom_site_label
 _atom_site_symmetry_multiplicity
 _atom_site_fract_x
 _atom_site_fract_y
 _atom_site_fract_z
 _atom_site_occupancy
  Li  Li0  1  0.99605204  0.49774299  0.49651768  1
  Li  Li1  1  0.12478304  0.87117505  0.37577679  1
  Li  Li2  1  0.37590153  0.12485304  0.87397182  1
  Li  Li3  1  0.62730418  0.62437918  0.62523604  1
  Li  Li4  1  0.87553761  0.37657992  0.12930682  1
  Mn  Mn5  1  0.12739989  0.12497477  0.62631679  1
  Mn  Mn6  1  0.12328045  0.62564495  0.13018018  1
  Fe  Fe7  1  0.99763994  0.99675138  0.99723337  1
  Fe  Fe8  1  0.12580085  0.36988345  0.87742037  1
  Fe  Fe9  1  0.25056800  0.25509943  0.25655547  1
  Fe  Fe10  1  0.24734237  0.75243001  0.75093050  1
  Fe  Fe11  1  0.37781762  0.37512691  0.63071433  1
  Fe  Fe12  1  0.37080544  0.62969752  0.37978224  1
  Fe  Fe13  1  0.37130073  0.88174045  0.12588941  1
  Fe  Fe14  1  0.49808862  0.00041574  0.49726291  1
  Fe  Fe15  1  0.49805842  0.49902729  0.00012765  1
  Fe  Fe16  1  0.62509762  0.13059287  0.11969966  1
  Fe  Fe17  1  0.63799626  0.38197945  0.37655047  1
  Fe  Fe18  1  0.61944553  0.87547318  0.86931820  1
  Fe  Fe19  1  0.75442715  0.25113357  0.74877160  1
  Fe  Fe20  1  0.75501575  0.75002387  0.25218933  1
  Fe  Fe21  1  0.87994419  0.12986529  0.36949452  1
  Fe  Fe22  1  0.86989348  0.61901406  0.86859182  1
  Fe  Fe23  1  0.87409984  0.86244946  0.61838904  1
  O  O24  1  0.11905653  0.12899753  0.39270438  1
  O  O25  1  0.11826901  0.61680098  0.88964838  1
  O  O26  1  0.12982509  0.39181516  0.11661076  1
  O  O27  1  0.11760841  0.89416977  0.62708537  1
  O  O28  1  0.12330831  0.13046484  0.86051961  1
  O  O29  1  0.13781186  0.35112513  0.63945893  1
  O  O30  1  0.13809857  0.62855871  0.34848913  1
  O  O31  1  0.13323318  0.85883446  0.12035461  1
  O  O32  1  0.35671829  0.12987027  0.62366592  1
  O  O33  1  0.35921970  0.63432694  0.13036700  1
  O  O34  1  0.36592649  0.37468936  0.86634255  1
  O  O35  1  0.37531156  0.86603914  0.36438205  1
  O  O36  1  0.38551980  0.38471844  0.38670578  1
  O  O37  1  0.37753626  0.11659074  0.12761025  1
  O  O38  1  0.38351490  0.87382193  0.88452630  1
  O  O39  1  0.36645728  0.61671598  0.61577886  1
  O  O40  1  0.61387885  0.37033836  0.61809426  1
  O  O41  1  0.61501595  0.61772747  0.36953757  1
  O  O42  1  0.62744850  0.11659257  0.88334125  1
  O  O43  1  0.61613656  0.88366427  0.11596565  1
  O  O44  1  0.63180319  0.12999491  0.36538817  1
  O  O45  1  0.62085989  0.36460422  0.13304950  1
  O  O46  1  0.63303172  0.63510687  0.88139563  1
  O  O47  1  0.63190013  0.88072592  0.63451728  1
  O  O48  1  0.85903885  0.35530272  0.37045824  1
  O  O49  1  0.86383477  0.86691880  0.86701919  1
  O  O50  1  0.87163525  0.11954775  0.13378876  1
  O  O51  1  0.87646483  0.63906945  0.64042360  1
  O  O52  1  0.89284767  0.11775483  0.61862229  1
  O  O53  1  0.89542374  0.62757169  0.11795373  1
  O  O54  1  0.88654167  0.38275240  0.87682113  1
  O  O55  1  0.87312361  0.88873459  0.38314787  1
