# generated using pymatgen
data_Li3CrH12(CO3)6
_symmetry_space_group_name_H-M   'P 1'
_cell_length_a   9.42754733
_cell_length_b   12.02556180
_cell_length_c   8.12267421
_cell_angle_alpha   104.51166430
_cell_angle_beta   109.44382268
_cell_angle_gamma   92.01573514
_symmetry_Int_Tables_number   1
_chemical_formula_structural   Li3CrH12(CO3)6
_chemical_formula_sum   'Li6 Cr2 H24 C12 O36'
_cell_volume   833.53406733
_cell_formula_units_Z   2
loop_
 _symmetry_equiv_pos_site_id
 _symmetry_equiv_pos_as_xyz
  1  'x, y, z'
loop_
 _atom_site_type_symbol
 _atom_site_label
 _atom_site_symmetry_multiplicity
 _atom_site_fract_x
 _atom_site_fract_y
 _atom_site_fract_z
 _atom_site_occupancy
  Li  Li0  1  0.06961510  0.11192949  0.98495941  1
  Li  Li1  1  0.10418448  0.40394407  0.03712111  1
  Li  Li2  1  0.20974267  0.07393864  0.42977211  1
  Li  Li3  1  0.79025733  0.92606136  0.57022789  1
  Li  Li4  1  0.89581552  0.59605593  0.96287889  1
  Li  Li5  1  0.93038490  0.88807051  0.01504059  1
  Cr  Cr6  1  0.33255433  0.71225478  0.70184403  1
  Cr  Cr7  1  0.66744567  0.28774522  0.29815597  1
  H  H8  1  0.03700198  0.88204810  0.34948274  1
  H  H9  1  0.21610458  0.50928914  0.86897833  1
  H  H10  1  0.17763019  0.21384815  0.70791919  1
  H  H11  1  0.12230004  0.26147675  0.53660241  1
  H  H12  1  0.17203573  0.86664250  0.27731872  1
  H  H13  1  0.33497554  0.98514974  0.70144623  1
  H  H14  1  0.42719461  0.38806460  0.83672474  1
  H  H15  1  0.46106070  0.44181784  0.69542886  1
  H  H16  1  0.45610990  0.08131740  0.70050188  1
  H  H17  1  0.40487154  0.83337407  0.40350230  1
  H  H18  1  0.34396942  0.50500749  0.04560703  1
  H  H19  1  0.40105214  0.74069682  0.23391792  1
  H  H20  1  0.59894786  0.25930318  0.76608208  1
  H  H21  1  0.65603058  0.49499251  0.95439297  1
  H  H22  1  0.59512846  0.16662593  0.59649770  1
  H  H23  1  0.54389010  0.91868260  0.29949812  1
  H  H24  1  0.53893930  0.55818216  0.30457114  1
  H  H25  1  0.57280539  0.61193540  0.16327526  1
  H  H26  1  0.66502446  0.01485026  0.29855377  1
  H  H27  1  0.82796427  0.13335750  0.72268128  1
  H  H28  1  0.87769996  0.73852325  0.46339759  1
  H  H29  1  0.82236981  0.78615185  0.29208081  1
  H  H30  1  0.78389542  0.49071086  0.13102167  1
  H  H31  1  0.96299802  0.11795190  0.65051726  1
  C  C32  1  0.11664089  0.73762819  0.86978053  1
  C  C33  1  0.16640650  0.86105731  0.86528832  1
  C  C34  1  0.15834323  0.59823199  0.34218703  1
  C  C35  1  0.27015653  0.51359574  0.40925635  1
  C  C36  1  0.37737981  0.18941511  0.24701183  1
  C  C37  1  0.36407671  0.22440761  0.07152122  1
  C  C38  1  0.63592329  0.77559239  0.92847878  1
  C  C39  1  0.62262019  0.81058489  0.75298817  1
  C  C40  1  0.72984347  0.48640426  0.59074365  1
  C  C41  1  0.84165677  0.40176801  0.65781297  1
  C  C42  1  0.83359350  0.13894269  0.13471168  1
  C  C43  1  0.88335911  0.26237181  0.13021947  1
  O  O44  1  0.01697211  0.72605934  0.93469523  1
  O  O45  1  0.09959865  0.94130310  0.91914130  1
  O  O46  1  0.18397970  0.65581297  0.80240211  1
  O  O47  1  0.12051598  0.19115252  0.57489198  1
  O  O48  1  0.23878106  0.20301124  0.94481508  1
  O  O49  1  0.26181169  0.45447942  0.93667697  1
  O  O50  1  0.09293176  0.91684753  0.28818181  1
  O  O51  1  0.06882826  0.56777519  0.18212378  1
  O  O52  1  0.16752300  0.69444521  0.46157287  1
  O  O53  1  0.27485458  0.86854153  0.80275548  1
  O  O54  1  0.26950438  0.42028667  0.30159206  1
  O  O55  1  0.35671263  0.54979794  0.57982479  1
  O  O56  1  0.35814464  0.03216894  0.62872593  1
  O  O57  1  0.26352160  0.14029611  0.25720622  1
  O  O58  1  0.51217390  0.72691721  0.92853308  1
  O  O59  1  0.36998389  0.81818250  0.27058211  1
  O  O60  1  0.50317124  0.39447518  0.77950809  1
  O  O61  1  0.48845424  0.78651178  0.63012966  1
  O  O62  1  0.51154576  0.21348822  0.36987034  1
  O  O63  1  0.49682876  0.60552482  0.22049191  1
  O  O64  1  0.63001611  0.18181750  0.72941789  1
  O  O65  1  0.48782610  0.27308279  0.07146692  1
  O  O66  1  0.73647840  0.85970389  0.74279378  1
  O  O67  1  0.64185536  0.96783106  0.37127407  1
  O  O68  1  0.64328737  0.45020206  0.42017521  1
  O  O69  1  0.73049562  0.57971333  0.69840794  1
  O  O70  1  0.72514542  0.13145847  0.19724452  1
  O  O71  1  0.83247700  0.30555479  0.53842713  1
  O  O72  1  0.93117174  0.43222481  0.81787622  1
  O  O73  1  0.90706824  0.08315247  0.71181819  1
  O  O74  1  0.73818831  0.54552058  0.06332303  1
  O  O75  1  0.76121894  0.79698876  0.05518492  1
  O  O76  1  0.87948402  0.80884748  0.42510802  1
  O  O77  1  0.81602030  0.34418703  0.19759789  1
  O  O78  1  0.90040135  0.05869690  0.08085870  1
  O  O79  1  0.98302789  0.27394066  0.06530477  1
