# generated using pymatgen
data_LiFeF4
_symmetry_space_group_name_H-M   'P 1'
_cell_length_a   11.11822772
_cell_length_b   5.69387163
_cell_length_c   4.95119567
_cell_angle_alpha   90.00000000
_cell_angle_beta   90.00000000
_cell_angle_gamma   90.00000000
_symmetry_Int_Tables_number   1
_chemical_formula_structural   LiFeF4
_chemical_formula_sum   'Li4 Fe4 F16'
_cell_volume   313.43921168
_cell_formula_units_Z   4
loop_
 _symmetry_equiv_pos_site_id
 _symmetry_equiv_pos_as_xyz
  1  'x, y, z'
loop_
 _atom_site_type_symbol
 _atom_site_label
 _atom_site_symmetry_multiplicity
 _atom_site_fract_x
 _atom_site_fract_y
 _atom_site_fract_z
 _atom_site_occupancy
  Li  Li0  1  0.07172001  0.25000000  0.40195911  1
  Li  Li1  1  0.42827999  0.75000000  0.90195911  1
  Li  Li2  1  0.57172001  0.25000000  0.09804089  1
  Li  Li3  1  0.92827999  0.75000000  0.59804089  1
  Fe  Fe4  1  0.24294617  0.75000000  0.45737125  1
  Fe  Fe5  1  0.25705383  0.25000000  0.95737125  1
  Fe  Fe6  1  0.74294617  0.75000000  0.04262875  1
  Fe  Fe7  1  0.75705383  0.25000000  0.54262875  1
  F  F8  1  0.09242673  0.75000000  0.63046713  1
  F  F9  1  0.11262910  0.25000000  0.76539928  1
  F  F10  1  0.18358149  0.02034507  0.22983224  1
  F  F11  1  0.18358149  0.47965493  0.22983224  1
  F  F12  1  0.31641851  0.97965493  0.72983224  1
  F  F13  1  0.31641851  0.52034507  0.72983224  1
  F  F14  1  0.38737090  0.75000000  0.26539928  1
  F  F15  1  0.40757327  0.25000000  0.13046713  1
  F  F16  1  0.59242673  0.75000000  0.86953287  1
  F  F17  1  0.61262910  0.25000000  0.73460072  1
  F  F18  1  0.68358149  0.02034507  0.27016776  1
  F  F19  1  0.68358149  0.47965493  0.27016776  1
  F  F20  1  0.81641851  0.52034507  0.77016776  1
  F  F21  1  0.81641851  0.97965493  0.77016776  1
  F  F22  1  0.88737090  0.75000000  0.23460072  1
  F  F23  1  0.90757327  0.25000000  0.36953287  1
