# generated using pymatgen
data_Li3VF6
_symmetry_space_group_name_H-M   'P 1'
_cell_length_a   5.33457852
_cell_length_b   9.14198171
_cell_length_c   9.43202761
_cell_angle_alpha   88.18968428
_cell_angle_beta   90.04413501
_cell_angle_gamma   73.18126434
_symmetry_Int_Tables_number   1
_chemical_formula_structural   Li3VF6
_chemical_formula_sum   'Li12 V4 F24'
_cell_volume   440.06761319
_cell_formula_units_Z   4
loop_
 _symmetry_equiv_pos_site_id
 _symmetry_equiv_pos_as_xyz
  1  'x, y, z'
loop_
 _atom_site_type_symbol
 _atom_site_label
 _atom_site_symmetry_multiplicity
 _atom_site_fract_x
 _atom_site_fract_y
 _atom_site_fract_z
 _atom_site_occupancy
  Li  Li0  1  0.86224814  0.83909000  0.95086843  1
  Li  Li1  1  0.29984250  0.83899270  0.44803394  1
  Li  Li2  1  0.39297151  0.64616492  0.82062023  1
  Li  Li3  1  0.82201994  0.78175270  0.60146161  1
  Li  Li4  1  0.95751523  0.64609670  0.31995952  1
  Li  Li5  1  0.39354801  0.78382654  0.10071847  1
  Li  Li6  1  0.60556694  0.21706470  0.89978120  1
  Li  Li7  1  0.03250413  0.35561578  0.67968560  1
  Li  Li8  1  0.17521180  0.21856543  0.40033547  1
  Li  Li9  1  0.60519656  0.35572628  0.18138903  1
  Li  Li10  1  0.69452692  0.16138796  0.55206668  1
  Li  Li11  1  0.13704610  0.16230383  0.05139926  1
  V  V12  1  0.49745339  0.50055396  0.50038799  1
  V  V13  1  0.99879072  0.49969226  0.00111847  1
  V  V14  1  0.20390492  0.00029838  0.74996972  1
  V  V15  1  0.79571002  0.00207021  0.25112875  1
  F  F16  1  0.25223868  0.96346472  0.96262356  1
  F  F17  1  0.00228938  0.84699310  0.76121554  1
  F  F18  1  0.49953422  0.82365565  0.71498279  1
  F  F19  1  0.78506486  0.96306562  0.46322547  1
  F  F20  1  0.14984708  0.84946812  0.25967393  1
  F  F21  1  0.67549488  0.82564345  0.21422600  1
  F  F22  1  0.67827568  0.67037837  0.96090120  1
  F  F23  1  0.64906774  0.67098867  0.45957942  1
  F  F24  1  0.15494813  0.66943048  0.51588566  1
  F  F25  1  0.17424718  0.66854700  0.01712377  1
  F  F26  1  0.10844100  0.50148441  0.80539573  1
  F  F27  1  0.60971216  0.49870505  0.69613196  1
  F  F28  1  0.38494101  0.50376164  0.30446522  1
  F  F29  1  0.88711227  0.49755427  0.19678500  1
  F  F30  1  0.82317175  0.33186946  0.98421471  1
  F  F31  1  0.84044875  0.33224968  0.48547702  1
  F  F32  1  0.34552390  0.33112225  0.54090383  1
  F  F33  1  0.31883748  0.32960406  0.04185547  1
  F  F34  1  0.32779391  0.17420123  0.78552211  1
  F  F35  1  0.85192092  0.15334273  0.73955841  1
  F  F36  1  0.21907526  0.03622390  0.53763695  1
  F  F37  1  0.50074030  0.17627215  0.28880874  1
  F  F38  1  0.99590940  0.15495922  0.24019621  1
  F  F39  1  0.74648222  0.03813442  0.03875792  1
