# generated using pymatgen
data_Li3V4CrO8
_symmetry_space_group_name_H-M   'P 1'
_cell_length_a   10.52071787
_cell_length_b   10.52071742
_cell_length_c   14.84049138
_cell_angle_alpha   19.56213661
_cell_angle_beta   19.56213903
_cell_angle_gamma   33.81059389
_symmetry_Int_Tables_number   1
_chemical_formula_structural   Li3V4CrO8
_chemical_formula_sum   'Li3 V4 Cr1 O8'
_cell_volume   158.56961833
_cell_formula_units_Z   1
loop_
 _symmetry_equiv_pos_site_id
 _symmetry_equiv_pos_as_xyz
  1  'x, y, z'
loop_
 _atom_site_type_symbol
 _atom_site_label
 _atom_site_symmetry_multiplicity
 _atom_site_fract_x
 _atom_site_fract_y
 _atom_site_fract_z
 _atom_site_occupancy
  Li  Li0  1  0.00000000  0.50000000  0.50000000  1
  Li  Li1  1  0.50000000  0.00000000  0.50000000  1
  Li  Li2  1  0.50000000  0.50000000  0.50000000  1
  V  V3  1  0.00000000  0.00000000  0.50000000  1
  V  V4  1  0.00000000  0.00000000  0.00000000  1
  V  V5  1  0.00000000  0.50000000  0.00000000  1
  V  V6  1  0.50000000  0.00000000  0.00000000  1
  Cr  Cr7  1  0.50000000  0.50000000  0.00000000  1
  O  O8  1  0.99206123  0.99206123  0.26694079  1
  O  O9  1  0.00881207  0.48318483  0.26233624  1
  O  O10  1  0.48318483  0.00881207  0.26233624  1
  O  O11  1  0.00793877  0.00793877  0.73305921  1
  O  O12  1  0.52238032  0.52238032  0.22775009  1
  O  O13  1  0.99118793  0.51681517  0.73766376  1
  O  O14  1  0.51681517  0.99118793  0.73766376  1
  O  O15  1  0.47761968  0.47761968  0.77224991  1
