# generated using pymatgen
data_Li4Ni(BO3)2
_symmetry_space_group_name_H-M   'P 1'
_cell_length_a   9.21177048
_cell_length_b   7.79196212
_cell_length_c   3.29111292
_cell_angle_alpha   90.00000000
_cell_angle_beta   90.00000000
_cell_angle_gamma   90.00000000
_symmetry_Int_Tables_number   1
_chemical_formula_structural   Li4Ni(BO3)2
_chemical_formula_sum   'Li8 Ni2 B4 O12'
_cell_volume   236.22873515
_cell_formula_units_Z   2
loop_
 _symmetry_equiv_pos_site_id
 _symmetry_equiv_pos_as_xyz
  1  'x, y, z'
loop_
 _atom_site_type_symbol
 _atom_site_label
 _atom_site_symmetry_multiplicity
 _atom_site_fract_x
 _atom_site_fract_y
 _atom_site_fract_z
 _atom_site_occupancy
  Li  Li0  1  0.05191868  0.17885534  0.50000000  1
  Li  Li1  1  0.20023155  0.00872566  0.00000000  1
  Li  Li2  1  0.29976845  0.50872566  0.50000000  1
  Li  Li3  1  0.44808132  0.67885534  0.00000000  1
  Li  Li4  1  0.55191868  0.32114466  0.00000000  1
  Li  Li5  1  0.70023155  0.49127434  0.50000000  1
  Li  Li6  1  0.79976845  0.99127434  0.00000000  1
  Li  Li7  1  0.94808132  0.82114466  0.50000000  1
  Ni  Ni8  1  0.00000000  0.50000000  0.00000000  1
  Ni  Ni9  1  0.50000000  0.00000000  0.50000000  1
  B  B10  1  0.20222688  0.76990973  0.50000000  1
  B  B11  1  0.29777312  0.26990973  0.00000000  1
  B  B12  1  0.70222688  0.73009027  0.00000000  1
  B  B13  1  0.79777312  0.23009027  0.50000000  1
  O  O14  1  0.11475075  0.61845871  0.50000000  1
  O  O15  1  0.14712638  0.25746483  0.00000000  1
  O  O16  1  0.13531396  0.92547129  0.50000000  1
  O  O17  1  0.36468604  0.42547129  0.00000000  1
  O  O18  1  0.35287362  0.75746483  0.50000000  1
  O  O19  1  0.38524925  0.11845871  0.00000000  1
  O  O20  1  0.61475075  0.88154129  0.00000000  1
  O  O21  1  0.64712638  0.24253517  0.50000000  1
  O  O22  1  0.63531396  0.57452871  0.00000000  1
  O  O23  1  0.86468604  0.07452871  0.50000000  1
  O  O24  1  0.85287362  0.74253517  0.00000000  1
  O  O25  1  0.88524925  0.38154129  0.50000000  1
