# generated using pymatgen
data_Ti3Cu2Te(PO4)6
_symmetry_space_group_name_H-M   'P 1'
_cell_length_a   8.76566793
_cell_length_b   8.76566834
_cell_length_c   8.76566754
_cell_angle_alpha   59.83031104
_cell_angle_beta   59.83030919
_cell_angle_gamma   59.83031180
_symmetry_Int_Tables_number   1
_chemical_formula_structural   Ti3Cu2Te(PO4)6
_chemical_formula_sum   'Ti3 Cu2 Te1 P6 O24'
_cell_volume   474.42131076
_cell_formula_units_Z   1
loop_
 _symmetry_equiv_pos_site_id
 _symmetry_equiv_pos_as_xyz
  1  'x, y, z'
loop_
 _atom_site_type_symbol
 _atom_site_label
 _atom_site_symmetry_multiplicity
 _atom_site_fract_x
 _atom_site_fract_y
 _atom_site_fract_z
 _atom_site_occupancy
  Ti  Ti0  1  0.14190801  0.14190801  0.14190801  1
  Ti  Ti1  1  0.35729190  0.35729190  0.35729190  1
  Ti  Ti2  1  0.64206121  0.64206121  0.64206121  1
  Cu  Cu3  1  0.00431598  0.00431598  0.00431598  1
  Cu  Cu4  1  0.50024625  0.50024625  0.50024625  1
  Te  Te5  1  0.85724331  0.85724331  0.85724331  1
  P  P6  1  0.25894796  0.53188947  0.96159263  1
  P  P7  1  0.53188947  0.96159263  0.25894796  1
  P  P8  1  0.96159263  0.25894796  0.53188947  1
  P  P9  1  0.04376562  0.74899126  0.45008583  1
  P  P10  1  0.45008583  0.04376562  0.74899126  1
  P  P11  1  0.74899126  0.45008583  0.04376562  1
  O  O12  1  0.12064571  0.31905101  0.48583655  1
  O  O13  1  0.31905101  0.48583655  0.12064571  1
  O  O14  1  0.06037662  0.91652814  0.26378668  1
  O  O15  1  0.48583655  0.12064571  0.31905101  1
  O  O16  1  0.02236638  0.80029588  0.60549298  1
  O  O17  1  0.23057451  0.58431481  0.42713426  1
  O  O18  1  0.26378668  0.06037662  0.91652814  1
  O  O19  1  0.42713426  0.23057451  0.58431481  1
  O  O20  1  0.19748639  0.37435947  0.00069224  1
  O  O21  1  0.58431481  0.42713426  0.23057451  1
  O  O22  1  0.09695426  0.72355071  0.95121052  1
  O  O23  1  0.37435947  0.00069224  0.19748639  1
  O  O24  1  0.60549298  0.02236638  0.80029588  1
  O  O25  1  0.91652814  0.26378668  0.06037662  1
  O  O26  1  0.42305954  0.55108182  0.77204165  1
  O  O27  1  0.80029588  0.60549298  0.02236638  1
  O  O28  1  0.55108182  0.77204165  0.42305954  1
  O  O29  1  0.72355071  0.95121052  0.09695426  1
  O  O30  1  0.77204165  0.42305954  0.55108182  1
  O  O31  1  0.00069224  0.19748639  0.37435947  1
  O  O32  1  0.50112562  0.87351804  0.70017677  1
  O  O33  1  0.95121052  0.09695426  0.72355071  1
  O  O34  1  0.70017677  0.50112562  0.87351804  1
  O  O35  1  0.87351804  0.70017677  0.50112562  1
