# generated using pymatgen
data_Fe5O3F7
_symmetry_space_group_name_H-M   'P 1'
_cell_length_a   4.78410754
_cell_length_b   4.78880085
_cell_length_c   15.74672741
_cell_angle_alpha   89.99077664
_cell_angle_beta   90.03798249
_cell_angle_gamma   90.15054842
_symmetry_Int_Tables_number   1
_chemical_formula_structural   Fe5O3F7
_chemical_formula_sum   'Fe10 O6 F14'
_cell_volume   360.75837299
_cell_formula_units_Z   2
loop_
 _symmetry_equiv_pos_site_id
 _symmetry_equiv_pos_as_xyz
  1  'x, y, z'
loop_
 _atom_site_type_symbol
 _atom_site_label
 _atom_site_symmetry_multiplicity
 _atom_site_fract_x
 _atom_site_fract_y
 _atom_site_fract_z
 _atom_site_occupancy
  Fe  Fe0  1  0.97473917  0.95290096  0.99334082  1
  Fe  Fe1  1  0.02799926  0.02680308  0.19879036  1
  Fe  Fe2  1  0.02775569  0.01166447  0.40553110  1
  Fe  Fe3  1  0.02443146  0.97021495  0.60039784  1
  Fe  Fe4  1  0.02666068  0.97158870  0.79986959  1
  Fe  Fe5  1  0.50096550  0.49394613  0.09970738  1
  Fe  Fe6  1  0.47104999  0.51067712  0.49292120  1
  Fe  Fe7  1  0.48350147  0.47295565  0.29762954  1
  Fe  Fe8  1  0.48697081  0.51386338  0.70012609  1
  Fe  Fe9  1  0.48859779  0.51981532  0.90659993  1
  O  O10  1  0.20378916  0.79871822  0.50721589  1
  O  O11  1  0.18584270  0.81297189  0.70065603  1
  O  O12  1  0.17237224  0.81436493  0.89963841  1
  O  O13  1  0.32774308  0.31894276  0.19626515  1
  O  O14  1  0.31882460  0.31589721  0.39758872  1
  O  O15  1  0.68486612  0.68605079  0.00920917  1
  F  F16  1  0.19593483  0.79730247  0.09515280  1
  F  F17  1  0.22042653  0.80274495  0.29872695  1
  F  F18  1  0.27967599  0.28778614  0.00828814  1
  F  F19  1  0.29734929  0.30133337  0.59523499  1
  F  F20  1  0.29123803  0.30100837  0.80331688  1
  F  F21  1  0.71135762  0.70241448  0.20057824  1
  F  F22  1  0.70261425  0.70043859  0.39667834  1
  F  F23  1  0.69701231  0.70056315  0.59365300  1
  F  F24  1  0.69912143  0.71281921  0.80072839  1
  F  F25  1  0.80173928  0.19136114  0.09275279  1
  F  F26  1  0.79347433  0.21218177  0.51035442  1
  F  F27  1  0.80951727  0.21026074  0.30116180  1
  F  F28  1  0.79478505  0.18975307  0.89829367  1
  F  F29  1  0.79964408  0.19865401  0.69959134  1
