# generated using pymatgen
data_Na2Ni2O5
_symmetry_space_group_name_H-M   'P 1'
_cell_length_a   4.96277492
_cell_length_b   6.44538898
_cell_length_c   6.99207739
_cell_angle_alpha   110.71938864
_cell_angle_beta   95.78496094
_cell_angle_gamma   105.69766956
_symmetry_Int_Tables_number   1
_chemical_formula_structural   Na2Ni2O5
_chemical_formula_sum   'Na4 Ni4 O10'
_cell_volume   196.53365802
_cell_formula_units_Z   2
loop_
 _symmetry_equiv_pos_site_id
 _symmetry_equiv_pos_as_xyz
  1  'x, y, z'
loop_
 _atom_site_type_symbol
 _atom_site_label
 _atom_site_symmetry_multiplicity
 _atom_site_fract_x
 _atom_site_fract_y
 _atom_site_fract_z
 _atom_site_occupancy
  Na  Na0  1  0.20029544  0.39217195  0.40742243  1
  Na  Na1  1  0.56360410  0.69425673  0.20414458  1
  Na  Na2  1  0.84706694  0.10895875  0.60051736  1
  Na  Na3  1  0.98187591  0.49917444  0.01118263  1
  Ni  Ni4  1  0.40198524  0.80544031  0.80111877  1
  Ni  Ni5  1  0.99801769  0.99698011  0.99631512  1
  Ni  Ni6  1  0.80249135  0.60232980  0.60135820  1
  Ni  Ni7  1  0.59614015  0.19850709  0.19725268  1
  O  O8  1  0.09726545  0.90649484  0.72746070  1
  O  O9  1  0.10328837  0.52072157  0.71108075  1
  O  O10  1  0.30156489  0.89246061  0.07114564  1
  O  O11  1  0.29322096  0.28585402  0.09303641  1
  O  O12  1  0.52912600  0.74142961  0.55009726  1
  O  O13  1  0.70290832  0.69399378  0.87212558  1
  O  O14  1  0.56369249  0.28569508  0.47719723  1
  O  O15  1  0.70113706  0.10773716  0.92495773  1
  O  O16  1  0.84428231  0.51188809  0.31901952  1
  O  O17  1  0.86555235  0.05467606  0.24476441  1
