# generated using pymatgen
data_Li5V6O5F19
_symmetry_space_group_name_H-M   'P 1'
_cell_length_a   5.16090963
_cell_length_b   5.35601136
_cell_length_c   16.73200619
_cell_angle_alpha   80.38904008
_cell_angle_beta   90.22095132
_cell_angle_gamma   89.70172588
_symmetry_Int_Tables_number   1
_chemical_formula_structural   Li5V6O5F19
_chemical_formula_sum   'Li5 V6 O5 F19'
_cell_volume   456.00121251
_cell_formula_units_Z   1
loop_
 _symmetry_equiv_pos_site_id
 _symmetry_equiv_pos_as_xyz
  1  'x, y, z'
loop_
 _atom_site_type_symbol
 _atom_site_label
 _atom_site_symmetry_multiplicity
 _atom_site_fract_x
 _atom_site_fract_y
 _atom_site_fract_z
 _atom_site_occupancy
  Li  Li0  1  0.20727072  0.86613096  0.84484129  1
  Li  Li1  1  0.95455899  0.99359054  0.21550873  1
  Li  Li2  1  0.54521562  0.82770487  0.54857780  1
  Li  Li3  1  0.54298150  0.49440388  0.21512058  1
  Li  Li4  1  0.95599085  0.32548262  0.54878834  1
  V  V5  1  0.47907511  0.86001489  0.33789250  1
  V  V6  1  0.02117362  0.69462320  0.66922154  1
  V  V7  1  0.49851388  0.49929799  0.00181142  1
  V  V8  1  0.02254321  0.36027094  0.33789979  1
  V  V9  1  0.47961473  0.19391098  0.67010690  1
  V  V10  1  0.02546200  0.97985720  0.00227343  1
  O  O11  1  0.19387733  0.96840970  0.64064804  1
  O  O12  1  0.28498860  0.79478745  0.98317294  1
  O  O13  1  0.19664559  0.63177518  0.30900172  1
  O  O14  1  0.30539588  0.46637670  0.64193569  1
  O  O15  1  0.30503598  0.13290580  0.30798052  1
  F  F16  1  0.68792955  0.84645114  0.69099916  1
  F  F17  1  0.08107844  0.96841352  0.11454679  1
  F  F18  1  0.40873198  0.78705517  0.44809468  1
  F  F19  1  0.09467162  0.63636626  0.78031548  1
  F  F20  1  0.62574293  0.83196068  0.23113724  1
  F  F21  1  0.87620990  0.66848701  0.56212268  1
  F  F22  1  0.57559937  0.55155531  0.89780670  1
  F  F23  1  0.19523066  0.31085732  0.98008835  1
  F  F24  1  0.79043968  0.68963805  0.03177806  1
  F  F25  1  0.69364046  0.51636146  0.36188943  1
  F  F26  1  0.81078946  0.34985312  0.69256817  1
  F  F27  1  0.42020787  0.44363666  0.11067940  1
  F  F28  1  0.09153597  0.28305914  0.44836647  1
  F  F29  1  0.40944054  0.10689931  0.78059715  1
  F  F30  1  0.87310941  0.33626470  0.23084317  1
  F  F31  1  0.62496372  0.16953412  0.56338399  1
  F  F32  1  0.92420012  0.02711184  0.89372377  1
  F  F33  1  0.70715992  0.19032180  0.02041146  1
  F  F34  1  0.80839378  0.01667150  0.36036960  1
