# generated using pymatgen
data_Li5CoHO4
_symmetry_space_group_name_H-M   'P 1'
_cell_length_a   8.80857182
_cell_length_b   8.94509338
_cell_length_c   10.69823024
_cell_angle_alpha   90.00000000
_cell_angle_beta   90.00000000
_cell_angle_gamma   90.00000000
_symmetry_Int_Tables_number   1
_chemical_formula_structural   Li5CoHO4
_chemical_formula_sum   'Li40 Co8 H8 O32'
_cell_volume   842.95097740
_cell_formula_units_Z   8
loop_
 _symmetry_equiv_pos_site_id
 _symmetry_equiv_pos_as_xyz
  1  'x, y, z'
loop_
 _atom_site_type_symbol
 _atom_site_label
 _atom_site_symmetry_multiplicity
 _atom_site_fract_x
 _atom_site_fract_y
 _atom_site_fract_z
 _atom_site_occupancy
  Li  Li0  1  0.97217465  0.58393855  0.20044898  1
  Li  Li1  1  0.97217465  0.91606145  0.20044898  1
  Li  Li2  1  0.07732288  0.43522730  0.42722732  1
  Li  Li3  1  0.07732288  0.06477270  0.42722732  1
  Li  Li4  1  0.07625714  0.75000000  0.43843639  1
  Li  Li5  1  0.12070230  0.25000000  0.98203860  1
  Li  Li6  1  0.11331837  0.56864893  0.98573894  1
  Li  Li7  1  0.11331837  0.93135107  0.98573894  1
  Li  Li8  1  0.20700202  0.58258837  0.64314170  1
  Li  Li9  1  0.20700202  0.91741163  0.64314170  1
  Li  Li10  1  0.29299798  0.08258837  0.14314170  1
  Li  Li11  1  0.29299798  0.41741163  0.14314170  1
  Li  Li12  1  0.38668163  0.06864893  0.48573894  1
  Li  Li13  1  0.38668163  0.43135107  0.48573894  1
  Li  Li14  1  0.37929770  0.75000000  0.48203860  1
  Li  Li15  1  0.42374286  0.25000000  0.93843639  1
  Li  Li16  1  0.42267712  0.56477270  0.92722732  1
  Li  Li17  1  0.42267712  0.93522730  0.92722732  1
  Li  Li18  1  0.52782535  0.08393855  0.70044898  1
  Li  Li19  1  0.52782535  0.41606145  0.70044898  1
  Li  Li20  1  0.47217465  0.58393855  0.29955102  1
  Li  Li21  1  0.47217465  0.91606145  0.29955102  1
  Li  Li22  1  0.57732288  0.06477270  0.07277268  1
  Li  Li23  1  0.57732288  0.43522730  0.07277268  1
  Li  Li24  1  0.57625714  0.75000000  0.06156361  1
  Li  Li25  1  0.62070230  0.25000000  0.51796140  1
  Li  Li26  1  0.61331837  0.56864893  0.51426106  1
  Li  Li27  1  0.61331837  0.93135107  0.51426106  1
  Li  Li28  1  0.70700202  0.58258837  0.85685830  1
  Li  Li29  1  0.70700202  0.91741163  0.85685830  1
  Li  Li30  1  0.79299798  0.08258837  0.35685830  1
  Li  Li31  1  0.79299798  0.41741163  0.35685830  1
  Li  Li32  1  0.88668163  0.06864893  0.01426106  1
  Li  Li33  1  0.88668163  0.43135107  0.01426106  1
  Li  Li34  1  0.87929770  0.75000000  0.01796140  1
  Li  Li35  1  0.92374286  0.25000000  0.56156361  1
  Li  Li36  1  0.92267712  0.93522730  0.57277268  1
  Li  Li37  1  0.92267712  0.56477270  0.57277268  1
  Li  Li38  1  0.02782535  0.08393855  0.79955102  1
  Li  Li39  1  0.02782535  0.41606145  0.79955102  1
  Co  Co40  1  0.01977661  0.25000000  0.21846104  1
  Co  Co41  1  0.21394337  0.25000000  0.62023721  1
  Co  Co42  1  0.28605663  0.75000000  0.12023721  1
  Co  Co43  1  0.48022339  0.75000000  0.71846104  1
  Co  Co44  1  0.51977661  0.25000000  0.28153896  1
  Co  Co45  1  0.71394337  0.25000000  0.87976279  1
  Co  Co46  1  0.78605663  0.75000000  0.37976279  1
  Co  Co47  1  0.98022339  0.75000000  0.78153896  1
  H  H48  1  0.20970251  0.90420441  0.31111183  1
  H  H49  1  0.20970251  0.59579559  0.31111183  1
  H  H50  1  0.29029749  0.09579559  0.81111183  1
  H  H51  1  0.29029749  0.40420441  0.81111183  1
  H  H52  1  0.70970251  0.59579559  0.18888817  1
  H  H53  1  0.70970251  0.90420441  0.18888817  1
  H  H54  1  0.79029749  0.09579559  0.68888817  1
  H  H55  1  0.79029749  0.40420441  0.68888817  1
  O  O56  1  0.05973510  0.75000000  0.62420474  1
  O  O57  1  0.07427750  0.08649391  0.11785372  1
  O  O58  1  0.07427750  0.41350609  0.11785372  1
  O  O59  1  0.07640854  0.41119817  0.61630191  1
  O  O60  1  0.07640854  0.08880183  0.61630191  1
  O  O61  1  0.08072463  0.75000000  0.10917722  1
  O  O62  1  0.24152651  0.07240605  0.89132235  1
  O  O63  1  0.24152651  0.42759395  0.89132235  1
  O  O64  1  0.25847349  0.57240605  0.39132235  1
  O  O65  1  0.25847349  0.92759395  0.39132235  1
  O  O66  1  0.41927537  0.25000000  0.60917722  1
  O  O67  1  0.42359146  0.58880183  0.11630191  1
  O  O68  1  0.42359146  0.91119817  0.11630191  1
  O  O69  1  0.42572250  0.58649391  0.61785372  1
  O  O70  1  0.42572250  0.91350609  0.61785372  1
  O  O71  1  0.44026490  0.25000000  0.12420474  1
  O  O72  1  0.55973510  0.75000000  0.87579526  1
  O  O73  1  0.57427750  0.08649391  0.38214628  1
  O  O74  1  0.57427750  0.41350609  0.38214628  1
  O  O75  1  0.57640854  0.08880183  0.88369809  1
  O  O76  1  0.57640854  0.41119817  0.88369809  1
  O  O77  1  0.58072463  0.75000000  0.39082278  1
  O  O78  1  0.74152651  0.07240605  0.60867765  1
  O  O79  1  0.74152651  0.42759395  0.60867765  1
  O  O80  1  0.75847349  0.57240605  0.10867765  1
  O  O81  1  0.75847349  0.92759395  0.10867765  1
  O  O82  1  0.91927537  0.25000000  0.89082278  1
  O  O83  1  0.92359146  0.91119817  0.38369809  1
  O  O84  1  0.92359146  0.58880183  0.38369809  1
  O  O85  1  0.92572250  0.91350609  0.88214628  1
  O  O86  1  0.92572250  0.58649391  0.88214628  1
  O  O87  1  0.94026490  0.25000000  0.37579526  1
