# generated using pymatgen
data_LiFe2F5
_symmetry_space_group_name_H-M   'P 1'
_cell_length_a   8.04713113
_cell_length_b   8.85784921
_cell_length_c   6.31558382
_cell_angle_alpha   91.08526449
_cell_angle_beta   101.25288599
_cell_angle_gamma   105.90952078
_symmetry_Int_Tables_number   1
_chemical_formula_structural   LiFe2F5
_chemical_formula_sum   'Li4 Fe8 F20'
_cell_volume   423.35609089
_cell_formula_units_Z   4
loop_
 _symmetry_equiv_pos_site_id
 _symmetry_equiv_pos_as_xyz
  1  'x, y, z'
loop_
 _atom_site_type_symbol
 _atom_site_label
 _atom_site_symmetry_multiplicity
 _atom_site_fract_x
 _atom_site_fract_y
 _atom_site_fract_z
 _atom_site_occupancy
  Li  Li0  1  0.20888150  0.43917540  0.79422553  1
  Li  Li1  1  0.21130215  0.16718875  0.30703428  1
  Li  Li2  1  0.78869785  0.83281125  0.69296572  1
  Li  Li3  1  0.79111850  0.56082460  0.20577447  1
  Fe  Fe4  1  0.18694573  0.79418553  0.54578659  1
  Fe  Fe5  1  0.16988936  0.79275529  0.04161159  1
  Fe  Fe6  1  0.39373481  0.58318032  0.33989746  1
  Fe  Fe7  1  0.39274762  0.11437984  0.85452845  1
  Fe  Fe8  1  0.60725238  0.88562016  0.14547155  1
  Fe  Fe9  1  0.60626519  0.41681968  0.66010254  1
  Fe  Fe10  1  0.83011064  0.20724471  0.95838841  1
  Fe  Fe11  1  0.81305427  0.20581447  0.45421341  1
  F  F12  1  0.00176396  0.76895026  0.74366611  1
  F  F13  1  0.00161140  0.73197732  0.25398456  1
  F  F14  1  0.99838860  0.26802268  0.74601544  1
  F  F15  1  0.99823604  0.23104974  0.25633389  1
  F  F16  1  0.22231359  0.57678258  0.55934288  1
  F  F17  1  0.39179969  0.86682478  0.86908725  1
  F  F18  1  0.21894099  0.57192156  0.04667482  1
  F  F19  1  0.38472957  0.82734345  0.32602886  1
  F  F20  1  0.23276452  0.03333502  0.55307681  1
  F  F21  1  0.39794402  0.34520639  0.83066230  1
  F  F22  1  0.21743284  0.03704178  0.05928636  1
  F  F23  1  0.40425309  0.35389883  0.38098660  1
  F  F24  1  0.59574691  0.64610117  0.61901340  1
  F  F25  1  0.78256716  0.96295822  0.94071364  1
  F  F26  1  0.60205598  0.65479361  0.16933770  1
  F  F27  1  0.76723548  0.96666498  0.44692319  1
  F  F28  1  0.61527043  0.17265655  0.67397114  1
  F  F29  1  0.78105901  0.42807844  0.95332518  1
  F  F30  1  0.60820031  0.13317522  0.13091275  1
  F  F31  1  0.77768641  0.42321742  0.44065712  1
