# generated using pymatgen
data_NaV(PO4)2
_symmetry_space_group_name_H-M   'P 1'
_cell_length_a   8.22011541
_cell_length_b   8.22011541
_cell_length_c   10.15724776
_cell_angle_alpha   90.00000000
_cell_angle_beta   90.00000000
_cell_angle_gamma   90.00000000
_symmetry_Int_Tables_number   1
_chemical_formula_structural   NaV(PO4)2
_chemical_formula_sum   'Na4 V4 P8 O32'
_cell_volume   686.32825144
_cell_formula_units_Z   4
loop_
 _symmetry_equiv_pos_site_id
 _symmetry_equiv_pos_as_xyz
  1  'x, y, z'
loop_
 _atom_site_type_symbol
 _atom_site_label
 _atom_site_symmetry_multiplicity
 _atom_site_fract_x
 _atom_site_fract_y
 _atom_site_fract_z
 _atom_site_occupancy
  Na  Na0  1  0.16770278  0.66770278  0.74909281  1
  Na  Na1  1  0.33229722  0.16770278  0.24909281  1
  Na  Na2  1  0.66770278  0.83229722  0.24909281  1
  Na  Na3  1  0.83229722  0.33229722  0.74909281  1
  V  V4  1  0.00000000  0.00000000  0.46988156  1
  V  V5  1  0.00000000  0.00000000  0.96988156  1
  V  V6  1  0.50000000  0.50000000  0.46988156  1
  V  V7  1  0.50000000  0.50000000  0.96988156  1
  P  P8  1  0.12515160  0.37484840  0.49075265  1
  P  P9  1  0.13421218  0.36578782  0.99542457  1
  P  P10  1  0.36578782  0.86578782  0.49542457  1
  P  P11  1  0.37484840  0.87484840  0.99075265  1
  P  P12  1  0.63421218  0.13421218  0.49542457  1
  P  P13  1  0.62515160  0.12515160  0.99075265  1
  P  P14  1  0.87484840  0.62515160  0.49075265  1
  P  P15  1  0.86578782  0.63421218  0.99542457  1
  O  O16  1  0.00000000  0.00000000  0.12729703  1
  O  O17  1  0.00000000  0.00000000  0.62729703  1
  O  O18  1  0.00000000  0.50000000  0.42195563  1
  O  O19  1  0.00000000  0.50000000  0.94724093  1
  O  O20  1  0.08016406  0.20924129  0.42598231  1
  O  O21  1  0.07468843  0.21138164  0.91988340  1
  O  O22  1  0.15140584  0.34859416  0.13978307  1
  O  O23  1  0.11778777  0.38221223  0.63700811  1
  O  O24  1  0.21138164  0.92531157  0.41988340  1
  O  O25  1  0.20924129  0.91983594  0.92598231  1
  O  O26  1  0.29075871  0.41983594  0.42598231  1
  O  O27  1  0.28861836  0.42531157  0.91988340  1
  O  O28  1  0.38221223  0.88221223  0.13700811  1
  O  O29  1  0.34859416  0.84859416  0.63978307  1
  O  O30  1  0.42531157  0.71138164  0.41988340  1
  O  O31  1  0.41983594  0.70924129  0.92598231  1
  O  O32  1  0.50000000  0.50000000  0.62729703  1
  O  O33  1  0.50000000  0.00000000  0.44724093  1
  O  O34  1  0.50000000  0.50000000  0.12729703  1
  O  O35  1  0.50000000  0.00000000  0.92195563  1
  O  O36  1  0.57468843  0.28861836  0.41988340  1
  O  O37  1  0.58016406  0.29075871  0.92598231  1
  O  O38  1  0.61778777  0.11778777  0.13700811  1
  O  O39  1  0.65140584  0.15140584  0.63978307  1
  O  O40  1  0.70924129  0.58016406  0.42598231  1
  O  O41  1  0.71138164  0.57468843  0.91988340  1
  O  O42  1  0.78861836  0.07468843  0.41988340  1
  O  O43  1  0.79075871  0.08016406  0.92598231  1
  O  O44  1  0.84859416  0.65140584  0.13978307  1
  O  O45  1  0.88221223  0.61778777  0.63700811  1
  O  O46  1  0.91983594  0.79075871  0.42598231  1
  O  O47  1  0.92531157  0.78861836  0.91988340  1
