# generated using pymatgen
data_Li4Mn3(CoO4)3
_symmetry_space_group_name_H-M   'P 1'
_cell_length_a   6.66126677
_cell_length_b   5.85458465
_cell_length_c   5.66705576
_cell_angle_alpha   91.32682027
_cell_angle_beta   102.57016763
_cell_angle_gamma   74.96147061
_symmetry_Int_Tables_number   1
_chemical_formula_structural   Li4Mn3(CoO4)3
_chemical_formula_sum   'Li4 Mn3 Co3 O12'
_cell_volume   208.19374257
_cell_formula_units_Z   1
loop_
 _symmetry_equiv_pos_site_id
 _symmetry_equiv_pos_as_xyz
  1  'x, y, z'
loop_
 _atom_site_type_symbol
 _atom_site_label
 _atom_site_symmetry_multiplicity
 _atom_site_fract_x
 _atom_site_fract_y
 _atom_site_fract_z
 _atom_site_occupancy
  Li  Li0  1  0.01600552  0.98146042  0.49062364  1
  Li  Li1  1  0.66666700  0.33333300  0.16666700  1
  Li  Li2  1  0.66666700  0.33333300  0.66666700  1
  Li  Li3  1  0.31732748  0.68520658  0.84270936  1
  Mn  Mn4  1  0.00670504  0.50467397  0.00189346  1
  Mn  Mn5  1  0.32662796  0.16199303  0.33144054  1
  Mn  Mn6  1  0.66666700  0.83333300  0.66666700  1
  Co  Co7  1  0.00585106  0.50137259  0.50107096  1
  Co  Co8  1  0.32748294  0.16529441  0.83226304  1
  Co  Co9  1  0.66666700  0.83333300  0.16666700  1
  O  O10  1  0.01731901  0.27182812  0.25095368  1
  O  O11  1  0.01729763  0.27640221  0.74851594  1
  O  O12  1  0.31601399  0.39483888  0.08237932  1
  O  O13  1  0.64202567  0.07520502  0.40999609  1
  O  O14  1  0.31603637  0.39026479  0.58481806  1
  O  O15  1  0.63384821  0.06809900  0.91140576  1
  O  O16  1  0.35904617  0.93531018  0.08408838  1
  O  O17  1  0.69948479  0.59856800  0.42192824  1
  O  O18  1  0.32661054  0.94543702  0.57871190  1
  O  O19  1  0.69130733  0.59146198  0.92333691  1
  O  O20  1  0.97428683  0.73135682  0.24924462  1
  O  O21  1  0.00672246  0.72122998  0.75462110  1
