# generated using pymatgen
data_Ga3NO3
_symmetry_space_group_name_H-M   'P 1'
_cell_length_a   8.26599406
_cell_length_b   8.12794612
_cell_length_c   6.40986058
_cell_angle_alpha   90.00000000
_cell_angle_beta   90.00000000
_cell_angle_gamma   119.74254444
_symmetry_Int_Tables_number   1
_chemical_formula_structural   Ga3NO3
_chemical_formula_sum   'Ga12 N4 O12'
_cell_volume   373.91765462
_cell_formula_units_Z   4
loop_
 _symmetry_equiv_pos_site_id
 _symmetry_equiv_pos_as_xyz
  1  'x, y, z'
loop_
 _atom_site_type_symbol
 _atom_site_label
 _atom_site_symmetry_multiplicity
 _atom_site_fract_x
 _atom_site_fract_y
 _atom_site_fract_z
 _atom_site_occupancy
  Ga  Ga0  1  0.16249157  0.75902208  0.62500000  1
  Ga  Ga1  1  0.17400015  0.76329716  0.12500000  1
  Ga  Ga2  1  0.22767122  0.40231442  0.62500000  1
  Ga  Ga3  1  0.22160840  0.38701655  0.12500000  1
  Ga  Ga4  1  0.59924919  0.82859957  0.62500000  1
  Ga  Ga5  1  0.59057100  0.83166985  0.12500000  1
  Ga  Ga6  1  0.40587404  0.16464369  0.36748603  1
  Ga  Ga7  1  0.40587404  0.16464369  0.88251397  1
  Ga  Ga8  1  0.76060595  0.59449750  0.38202618  1
  Ga  Ga9  1  0.76060595  0.59449750  0.86797382  1
  Ga  Ga10  1  0.84206713  0.24178326  0.87482086  1
  Ga  Ga11  1  0.84206713  0.24178326  0.37517914  1
  N  N12  1  0.32812692  0.02326013  0.12500000  1
  N  N13  1  0.70376588  0.67554548  0.62500000  1
  N  N14  1  0.97229617  0.30566395  0.62500000  1
  N  N15  1  0.96992318  0.30130900  0.12500000  1
  O  O16  1  0.02769747  0.69391717  0.37338837  1
  O  O17  1  0.02769747  0.69391717  0.87661163  1
  O  O18  1  0.33483799  0.65785132  0.12500000  1
  O  O19  1  0.33437274  0.67353812  0.62500000  1
  O  O20  1  0.32033010  0.34557834  0.37743818  1
  O  O21  1  0.32033010  0.34557834  0.87256182  1
  O  O22  1  0.65377414  0.97003039  0.87584743  1
  O  O23  1  0.65377414  0.97003039  0.37415257  1
  O  O24  1  0.32206595  0.02878665  0.62500000  1
  O  O25  1  0.70839422  0.67829808  0.12500000  1
  O  O26  1  0.66486438  0.33146146  0.87574331  1
  O  O27  1  0.66486438  0.33146146  0.37425669  1
