# generated using pymatgen
data_LaHfMg14
_symmetry_space_group_name_H-M   'P 1'
_cell_length_a   6.59100983
_cell_length_b   6.59100926
_cell_length_c   10.21771807
_cell_angle_alpha   90.00000000
_cell_angle_beta   90.00000000
_cell_angle_gamma   120.00000283
_symmetry_Int_Tables_number   1
_chemical_formula_structural   LaHfMg14
_chemical_formula_sum   'La1 Hf1 Mg14'
_cell_volume   384.40445798
_cell_formula_units_Z   1
loop_
 _symmetry_equiv_pos_site_id
 _symmetry_equiv_pos_as_xyz
  1  'x, y, z'
loop_
 _atom_site_type_symbol
 _atom_site_label
 _atom_site_symmetry_multiplicity
 _atom_site_fract_x
 _atom_site_fract_y
 _atom_site_fract_z
 _atom_site_occupancy
  La  La0  1  0.16666700  0.33333300  0.12500000  1
  Hf  Hf1  1  0.16666700  0.33333300  0.62500000  1
  Mg  Mg2  1  0.17612036  0.83805968  0.12500000  1
  Mg  Mg3  1  0.16775432  0.83387666  0.62500000  1
  Mg  Mg4  1  0.66194032  0.32387964  0.12500000  1
  Mg  Mg5  1  0.66612334  0.33224568  0.62500000  1
  Mg  Mg6  1  0.66194032  0.83805968  0.12500000  1
  Mg  Mg7  1  0.66612334  0.83387666  0.62500000  1
  Mg  Mg8  1  0.33535375  0.16464625  0.38420729  1
  Mg  Mg9  1  0.33535375  0.16464625  0.86579271  1
  Mg  Mg10  1  0.33535375  0.67070851  0.38420729  1
  Mg  Mg11  1  0.33535375  0.67070851  0.86579271  1
  Mg  Mg12  1  0.82929149  0.16464625  0.38420729  1
  Mg  Mg13  1  0.82929149  0.16464625  0.86579271  1
  Mg  Mg14  1  0.83333300  0.66666700  0.37143065  1
  Mg  Mg15  1  0.83333300  0.66666700  0.87856935  1
