# generated using pymatgen
data_Mn3OF5
_symmetry_space_group_name_H-M   'P 1'
_cell_length_a   4.86510976
_cell_length_b   8.13857442
_cell_length_c   5.87261223
_cell_angle_alpha   92.35547836
_cell_angle_beta   89.49221929
_cell_angle_gamma   89.85899301
_symmetry_Int_Tables_number   1
_chemical_formula_structural   Mn3OF5
_chemical_formula_sum   'Mn6 O2 F10'
_cell_volume   232.31989931
_cell_formula_units_Z   2
loop_
 _symmetry_equiv_pos_site_id
 _symmetry_equiv_pos_as_xyz
  1  'x, y, z'
loop_
 _atom_site_type_symbol
 _atom_site_label
 _atom_site_symmetry_multiplicity
 _atom_site_fract_x
 _atom_site_fract_y
 _atom_site_fract_z
 _atom_site_occupancy
  Mn  Mn0  1  0.50545331  0.00344150  0.51276257  1
  Mn  Mn1  1  0.49250834  0.67241954  0.16734732  1
  Mn  Mn2  1  0.53486646  0.32707801  0.82626402  1
  Mn  Mn3  1  0.98388517  0.64958538  0.67554650  1
  Mn  Mn4  1  0.98525390  0.33422065  0.35016256  1
  Mn  Mn5  1  0.99174643  0.01354773  0.98012487  1
  O  O6  1  0.79960479  0.42680063  0.63635604  1
  O  O7  1  0.68791531  0.10755453  0.78337434  1
  F  F8  1  0.80926821  0.77053667  0.96998821  1
  F  F9  1  0.79995899  0.09945356  0.28394798  1
  F  F10  1  0.69466173  0.77239268  0.46919263  1
  F  F11  1  0.70176436  0.43732392  0.13627090  1
  F  F12  1  0.32406150  0.55083755  0.86273961  1
  F  F13  1  0.29103752  0.22306795  0.52772959  1
  F  F14  1  0.30144424  0.91348034  0.21069830  1
  F  F15  1  0.18992736  0.56873396  0.36894867  1
  F  F16  1  0.21161358  0.24469450  0.03423113  1
  F  F17  1  0.19502979  0.88483089  0.70431277  1
