# generated using pymatgen
data_Li3Mn4(BO3)4
_symmetry_space_group_name_H-M   'P 1'
_cell_length_a   5.88717626
_cell_length_b   5.30025433
_cell_length_c   9.01846030
_cell_angle_alpha   90.56787313
_cell_angle_beta   103.51847230
_cell_angle_gamma   113.10828080
_symmetry_Int_Tables_number   1
_chemical_formula_structural   Li3Mn4(BO3)4
_chemical_formula_sum   'Li3 Mn4 B4 O12'
_cell_volume   250.02688424
_cell_formula_units_Z   1
loop_
 _symmetry_equiv_pos_site_id
 _symmetry_equiv_pos_as_xyz
  1  'x, y, z'
loop_
 _atom_site_type_symbol
 _atom_site_label
 _atom_site_symmetry_multiplicity
 _atom_site_fract_x
 _atom_site_fract_y
 _atom_site_fract_z
 _atom_site_occupancy
  Li  Li0  1  0.68247987  0.41489158  0.03173452  1
  Li  Li1  1  0.34242951  0.08276750  0.46824287  1
  Li  Li2  1  0.32068875  0.59293351  0.96940616  1
  Mn  Mn3  1  0.75697928  0.45954000  0.69398388  1
  Mn  Mn4  1  0.76126403  0.96475655  0.21193125  1
  Mn  Mn5  1  0.24007116  0.04671584  0.79355725  1
  Mn  Mn6  1  0.25542753  0.54720508  0.30615569  1
  B  B7  1  0.73917737  0.44298222  0.36159995  1
  B  B8  1  0.26055092  0.06035725  0.13420071  1
  B  B9  1  0.73990690  0.94196164  0.87149770  1
  B  B10  1  0.25612072  0.55367944  0.63140397  1
  O  O11  1  0.85421226  0.39443512  0.24782928  1
  O  O12  1  0.70737393  0.28329276  0.47702165  1
  O  O13  1  0.67025913  0.16705935  0.85812657  1
  O  O14  1  0.63985776  0.64327911  0.33749797  1
  O  O15  1  0.84225926  0.87167341  0.76317098  1
  O  O16  1  0.29887802  0.22785709  0.01907503  1
  O  O17  1  0.69703192  0.78077504  0.99031540  1
  O  O18  1  0.17254179  0.12611545  0.25516141  1
  O  O19  1  0.34132717  0.34131584  0.63787186  1
  O  O20  1  0.32419303  0.83323494  0.14119492  1
  O  O21  1  0.26148130  0.71082127  0.51150863  1
  O  O22  1  0.16697240  0.61198502  0.75314735  1
