# generated using pymatgen
data_Li3Bi2(PO4)3
_symmetry_space_group_name_H-M   'P 1'
_cell_length_a   9.30885036
_cell_length_b   13.14515127
_cell_length_c   9.23725349
_cell_angle_alpha   90.00000000
_cell_angle_beta   90.00000000
_cell_angle_gamma   89.48106975
_symmetry_Int_Tables_number   1
_chemical_formula_structural   Li3Bi2(PO4)3
_chemical_formula_sum   'Li12 Bi8 P12 O48'
_cell_volume   1130.28167495
_cell_formula_units_Z   4
loop_
 _symmetry_equiv_pos_site_id
 _symmetry_equiv_pos_as_xyz
  1  'x, y, z'
loop_
 _atom_site_type_symbol
 _atom_site_label
 _atom_site_symmetry_multiplicity
 _atom_site_fract_x
 _atom_site_fract_y
 _atom_site_fract_z
 _atom_site_occupancy
  Li  Li0  1  0.08232744  0.69284262  0.11180053  1
  Li  Li1  1  0.07539559  0.74364660  0.71440252  1
  Li  Li2  1  0.20938579  0.17929866  0.76997974  1
  Li  Li3  1  0.29061421  0.32070134  0.26997974  1
  Li  Li4  1  0.42460441  0.75635340  0.21440252  1
  Li  Li5  1  0.41767256  0.80715738  0.61180053  1
  Li  Li6  1  0.58232744  0.19284262  0.38819947  1
  Li  Li7  1  0.57539559  0.24364660  0.78559748  1
  Li  Li8  1  0.70938579  0.67929866  0.73002026  1
  Li  Li9  1  0.79061421  0.82070134  0.23002026  1
  Li  Li10  1  0.92460441  0.25635340  0.28559748  1
  Li  Li11  1  0.91767256  0.30715738  0.88819947  1
  Bi  Bi12  1  0.23968786  0.10145823  0.44666343  1
  Bi  Bi13  1  0.24645292  0.90001969  0.04041476  1
  Bi  Bi14  1  0.25354708  0.59998031  0.54041476  1
  Bi  Bi15  1  0.26031214  0.39854177  0.94666343  1
  Bi  Bi16  1  0.73968786  0.60145823  0.05333657  1
  Bi  Bi17  1  0.74645292  0.40001969  0.45958524  1
  Bi  Bi18  1  0.75354708  0.09998031  0.95958524  1
  Bi  Bi19  1  0.76031214  0.89854177  0.55333657  1
  P  P20  1  0.04660098  0.48938711  0.24163284  1
  P  P21  1  0.09741102  0.83477989  0.39019796  1
  P  P22  1  0.09752055  0.16802871  0.09222746  1
  P  P23  1  0.40247945  0.33197129  0.59222746  1
  P  P24  1  0.40258898  0.66522011  0.89019796  1
  P  P25  1  0.45339902  0.01061289  0.74163284  1
  P  P26  1  0.54660098  0.98938711  0.25836716  1
  P  P27  1  0.59741102  0.33477989  0.10980204  1
  P  P28  1  0.59752055  0.66802871  0.40777254  1
  P  P29  1  0.90247945  0.83197129  0.90777254  1
  P  P30  1  0.90258898  0.16522011  0.60980204  1
  P  P31  1  0.95339902  0.51061289  0.75836716  1
  O  O32  1  0.01854614  0.43515080  0.87110082  1
  O  O33  1  0.06422072  0.59177500  0.71008954  1
  O  O34  1  0.06966262  0.81515860  0.89922439  1
  O  O35  1  0.06971093  0.17379448  0.61029358  1
  O  O36  1  0.09838562  0.55484225  0.36963081  1
  O  O37  1  0.15634940  0.78963680  0.24538777  1
  O  O38  1  0.17781764  0.43117232  0.17547875  1
  O  O39  1  0.14084633  0.94740476  0.40140849  1
  O  O40  1  0.13644228  0.05539789  0.07192901  1
  O  O41  1  0.15558526  0.20900456  0.23883104  1
  O  O42  1  0.14994014  0.23186299  0.96034373  1
  O  O43  1  0.15996130  0.77466886  0.52313287  1
  O  O44  1  0.34003870  0.72533114  0.02313287  1
  O  O45  1  0.35005986  0.26813701  0.46034373  1
  O  O46  1  0.34441474  0.29099544  0.73883104  1
  O  O47  1  0.36355772  0.44460211  0.57192901  1
  O  O48  1  0.35915367  0.55259524  0.90140849  1
  O  O49  1  0.32218236  0.06882768  0.67547875  1
  O  O50  1  0.34365060  0.71036320  0.74538777  1
  O  O51  1  0.40161438  0.94515775  0.86963081  1
  O  O52  1  0.43028907  0.32620552  0.11029358  1
  O  O53  1  0.43033738  0.68484140  0.39922439  1
  O  O54  1  0.43577928  0.90822500  0.21008954  1
  O  O55  1  0.48145386  0.06484920  0.37110082  1
  O  O56  1  0.51854614  0.93515080  0.62889918  1
  O  O57  1  0.56422072  0.09177500  0.78991046  1
  O  O58  1  0.56966262  0.31515860  0.60077561  1
  O  O59  1  0.56971093  0.67379448  0.88970642  1
  O  O60  1  0.59838562  0.05484225  0.13036919  1
  O  O61  1  0.65634940  0.28963680  0.25461223  1
  O  O62  1  0.67781764  0.93117232  0.32452125  1
  O  O63  1  0.64084633  0.44740476  0.09859151  1
  O  O64  1  0.63644228  0.55539789  0.42807099  1
  O  O65  1  0.65558526  0.70900456  0.26116896  1
  O  O66  1  0.64994014  0.73186299  0.53965627  1
  O  O67  1  0.65996130  0.27466886  0.97686713  1
  O  O68  1  0.84003870  0.22533114  0.47686713  1
  O  O69  1  0.85005986  0.76813701  0.03965627  1
  O  O70  1  0.84441474  0.79099544  0.76116896  1
  O  O71  1  0.86355772  0.94460211  0.92807099  1
  O  O72  1  0.85915367  0.05259524  0.59859151  1
  O  O73  1  0.82218236  0.56882768  0.82452125  1
  O  O74  1  0.84365060  0.21036320  0.75461223  1
  O  O75  1  0.90161438  0.44515775  0.63036919  1
  O  O76  1  0.93028907  0.82620552  0.38970642  1
  O  O77  1  0.93033738  0.18484140  0.10077561  1
  O  O78  1  0.93577928  0.40822500  0.28991046  1
  O  O79  1  0.98145386  0.56484920  0.12889918  1
