# generated using pymatgen
data_Li3Mn4(BO3)4
_symmetry_space_group_name_H-M   'P 1'
_cell_length_a   11.79579980
_cell_length_b   5.27323200
_cell_length_c   8.26842188
_cell_angle_alpha   91.04865128
_cell_angle_beta   77.96860316
_cell_angle_gamma   90.04844079
_symmetry_Int_Tables_number   1
_chemical_formula_structural   Li3Mn4(BO3)4
_chemical_formula_sum   'Li6 Mn8 B8 O24'
_cell_volume   502.92809172
_cell_formula_units_Z   2
loop_
 _symmetry_equiv_pos_site_id
 _symmetry_equiv_pos_as_xyz
  1  'x, y, z'
loop_
 _atom_site_type_symbol
 _atom_site_label
 _atom_site_symmetry_multiplicity
 _atom_site_fract_x
 _atom_site_fract_y
 _atom_site_fract_z
 _atom_site_occupancy
  Li  Li0  1  0.03082837  0.66172802  0.27320041  1
  Li  Li1  1  0.26925559  0.15801136  0.78057586  1
  Li  Li2  1  0.52009343  0.65393156  0.27293068  1
  Li  Li3  1  0.47990657  0.34606844  0.72706932  1
  Li  Li4  1  0.73074441  0.84198864  0.21942414  1
  Li  Li5  1  0.96917163  0.33827198  0.72679959  1
  Mn  Mn6  1  0.09180834  0.82187106  0.57294414  1
  Mn  Mn7  1  0.16319741  0.68261864  0.92510823  1
  Mn  Mn8  1  0.32932916  0.31659463  0.08940887  1
  Mn  Mn9  1  0.40697657  0.16865259  0.42315748  1
  Mn  Mn10  1  0.59302343  0.83134741  0.57684252  1
  Mn  Mn11  1  0.67067084  0.68340537  0.91059113  1
  Mn  Mn12  1  0.83680259  0.31738136  0.07489177  1
  Mn  Mn13  1  0.90819166  0.17812894  0.42705586  1
  B  B14  1  0.07548611  0.17177841  0.08995929  1
  B  B15  1  0.16387835  0.32293528  0.41360559  1
  B  B16  1  0.33418700  0.66858162  0.59707870  1
  B  B17  1  0.41610185  0.82319642  0.89629923  1
  B  B18  1  0.58389815  0.17680358  0.10370077  1
  B  B19  1  0.66581300  0.33141838  0.40292130  1
  B  B20  1  0.83612165  0.67706472  0.58639441  1
  B  B21  1  0.92451389  0.82822159  0.91004071  1
  O  O22  1  0.07524943  0.91515867  0.10929805  1
  O  O23  1  0.01544565  0.67766556  0.81734953  1
  O  O24  1  0.07444145  0.19889947  0.52264958  1
  O  O25  1  0.15552848  0.57575331  0.38620730  1
  O  O26  1  0.25793538  0.18477350  0.32689166  1
  O  O27  1  0.32508753  0.68228456  0.98586967  1
  O  O28  1  0.16740815  0.29478054  0.98689870  1
  O  O29  1  0.24212227  0.81794874  0.68549405  1
  O  O30  1  0.33754108  0.41280142  0.62500879  1
  O  O31  1  0.42426477  0.78863985  0.48908452  1
  O  O32  1  0.48640840  0.31388083  0.18763877  1
  O  O33  1  0.40898075  0.08187658  0.88025314  1
  O  O34  1  0.59101925  0.91812342  0.11974686  1
  O  O35  1  0.51359160  0.68611917  0.81236123  1
  O  O36  1  0.57573523  0.21136015  0.51091548  1
  O  O37  1  0.66245892  0.58719858  0.37499121  1
  O  O38  1  0.75787773  0.18205126  0.31450595  1
  O  O39  1  0.83259185  0.70521946  0.01310130  1
  O  O40  1  0.67491247  0.31771544  0.01413033  1
  O  O41  1  0.74206462  0.81522650  0.67310834  1
  O  O42  1  0.84447152  0.42424669  0.61379270  1
  O  O43  1  0.92555855  0.80110053  0.47735042  1
  O  O44  1  0.98455435  0.32233444  0.18265047  1
  O  O45  1  0.92475057  0.08484133  0.89070195  1
