# generated using pymatgen
data_Li3Co(BO3)2
_symmetry_space_group_name_H-M   'P 1'
_cell_length_a   5.16921004
_cell_length_b   8.85770381
_cell_length_c   9.78799064
_cell_angle_alpha   90.00000000
_cell_angle_beta   91.03347887
_cell_angle_gamma   90.00000000
_symmetry_Int_Tables_number   1
_chemical_formula_structural   Li3Co(BO3)2
_chemical_formula_sum   'Li12 Co4 B8 O24'
_cell_volume   448.09306722
_cell_formula_units_Z   4
loop_
 _symmetry_equiv_pos_site_id
 _symmetry_equiv_pos_as_xyz
  1  'x, y, z'
loop_
 _atom_site_type_symbol
 _atom_site_label
 _atom_site_symmetry_multiplicity
 _atom_site_fract_x
 _atom_site_fract_y
 _atom_site_fract_z
 _atom_site_occupancy
  Li  Li0  1  0.16204204  0.97738036  0.66759472  1
  Li  Li1  1  0.16769814  0.66080093  0.61782244  1
  Li  Li2  1  0.17617840  0.98953354  0.10076289  1
  Li  Li3  1  0.33230186  0.16080093  0.88217756  1
  Li  Li4  1  0.32382160  0.48953354  0.39923711  1
  Li  Li5  1  0.33795796  0.47738036  0.83240528  1
  Li  Li6  1  0.66204204  0.52261964  0.16759472  1
  Li  Li7  1  0.67617840  0.51046646  0.60076289  1
  Li  Li8  1  0.66769814  0.83919907  0.11782244  1
  Li  Li9  1  0.82382160  0.01046646  0.89923711  1
  Li  Li10  1  0.83230186  0.33919907  0.38217756  1
  Li  Li11  1  0.83795796  0.02261964  0.33240528  1
  Co  Co12  1  0.15280158  0.33318667  0.12377732  1
  Co  Co13  1  0.34719842  0.83318667  0.37622268  1
  Co  Co14  1  0.65280158  0.16681333  0.62377732  1
  Co  Co15  1  0.84719842  0.66681333  0.87622268  1
  B  B16  1  0.16618372  0.32383334  0.62071093  1
  B  B17  1  0.16330485  0.66466112  0.12948215  1
  B  B18  1  0.33381628  0.82383334  0.87928907  1
  B  B19  1  0.33669515  0.16466112  0.37051785  1
  B  B20  1  0.66330485  0.83533888  0.62948215  1
  B  B21  1  0.66618372  0.17616666  0.12071093  1
  B  B22  1  0.83669515  0.33533888  0.87051785  1
  B  B23  1  0.83381628  0.67616666  0.37928907  1
  O  O24  1  0.09146232  0.32965022  0.91567900  1
  O  O25  1  0.09909615  0.67058310  0.40494880  1
  O  O26  1  0.18843121  0.95377572  0.88085475  1
  O  O27  1  0.20978025  0.02453867  0.36177089  1
  O  O28  1  0.19832245  0.29173311  0.33301076  1
  O  O29  1  0.21689281  0.68506952  0.85085253  1
  O  O30  1  0.28310719  0.18506952  0.64914747  1
  O  O31  1  0.30167755  0.79173311  0.16698924  1
  O  O32  1  0.29021975  0.52453867  0.13822911  1
  O  O33  1  0.31156879  0.45377572  0.61914525  1
  O  O34  1  0.40853768  0.82965022  0.58432100  1
  O  O35  1  0.40090385  0.17058310  0.09505120  1
  O  O36  1  0.59909615  0.82941690  0.90494880  1
  O  O37  1  0.59146232  0.17034978  0.41567900  1
  O  O38  1  0.68843121  0.54622428  0.38085475  1
  O  O39  1  0.70978025  0.47546133  0.86177089  1
  O  O40  1  0.69832245  0.20826689  0.83301076  1
  O  O41  1  0.71689281  0.81493048  0.35085253  1
  O  O42  1  0.78310719  0.31493048  0.14914747  1
  O  O43  1  0.80167755  0.70826689  0.66698924  1
  O  O44  1  0.79021975  0.97546133  0.63822911  1
  O  O45  1  0.81156879  0.04622428  0.11914525  1
  O  O46  1  0.90090385  0.32941690  0.59505120  1
  O  O47  1  0.90853768  0.67034978  0.08432100  1
