# generated using pymatgen
data_Li3V3P8O29
_symmetry_space_group_name_H-M   'P 1'
_cell_length_a   9.74430699
_cell_length_b   9.72692894
_cell_length_c   14.04039543
_cell_angle_alpha   90.00082352
_cell_angle_beta   89.99255311
_cell_angle_gamma   60.06071466
_symmetry_Int_Tables_number   1
_chemical_formula_structural   Li3V3P8O29
_chemical_formula_sum   'Li6 V6 P16 O58'
_cell_volume   1153.19312135
_cell_formula_units_Z   2
loop_
 _symmetry_equiv_pos_site_id
 _symmetry_equiv_pos_as_xyz
  1  'x, y, z'
loop_
 _atom_site_type_symbol
 _atom_site_label
 _atom_site_symmetry_multiplicity
 _atom_site_fract_x
 _atom_site_fract_y
 _atom_site_fract_z
 _atom_site_occupancy
  Li  Li0  1  0.90421420  0.76520320  0.05821672  1
  Li  Li1  1  0.90415724  0.33068379  0.55825787  1
  Li  Li2  1  0.33060212  0.90522442  0.05886430  1
  Li  Li3  1  0.33071097  0.76412555  0.55885772  1
  Li  Li4  1  0.97349427  0.04158112  0.99959814  1
  Li  Li5  1  0.97378706  0.98544050  0.49952913  1
  V  V6  1  0.56851844  0.43305255  0.24616163  1
  V  V7  1  0.43522301  0.56253178  0.75490138  1
  V  V8  1  0.56856829  0.99833364  0.74610974  1
  V  V9  1  0.43528987  0.00219124  0.25491144  1
  V  V10  1  0.00241858  0.56259811  0.25294700  1
  V  V11  1  0.00245104  0.43497983  0.75295118  1
  P  P12  1  0.91223467  0.77666168  0.84209850  1
  P  P13  1  0.77784515  0.91514405  0.34439646  1
  P  P14  1  0.91225398  0.31111797  0.34218809  1
  P  P15  1  0.66595241  0.66964368  0.12941461  1
  P  P16  1  0.66593802  0.66435878  0.62937086  1
  P  P17  1  0.77777568  0.30710931  0.84422948  1
  P  P18  1  0.69100815  0.22498922  0.65809112  1
  P  P19  1  0.31445907  0.91412799  0.84346042  1
  P  P20  1  0.69110843  0.08395494  0.15816660  1
  P  P21  1  0.31444674  0.77137810  0.34351547  1
  P  P22  1  0.22367341  0.69095661  0.15905572  1
  P  P23  1  0.33608169  0.33491080  0.37032839  1
  P  P24  1  0.33615632  0.32890260  0.87025064  1
  P  P25  1  0.08666493  0.69167439  0.65751493  1
  P  P26  1  0.22363508  0.08530697  0.65899805  1
  P  P27  1  0.08675884  0.22168554  0.15768371  1
  O  O28  1  0.00499082  0.78684841  0.57241787  1
  O  O29  1  0.91413456  0.74018783  0.33126869  1
  O  O30  1  0.78697032  0.99564135  0.07350752  1
  O  O31  1  0.74115673  0.91664313  0.83118638  1
  O  O32  1  0.90909402  0.61896744  0.82518184  1
  O  O33  1  0.81615006  0.67080296  0.16954139  1
  O  O34  1  0.90912665  0.47194662  0.32525050  1
  O  O35  1  0.00488927  0.20813295  0.07244350  1
  O  O36  1  0.91406136  0.34572913  0.83124380  1
  O  O37  1  0.66616070  0.81292637  0.67515300  1
  O  O38  1  0.61859200  0.91520953  0.32955569  1
  O  O39  1  0.81615434  0.51301011  0.66947688  1
  O  O40  1  0.66051507  0.67367652  0.02357621  1
  O  O41  1  0.66037791  0.66587784  0.52356491  1
  O  O42  1  0.66611747  0.52089938  0.17516671  1
  O  O43  1  0.47219762  0.91133888  0.82592845  1
  O  O44  1  0.51464441  0.81709487  0.17295226  1
  O  O45  1  0.74115658  0.34220722  0.33117952  1
  O  O46  1  0.79595886  0.20144677  0.75194778  1
  O  O47  1  0.78687834  0.21745866  0.57343368  1
  O  O48  1  0.79152598  0.21648951  0.93140381  1
  O  O49  1  0.61856468  0.46618555  0.82952345  1
  O  O50  1  0.51462578  0.66825824  0.67296174  1
  O  O51  1  0.65594793  0.25795150  0.16344819  1
  O  O52  1  0.47221509  0.61639659  0.32594790  1
  O  O53  1  0.34433312  0.91398434  0.33171964  1
  O  O54  1  0.79595681  0.00266947  0.25204531  1
  O  O55  1  0.79155123  0.99190012  0.43142536  1
  O  O56  1  0.21804816  0.99213326  0.57643870  1
  O  O57  1  0.65593479  0.08608964  0.66342756  1
  O  O58  1  0.53356424  0.38266901  0.67274503  1
  O  O59  1  0.34429721  0.74166766  0.83173136  1
  O  O60  1  0.48006998  0.33638051  0.32314797  1
  O  O61  1  0.38114948  0.53236729  0.17162645  1
  O  O62  1  0.21820050  0.78972428  0.07644203  1
  O  O63  1  0.23506020  0.77958108  0.43553834  1
  O  O64  1  0.19930721  0.79034734  0.25662054  1
  O  O65  1  0.26195478  0.65535626  0.66313446  1
  O  O66  1  0.48006906  0.18350867  0.82309276  1
  O  O67  1  0.53365765  0.08369789  0.17277691  1
  O  O68  1  0.33495953  0.47900611  0.82429574  1
  O  O69  1  0.33042937  0.33315881  0.97535169  1
  O  O70  1  0.33035649  0.33637710  0.47534367  1
  O  O71  1  0.18445477  0.48098712  0.32319850  1
  O  O72  1  0.38117740  0.08635426  0.67156405  1
  O  O73  1  0.33498577  0.18595399  0.32431964  1
  O  O74  1  0.08234737  0.65903899  0.15975779  1
  O  O75  1  0.00791160  0.79294589  0.75446363  1
  O  O76  1  0.98610987  0.77812415  0.93452501  1
  O  O77  1  0.08428226  0.53425896  0.67305775  1
  O  O78  1  0.18445512  0.33451158  0.82320739  1
  O  O79  1  0.08424652  0.38146010  0.17306114  1
  O  O80  1  0.26194743  0.08273599  0.16315431  1
  O  O81  1  0.23501837  0.98537265  0.93554495  1
  O  O82  1  0.19927843  0.01029536  0.75660880  1
  O  O83  1  0.08233780  0.25862102  0.65975252  1
  O  O84  1  0.98602538  0.23574390  0.43457869  1
  O  O85  1  0.00801087  0.19912552  0.25455234  1
