# generated using pymatgen
data_Li3Cr(Si2O5)3
_symmetry_space_group_name_H-M   'P 1'
_cell_length_a   10.09270115
_cell_length_b   10.09264880
_cell_length_c   14.24726770
_cell_angle_alpha   90.00009966
_cell_angle_beta   90.00021249
_cell_angle_gamma   59.99982705
_symmetry_Int_Tables_number   1
_chemical_formula_structural   Li3Cr(Si2O5)3
_chemical_formula_sum   'Li12 Cr4 Si24 O60'
_cell_volume   1256.82275225
_cell_formula_units_Z   4
loop_
 _symmetry_equiv_pos_site_id
 _symmetry_equiv_pos_as_xyz
  1  'x, y, z'
loop_
 _atom_site_type_symbol
 _atom_site_label
 _atom_site_symmetry_multiplicity
 _atom_site_fract_x
 _atom_site_fract_y
 _atom_site_fract_z
 _atom_site_occupancy
  Li  Li0  1  0.99999220  0.50000291  0.25000050  1
  Li  Li1  1  0.99999700  0.50000055  0.75000045  1
  Li  Li2  1  0.33330631  0.33339318  0.00000027  1
  Li  Li3  1  0.66660682  0.66669519  0.99999898  1
  Li  Li4  1  0.99999421  0.00000312  0.24999999  1
  Li  Li5  1  0.99999468  0.00000145  0.75000067  1
  Li  Li6  1  0.33330231  0.33329940  0.50000041  1
  Li  Li7  1  0.50000383  0.49999656  0.24999905  1
  Li  Li8  1  0.50000072  0.49999350  0.75000150  1
  Li  Li9  1  0.66670613  0.66669406  0.49999944  1
  Li  Li10  1  0.49999782  0.00000766  0.24999966  1
  Li  Li11  1  0.50000262  -0.00000040  0.75000023  1
  Cr  Cr12  1  0.33332064  0.33335565  0.25000437  1
  Cr  Cr13  1  0.66662969  0.66669770  0.25000421  1
  Cr  Cr14  1  0.66667266  0.66664269  0.74998434  1
  Cr  Cr15  1  0.33333149  0.33337319  0.75000034  1
  Si  Si16  1  0.12249399  0.64151974  0.61216822  1
  Si  Si17  1  0.12249017  0.64152779  0.38782941  1
  Si  Si18  1  0.35847358  0.87751010  0.11216820  1
  Si  Si19  1  0.35848005  0.87750314  0.88782955  1
  Si  Si20  1  0.23597459  0.64153184  0.11217024  1
  Si  Si21  1  0.23597917  0.64152536  0.88783186  1
  Si  Si22  1  0.35847505  0.76401342  0.61216954  1
  Si  Si23  1  0.35847330  0.76401787  0.38783116  1
  Si  Si24  1  0.12248960  0.23599033  0.11217107  1
  Si  Si25  1  0.12249330  0.23598488  0.88783055  1
  Si  Si26  1  0.76401602  0.87750684  0.38782948  1
  Si  Si27  1  0.76401891  0.87750204  0.61217000  1
  Si  Si28  1  0.23598109  0.12249274  0.61217184  1
  Si  Si29  1  0.23597996  0.12249608  0.38782857  1
  Si  Si30  1  0.87750091  0.76401993  0.11217027  1
  Si  Si31  1  0.87750488  0.76401782  0.88782943  1
  Si  Si32  1  0.64152168  0.23598408  0.38783184  1
  Si  Si33  1  0.64152417  0.23597859  0.61216997  1
  Si  Si34  1  0.76401617  0.35847954  0.11217067  1
  Si  Si35  1  0.76401755  0.35847808  0.88783084  1
  Si  Si36  1  0.64152161  0.12249796  0.11217101  1
  Si  Si37  1  0.64152228  0.12249415  0.88783092  1
  Si  Si38  1  0.87750265  0.35847643  0.38782815  1
  Si  Si39  1  0.87750437  0.35847239  0.61216781  1
  O  O40  1  0.05258377  0.72476910  0.13524942  1
  O  O41  1  0.05258775  0.72476812  0.86475299  1
  O  O42  1  0.27523496  0.94741102  0.36475450  1
  O  O43  1  0.27523266  0.94740747  0.63524409  1
  O  O44  1  0.22264488  0.72476141  0.63524550  1
  O  O45  1  0.22263874  0.72477297  0.36475469  1
  O  O46  1  0.27522720  0.77736305  0.13524240  1
  O  O47  1  0.27523199  0.77735240  0.86475770  1
  O  O48  1  0.14760677  0.59089120  0.49999919  1
  O  O49  1  0.40912319  0.85237306  0.00000111  1
  O  O50  1  0.26149385  0.59088693  -0.00000006  1
  O  O51  1  0.40910511  0.73850091  0.50000033  1
  O  O52  1  0.16432684  0.49102512  0.32946813  1
  O  O53  1  0.16433151  0.49101668  0.67052841  1
  O  O54  1  0.50897419  0.83567903  0.17053065  1
  O  O55  1  0.50898129  0.83566384  0.82946642  1
  O  O56  1  0.16432897  0.34465464  0.17053175  1
  O  O57  1  0.16433040  0.34464845  0.82946726  1
  O  O58  1  0.65534302  0.83567439  0.32947378  1
  O  O59  1  0.65534510  0.83566761  0.67052427  1
  O  O60  1  0.05258580  0.22264516  0.36475050  1
  O  O61  1  0.05258512  0.22264264  0.63524610  1
  O  O62  1  0.77735167  0.94741392  0.13525107  1
  O  O63  1  0.77735487  0.94741171  0.86475093  1
  O  O64  1  0.34464533  0.49102718  0.17052930  1
  O  O65  1  0.34464976  0.49102013  0.82947528  1
  O  O66  1  0.50897044  0.65535543  0.32946445  1
  O  O67  1  0.50897242  0.65534503  0.67053231  1
  O  O68  1  0.14760160  0.26150896  0.00000020  1
  O  O69  1  0.73850639  0.85237553  0.49999917  1
  O  O70  1  0.26149292  0.14762125  0.50000083  1
  O  O71  1  0.85239125  0.73850338  0.00000118  1
  O  O72  1  0.49102484  0.34464296  0.67053146  1
  O  O73  1  0.49102305  0.34465033  0.32946982  1
  O  O74  1  0.65534567  0.50898727  0.17052733  1
  O  O75  1  0.65534622  0.50898475  0.82947194  1
  O  O76  1  0.22264599  0.05259289  0.13524323  1
  O  O77  1  0.22264417  0.05258726  0.86475917  1
  O  O78  1  0.94740731  0.77735603  0.36475184  1
  O  O79  1  0.94741210  0.77734699  0.63524750  1
  O  O80  1  0.34464342  0.16433306  0.67053291  1
  O  O81  1  0.34464385  0.16433860  0.32947116  1
  O  O82  1  0.83566269  0.65535823  0.17053377  1
  O  O83  1  0.83566787  0.65535467  0.82946498  1
  O  O84  1  0.49102065  0.16433907  0.17053570  1
  O  O85  1  0.49102081  0.16433070  0.82946782  1
  O  O86  1  0.83565814  0.50898442  0.32947095  1
  O  O87  1  0.83566678  0.50897566  0.67052824  1
  O  O88  1  0.59089630  0.26149411  0.50000105  1
  O  O89  1  0.73850114  0.40910535  0.00000077  1
  O  O90  1  0.59089459  0.14761083  0.00000152  1
  O  O91  1  0.85239146  0.40910439  0.49999964  1
  O  O92  1  0.72477031  0.22264395  0.13524903  1
  O  O93  1  0.72476591  0.22264684  0.86475371  1
  O  O94  1  0.77735675  0.27522750  0.36475202  1
  O  O95  1  0.77735219  0.27523302  0.63524718  1
  O  O96  1  0.72475972  0.05258854  0.36475490  1
  O  O97  1  0.72476892  0.05258362  0.63524511  1
  O  O98  1  0.94741018  0.27523610  0.13524962  1
  O  O99  1  0.94741104  0.27523157  0.86475174  1
