# generated using pymatgen
data_LiCr3P3(HO6)2
_symmetry_space_group_name_H-M   'P 1'
_cell_length_a   8.78920287
_cell_length_b   8.78920287
_cell_length_c   6.60020644
_cell_angle_alpha   72.55396170
_cell_angle_beta   107.44603830
_cell_angle_gamma   91.36211738
_symmetry_Int_Tables_number   1
_chemical_formula_structural   LiCr3P3(HO6)2
_chemical_formula_sum   'Li2 Cr6 P6 H4 O24'
_cell_volume   462.81144693
_cell_formula_units_Z   2
loop_
 _symmetry_equiv_pos_site_id
 _symmetry_equiv_pos_as_xyz
  1  'x, y, z'
loop_
 _atom_site_type_symbol
 _atom_site_label
 _atom_site_symmetry_multiplicity
 _atom_site_fract_x
 _atom_site_fract_y
 _atom_site_fract_z
 _atom_site_occupancy
  Li  Li0  1  0.01475750  0.01475750  0.75000000  1
  Li  Li1  1  0.98524250  0.98524250  0.25000000  1
  Cr  Cr2  1  0.05399059  0.62603129  0.63685812  1
  Cr  Cr3  1  0.37396871  0.94600941  0.13685812  1
  Cr  Cr4  1  0.72184365  0.72184365  0.75000000  1
  Cr  Cr5  1  0.27815635  0.27815635  0.25000000  1
  Cr  Cr6  1  0.62603129  0.05399059  0.86314188  1
  Cr  Cr7  1  0.94600941  0.37396871  0.36314188  1
  P  P8  1  0.32283913  0.89512673  0.60849356  1
  P  P9  1  0.10487327  0.67716087  0.10849356  1
  P  P10  1  0.32312215  0.32312215  0.75000000  1
  P  P11  1  0.67687785  0.67687785  0.25000000  1
  P  P12  1  0.89512673  0.32283913  0.89150644  1
  P  P13  1  0.67716087  0.10487327  0.39150644  1
  H  H14  1  0.37517665  0.62422548  0.68261811  1
  H  H15  1  0.37577452  0.62482335  0.18261811  1
  H  H16  1  0.62422548  0.37517665  0.81738189  1
  H  H17  1  0.62482335  0.37577452  0.31738189  1
  O  O18  1  0.14557835  0.85518009  0.58621854  1
  O  O19  1  0.39523499  0.96339588  0.80352407  1
  O  O20  1  0.14481991  0.85442165  0.08621854  1
  O  O21  1  0.03660412  0.60476501  0.30352407  1
  O  O22  1  0.67612375  0.98081050  0.61295762  1
  O  O23  1  0.42994820  0.74193136  0.64415780  1
  O  O24  1  0.29273762  0.50143608  0.72690325  1
  O  O25  1  0.28019062  0.22066286  0.96002527  1
  O  O26  1  0.01918950  0.32387625  0.11295762  1
  O  O27  1  0.25806864  0.57005180  0.14415780  1
  O  O28  1  0.49856392  0.70726238  0.22690325  1
  O  O29  1  0.22066286  0.28019062  0.53997473  1
  O  O30  1  0.77933714  0.71980938  0.46002527  1
  O  O31  1  0.50143608  0.29273762  0.77309675  1
  O  O32  1  0.74193136  0.42994820  0.85584220  1
  O  O33  1  0.98081050  0.67612375  0.88704238  1
  O  O34  1  0.71980938  0.77933714  0.03997473  1
  O  O35  1  0.70726238  0.49856392  0.27309675  1
  O  O36  1  0.57005180  0.25806864  0.35584220  1
  O  O37  1  0.32387625  0.01918950  0.38704238  1
  O  O38  1  0.96339588  0.39523499  0.69647593  1
  O  O39  1  0.85518009  0.14557835  0.91378146  1
  O  O40  1  0.60476501  0.03660412  0.19647593  1
  O  O41  1  0.85442165  0.14481991  0.41378146  1
