# generated using pymatgen
data_Li3Mn4(BO3)4
_symmetry_space_group_name_H-M   'P 1'
_cell_length_a   12.36296459
_cell_length_b   7.92029285
_cell_length_c   5.23887807
_cell_angle_alpha   88.17645356
_cell_angle_beta   87.21795103
_cell_angle_gamma   80.25904471
_symmetry_Int_Tables_number   1
_chemical_formula_structural   Li3Mn4(BO3)4
_chemical_formula_sum   'Li6 Mn8 B8 O24'
_cell_volume   504.84512097
_cell_formula_units_Z   2
loop_
 _symmetry_equiv_pos_site_id
 _symmetry_equiv_pos_as_xyz
  1  'x, y, z'
loop_
 _atom_site_type_symbol
 _atom_site_label
 _atom_site_symmetry_multiplicity
 _atom_site_fract_x
 _atom_site_fract_y
 _atom_site_fract_z
 _atom_site_occupancy
  Li  Li0  1  0.26593470  0.15241324  0.91218157  1
  Li  Li1  1  0.76793303  0.15406297  0.91055270  1
  Li  Li2  1  0.23406530  0.84758676  0.08781843  1
  Li  Li3  1  0.51105281  0.63327603  0.42634968  1
  Li  Li4  1  0.98894719  0.36672397  0.57365032  1
  Li  Li5  1  0.73206697  0.84593703  0.08944730  1
  Mn  Mn6  1  0.37963363  0.99449367  0.39890507  1
  Mn  Mn7  1  0.12565210  0.51015555  0.90244817  1
  Mn  Mn8  1  0.37434790  0.48984445  0.09755183  1
  Mn  Mn9  1  0.12036637  0.00550633  0.60109493  1
  Mn  Mn10  1  0.87970566  0.99286645  0.40401485  1
  Mn  Mn11  1  0.62670193  0.49464518  0.89638528  1
  Mn  Mn12  1  0.87329807  0.50535482  0.10361472  1
  Mn  Mn13  1  0.62029434  0.00713355  0.59598515  1
  B  B14  1  0.04524733  0.17253910  0.09672648  1
  B  B15  1  0.20598032  0.32715355  0.40273998  1
  B  B16  1  0.55173718  0.16577401  0.09986987  1
  B  B17  1  0.29401968  0.67284645  0.59726002  1
  B  B18  1  0.70906988  0.33693858  0.40075132  1
  B  B19  1  0.45475267  0.82746090  0.90327352  1
  B  B20  1  0.79093012  0.66306142  0.59924868  1
  B  B21  1  0.94826282  0.83422599  0.90013013  1
  O  O22  1  0.12653506  0.04934747  0.99087415  1
  O  O23  1  0.00172121  0.31858286  0.95712838  1
  O  O24  1  0.00915757  0.15410988  0.35216919  1
  O  O25  1  0.24552591  0.17000949  0.53230629  1
  O  O26  1  0.13089352  0.44702010  0.51892883  1
  O  O27  1  0.63164443  0.04646862  0.98429398  1
  O  O28  1  0.24150720  0.34529136  0.14472442  1
  O  O29  1  0.51894459  0.32689938  0.98846639  1
  O  O30  1  0.50634487  0.12840788  0.33943758  1
  O  O31  1  0.25849280  0.65470864  0.85527558  1
  O  O32  1  0.36910648  0.55297990  0.48107117  1
  O  O33  1  0.74472523  0.18230762  0.53143242  1
  O  O34  1  0.25447409  0.82999051  0.46769371  1
  O  O35  1  0.63670640  0.46712606  0.50837857  1
  O  O36  1  0.74629584  0.35411289  0.14114409  1
  O  O37  1  0.49084243  0.84589012  0.64783081  1
  O  O38  1  0.49827879  0.68141714  0.04287162  1
  O  O39  1  0.75370416  0.64588711  0.85885591  1
  O  O40  1  0.37346494  0.95065253  0.00912585  1
  O  O41  1  0.86329360  0.53287394  0.49162143  1
  O  O42  1  0.75527477  0.81769238  0.46856758  1
  O  O43  1  0.99365513  0.87159212  0.66056242  1
  O  O44  1  0.98105541  0.67310062  0.01153361  1
  O  O45  1  0.86835557  0.95353138  0.01570602  1
