# generated using pymatgen
data_Mn6O11F
_symmetry_space_group_name_H-M   'P 1'
_cell_length_a   4.51288642
_cell_length_b   4.51288642
_cell_length_c   8.97458512
_cell_angle_alpha   90.00000000
_cell_angle_beta   90.00000000
_cell_angle_gamma   90.80730130
_symmetry_Int_Tables_number   1
_chemical_formula_structural   Mn6O11F
_chemical_formula_sum   'Mn6 O11 F1'
_cell_volume   182.75954853
_cell_formula_units_Z   1
loop_
 _symmetry_equiv_pos_site_id
 _symmetry_equiv_pos_as_xyz
  1  'x, y, z'
loop_
 _atom_site_type_symbol
 _atom_site_label
 _atom_site_symmetry_multiplicity
 _atom_site_fract_x
 _atom_site_fract_y
 _atom_site_fract_z
 _atom_site_occupancy
  Mn  Mn0  1  0.00729805  0.99270195  0.00775426  1
  Mn  Mn1  1  0.99903441  0.00096559  0.33333300  1
  Mn  Mn2  1  0.00729805  0.99270195  0.65891274  1
  Mn  Mn3  1  0.48061225  0.51938775  0.83333300  1
  Mn  Mn4  1  0.50309789  0.49690211  0.16669792  1
  Mn  Mn5  1  0.50309789  0.49690211  0.49996908  1
  O  O6  1  0.19614084  0.80385916  0.16857085  1
  O  O7  1  0.19614084  0.80385916  0.49809615  1
  O  O8  1  0.19016943  0.80983057  0.83333300  1
  O  O9  1  0.30565304  0.30514896  0.99961734  1
  O  O10  1  0.30602571  0.30594324  0.33333300  1
  O  O11  1  0.30565304  0.30514896  0.66704866  1
  O  O12  1  0.69485104  0.69434696  0.99961734  1
  O  O13  1  0.69405676  0.69397429  0.33333300  1
  O  O14  1  0.69485104  0.69434696  0.66704866  1
  O  O15  1  0.80756607  0.19243393  0.16775240  1
  O  O16  1  0.80756607  0.19243393  0.49891460  1
  F  F17  1  0.80088559  0.19911441  0.83333300  1
