# generated using pymatgen
data_LiTePO5
_symmetry_space_group_name_H-M   'P 1'
_cell_length_a   8.76164950
_cell_length_b   6.81560586
_cell_length_c   7.36584238
_cell_angle_alpha   90.00000000
_cell_angle_beta   90.00000000
_cell_angle_gamma   90.00000000
_symmetry_Int_Tables_number   1
_chemical_formula_structural   LiTePO5
_chemical_formula_sum   'Li4 Te4 P4 O20'
_cell_volume   439.85827288
_cell_formula_units_Z   4
loop_
 _symmetry_equiv_pos_site_id
 _symmetry_equiv_pos_as_xyz
  1  'x, y, z'
loop_
 _atom_site_type_symbol
 _atom_site_label
 _atom_site_symmetry_multiplicity
 _atom_site_fract_x
 _atom_site_fract_y
 _atom_site_fract_z
 _atom_site_occupancy
  Li  Li0  1  0.00000000  0.00000000  0.00000000  1
  Li  Li1  1  0.00000000  0.50000000  0.00000000  1
  Li  Li2  1  0.50000000  0.00000000  0.50000000  1
  Li  Li3  1  0.50000000  0.50000000  0.50000000  1
  Te  Te4  1  0.13715619  0.25000000  0.72151476  1
  Te  Te5  1  0.36284381  0.75000000  0.22151476  1
  Te  Te6  1  0.63715619  0.25000000  0.77848524  1
  Te  Te7  1  0.86284381  0.75000000  0.27848524  1
  P  P8  1  0.12699197  0.75000000  0.63668314  1
  P  P9  1  0.37300803  0.25000000  0.13668314  1
  P  P10  1  0.62699197  0.75000000  0.86331686  1
  P  P11  1  0.87300803  0.25000000  0.36331686  1
  O  O12  1  0.02588951  0.25000000  0.47306527  1
  O  O13  1  0.04151240  0.75000000  0.14331173  1
  O  O14  1  0.12406614  0.56831483  0.76613480  1
  O  O15  1  0.12406614  0.93168517  0.76613480  1
  O  O16  1  0.22965852  0.25000000  0.01625142  1
  O  O17  1  0.27034148  0.75000000  0.51625142  1
  O  O18  1  0.37593386  0.06831483  0.26613480  1
  O  O19  1  0.37593386  0.43168517  0.26613480  1
  O  O20  1  0.45848760  0.25000000  0.64331173  1
  O  O21  1  0.47411049  0.75000000  0.97306527  1
  O  O22  1  0.52588951  0.25000000  0.02693473  1
  O  O23  1  0.54151240  0.75000000  0.35668827  1
  O  O24  1  0.62406614  0.56831483  0.73386520  1
  O  O25  1  0.62406614  0.93168517  0.73386520  1
  O  O26  1  0.72965852  0.25000000  0.48374858  1
  O  O27  1  0.77034148  0.75000000  0.98374858  1
  O  O28  1  0.87593386  0.06831483  0.23386520  1
  O  O29  1  0.87593386  0.43168517  0.23386520  1
  O  O30  1  0.95848760  0.25000000  0.85668827  1
  O  O31  1  0.97411049  0.75000000  0.52693473  1
