# generated using pymatgen
data_NaV13O18
_symmetry_space_group_name_H-M   'P 1'
_cell_length_a   8.01107473
_cell_length_b   7.94158379
_cell_length_c   7.95189764
_cell_angle_alpha   110.96574760
_cell_angle_beta   111.59437475
_cell_angle_gamma   110.63615878
_symmetry_Int_Tables_number   1
_chemical_formula_structural   NaV13O18
_chemical_formula_sum   'Na1 V13 O18'
_cell_volume   364.63564864
_cell_formula_units_Z   1
loop_
 _symmetry_equiv_pos_site_id
 _symmetry_equiv_pos_as_xyz
  1  'x, y, z'
loop_
 _atom_site_type_symbol
 _atom_site_label
 _atom_site_symmetry_multiplicity
 _atom_site_fract_x
 _atom_site_fract_y
 _atom_site_fract_z
 _atom_site_occupancy
  Na  Na0  1  0.00009939  0.99960507  0.99943912  1
  V  V1  1  0.08149328  0.87836418  0.58048407  1
  V  V2  1  0.42697133  0.93030826  0.12901030  1
  V  V3  1  0.34550908  0.76973406  0.40098389  1
  V  V4  1  0.22617235  0.59782148  0.64590513  1
  V  V5  1  0.12072552  0.42468482  0.92312918  1
  V  V6  1  0.60556418  0.65077608  0.23142352  1
  V  V7  1  0.49285547  0.50355088  0.49985897  1
  V  V8  1  0.40236621  0.34865210  0.77001239  1
  V  V9  1  0.88274778  0.57797618  0.07846828  1
  V  V10  1  0.76325322  0.40250599  0.34647493  1
  V  V11  1  0.64086053  0.21856315  0.58773905  1
  V  V12  1  0.58353803  0.08033295  0.87913123  1
  V  V13  1  0.92457403  0.12073268  0.42393046  1
  O  O14  1  0.28980154  0.90390456  0.84291884  1
  O  O15  1  0.15047003  0.71392265  0.09207080  1
  O  O16  1  0.04721748  0.60625514  0.37450650  1
  O  O17  1  0.62554600  0.94388634  0.39151643  1
  O  O18  1  0.52016629  0.77985841  0.68205039  1
  O  O19  1  0.38593043  0.60916991  0.93749555  1
  O  O20  1  0.32669640  0.48424706  0.22183303  1
  O  O21  1  0.21374382  0.31599635  0.48560805  1
  O  O22  1  0.11420330  0.16577542  0.72847967  1
  O  O23  1  0.90678169  0.84739542  0.28715714  1
  O  O24  1  0.78287835  0.67133736  0.52164348  1
  O  O25  1  0.66780211  0.50889877  0.78218891  1
  O  O26  1  0.61515425  0.38157144  0.05835683  1
  O  O27  1  0.47965425  0.22363472  0.31881621  1
  O  O28  1  0.38080436  0.06523184  0.61683684  1
  O  O29  1  0.93380473  0.38608968  0.60847040  1
  O  O30  1  0.84082241  0.27696488  0.89203011  1
  O  O31  1  0.72179217  0.11225216  0.16203032  1
