# generated using pymatgen
data_Li3Mn4(BO3)4
_symmetry_space_group_name_H-M   'P 1'
_cell_length_a   7.90520212
_cell_length_b   9.19324478
_cell_length_c   8.29255709
_cell_angle_alpha   113.39685268
_cell_angle_beta   99.66791090
_cell_angle_gamma   65.76537557
_symmetry_Int_Tables_number   1
_chemical_formula_structural   Li3Mn4(BO3)4
_chemical_formula_sum   'Li6 Mn8 B8 O24'
_cell_volume   504.35183309
_cell_formula_units_Z   2
loop_
 _symmetry_equiv_pos_site_id
 _symmetry_equiv_pos_as_xyz
  1  'x, y, z'
loop_
 _atom_site_type_symbol
 _atom_site_label
 _atom_site_symmetry_multiplicity
 _atom_site_fract_x
 _atom_site_fract_y
 _atom_site_fract_z
 _atom_site_occupancy
  Li  Li0  1  0.11609746  0.15197340  0.79853799  1
  Li  Li1  1  0.38390254  0.84802660  0.70146201  1
  Li  Li2  1  0.61143207  0.36367640  0.95676855  1
  Li  Li3  1  0.88856793  0.63632360  0.54323145  1
  Li  Li4  1  0.61045652  0.15377830  0.29793836  1
  Li  Li5  1  0.88954348  0.84622170  0.20206164  1
  Mn  Mn6  1  0.07771959  0.49777670  0.82821094  1
  Mn  Mn7  1  0.17675891  0.01650733  0.42592236  1
  Mn  Mn8  1  0.67391602  0.99513902  0.91951068  1
  Mn  Mn9  1  0.42228041  0.50222330  0.67178906  1
  Mn  Mn10  1  0.56643668  0.50854010  0.32675487  1
  Mn  Mn11  1  0.32324109  0.98349267  0.07407764  1
  Mn  Mn12  1  0.82608398  0.00486098  0.58048932  1
  Mn  Mn13  1  0.93356332  0.49145990  0.17324513  1
  B  B14  1  0.08098592  0.82746285  0.80868072  1
  B  B15  1  0.16953550  0.67694265  0.42879674  1
  B  B16  1  0.67581577  0.65941376  0.92357285  1
  B  B17  1  0.41901408  0.17253715  0.69131928  1
  B  B18  1  0.58549354  0.83592633  0.32717791  1
  B  B19  1  0.33046450  0.32305735  0.07120326  1
  B  B20  1  0.82418423  0.34058624  0.57642715  1
  B  B21  1  0.91450646  0.16407367  0.17282209  1
  O  O22  1  0.15237623  0.95265920  0.84968067  1
  O  O23  1  0.07108846  0.83140143  0.40099682  1
  O  O24  1  0.18503953  0.67139109  0.82737675  1
  O  O25  1  0.15561624  0.34470104  0.98562457  1
  O  O26  1  0.09661495  0.55602319  0.38823851  1
  O  O27  1  0.34438376  0.65529896  0.51437543  1
  O  O28  1  0.09495937  0.13086101  0.23973075  1
  O  O29  1  0.56102474  0.81559885  0.90119899  1
  O  O30  1  0.31496047  0.32860891  0.67262325  1
  O  O31  1  0.40504063  0.86913899  0.26026925  1
  O  O32  1  0.61654432  0.52856729  0.87532640  1
  O  O33  1  0.34762377  0.04734080  0.65031933  1
  O  O34  1  0.66396503  0.95356632  0.35609599  1
  O  O35  1  0.40338505  0.44397681  0.11176149  1
  O  O36  1  0.59758873  0.14828733  0.76278282  1
  O  O37  1  0.68683357  0.68320001  0.35690255  1
  O  O38  1  0.42891054  0.16859857  0.09900318  1
  O  O39  1  0.90241127  0.85171267  0.73721718  1
  O  O40  1  0.64946781  0.35206378  0.49300341  1
  O  O41  1  0.88345568  0.47143271  0.62467360  1
  O  O42  1  0.85053219  0.64793622  0.00699659  1
  O  O43  1  0.81316643  0.31679999  0.14309745  1
  O  O44  1  0.93897526  0.18440115  0.59880101  1
  O  O45  1  0.83603497  0.04643368  0.14390401  1
