# generated using pymatgen
data_Li2MnSiO4
_symmetry_space_group_name_H-M   'P 1'
_cell_length_a   5.98385978
_cell_length_b   5.46785957
_cell_length_c   11.06126366
_cell_angle_alpha   90.00000000
_cell_angle_beta   82.70583987
_cell_angle_gamma   90.00000000
_symmetry_Int_Tables_number   1
_chemical_formula_structural   Li2MnSiO4
_chemical_formula_sum   'Li8 Mn4 Si4 O16'
_cell_volume   358.98361807
_cell_formula_units_Z   4
loop_
 _symmetry_equiv_pos_site_id
 _symmetry_equiv_pos_as_xyz
  1  'x, y, z'
loop_
 _atom_site_type_symbol
 _atom_site_label
 _atom_site_symmetry_multiplicity
 _atom_site_fract_x
 _atom_site_fract_y
 _atom_site_fract_z
 _atom_site_occupancy
  Li  Li0  1  0.04320025  0.32169844  0.83230662  1
  Li  Li1  1  0.04320025  0.17830156  0.33230662  1
  Li  Li2  1  0.22628057  0.18026851  0.57275540  1
  Li  Li3  1  0.22628057  0.31973149  0.07275540  1
  Li  Li4  1  0.77371843  0.68026851  0.92724460  1
  Li  Li5  1  0.77371843  0.81973149  0.42724460  1
  Li  Li6  1  0.95679975  0.82169844  0.66769338  1
  Li  Li7  1  0.95679975  0.67830156  0.16769338  1
  Mn  Mn8  1  0.57458869  0.17904300  0.83195657  1
  Mn  Mn9  1  0.42541131  0.67904300  0.66804343  1
  Mn  Mn10  1  0.57458869  0.32095700  0.33195657  1
  Mn  Mn11  1  0.42541131  0.82095700  0.16804343  1
  Si  Si12  1  0.25666760  0.81795212  0.91147085  1
  Si  Si13  1  0.25666760  0.68204788  0.41147085  1
  Si  Si14  1  0.74333240  0.31795212  0.58852915  1
  Si  Si15  1  0.74333240  0.18204788  0.08852915  1
  O  O16  1  0.09099934  0.69531411  0.81976912  1
  O  O17  1  0.09099934  0.80468589  0.31976912  1
  O  O18  1  0.23700088  0.11698801  0.92521814  1
  O  O19  1  0.23700088  0.38301199  0.42521814  1
  O  O20  1  0.23922436  0.82451788  0.54330503  1
  O  O21  1  0.47792449  0.28634783  0.66322958  1
  O  O22  1  0.23922436  0.67548212  0.04330503  1
  O  O23  1  0.47792449  0.21365217  0.16322958  1
  O  O24  1  0.52207551  0.78634783  0.83677042  1
  O  O25  1  0.76077564  0.32451788  0.95669497  1
  O  O26  1  0.52207551  0.71365217  0.33677042  1
  O  O27  1  0.76077564  0.17548212  0.45669497  1
  O  O28  1  0.76299912  0.61698801  0.57478186  1
  O  O29  1  0.76299912  0.88301199  0.07478186  1
  O  O30  1  0.90900066  0.19531411  0.68023088  1
  O  O31  1  0.90900066  0.30468589  0.18023088  1
