# generated using pymatgen
data_Mn3OF5
_symmetry_space_group_name_H-M   'P 1'
_cell_length_a   7.57960061
_cell_length_b   5.87084484
_cell_length_c   5.87084484
_cell_angle_alpha   73.66349672
_cell_angle_beta   73.36360678
_cell_angle_gamma   73.36360678
_symmetry_Int_Tables_number   1
_chemical_formula_structural   Mn3OF5
_chemical_formula_sum   'Mn6 O2 F10'
_cell_volume   234.11100387
_cell_formula_units_Z   2
loop_
 _symmetry_equiv_pos_site_id
 _symmetry_equiv_pos_as_xyz
  1  'x, y, z'
loop_
 _atom_site_type_symbol
 _atom_site_label
 _atom_site_symmetry_multiplicity
 _atom_site_fract_x
 _atom_site_fract_y
 _atom_site_fract_z
 _atom_site_occupancy
  Mn  Mn0  1  0.84817371  0.67879776  0.67879776  1
  Mn  Mn1  1  0.68259626  0.33281659  0.33281659  1
  Mn  Mn2  1  0.31740374  0.66718341  0.66718341  1
  Mn  Mn3  1  0.15182629  0.32120224  0.32120224  1
  Mn  Mn4  1  0.50000000  0.00000000  0.00000000  1
  Mn  Mn5  1  0.00000000  0.00000000  0.00000000  1
  O  O6  1  0.96421790  0.21400003  0.21400003  1
  O  O7  1  0.03578210  0.78599997  0.78599997  1
  F  F8  1  0.66376565  0.03331655  0.63370599  1
  F  F9  1  0.33623435  0.36629401  0.96668345  1
  F  F10  1  0.29083997  0.90722923  0.90722923  1
  F  F11  1  0.62543720  0.57510086  0.57510086  1
  F  F12  1  0.70916003  0.09277077  0.09277077  1
  F  F13  1  0.37456280  0.42489914  0.42489914  1
  F  F14  1  0.33623435  0.96668345  0.36629401  1
  F  F15  1  0.66376565  0.63370599  0.03331655  1
  F  F16  1  0.00000000  0.30643554  0.69356446  1
  F  F17  1  0.00000000  0.69356446  0.30643554  1
