# generated using pymatgen
data_Fe6OF11
_symmetry_space_group_name_H-M   'P 1'
_cell_length_a   7.60230690
_cell_length_b   5.81995565
_cell_length_c   5.81995565
_cell_angle_alpha   71.62809150
_cell_angle_beta   72.81298718
_cell_angle_gamma   72.81298718
_symmetry_Int_Tables_number   1
_chemical_formula_structural   Fe6OF11
_chemical_formula_sum   'Fe6 O1 F11'
_cell_volume   227.57762614
_cell_formula_units_Z   1
loop_
 _symmetry_equiv_pos_site_id
 _symmetry_equiv_pos_as_xyz
  1  'x, y, z'
loop_
 _atom_site_type_symbol
 _atom_site_label
 _atom_site_symmetry_multiplicity
 _atom_site_fract_x
 _atom_site_fract_y
 _atom_site_fract_z
 _atom_site_occupancy
  Fe  Fe0  1  0.84726904  0.64201461  0.65959686  1
  Fe  Fe1  1  0.66893358  0.32635709  0.33523404  1
  Fe  Fe2  1  0.33106642  0.66476596  0.67364291  1
  Fe  Fe3  1  0.15273096  0.34040314  0.35798539  1
  Fe  Fe4  1  0.50000000  0.99771829  0.00228171  1
  Fe  Fe5  1  0.00000000  0.02116537  0.97883463  1
  O  O6  1  0.00000000  0.30920193  0.69079807  1
  F  F7  1  0.67486794  0.01626664  0.63128603  1
  F  F8  1  0.32513206  0.36871397  0.98373336  1
  F  F9  1  0.30513201  0.89528047  0.90539282  1
  F  F10  1  0.96917053  0.23862585  0.23648794  1
  F  F11  1  0.63333758  0.56979744  0.56346221  1
  F  F12  1  0.03082947  0.76351206  0.76137415  1
  F  F13  1  0.36666242  0.43653779  0.43020256  1
  F  F14  1  0.69486799  0.09460718  0.10471953  1
  F  F15  1  0.32639584  0.97680731  0.37582668  1
  F  F16  1  0.67360416  0.62417332  0.02319269  1
  F  F17  1  0.00000000  0.71405156  0.28594844  1
