# generated using pymatgen
data_H28Pt2Br5N9O2
_symmetry_space_group_name_H-M   'P 1'
_cell_length_a   11.07538289
_cell_length_b   12.85704031
_cell_length_c   15.11189762
_cell_angle_alpha   90.00000000
_cell_angle_beta   90.00000000
_cell_angle_gamma   109.52415431
_symmetry_Int_Tables_number   1
_chemical_formula_structural   H28Pt2Br5N9O2
_chemical_formula_sum   'H112 Pt8 Br20 N36 O8'
_cell_volume   2028.15167887
_cell_formula_units_Z   4
loop_
 _symmetry_equiv_pos_site_id
 _symmetry_equiv_pos_as_xyz
  1  'x, y, z'
loop_
 _atom_site_type_symbol
 _atom_site_label
 _atom_site_symmetry_multiplicity
 _atom_site_fract_x
 _atom_site_fract_y
 _atom_site_fract_z
 _atom_site_occupancy
  H  H0  1  0.93477810  0.34168567  0.21380524  1
  H  H1  1  0.06522190  0.15831433  0.71380524  1
  H  H2  1  0.06522190  0.65831433  0.78619476  1
  H  H3  1  0.93477810  0.84168567  0.28619476  1
  H  H4  1  0.82378664  0.34224980  0.28695839  1
  H  H5  1  0.17621336  0.15775020  0.78695839  1
  H  H6  1  0.17621336  0.65775020  0.71304161  1
  H  H7  1  0.82378664  0.84224980  0.21304161  1
  H  H8  1  0.82257218  0.22331558  0.23903833  1
  H  H9  1  0.17742782  0.27668442  0.73903833  1
  H  H10  1  0.17742782  0.77668442  0.76096167  1
  H  H11  1  0.82257218  0.72331558  0.26096167  1
  H  H12  1  0.94509690  0.33288736  0.05780302  1
  H  H13  1  0.05490310  0.16711264  0.55780302  1
  H  H14  1  0.05490310  0.66711264  0.94219698  1
  H  H15  1  0.94509690  0.83288736  0.44219698  1
  H  H16  1  0.83215110  0.21605232  0.02770246  1
  H  H17  1  0.16784890  0.28394768  0.52770246  1
  H  H18  1  0.16784890  0.78394768  0.97229754  1
  H  H19  1  0.83215110  0.71605232  0.47229754  1
  H  H20  1  0.84553859  0.33641591  0.97704509  1
  H  H21  1  0.15446141  0.16358409  0.47704509  1
  H  H22  1  0.15446141  0.66358409  0.02295491  1
  H  H23  1  0.84553859  0.83641591  0.52295491  1
  H  H24  1  0.80431968  0.53178399  0.17924886  1
  H  H25  1  0.19568032  0.96821601  0.67924886  1
  H  H26  1  0.19568032  0.46821601  0.82075114  1
  H  H27  1  0.80431968  0.03178399  0.32075114  1
  H  H28  1  0.92550017  0.50533438  0.12849791  1
  H  H29  1  0.07449983  0.99466562  0.62849791  1
  H  H30  1  0.07449983  0.49466562  0.87150209  1
  H  H31  1  0.92550017  0.00533438  0.37150209  1
  H  H32  1  0.81523165  0.53342050  0.06810521  1
  H  H33  1  0.18476835  0.96657950  0.56810521  1
  H  H34  1  0.18476835  0.46657950  0.93189479  1
  H  H35  1  0.81523165  0.03342050  0.43189479  1
  H  H36  1  0.58806143  0.12111097  0.18138111  1
  H  H37  1  0.41193857  0.37888903  0.68138111  1
  H  H38  1  0.41193857  0.87888903  0.81861889  1
  H  H39  1  0.58806143  0.62111097  0.31861889  1
  H  H40  1  0.59741442  0.12172320  0.07023093  1
  H  H41  1  0.40258558  0.37827680  0.57023093  1
  H  H42  1  0.40258558  0.87827680  0.92976907  1
  H  H43  1  0.59741442  0.62172320  0.42976907  1
  H  H44  1  0.58056979  0.41181014  0.02312224  1
  H  H45  1  0.41943021  0.08818986  0.52312224  1
  H  H46  1  0.41943021  0.58818986  0.97687776  1
  H  H47  1  0.58056979  0.91181014  0.47687776  1
  H  H48  1  0.59387078  0.29877053  0.97411924  1
  H  H49  1  0.40612922  0.20122947  0.47411924  1
  H  H50  1  0.40612922  0.70122947  0.02588076  1
  H  H51  1  0.59387078  0.79877053  0.52588076  1
  H  H52  1  0.56769456  0.30639873  0.26827854  1
  H  H53  1  0.43230544  0.19360127  0.76827854  1
  H  H54  1  0.43230544  0.69360127  0.73172146  1
  H  H55  1  0.56769456  0.80639873  0.23172146  1
  H  H56  1  0.56664440  0.41652305  0.20869766  1
  H  H57  1  0.43335560  0.08347695  0.70869766  1
  H  H58  1  0.43335560  0.58347695  0.79130234  1
  H  H59  1  0.56664440  0.91652305  0.29130234  1
  H  H60  1  0.40359311  0.11487709  0.97083042  1
  H  H61  1  0.59640689  0.38512291  0.47083042  1
  H  H62  1  0.59640689  0.88512291  0.02916958  1
  H  H63  1  0.40359311  0.61487709  0.52916958  1
  H  H64  1  0.27597494  0.06085080  0.03778384  1
  H  H65  1  0.72402506  0.43914920  0.53778384  1
  H  H66  1  0.72402506  0.93914920  0.96221616  1
  H  H67  1  0.27597494  0.56085080  0.46221616  1
  H  H68  1  0.28656608  0.17025524  0.97844508  1
  H  H69  1  0.71343392  0.32974476  0.47844508  1
  H  H70  1  0.71343392  0.82974476  0.02155492  1
  H  H71  1  0.28656608  0.67025524  0.52155492  1
  H  H72  1  0.26708976  0.31318861  0.05016992  1
  H  H73  1  0.73291024  0.18681139  0.55016992  1
  H  H74  1  0.73291024  0.68681139  0.94983008  1
  H  H75  1  0.26708976  0.81318861  0.44983008  1
  H  H76  1  0.24878193  0.30164499  0.15900476  1
  H  H77  1  0.75121807  0.19835501  0.65900476  1
  H  H78  1  0.75121807  0.69835501  0.84099524  1
  H  H79  1  0.24878193  0.80164499  0.34099524  1
  H  H80  1  0.36847683  0.40824421  0.11702837  1
  H  H81  1  0.63152317  0.09175579  0.61702837  1
  H  H82  1  0.63152317  0.59175579  0.88297163  1
  H  H83  1  0.36847683  0.90824421  0.38297163  1
  H  H84  1  0.29915823  0.18277095  0.25785570  1
  H  H85  1  0.70084177  0.31722905  0.75785570  1
  H  H86  1  0.70084177  0.81722905  0.74214430  1
  H  H87  1  0.29915823  0.68277095  0.24214430  1
  H  H88  1  0.24272425  0.07883620  0.18578473  1
  H  H89  1  0.75727575  0.42116380  0.68578473  1
  H  H90  1  0.75727575  0.92116380  0.81421527  1
  H  H91  1  0.24272425  0.57883620  0.31421527  1
  H  H92  1  0.37541341  0.09334442  0.24764420  1
  H  H93  1  0.62458659  0.40665558  0.74764420  1
  H  H94  1  0.62458659  0.90665558  0.75235580  1
  H  H95  1  0.37541341  0.59334442  0.25235580  1
  H  H96  1  0.05813227  0.92793228  0.09738331  1
  H  H97  1  0.94186773  0.57206772  0.59738331  1
  H  H98  1  0.94186773  0.07206772  0.90261669  1
  H  H99  1  0.05813227  0.42793228  0.40261669  1
  H  H100  1  0.04092107  0.04102948  0.10996100  1
  H  H101  1  0.95907893  0.45897052  0.60996100  1
  H  H102  1  0.95907893  0.95897052  0.89003900  1
  H  H103  1  0.04092107  0.54102948  0.39003900  1
  H  H104  1  0.17018069  0.31589252  0.29544124  1
  H  H105  1  0.82981931  0.18410748  0.79544124  1
  H  H106  1  0.82981931  0.68410748  0.70455876  1
  H  H107  1  0.17018069  0.81589252  0.20455876  1
  H  H108  1  0.09401456  0.19199022  0.28344769  1
  H  H109  1  0.90598544  0.30800978  0.78344769  1
  H  H110  1  0.90598544  0.80800978  0.71655231  1
  H  H111  1  0.09401456  0.69199022  0.21655231  1
  Pt  Pt112  1  0.72097810  0.32627077  0.12651633  1
  Pt  Pt113  1  0.27902190  0.17372923  0.62651633  1
  Pt  Pt114  1  0.27902190  0.67372923  0.87348367  1
  Pt  Pt115  1  0.72097810  0.82627077  0.37348367  1
  Pt  Pt116  1  0.44402905  0.23479344  0.11609350  1
  Pt  Pt117  1  0.55597095  0.26520656  0.61609350  1
  Pt  Pt118  1  0.55597095  0.76520656  0.88390650  1
  Pt  Pt119  1  0.44402905  0.73479344  0.38390650  1
  Br  Br120  1  0.45766816  0.41634138  0.85258458  1
  Br  Br121  1  0.54233184  0.08365862  0.35258458  1
  Br  Br122  1  0.54233184  0.58365862  0.14741542  1
  Br  Br123  1  0.45766816  0.91634138  0.64741542  1
  Br  Br124  1  0.86992636  0.49232480  0.87891344  1
  Br  Br125  1  0.13007364  0.00767520  0.37891344  1
  Br  Br126  1  0.13007364  0.50767520  0.12108656  1
  Br  Br127  1  0.86992636  0.99232480  0.62108656  1
  Br  Br128  1  0.38482288  0.36964773  0.39283530  1
  Br  Br129  1  0.61517712  0.13035227  0.89283530  1
  Br  Br130  1  0.61517712  0.63035227  0.60716470  1
  Br  Br131  1  0.38482288  0.86964773  0.10716470  1
  Br  Br132  1  0.18893979  0.45708838  0.65747009  1
  Br  Br133  1  0.81106021  0.04291162  0.15747009  1
  Br  Br134  1  0.81106021  0.54291162  0.34252991  1
  Br  Br135  1  0.18893979  0.95708838  0.84252991  1
  Br  Br136  1  0.90064372  0.26147570  0.44354213  1
  Br  Br137  1  0.09935628  0.23852430  0.94354213  1
  Br  Br138  1  0.09935628  0.73852430  0.55645787  1
  Br  Br139  1  0.90064372  0.76147570  0.05645787  1
  N  N140  1  0.83880043  0.30634997  0.22873571  1
  N  N141  1  0.16119957  0.19365003  0.72873571  1
  N  N142  1  0.16119957  0.69365003  0.77126429  1
  N  N143  1  0.83880043  0.80634997  0.27126429  1
  N  N144  1  0.85110248  0.29923456  0.03711701  1
  N  N145  1  0.14889752  0.20076544  0.53711701  1
  N  N146  1  0.14889752  0.70076544  0.96288299  1
  N  N147  1  0.85110248  0.79923456  0.46288299  1
  N  N148  1  0.82776415  0.49369418  0.12471489  1
  N  N149  1  0.17223585  0.00630582  0.62471489  1
  N  N150  1  0.17223585  0.50630582  0.87528511  1
  N  N151  1  0.82776415  0.99369418  0.37528511  1
  N  N152  1  0.58944304  0.16669723  0.12502084  1
  N  N153  1  0.41055696  0.33330277  0.62502084  1
  N  N154  1  0.41055696  0.83330277  0.87497916  1
  N  N155  1  0.58944304  0.66669723  0.37497916  1
  N  N156  1  0.58626616  0.33480821  0.03405841  1
  N  N157  1  0.41373384  0.16519179  0.53405841  1
  N  N158  1  0.41373384  0.66519179  0.96594159  1
  N  N159  1  0.58626616  0.83480821  0.46594159  1
  N  N160  1  0.57203360  0.33774931  0.20539468  1
  N  N161  1  0.42796640  0.16225069  0.70539468  1
  N  N162  1  0.42796640  0.66225069  0.79460532  1
  N  N163  1  0.57203360  0.83774931  0.29460532  1
  N  N164  1  0.34105318  0.13315434  0.01406934  1
  N  N165  1  0.65894682  0.36684566  0.51406934  1
  N  N166  1  0.65894682  0.86684566  0.98593066  1
  N  N167  1  0.34105318  0.63315434  0.48593066  1
  N  N168  1  0.31762123  0.32494573  0.10936404  1
  N  N169  1  0.68237877  0.17505427  0.60936404  1
  N  N170  1  0.68237877  0.67505427  0.89063596  1
  N  N171  1  0.31762123  0.82494573  0.39063596  1
  N  N172  1  0.32580890  0.13507826  0.21225666  1
  N  N173  1  0.67419110  0.36492174  0.71225666  1
  N  N174  1  0.67419110  0.86492174  0.78774334  1
  N  N175  1  0.32580890  0.63507826  0.28774334  1
  O  O176  1  0.10722781  0.00579284  0.11161978  1
  O  O177  1  0.89277219  0.49420716  0.61161978  1
  O  O178  1  0.89277219  0.99420716  0.88838022  1
  O  O179  1  0.10722781  0.50579284  0.38838022  1
  O  O180  1  0.12616343  0.26158164  0.25046069  1
  O  O181  1  0.87383657  0.23841836  0.75046069  1
  O  O182  1  0.87383657  0.73841836  0.74953931  1
  O  O183  1  0.12616343  0.76158164  0.24953931  1
