# generated using pymatgen
data_Li9V6(P8O29)2
_symmetry_space_group_name_H-M   'P 1'
_cell_length_a   9.79751879
_cell_length_b   9.77913607
_cell_length_c   14.03941860
_cell_angle_alpha   90.22046102
_cell_angle_beta   90.20178527
_cell_angle_gamma   60.20313206
_symmetry_Int_Tables_number   1
_chemical_formula_structural   Li9V6(P8O29)2
_chemical_formula_sum   'Li9 V6 P16 O58'
_cell_volume   1167.28715672
_cell_formula_units_Z   1
loop_
 _symmetry_equiv_pos_site_id
 _symmetry_equiv_pos_as_xyz
  1  'x, y, z'
loop_
 _atom_site_type_symbol
 _atom_site_label
 _atom_site_symmetry_multiplicity
 _atom_site_fract_x
 _atom_site_fract_y
 _atom_site_fract_z
 _atom_site_occupancy
  Li  Li0  1  0.76841826  0.90240838  0.56220434  1
  Li  Li1  1  0.91175646  0.31857773  0.56447447  1
  Li  Li2  1  0.67489793  0.66471651  0.88524223  1
  Li  Li3  1  0.76793324  0.31907124  0.05639983  1
  Li  Li4  1  0.32214781  0.91029999  0.05925061  1
  Li  Li5  1  0.68429978  0.22724865  0.44219382  1
  Li  Li6  1  0.32664056  0.77065379  0.56307845  1
  Li  Li7  1  0.09262420  0.67962606  0.43930778  1
  Li  Li8  1  0.98131582  0.97318070  0.99597748  1
  V  V9  1  0.56434220  0.43775072  0.24656912  1
  V  V10  1  0.43053873  0.56902912  0.75160972  1
  V  V11  1  0.56434810  0.00713110  0.75478625  1
  V  V12  1  0.43255345  0.00346853  0.24893004  1
  V  V13  1  0.99683916  0.56746467  0.24581449  1
  V  V14  1  0.00437012  0.42947979  0.75203827  1
  P  P15  1  0.91330051  0.77796275  0.84180864  1
  P  P16  1  0.76887464  0.91307688  0.34167005  1
  P  P17  1  0.91237306  0.31974161  0.34404215  1
  P  P18  1  0.66374038  0.66924612  0.12718816  1
  P  P19  1  0.66666003  0.66760183  0.62853741  1
  P  P20  1  0.77423977  0.31744497  0.84290859  1
  P  P21  1  0.68040548  0.23211093  0.65964746  1
  P  P22  1  0.31570327  0.91182987  0.84459705  1
  P  P23  1  0.69132531  0.08389813  0.15693121  1
  P  P24  1  0.31977748  0.77095462  0.34173417  1
  P  P25  1  0.22233067  0.69028971  0.15899217  1
  P  P26  1  0.33536226  0.33600509  0.36866864  1
  P  P27  1  0.33066894  0.33652980  0.87321425  1
  P  P28  1  0.08534055  0.68264148  0.65675608  1
  P  P29  1  0.22959399  0.08360911  0.65999308  1
  P  P30  1  0.08309671  0.22499185  0.15984590  1
  O  O31  1  0.99843563  0.75684095  0.56549043  1
  O  O32  1  0.91637400  0.74906671  0.33954181  1
  O  O33  1  0.78825724  0.00416309  0.07317861  1
  O  O34  1  0.74026628  0.91878874  0.83259831  1
  O  O35  1  0.89948663  0.62729762  0.83402743  1
  O  O36  1  0.80398885  0.67621014  0.17068532  1
  O  O37  1  0.90386928  0.47931070  0.32205636  1
  O  O38  1  0.99273711  0.21112554  0.07871381  1
  O  O39  1  0.91855052  0.34152411  0.83446562  1
  O  O40  1  0.66802522  0.81740958  0.67154598  1
  O  O41  1  0.61777420  0.90349533  0.31979543  1
  O  O42  1  0.81395298  0.51442770  0.66771088  1
  O  O43  1  0.65936364  0.66026975  0.02066041  1
  O  O44  1  0.66716287  0.67091763  0.52180071  1
  O  O45  1  0.66773345  0.51378751  0.16763155  1
  O  O46  1  0.48121513  0.89790894  0.82928069  1
  O  O47  1  0.50777722  0.81529915  0.16545486  1
  O  O48  1  0.74255156  0.34159433  0.33382205  1
  O  O49  1  0.78894468  0.20986479  0.75121893  1
  O  O50  1  0.75983148  0.23861783  0.56975086  1
  O  O51  1  0.77835169  0.23316355  0.93213302  1
  O  O52  1  0.62724655  0.48242922  0.82953148  1
  O  O53  1  0.51281967  0.67203720  0.66680319  1
  O  O54  1  0.65439088  0.25945128  0.16298642  1
  O  O55  1  0.47976314  0.61869620  0.32044254  1
  O  O56  1  0.34531426  0.91364434  0.33294631  1
  O  O57  1  0.78749890  0.00876514  0.25490636  1
  O  O58  1  0.75325815  0.00109350  0.43254459  1
  O  O59  1  0.23729650  0.98892039  0.57552897  1
  O  O60  1  0.66157983  0.08313142  0.66020057  1
  O  O61  1  0.52215285  0.38225566  0.67584072  1
  O  O62  1  0.34258234  0.74246649  0.83514355  1
  O  O63  1  0.48610632  0.33483814  0.32433696  1
  O  O64  1  0.38145245  0.53280307  0.17320416  1
  O  O65  1  0.21812029  0.78724939  0.07698024  1
  O  O66  1  0.25017220  0.75596256  0.43258632  1
  O  O67  1  0.20420219  0.78849940  0.25618991  1
  O  O68  1  0.25018964  0.66633425  0.65822586  1
  O  O69  1  0.48194117  0.18223346  0.82569320  1
  O  O70  1  0.53441893  0.08136886  0.17025027  1
  O  O71  1  0.33542674  0.47938025  0.82948857  1
  O  O72  1  0.34535971  0.32194587  0.97856377  1
  O  O73  1  0.34970819  0.32625085  0.47400199  1
  O  O74  1  0.18643972  0.48553310  0.33211284  1
  O  O75  1  0.38314354  0.08897485  0.67952558  1
  O  O76  1  0.34028721  0.18511641  0.32040856  1
  O  O77  1  0.08626920  0.65525710  0.16398158  1
  O  O78  1  0.99230829  0.79579118  0.74446765  1
  O  O79  1  0.99549435  0.79633532  0.92499422  1
  O  O80  1  0.09337491  0.52411973  0.67693984  1
  O  O81  1  0.19194586  0.32594071  0.82797072  1
  O  O82  1  0.09087289  0.37659184  0.17007391  1
  O  O83  1  0.25596853  0.08101443  0.16338222  1
  O  O84  1  0.24005402  0.98660696  0.93630778  1
  O  O85  1  0.20608498  0.00704541  0.75679426  1
  O  O86  1  0.08477177  0.25157430  0.65928872  1
  O  O87  1  0.98414647  0.25047499  0.43686822  1
  O  O88  1  0.00823483  0.20296633  0.25803096  1
