# generated using pymatgen
data_MnOF
_symmetry_space_group_name_H-M   'P 1'
_cell_length_a   4.63328000
_cell_length_b   4.62142018
_cell_length_c   9.56206026
_cell_angle_alpha   90.00000000
_cell_angle_beta   90.00000000
_cell_angle_gamma   90.00000000
_symmetry_Int_Tables_number   1
_chemical_formula_structural   MnOF
_chemical_formula_sum   'Mn6 O6 F6'
_cell_volume   204.74602507
_cell_formula_units_Z   6
loop_
 _symmetry_equiv_pos_site_id
 _symmetry_equiv_pos_as_xyz
  1  'x, y, z'
loop_
 _atom_site_type_symbol
 _atom_site_label
 _atom_site_symmetry_multiplicity
 _atom_site_fract_x
 _atom_site_fract_y
 _atom_site_fract_z
 _atom_site_occupancy
  Mn  Mn0  1  0.98222162  0.97210523  0.99935379  1
  Mn  Mn1  1  0.98222162  0.97210523  0.33398021  1
  Mn  Mn2  1  0.04645146  0.02577063  0.66666700  1
  Mn  Mn3  1  0.48222162  0.52789477  0.83398021  1
  Mn  Mn4  1  0.54645146  0.47422937  0.16666700  1
  Mn  Mn5  1  0.48222162  0.52789477  0.49935379  1
  O  O6  1  0.18848859  0.82340884  0.49589115  1
  O  O7  1  0.18848859  0.82340884  0.83744185  1
  O  O8  1  0.30907183  0.34054134  0.66666700  1
  O  O9  1  0.68848859  0.67659116  0.99589115  1
  O  O10  1  0.68848859  0.67659116  0.33744185  1
  O  O11  1  0.80907183  0.15945866  0.16666700  1
  F  F12  1  0.21880575  0.75184008  0.16666700  1
  F  F13  1  0.29212477  0.27278468  0.00709893  1
  F  F14  1  0.29212477  0.27278468  0.32623507  1
  F  F15  1  0.71880575  0.74815992  0.66666700  1
  F  F16  1  0.79212477  0.22721532  0.50709893  1
  F  F17  1  0.79212477  0.22721532  0.82623507  1
