# generated using pymatgen
data_Li4V3P8O29
_symmetry_space_group_name_H-M   'P 1'
_cell_length_a   9.80551308
_cell_length_b   9.74402946
_cell_length_c   14.21076347
_cell_angle_alpha   89.83442884
_cell_angle_beta   90.13871501
_cell_angle_gamma   59.94066229
_symmetry_Int_Tables_number   1
_chemical_formula_structural   Li4V3P8O29
_chemical_formula_sum   'Li8 V6 P16 O58'
_cell_volume   1175.14326603
_cell_formula_units_Z   2
loop_
 _symmetry_equiv_pos_site_id
 _symmetry_equiv_pos_as_xyz
  1  'x, y, z'
loop_
 _atom_site_type_symbol
 _atom_site_label
 _atom_site_symmetry_multiplicity
 _atom_site_fract_x
 _atom_site_fract_y
 _atom_site_fract_z
 _atom_site_occupancy
  Li  Li0  1  0.90529975  0.76340842  0.06018016  1
  Li  Li1  1  0.90870091  0.32345495  0.55474382  1
  Li  Li2  1  0.33565300  0.90349360  0.05891838  1
  Li  Li3  1  0.66341671  0.23391086  0.44242229  1
  Li  Li4  1  0.33309365  0.76131841  0.56278813  1
  Li  Li5  1  0.09491272  0.23429424  0.94432846  1
  Li  Li6  1  0.94831689  0.02224236  0.00104235  1
  Li  Li7  1  0.00716088  0.95540220  0.49380349  1
  V  V8  1  0.56686570  0.43576023  0.24282357  1
  V  V9  1  0.43487915  0.56511367  0.75680956  1
  V  V10  1  0.56672656  -0.00006399  0.74527474  1
  V  V11  1  0.43566733  0.00284370  0.25573477  1
  V  V12  1  0.00044352  0.56606468  0.25213542  1
  V  V13  1  0.00013768  0.43951957  0.74733477  1
  P  P14  1  0.91106203  0.77851393  0.84161928  1
  P  P15  1  0.77930705  0.91527372  0.34239454  1
  P  P16  1  0.91163886  0.30985941  0.34067602  1
  P  P17  1  0.66394181  0.67343692  0.13137206  1
  P  P18  1  0.66402869  0.66594668  0.63199217  1
  P  P19  1  0.78307108  0.30438064  0.84108964  1
  P  P20  1  0.68520433  0.23038950  0.65914832  1
  P  P21  1  0.31632764  0.91504122  0.84274570  1
  P  P22  1  0.69097836  0.08423654  0.15857063  1
  P  P23  1  0.31509534  0.77128764  0.34402996  1
  P  P24  1  0.21937020  0.69778004  0.16171892  1
  P  P25  1  0.33859708  0.33626133  0.36712886  1
  P  P26  1  0.33203651  0.32809318  0.86616926  1
  P  P27  1  0.08607670  0.69894696  0.66058613  1
  P  P28  1  0.22114195  0.08451522  0.65963841  1
  P  P29  1  0.08854696  0.22457663  0.16003116  1
  O  O30  1  0.00205883  0.79668934  0.57725821  1
  O  O31  1  0.91344823  0.74206161  0.33487461  1
  O  O32  1  0.78922150  0.99780072  0.07534872  1
  O  O33  1  0.74026006  0.91663944  0.82825684  1
  O  O34  1  0.91359574  0.61866935  0.82472911  1
  O  O35  1  0.81326352  0.67527933  0.16706666  1
  O  O36  1  0.90887258  0.46690624  0.32783564  1
  O  O37  1  0.01519964  0.21462675  0.06984229  1
  O  O38  1  0.92237696  0.34110072  0.83385397  1
  O  O39  1  0.66734898  0.81284091  0.67550427  1
  O  O40  1  0.61923179  0.91929255  0.33049767  1
  O  O41  1  0.81468563  0.51255902  0.67395259  1
  O  O42  1  0.65044901  0.67728467  0.02694229  1
  O  O43  1  0.66829988  0.65896649  0.52739663  1
  O  O44  1  0.66635819  0.52225738  0.17735636  1
  O  O45  1  0.47301558  0.91143654  0.82446584  1
  O  O46  1  0.51429561  0.81752994  0.17621628  1
  O  O47  1  0.73979044  0.33784673  0.33152996  1
  O  O48  1  0.80333009  0.20506860  0.74421011  1
  O  O49  1  0.76340975  0.23196783  0.56820120  1
  O  O50  1  0.80921646  0.20018066  0.92337786  1
  O  O51  1  0.62617309  0.45889912  0.83275996  1
  O  O52  1  0.51343236  0.67252258  0.67236862  1
  O  O53  1  0.65324767  0.25942235  0.16221950  1
  O  O54  1  0.46967398  0.61407569  0.32730933  1
  O  O55  1  0.34707583  0.91210267  0.33112519  1
  O  O56  1  0.79666313  0.00282191  0.25071981  1
  O  O57  1  0.79186949  0.00114650  0.42590311  1
  O  O58  1  0.20844127  0.99150354  0.58029651  1
  O  O59  1  0.65491164  0.08875084  0.66395815  1
  O  O60  1  0.52902143  0.38512922  0.67585392  1
  O  O61  1  0.34341545  0.74534034  0.83626779  1
  O  O62  1  0.48983229  0.32860101  0.32219697  1
  O  O63  1  0.37948377  0.53892651  0.17264656  1
  O  O64  1  0.21343950  0.79951865  0.08140350  1
  O  O65  1  0.23655353  0.78392759  0.43613334  1
  O  O66  1  0.19744438  0.79162300  0.25977432  1
  O  O67  1  0.25894305  0.66010666  0.66480139  1
  O  O68  1  0.47685581  0.18280341  0.81793812  1
  O  O69  1  0.53767345  0.07876063  0.17117271  1
  O  O70  1  0.32944635  0.47777691  0.82958814  1
  O  O71  1  0.31801427  0.31256223  0.96923108  1
  O  O72  1  0.35629643  0.32075328  0.47106993  1
  O  O73  1  0.19297758  0.48123447  0.32533317  1
  O  O74  1  0.38039139  0.08057447  0.66885789  1
  O  O75  1  0.33809839  0.18573572  0.32103096  1
  O  O76  1  0.08146284  0.66445450  0.16016094  1
  O  O77  1  0.00917114  0.79542545  0.75738195  1
  O  O78  1  0.97728718  0.78630408  0.93481617  1
  O  O79  1  0.07851509  0.54236464  0.67260403  1
  O  O80  1  0.18266576  0.32879481  0.81778164  1
  O  O81  1  0.08552968  0.38332824  0.17414855  1
  O  O82  1  0.26215731  0.08389968  0.16542605  1
  O  O83  1  0.23770216  0.99617981  0.93301168  1
  O  O84  1  0.19791078  0.01442957  0.75816324  1
  O  O85  1  0.08214051  0.25973557  0.65734408  1
  O  O86  1  0.98222606  0.22296125  0.43070282  1
  O  O87  1  0.00287940  0.19987579  0.25031878  1
