# generated using pymatgen
data_Li3Mn4(BO3)4
_symmetry_space_group_name_H-M   'P 1'
_cell_length_a   9.35528054
_cell_length_b   6.17622508
_cell_length_c   9.66063635
_cell_angle_alpha   80.26679037
_cell_angle_beta   66.77133020
_cell_angle_gamma   83.23851493
_symmetry_Int_Tables_number   1
_chemical_formula_structural   Li3Mn4(BO3)4
_chemical_formula_sum   'Li6 Mn8 B8 O24'
_cell_volume   504.75880577
_cell_formula_units_Z   2
loop_
 _symmetry_equiv_pos_site_id
 _symmetry_equiv_pos_as_xyz
  1  'x, y, z'
loop_
 _atom_site_type_symbol
 _atom_site_label
 _atom_site_symmetry_multiplicity
 _atom_site_fract_x
 _atom_site_fract_y
 _atom_site_fract_z
 _atom_site_occupancy
  Li  Li0  1  0.87842470  0.46390593  0.96857668  1
  Li  Li1  1  0.40024003  0.97696373  0.96659156  1
  Li  Li2  1  0.62157530  0.53609407  0.53142332  1
  Li  Li3  1  0.37928006  0.46911141  0.46736312  1
  Li  Li4  1  0.09975997  0.02303627  0.53340844  1
  Li  Li5  1  0.12071994  0.53088859  0.03263688  1
  Mn  Mn6  1  0.70450987  0.74761517  0.79751581  1
  Mn  Mn7  1  0.79549013  0.25238483  0.70248419  1
  Mn  Mn8  1  0.79399752  0.76195777  0.19416001  1
  Mn  Mn9  1  0.29766235  0.75720007  0.70016277  1
  Mn  Mn10  1  0.70600248  0.23804223  0.30583999  1
  Mn  Mn11  1  0.20233765  0.24279993  0.79983723  1
  Mn  Mn12  1  0.19071969  0.74642374  0.30098421  1
  Mn  Mn13  1  0.30928031  0.25357626  0.19901579  1
  B  B14  1  0.96761338  0.89845537  0.85885536  1
  B  B15  1  0.96616574  0.40962617  0.36644959  1
  B  B16  1  0.46478550  0.41992017  0.86695010  1
  B  B17  1  0.46186235  0.90829982  0.37343291  1
  B  B18  1  0.53238662  0.10154463  0.64114464  1
  B  B19  1  0.53383426  0.59037383  0.13355041  1
  B  B20  1  0.03521550  0.58007983  0.63304990  1
  B  B21  1  0.03813765  0.09170018  0.12656709  1
  O  O22  1  0.97231753  0.74379083  0.97865175  1
  O  O23  1  0.82922928  0.96774604  0.84016497  1
  O  O24  1  0.89556550  0.50298546  0.75410970  1
  O  O25  1  0.97436502  0.27631827  0.49098915  1
  O  O26  1  0.82200824  0.47981136  0.35291034  1
  O  O27  1  0.60443450  0.49701454  0.74589030  1
  O  O28  1  0.60241208  0.98774737  0.26618608  1
  O  O29  1  0.47224662  0.25946567  0.97883351  1
  O  O30  1  0.46855437  0.74018905  0.48540677  1
  O  O31  1  0.89758792  0.01225263  0.23381392  1
  O  O32  1  0.67077072  0.03225396  0.65983503  1
  O  O33  1  0.67799176  0.52018864  0.14708966  1
  O  O34  1  0.32245628  0.49833755  0.85710562  1
  O  O35  1  0.31970224  0.99022672  0.36485026  1
  O  O36  1  0.10369562  0.98262677  0.74643305  1
  O  O37  1  0.52768247  0.25620917  0.52134825  1
  O  O38  1  0.52563498  0.72368173  0.00901085  1
  O  O39  1  0.39630438  0.01737323  0.75356695  1
  O  O40  1  0.39756292  0.52153722  0.25549622  1
  O  O41  1  0.17754372  0.50166245  0.64289438  1
  O  O42  1  0.02775338  0.74053433  0.52116649  1
  O  O43  1  0.10243708  0.47846278  0.24450378  1
  O  O44  1  0.18029776  0.00977328  0.13514974  1
  O  O45  1  0.03144563  0.25981095  0.01459323  1
