# generated using pymatgen
data_LiV4O5F7
_symmetry_space_group_name_H-M   'P 1'
_cell_length_a   5.12539505
_cell_length_b   5.35016627
_cell_length_c   9.03094639
_cell_angle_alpha   72.50504487
_cell_angle_beta   89.42291231
_cell_angle_gamma   62.90882856
_symmetry_Int_Tables_number   1
_chemical_formula_structural   LiV4O5F7
_chemical_formula_sum   'Li1 V4 O5 F7'
_cell_volume   207.91582153
_cell_formula_units_Z   1
loop_
 _symmetry_equiv_pos_site_id
 _symmetry_equiv_pos_as_xyz
  1  'x, y, z'
loop_
 _atom_site_type_symbol
 _atom_site_label
 _atom_site_symmetry_multiplicity
 _atom_site_fract_x
 _atom_site_fract_y
 _atom_site_fract_z
 _atom_site_occupancy
  Li  Li0  1  0.32089490  0.36254961  0.09818834  1
  V  V1  1  0.00235891  0.00296178  0.99330063  1
  V  V2  1  0.46965371  0.99032775  0.50644039  1
  V  V3  1  0.24084539  0.46822563  0.73987718  1
  V  V4  1  0.78946289  0.49428979  0.25201299  1
  O  O5  1  0.16359971  0.25693587  0.31762515  1
  O  O6  1  0.16659858  0.24610974  0.93419582  1
  O  O7  1  0.27305798  0.26289717  0.62414728  1
  O  O8  1  0.32425577  0.76391807  0.58367832  1
  O  O9  1  0.84434137  0.76323661  0.08280407  1
  F  F10  1  0.23826862  0.72194812  0.88364743  1
  F  F11  1  0.34481003  0.73174389  0.17595491  1
  F  F12  1  0.66376623  0.24842255  0.41946256  1
  F  F13  1  0.67180273  0.25206142  0.82024986  1
  F  F14  1  0.74522776  0.26921070  0.12099736  1
  F  F15  1  0.72108363  0.75555305  0.37510839  1
  F  F16  1  0.82135477  0.76096326  0.67596832  1
