# generated using pymatgen
data_Ho2TiO5
_symmetry_space_group_name_H-M   'P 1'
_cell_length_a   7.45058044
_cell_length_b   3.62257047
_cell_length_c   15.46651279
_cell_angle_alpha   90.00000000
_cell_angle_beta   90.00000000
_cell_angle_gamma   90.00000000
_symmetry_Int_Tables_number   1
_chemical_formula_structural   Ho2TiO5
_chemical_formula_sum   'Ho8 Ti4 O20'
_cell_volume   417.44508838
_cell_formula_units_Z   4
loop_
 _symmetry_equiv_pos_site_id
 _symmetry_equiv_pos_as_xyz
  1  'x, y, z'
loop_
 _atom_site_type_symbol
 _atom_site_label
 _atom_site_symmetry_multiplicity
 _atom_site_fract_x
 _atom_site_fract_y
 _atom_site_fract_z
 _atom_site_occupancy
  Ho  Ho0  1  0.10048218  0.25000000  0.08409336  1
  Ho  Ho1  1  0.16108593  0.25000000  0.73749015  1
  Ho  Ho2  1  0.33891407  0.75000000  0.23749015  1
  Ho  Ho3  1  0.39951782  0.75000000  0.58409336  1
  Ho  Ho4  1  0.60048218  0.25000000  0.41590664  1
  Ho  Ho5  1  0.66108593  0.25000000  0.76250985  1
  Ho  Ho6  1  0.83891407  0.75000000  0.26250985  1
  Ho  Ho7  1  0.89951782  0.75000000  0.91590664  1
  Ti  Ti8  1  0.11341217  0.25000000  0.42356942  1
  Ti  Ti9  1  0.38658783  0.75000000  0.92356942  1
  Ti  Ti10  1  0.61341217  0.25000000  0.07643058  1
  Ti  Ti11  1  0.88658783  0.75000000  0.57643058  1
  O  O12  1  0.06997187  0.75000000  0.17385199  1
  O  O13  1  0.07332221  0.75000000  0.45330750  1
  O  O14  1  0.12091841  0.75000000  0.64837295  1
  O  O15  1  0.15786158  0.75000000  0.99497850  1
  O  O16  1  0.24662835  0.25000000  0.32254026  1
  O  O17  1  0.25337165  0.75000000  0.82254026  1
  O  O18  1  0.34213842  0.25000000  0.49497850  1
  O  O19  1  0.37908159  0.25000000  0.14837295  1
  O  O20  1  0.42667779  0.25000000  0.95330750  1
  O  O21  1  0.43002813  0.25000000  0.67385199  1
  O  O22  1  0.56997187  0.75000000  0.32614801  1
  O  O23  1  0.57332221  0.75000000  0.04669250  1
  O  O24  1  0.62091841  0.75000000  0.85162705  1
  O  O25  1  0.65786158  0.75000000  0.50502150  1
  O  O26  1  0.74662835  0.25000000  0.17745974  1
  O  O27  1  0.75337165  0.75000000  0.67745974  1
  O  O28  1  0.84213842  0.25000000  0.00502150  1
  O  O29  1  0.87908159  0.25000000  0.35162705  1
  O  O30  1  0.92667779  0.25000000  0.54669250  1
  O  O31  1  0.93002813  0.25000000  0.82614801  1
