# generated using pymatgen
data_Na4Ni2C4SO16
_symmetry_space_group_name_H-M   'P 1'
_cell_length_a   9.93315190
_cell_length_b   9.81714380
_cell_length_c   9.93315195
_cell_angle_alpha   60.17920034
_cell_angle_beta   90.97623605
_cell_angle_gamma   60.17920603
_symmetry_Int_Tables_number   1
_chemical_formula_structural   Na4Ni2C4SO16
_chemical_formula_sum   'Na8 Ni4 C8 S2 O32'
_cell_volume   682.65649843
_cell_formula_units_Z   2
loop_
 _symmetry_equiv_pos_site_id
 _symmetry_equiv_pos_as_xyz
  1  'x, y, z'
loop_
 _atom_site_type_symbol
 _atom_site_label
 _atom_site_symmetry_multiplicity
 _atom_site_fract_x
 _atom_site_fract_y
 _atom_site_fract_z
 _atom_site_occupancy
  Na  Na0  1  0.08615423  0.82769055  0.83615423  1
  Na  Na1  1  0.08503270  0.25000000  0.83503270  1
  Na  Na2  1  0.33503270  0.75000000  0.58503270  1
  Na  Na3  1  0.33615423  0.32769055  0.58615423  1
  Na  Na4  1  0.66384577  0.67230945  0.41384577  1
  Na  Na5  1  0.66496730  0.25000000  0.41496730  1
  Na  Na6  1  0.91496730  0.75000000  0.16496730  1
  Na  Na7  1  0.91384577  0.17230945  0.16384577  1
  Ni  Ni8  1  0.00000000  0.50000000  0.00000000  1
  Ni  Ni9  1  0.50000000  0.00000000  0.50000000  1
  Ni  Ni10  1  0.50000000  0.50000000  0.00000000  1
  Ni  Ni11  1  0.50000000  0.00000000  0.00000000  1
  C  C12  1  0.35703719  0.93033440  0.77936919  1
  C  C13  1  0.27936919  0.43033440  0.85703719  1
  C  C14  1  0.71262841  0.93033440  0.79029641  1
  C  C15  1  0.70970359  0.56966560  0.78737159  1
  C  C16  1  0.29029641  0.43033440  0.21262841  1
  C  C17  1  0.28737159  0.06966560  0.20970359  1
  C  C18  1  0.72063081  0.56966560  0.14296281  1
  C  C19  1  0.64296281  0.06966560  0.22063081  1
  S  S20  1  0.12500000  0.75000000  0.37500000  1
  S  S21  1  0.87500000  0.25000000  0.62500000  1
  O  O22  1  0.34993304  0.79400280  0.89401896  1
  O  O23  1  0.06403149  0.87599295  0.43407710  1
  O  O24  1  0.36499410  0.94506637  0.64445318  1
  O  O25  1  0.14445318  0.44506637  0.86499410  1
  O  O26  1  0.68993853  0.94506637  0.91048045  1
  O  O27  1  0.29955463  0.55416339  0.84980319  1
  O  O28  1  0.05997556  0.87599295  0.18992995  1
  O  O29  1  0.06592290  0.62400705  0.43596851  1
  O  O30  1  0.40396658  0.94583661  0.35371901  1
  O  O31  1  0.58951955  0.55493363  0.81006147  1
  O  O32  1  0.39401896  0.29400280  0.84993304  1
  O  O33  1  0.31007005  0.62400705  0.44002444  1
  O  O34  1  0.85606516  0.79400280  0.81197924  1
  O  O35  1  0.68802076  0.70599720  0.64393484  1
  O  O36  1  0.34980319  0.05416339  0.79955463  1
  O  O37  1  0.14628099  0.55416339  0.09603342  1
  O  O38  1  0.85371901  0.44583661  0.90396658  1
  O  O39  1  0.65019681  0.94583661  0.20044537  1
  O  O40  1  0.31197924  0.29400280  0.35606516  1
  O  O41  1  0.14393484  0.20599720  0.18802076  1
  O  O42  1  0.68992995  0.37599295  0.55997556  1
  O  O43  1  0.60598104  0.70599720  0.15006696  1
  O  O44  1  0.41047945  0.44506637  0.18993853  1
  O  O45  1  0.59603342  0.05416339  0.64628099  1
  O  O46  1  0.93407710  0.37599295  0.56403149  1
  O  O47  1  0.94002444  0.12400705  0.81007005  1
  O  O48  1  0.70044537  0.44583661  0.15019681  1
  O  O49  1  0.31006147  0.05493363  0.08952055  1
  O  O50  1  0.85554682  0.55493363  0.13500590  1
  O  O51  1  0.63500590  0.05493363  0.35554682  1
  O  O52  1  0.93596851  0.12400705  0.56592290  1
  O  O53  1  0.65006696  0.20599720  0.10598104  1
