# generated using pymatgen
data_Li9V6(P8O29)2
_symmetry_space_group_name_H-M   'P 1'
_cell_length_a   9.82327943
_cell_length_b   9.78634081
_cell_length_c   14.03718417
_cell_angle_alpha   90.08845392
_cell_angle_beta   90.08982832
_cell_angle_gamma   59.82896610
_symmetry_Int_Tables_number   1
_chemical_formula_structural   Li9V6(P8O29)2
_chemical_formula_sum   'Li9 V6 P16 O58'
_cell_volume   1166.63686577
_cell_formula_units_Z   1
loop_
 _symmetry_equiv_pos_site_id
 _symmetry_equiv_pos_as_xyz
  1  'x, y, z'
loop_
 _atom_site_type_symbol
 _atom_site_label
 _atom_site_symmetry_multiplicity
 _atom_site_fract_x
 _atom_site_fract_y
 _atom_site_fract_z
 _atom_site_occupancy
  Li  Li0  1  0.90817845  0.76512152  0.06020250  1
  Li  Li1  1  0.91219387  0.31616933  0.55982000  1
  Li  Li2  1  0.66155670  0.66900916  0.88558474  1
  Li  Li3  1  0.77036656  0.32157756  0.06133054  1
  Li  Li4  1  0.32571047  0.90810402  0.06238548  1
  Li  Li5  1  0.68164718  0.22725377  0.44138552  1
  Li  Li6  1  0.32097106  0.77289996  0.55842108  1
  Li  Li7  1  0.08480427  0.69169563  0.43972420  1
  Li  Li8  1  0.00263429  0.00340771  0.99389424  1
  V  V9  1  0.56736445  0.43354789  0.24606392  1
  V  V10  1  0.42745296  0.57054746  0.75200726  1
  V  V11  1  0.56948360  0.00284734  0.74642758  1
  V  V12  1  0.43279079  0.00317654  0.25275896  1
  V  V13  1  0.99875715  0.56658707  0.24952790  1
  V  V14  1  0.00818738  0.42708827  0.75156819  1
  P  P15  1  0.90925109  0.77539158  0.84101278  1
  P  P16  1  0.76857896  0.91612216  0.34369373  1
  P  P17  1  0.91166849  0.31988637  0.34324618  1
  P  P18  1  0.66536712  0.66907622  0.12580216  1
  P  P19  1  0.66682425  0.66529863  0.62873744  1
  P  P20  1  0.77685925  0.31620564  0.84339727  1
  P  P21  1  0.68230130  0.23269014  0.66074258  1
  P  P22  1  0.31621975  0.91310726  0.84549280  1
  P  P23  1  0.68964100  0.08096622  0.15677046  1
  P  P24  1  0.32052178  0.76836287  0.34102447  1
  P  P25  1  0.22438071  0.68998590  0.15840838  1
  P  P26  1  0.33582048  0.33567801  0.37063853  1
  P  P27  1  0.33504199  0.33125263  0.87150589  1
  P  P28  1  0.08532699  0.68379493  0.65743993  1
  P  P29  1  0.23024258  0.08275739  0.65995782  1
  P  P30  1  0.08558286  0.22315129  0.16025661  1
  O  O31  1  0.00266434  0.75103993  0.56625513  1
  O  O32  1  0.91397505  0.74815297  0.34164089  1
  O  O33  1  0.78593050  0.99210244  0.07249358  1
  O  O34  1  0.73819401  0.91723598  0.83253040  1
  O  O35  1  0.89850276  0.62207278  0.82923739  1
  O  O36  1  0.81036211  0.67878602  0.16263007  1
  O  O37  1  0.90102515  0.48101482  0.31916221  1
  O  O38  1  0.99738784  0.20573300  0.07857659  1
  O  O39  1  0.92121644  0.34062962  0.83196596  1
  O  O40  1  0.66110032  0.81576477  0.67706274  1
  O  O41  1  0.61704555  0.90581120  0.32243263  1
  O  O42  1  0.81791486  0.51644649  0.67244184  1
  O  O43  1  0.65857277  0.67388983  0.01818215  1
  O  O44  1  0.67208076  0.66571039  0.52315130  1
  O  O45  1  0.67656414  0.51230569  0.16218199  1
  O  O46  1  0.47943263  0.89879260  0.83158346  1
  O  O47  1  0.51063416  0.81473136  0.16693561  1
  O  O48  1  0.74562097  0.33832875  0.33540279  1
  O  O49  1  0.79260234  0.20885641  0.75162749  1
  O  O50  1  0.75868305  0.24268263  0.57102259  1
  O  O51  1  0.79107864  0.22804257  0.93268132  1
  O  O52  1  0.62741017  0.48016886  0.83234209  1
  O  O53  1  0.51547208  0.66817799  0.66716354  1
  O  O54  1  0.65869767  0.25383084  0.15813791  1
  O  O55  1  0.48064161  0.61699352  0.32089668  1
  O  O56  1  0.34363048  0.91285740  0.33286697  1
  O  O57  1  0.79126685  0.00156205  0.25161234  1
  O  O58  1  0.75368721  0.00952420  0.43035391  1
  O  O59  1  0.23485727  0.99094042  0.57480755  1
  O  O60  1  0.65878040  0.08745653  0.66404068  1
  O  O61  1  0.52424758  0.38391296  0.67990402  1
  O  O62  1  0.34374208  0.74235810  0.83387686  1
  O  O63  1  0.48745497  0.33030881  0.32996440  1
  O  O64  1  0.37924207  0.53339179  0.16895855  1
  O  O65  1  0.21093337  0.79358376  0.07691086  1
  O  O66  1  0.24786549  0.75864557  0.43283283  1
  O  O67  1  0.20249228  0.78751341  0.25694403  1
  O  O68  1  0.25186281  0.66469176  0.66076992  1
  O  O69  1  0.47804623  0.18112719  0.82312572  1
  O  O70  1  0.53235687  0.08258510  0.17114160  1
  O  O71  1  0.33278241  0.47759548  0.82922093  1
  O  O72  1  0.33137798  0.32056757  0.97590318  1
  O  O73  1  0.33925570  0.32573889  0.47625081  1
  O  O74  1  0.18582712  0.48658384  0.33166673  1
  O  O75  1  0.38215916  0.08982958  0.67723178  1
  O  O76  1  0.33707500  0.18607436  0.32116399  1
  O  O77  1  0.08297149  0.65960474  0.16136545  1
  O  O78  1  0.99704889  0.79339711  0.74924927  1
  O  O79  1  0.98484728  0.78346634  0.93130298  1
  O  O80  1  0.09507186  0.52417881  0.68211800  1
  O  O81  1  0.18348881  0.33332573  0.82448982  1
  O  O82  1  0.08593563  0.37885438  0.16917325  1
  O  O83  1  0.25867347  0.08091910  0.16257083  1
  O  O84  1  0.23235427  0.98602340  0.93599373  1
  O  O85  1  0.20528045  0.00848057  0.75667313  1
  O  O86  1  0.08499907  0.25434346  0.65994889  1
  O  O87  1  0.98810582  0.25509781  0.43611412  1
  O  O88  1  0.01013292  0.20209780  0.25801236  1
