# generated using pymatgen
data_Li4Fe2(PO4)3
_symmetry_space_group_name_H-M   'P 1'
_cell_length_a   8.96366216
_cell_length_b   12.22773468
_cell_length_c   8.79780113
_cell_angle_alpha   90.00000000
_cell_angle_beta   90.00000000
_cell_angle_gamma   90.00000000
_symmetry_Int_Tables_number   1
_chemical_formula_structural   Li4Fe2(PO4)3
_chemical_formula_sum   'Li16 Fe8 P12 O48'
_cell_volume   964.28547958
_cell_formula_units_Z   4
loop_
 _symmetry_equiv_pos_site_id
 _symmetry_equiv_pos_as_xyz
  1  'x, y, z'
loop_
 _atom_site_type_symbol
 _atom_site_label
 _atom_site_symmetry_multiplicity
 _atom_site_fract_x
 _atom_site_fract_y
 _atom_site_fract_z
 _atom_site_occupancy
  Li  Li0  1  0.05093854  0.28686892  0.42548371  1
  Li  Li1  1  0.05093854  0.71313108  0.07451629  1
  Li  Li2  1  0.20299182  0.18006854  0.76082634  1
  Li  Li3  1  0.20299182  0.81993146  0.73917366  1
  Li  Li4  1  0.29700818  0.31993146  0.26082634  1
  Li  Li5  1  0.29700818  0.68006854  0.23917366  1
  Li  Li6  1  0.44906146  0.21313108  0.92548371  1
  Li  Li7  1  0.44906146  0.78686892  0.57451629  1
  Li  Li8  1  0.55093854  0.21313108  0.42548371  1
  Li  Li9  1  0.55093854  0.78686892  0.07451629  1
  Li  Li10  1  0.70299182  0.31993146  0.76082634  1
  Li  Li11  1  0.70299182  0.68006854  0.73917366  1
  Li  Li12  1  0.79700818  0.18006854  0.26082634  1
  Li  Li13  1  0.79700818  0.81993146  0.23917366  1
  Li  Li14  1  0.94906146  0.28686892  0.92548371  1
  Li  Li15  1  0.94906146  0.71313108  0.57451629  1
  Fe  Fe16  1  0.25280117  0.89595367  0.04655334  1
  Fe  Fe17  1  0.25280117  0.10404633  0.45344666  1
  Fe  Fe18  1  0.24719883  0.39595367  0.95344666  1
  Fe  Fe19  1  0.24719883  0.60404633  0.54655334  1
  Fe  Fe20  1  0.75280117  0.39595367  0.45344666  1
  Fe  Fe21  1  0.75280117  0.60404633  0.04655334  1
  Fe  Fe22  1  0.74719883  0.10404633  0.95344666  1
  Fe  Fe23  1  0.74719883  0.89595367  0.54655334  1
  P  P24  1  0.05246543  0.50000000  0.25000000  1
  P  P25  1  0.10460479  0.15184357  0.10445325  1
  P  P26  1  0.10460479  0.84815643  0.39554675  1
  P  P27  1  0.39539521  0.34815643  0.60445325  1
  P  P28  1  0.39539521  0.65184357  0.89554675  1
  P  P29  1  0.44753457  0.00000000  0.75000000  1
  P  P30  1  0.55246543  0.00000000  0.25000000  1
  P  P31  1  0.60460479  0.34815643  0.10445325  1
  P  P32  1  0.60460479  0.65184357  0.39554675  1
  P  P33  1  0.89539521  0.15184357  0.60445325  1
  P  P34  1  0.89539521  0.84815643  0.89554675  1
  P  P35  1  0.94753457  0.50000000  0.75000000  1
  O  O36  1  0.04253234  0.42700446  0.85678169  1
  O  O37  1  0.04253234  0.57299554  0.64321831  1
  O  O38  1  0.06690231  0.17060124  0.59151171  1
  O  O39  1  0.06690231  0.82939876  0.90848829  1
  O  O40  1  0.15549248  0.42051474  0.16139578  1
  O  O41  1  0.15549248  0.57948526  0.33860422  1
  O  O42  1  0.15624631  0.19146560  0.26451050  1
  O  O43  1  0.15624631  0.80853440  0.23548950  1
  O  O44  1  0.15069512  0.03367766  0.07841698  1
  O  O45  1  0.15069512  0.96632234  0.42158302  1
  O  O46  1  0.17382697  0.22500344  0.97520517  1
  O  O47  1  0.17382697  0.77499656  0.52479483  1
  O  O48  1  0.32617303  0.27499656  0.47520517  1
  O  O49  1  0.32617303  0.72500344  0.02479483  1
  O  O50  1  0.34930488  0.46632234  0.57841698  1
  O  O51  1  0.34930488  0.53367766  0.92158302  1
  O  O52  1  0.34375369  0.30853440  0.76451050  1
  O  O53  1  0.34375369  0.69146560  0.73548950  1
  O  O54  1  0.34450752  0.07948526  0.66139578  1
  O  O55  1  0.34450752  0.92051474  0.83860422  1
  O  O56  1  0.43309769  0.32939876  0.09151171  1
  O  O57  1  0.43309769  0.67060124  0.40848829  1
  O  O58  1  0.45746766  0.07299554  0.35678169  1
  O  O59  1  0.45746766  0.92700446  0.14321831  1
  O  O60  1  0.54253234  0.92700446  0.64321831  1
  O  O61  1  0.54253234  0.07299554  0.85678169  1
  O  O62  1  0.56690231  0.32939876  0.59151171  1
  O  O63  1  0.56690231  0.67060124  0.90848829  1
  O  O64  1  0.65549248  0.07948526  0.16139578  1
  O  O65  1  0.65549248  0.92051474  0.33860422  1
  O  O66  1  0.65624631  0.30853440  0.26451050  1
  O  O67  1  0.65624631  0.69146560  0.23548950  1
  O  O68  1  0.65069512  0.46632234  0.07841698  1
  O  O69  1  0.65069512  0.53367766  0.42158302  1
  O  O70  1  0.67382697  0.27499656  0.97520517  1
  O  O71  1  0.67382697  0.72500344  0.52479483  1
  O  O72  1  0.82617303  0.22500344  0.47520517  1
  O  O73  1  0.82617303  0.77499656  0.02479483  1
  O  O74  1  0.84930488  0.03367766  0.57841698  1
  O  O75  1  0.84930488  0.96632234  0.92158302  1
  O  O76  1  0.84375369  0.19146560  0.76451050  1
  O  O77  1  0.84375369  0.80853440  0.73548950  1
  O  O78  1  0.84450752  0.42051474  0.66139578  1
  O  O79  1  0.84450752  0.57948526  0.83860422  1
  O  O80  1  0.93309769  0.17060124  0.09151171  1
  O  O81  1  0.93309769  0.82939876  0.40848829  1
  O  O82  1  0.95746766  0.42700446  0.35678169  1
  O  O83  1  0.95746766  0.57299554  0.14321831  1
