# generated using pymatgen
data_LiV3OF11
_symmetry_space_group_name_H-M   'P 1'
_cell_length_a   7.02241542
_cell_length_b   6.00221055
_cell_length_c   5.51103673
_cell_angle_alpha   93.25826953
_cell_angle_beta   103.23774486
_cell_angle_gamma   93.05749881
_symmetry_Int_Tables_number   1
_chemical_formula_structural   LiV3OF11
_chemical_formula_sum   'Li1 V3 O1 F11'
_cell_volume   225.22562140
_cell_formula_units_Z   1
loop_
 _symmetry_equiv_pos_site_id
 _symmetry_equiv_pos_as_xyz
  1  'x, y, z'
loop_
 _atom_site_type_symbol
 _atom_site_label
 _atom_site_symmetry_multiplicity
 _atom_site_fract_x
 _atom_site_fract_y
 _atom_site_fract_z
 _atom_site_occupancy
  Li  Li0  1  0.94625984  0.43955604  0.70170237  1
  V  V1  1  0.01335147  0.99469070  0.02674837  1
  V  V2  1  0.33919551  0.14987337  0.60113656  1
  V  V3  1  0.63102448  0.85132440  0.39519880  1
  O  O4  1  0.15839732  0.00363772  0.34473022  1
  F  F5  1  0.02763378  0.70982043  0.91976893  1
  F  F6  1  0.18305700  0.39567389  0.57479203  1
  F  F7  1  0.23844567  0.07410879  0.89093705  1
  F  F8  1  0.48328799  0.86000344  0.64855262  1
  F  F9  1  0.44185099  0.69979627  0.17364776  1
  F  F10  1  0.54548196  0.31202240  0.79225776  1
  F  F11  1  0.52210106  0.14102139  0.34949664  1
  F  F12  1  0.77661895  0.91162099  0.13871710  1
  F  F13  1  0.75506732  0.59216980  0.48021839  1
  F  F14  1  0.84399709  0.01180041  0.64019505  1
  F  F15  1  0.95603957  0.28509897  0.01855035  1
