# generated using pymatgen
data_Li5CoOF5
_symmetry_space_group_name_H-M   'P 1'
_cell_length_a   3.21177737
_cell_length_b   3.21137077
_cell_length_c   14.99989554
_cell_angle_alpha   89.99996389
_cell_angle_beta   90.00161353
_cell_angle_gamma   120.00074751
_symmetry_Int_Tables_number   1
_chemical_formula_structural   Li5CoOF5
_chemical_formula_sum   'Li5 Co1 O1 F5'
_cell_volume   133.98354936
_cell_formula_units_Z   1
loop_
 _symmetry_equiv_pos_site_id
 _symmetry_equiv_pos_as_xyz
  1  'x, y, z'
loop_
 _atom_site_type_symbol
 _atom_site_label
 _atom_site_symmetry_multiplicity
 _atom_site_fract_x
 _atom_site_fract_y
 _atom_site_fract_z
 _atom_site_occupancy
  Li  Li0  1  0.33341278  0.66680064  0.99374831  1
  Li  Li1  1  0.33334997  0.66678005  0.33869164  1
  Li  Li2  1  0.33344287  0.66677615  0.66630644  1
  Li  Li3  1  0.66663907  0.33333045  0.50249292  1
  Li  Li4  1  0.66658332  0.33331072  0.82983528  1
  Co  Co5  1  0.66639548  0.33326229  0.16076264  1
  O  O6  1  0.33340187  0.66672646  0.12608372  1
  F  F7  1  0.33330311  0.66667307  0.46453005  1
  F  F8  1  0.33332379  0.66660942  0.79225985  1
  F  F9  1  0.66671103  0.33344323  0.30406408  1
  F  F10  1  0.66677383  0.33346314  0.95589484  1
  F  F11  1  0.66666389  0.33342538  0.62836322  1
