# generated using pymatgen
data_LiVP3HO10
_symmetry_space_group_name_H-M   'P 1'
_cell_length_a   8.69685809
_cell_length_b   4.98739654
_cell_length_c   9.70141364
_cell_angle_alpha   90.00000000
_cell_angle_beta   100.20225759
_cell_angle_gamma   90.00000000
_symmetry_Int_Tables_number   1
_chemical_formula_structural   LiVP3HO10
_chemical_formula_sum   'Li2 V2 P6 H2 O20'
_cell_volume   414.14235480
_cell_formula_units_Z   2
loop_
 _symmetry_equiv_pos_site_id
 _symmetry_equiv_pos_as_xyz
  1  'x, y, z'
loop_
 _atom_site_type_symbol
 _atom_site_label
 _atom_site_symmetry_multiplicity
 _atom_site_fract_x
 _atom_site_fract_y
 _atom_site_fract_z
 _atom_site_occupancy
  Li  Li0  1  0.25000000  0.60403396  0.75000000  1
  Li  Li1  1  0.75000000  0.39596604  0.25000000  1
  V  V2  1  0.00000000  0.50000000  0.00000000  1
  V  V3  1  0.50000000  0.50000000  0.50000000  1
  P  P4  1  0.26510278  0.00797749  0.53052477  1
  P  P5  1  0.25000000  0.76201210  0.25000000  1
  P  P6  1  0.23489722  0.00797749  0.96947523  1
  P  P7  1  0.76510278  0.99202251  0.03052477  1
  P  P8  1  0.75000000  0.23798790  0.75000000  1
  P  P9  1  0.73489722  0.99202251  0.46947523  1
  H  H10  1  0.00000000  0.00000000  0.50000000  1
  H  H11  1  0.50000000  0.00000000  0.00000000  1
  O  O12  1  0.10164422  0.81825843  0.91265049  1
  O  O13  1  0.19242354  0.30522797  0.94947217  1
  O  O14  1  0.11521946  0.93581841  0.58649236  1
  O  O15  1  0.38478054  0.93581841  0.91350764  1
  O  O16  1  0.10710346  0.59600810  0.19259752  1
  O  O17  1  0.21217434  0.96785539  0.36286203  1
  O  O18  1  0.30757646  0.30522797  0.55052783  1
  O  O19  1  0.39835578  0.81825843  0.58734951  1
  O  O20  1  0.28782566  0.96785539  0.13713797  1
  O  O21  1  0.39289654  0.59600810  0.30740248  1
  O  O22  1  0.60710346  0.40399190  0.69259752  1
  O  O23  1  0.71217434  0.03214461  0.86286203  1
  O  O24  1  0.60164422  0.18174157  0.41265049  1
  O  O25  1  0.69242354  0.69477203  0.44947217  1
  O  O26  1  0.78782566  0.03214461  0.63713797  1
  O  O27  1  0.89289654  0.40399190  0.80740248  1
  O  O28  1  0.61521946  0.06418159  0.08649236  1
  O  O29  1  0.88478054  0.06418159  0.41350764  1
  O  O30  1  0.80757646  0.69477203  0.05052783  1
  O  O31  1  0.89835578  0.18174157  0.08734951  1
