# generated using pymatgen
data_Li4Mn3OF11
_symmetry_space_group_name_H-M   'P 1'
_cell_length_a   6.03948271
_cell_length_b   6.10919290
_cell_length_c   6.10469160
_cell_angle_alpha   100.76291336
_cell_angle_beta   99.96850115
_cell_angle_gamma   100.60633713
_symmetry_Int_Tables_number   1
_chemical_formula_structural   Li4Mn3OF11
_chemical_formula_sum   'Li4 Mn3 O1 F11'
_cell_volume   212.41806756
_cell_formula_units_Z   1
loop_
 _symmetry_equiv_pos_site_id
 _symmetry_equiv_pos_as_xyz
  1  'x, y, z'
loop_
 _atom_site_type_symbol
 _atom_site_label
 _atom_site_symmetry_multiplicity
 _atom_site_fract_x
 _atom_site_fract_y
 _atom_site_fract_z
 _atom_site_occupancy
  Li  Li0  1  0.13029028  0.59798076  0.32435468  1
  Li  Li1  1  0.33056104  0.14838702  0.61600006  1
  Li  Li2  1  0.60303905  0.31627575  0.12396129  1
  Li  Li3  1  0.85776444  0.40356733  0.68006449  1
  Mn  Mn4  1  0.42114406  0.66561510  0.85502093  1
  Mn  Mn5  1  0.71242400  0.88789055  0.37369925  1
  Mn  Mn6  1  0.99660880  0.99835495  0.00967213  1
  O  O7  1  0.68401381  0.87717005  0.05057543  1
  F  F8  1  0.09892988  0.95998172  0.34255827  1
  F  F9  1  0.03370591  0.70313970  0.89584078  1
  F  F10  1  0.43975736  0.81043492  0.60003870  1
  F  F11  1  0.18387702  0.43341580  0.62644950  1
  F  F12  1  0.38232647  0.59101017  0.14769495  1
  F  F13  1  0.59423869  0.40175480  0.81682906  1
  F  F14  1  0.29711629  0.10314330  0.95361376  1
  F  F15  1  0.80189286  0.60692505  0.39034048  1
  F  F16  1  0.60415446  0.16235486  0.39204600  1
  F  F17  1  0.95469859  0.29422133  0.11889122  1
  F  F18  1  0.87345598  0.03837683  0.68234801  1
