# generated using pymatgen
data_AgSbO3
_symmetry_space_group_name_H-M   'P 1'
_cell_length_a   8.16570655
_cell_length_b   8.31747724
_cell_length_c   8.31747724
_cell_angle_alpha   110.25227504
_cell_angle_beta   109.42826259
_cell_angle_gamma   109.47356661
_symmetry_Int_Tables_number   1
_chemical_formula_structural   AgSbO3
_chemical_formula_sum   'Ag6 Sb6 O18'
_cell_volume   430.82493566
_cell_formula_units_Z   6
loop_
 _symmetry_equiv_pos_site_id
 _symmetry_equiv_pos_as_xyz
  1  'x, y, z'
loop_
 _atom_site_type_symbol
 _atom_site_label
 _atom_site_symmetry_multiplicity
 _atom_site_fract_x
 _atom_site_fract_y
 _atom_site_fract_z
 _atom_site_occupancy
  Ag  Ag0  1  0.37864285  0.99783470  0.99745027  1
  Ag  Ag1  1  0.00180386  0.28326239  0.01517155  1
  Ag  Ag2  1  0.99819614  0.01336769  0.28145853  1
  Ag  Ag3  1  0.00620809  0.63708683  0.00398324  1
  Ag  Ag4  1  0.99379191  0.99777515  0.63087774  1
  Ag  Ag5  1  0.62135715  0.61880742  0.61919185  1
  Sb  Sb6  1  0.65899904  0.16030972  0.49650114  1
  Sb  Sb7  1  0.83482865  0.48909800  0.33131681  1
  Sb  Sb8  1  0.50000000  0.65952193  0.15952193  1
  Sb  Sb9  1  0.50000000  0.33827055  0.83827055  1
  Sb  Sb10  1  0.34100096  0.83750309  0.50131067  1
  Sb  Sb11  1  0.16517135  0.49648816  0.65426834  1
  O  O12  1  0.71288121  0.32824397  0.03964737  1
  O  O13  1  0.35527111  0.99733855  0.36349453  1
  O  O14  1  0.64472889  0.00822342  0.64206645  1
  O  O15  1  0.35507993  0.35976780  0.99348856  1
  O  O16  1  0.64492007  0.63840863  0.00468787  1
  O  O17  1  0.95692233  0.28871442  0.66553507  1
  O  O18  1  0.61483887  0.27821721  0.32567684  1
  O  O19  1  0.71114917  0.66083187  0.37987125  1
  O  O20  1  0.32797998  0.04245082  0.71234524  1
  O  O21  1  0.67202002  0.38436525  0.71447083  1
  O  O22  1  0.32685849  0.61985535  0.27935657  1
  O  O23  1  0.67314151  0.95249808  0.29299786  1
  O  O24  1  0.28711879  0.32676516  0.61536276  1
  O  O25  1  0.00000000  0.35159549  0.35159549  1
  O  O26  1  0.04307767  0.70861274  0.33179209  1
  O  O27  1  0.38516113  0.71083797  0.66337834  1
  O  O28  1  0.00000000  0.63102856  0.63102856  1
  O  O29  1  0.28885083  0.66872208  0.94968269  1
