# generated using pymatgen
data_Li5Fe3F14
_symmetry_space_group_name_H-M   'P 1'
_cell_length_a   11.60402677
_cell_length_b   7.25860316
_cell_length_c   12.59121838
_cell_angle_alpha   90.00000000
_cell_angle_beta   90.00000000
_cell_angle_gamma   90.00000000
_symmetry_Int_Tables_number   1
_chemical_formula_structural   Li5Fe3F14
_chemical_formula_sum   'Li20 Fe12 F56'
_cell_volume   1060.54605251
_cell_formula_units_Z   4
loop_
 _symmetry_equiv_pos_site_id
 _symmetry_equiv_pos_as_xyz
  1  'x, y, z'
loop_
 _atom_site_type_symbol
 _atom_site_label
 _atom_site_symmetry_multiplicity
 _atom_site_fract_x
 _atom_site_fract_y
 _atom_site_fract_z
 _atom_site_occupancy
  Li  Li0  1  0.00983766  0.00012821  0.00686705  1
  Li  Li1  1  0.09783534  0.80742491  0.27809222  1
  Li  Li2  1  0.09881381  0.31986578  0.27513375  1
  Li  Li3  1  0.21794350  0.81494557  0.01102510  1
  Li  Li4  1  0.21242242  0.83607550  0.49459285  1
  Li  Li5  1  0.28757758  0.33607550  0.99459285  1
  Li  Li6  1  0.28205650  0.31494557  0.51102510  1
  Li  Li7  1  0.40118619  0.81986578  0.77513375  1
  Li  Li8  1  0.40216466  0.30742491  0.77809222  1
  Li  Li9  1  0.49016234  0.50012821  0.50686705  1
  Li  Li10  1  0.50983766  0.49987179  0.00686705  1
  Li  Li11  1  0.59783534  0.69257509  0.27809222  1
  Li  Li12  1  0.59881381  0.18013422  0.27513375  1
  Li  Li13  1  0.71794350  0.68505443  0.01102510  1
  Li  Li14  1  0.71242242  0.66392450  0.49459285  1
  Li  Li15  1  0.78757758  0.16392450  0.99459285  1
  Li  Li16  1  0.78205650  0.18505443  0.51102510  1
  Li  Li17  1  0.90118619  0.68013422  0.77513375  1
  Li  Li18  1  0.90216466  0.19257509  0.77809222  1
  Li  Li19  1  0.99016234  0.99987179  0.50686705  1
  Fe  Fe20  1  0.00121084  0.50302161  0.49501206  1
  Fe  Fe21  1  0.14867841  0.99858613  0.75131310  1
  Fe  Fe22  1  0.16818399  0.49562693  0.74573262  1
  Fe  Fe23  1  0.33181601  0.99562693  0.24573262  1
  Fe  Fe24  1  0.35132159  0.49858613  0.25131310  1
  Fe  Fe25  1  0.49878916  0.00302161  0.99501206  1
  Fe  Fe26  1  0.50121084  0.99697839  0.49501206  1
  Fe  Fe27  1  0.64867841  0.50141387  0.75131310  1
  Fe  Fe28  1  0.66818399  0.00437307  0.74573262  1
  Fe  Fe29  1  0.83181601  0.50437307  0.24573262  1
  Fe  Fe30  1  0.85132159  0.00141387  0.25131310  1
  Fe  Fe31  1  0.99878916  0.49697839  0.99501206  1
  F  F32  1  0.98664802  0.92259922  0.75486814  1
  F  F33  1  0.06545884  0.73915964  0.44134257  1
  F  F34  1  0.06504915  0.73004486  0.03928682  1
  F  F35  1  0.04385480  0.56740826  0.84475248  1
  F  F36  1  0.05789706  0.57728874  0.63776877  1
  F  F37  1  0.13676895  0.36366743  0.45526880  1
  F  F38  1  0.13410668  0.36222105  0.02978860  1
  F  F39  1  0.08635287  0.25470233  0.74649997  1
  F  F40  1  0.14034511  0.99609611  0.90641347  1
  F  F41  1  0.13461738  0.99412408  0.59465914  1
  F  F42  1  0.19113403  0.57901854  0.25122998  1
  F  F43  1  0.22572043  0.94081531  0.35617993  1
  F  F44  1  0.21874376  0.93098878  0.14502002  1
  F  F45  1  0.22871066  0.75232293  0.75042856  1
  F  F46  1  0.27128934  0.25232293  0.25042856  1
  F  F47  1  0.28125624  0.43098878  0.64502002  1
  F  F48  1  0.27427957  0.44081531  0.85617993  1
  F  F49  1  0.30886597  0.07901854  0.75122998  1
  F  F50  1  0.36538262  0.49412408  0.09465914  1
  F  F51  1  0.35965489  0.49609611  0.40641347  1
  F  F52  1  0.36589332  0.86222105  0.52978860  1
  F  F53  1  0.41364713  0.75470233  0.24649997  1
  F  F54  1  0.36323105  0.86366743  0.95526880  1
  F  F55  1  0.44210294  0.07728874  0.13776877  1
  F  F56  1  0.45614520  0.06740826  0.34475248  1
  F  F57  1  0.43495085  0.23004486  0.53928682  1
  F  F58  1  0.43454116  0.23915964  0.94134257  1
  F  F59  1  0.51335198  0.42259922  0.25486814  1
  F  F60  1  0.48664802  0.57740078  0.75486814  1
  F  F61  1  0.56545884  0.76084036  0.44134257  1
  F  F62  1  0.56504915  0.76995514  0.03928682  1
  F  F63  1  0.54385480  0.93259174  0.84475248  1
  F  F64  1  0.55789706  0.92271126  0.63776877  1
  F  F65  1  0.63676895  0.13633257  0.45526880  1
  F  F66  1  0.63410668  0.13777895  0.02978860  1
  F  F67  1  0.58635287  0.24529767  0.74649997  1
  F  F68  1  0.64034511  0.50390389  0.90641347  1
  F  F69  1  0.63461738  0.50587592  0.59465914  1
  F  F70  1  0.69113403  0.92098146  0.25122998  1
  F  F71  1  0.72572043  0.55918469  0.35617993  1
  F  F72  1  0.71874376  0.56901122  0.14502002  1
  F  F73  1  0.72871066  0.74767707  0.75042856  1
  F  F74  1  0.77128934  0.24767707  0.25042856  1
  F  F75  1  0.78125624  0.06901122  0.64502002  1
  F  F76  1  0.77427957  0.05918469  0.85617993  1
  F  F77  1  0.80886597  0.42098146  0.75122998  1
  F  F78  1  0.86538262  0.00587592  0.09465914  1
  F  F79  1  0.85965489  0.00390389  0.40641347  1
  F  F80  1  0.86589332  0.63777895  0.52978860  1
  F  F81  1  0.91364713  0.74529767  0.24649997  1
  F  F82  1  0.86323105  0.63633257  0.95526880  1
  F  F83  1  0.94210294  0.42271126  0.13776877  1
  F  F84  1  0.95614520  0.43259174  0.34475248  1
  F  F85  1  0.93495085  0.26995514  0.53928682  1
  F  F86  1  0.93454116  0.26084036  0.94134257  1
  F  F87  1  0.01335198  0.07740078  0.25486814  1
