# generated using pymatgen
data_LiFeSiO4
_symmetry_space_group_name_H-M   'P 1'
_cell_length_a   8.60871731
_cell_length_b   8.60871801
_cell_length_c   8.60871774
_cell_angle_alpha   107.36503084
_cell_angle_beta   107.36503404
_cell_angle_gamma   107.36503141
_symmetry_Int_Tables_number   1
_chemical_formula_structural   LiFeSiO4
_chemical_formula_sum   'Li6 Fe6 Si6 O24'
_cell_volume   525.94558914
_cell_formula_units_Z   6
loop_
 _symmetry_equiv_pos_site_id
 _symmetry_equiv_pos_as_xyz
  1  'x, y, z'
loop_
 _atom_site_type_symbol
 _atom_site_label
 _atom_site_symmetry_multiplicity
 _atom_site_fract_x
 _atom_site_fract_y
 _atom_site_fract_z
 _atom_site_occupancy
  Li  Li0  1  0.05736886  0.45965858  0.23255867  1
  Li  Li1  1  0.54034142  0.76744133  0.94263114  1
  Li  Li2  1  0.76744133  0.94263114  0.54034142  1
  Li  Li3  1  0.23255867  0.05736886  0.45965858  1
  Li  Li4  1  0.45965858  0.23255867  0.05736886  1
  Li  Li5  1  0.94263114  0.54034142  0.76744133  1
  Fe  Fe6  1  0.12672080  0.89094192  0.71365657  1
  Fe  Fe7  1  0.28634343  0.87327920  0.10905808  1
  Fe  Fe8  1  0.10905808  0.28634343  0.87327920  1
  Fe  Fe9  1  0.89094192  0.71365657  0.12672080  1
  Fe  Fe10  1  0.71365657  0.12672080  0.89094192  1
  Fe  Fe11  1  0.87327920  0.10905808  0.28634343  1
  Si  Si12  1  0.38896628  0.78450500  0.56078582  1
  Si  Si13  1  0.21549500  0.43921418  0.61103372  1
  Si  Si14  1  0.43921418  0.61103372  0.21549500  1
  Si  Si15  1  0.56078582  0.38896628  0.78450500  1
  Si  Si16  1  0.78450500  0.56078582  0.38896628  1
  Si  Si17  1  0.61103372  0.21549500  0.43921418  1
  O  O18  1  0.29562709  0.98007731  0.95066594  1
  O  O19  1  0.04933406  0.70437291  0.01992269  1
  O  O20  1  0.25760117  0.88557581  0.56513735  1
  O  O21  1  0.43486265  0.74239883  0.11442419  1
  O  O22  1  0.59996674  0.92408384  0.65628162  1
  O  O23  1  0.33355550  0.64825170  0.34913294  1
  O  O24  1  0.11442419  0.43486265  0.74239883  1
  O  O25  1  0.35174830  0.65086706  0.66644450  1
  O  O26  1  0.07591616  0.34371838  0.40003326  1
  O  O27  1  0.34371838  0.40003326  0.07591616  1
  O  O28  1  0.65086706  0.66644450  0.35174830  1
  O  O29  1  0.01992269  0.04933406  0.70437291  1
  O  O30  1  0.98007731  0.95066594  0.29562709  1
  O  O31  1  0.34913294  0.33355550  0.64825170  1
  O  O32  1  0.65628162  0.59996674  0.92408384  1
  O  O33  1  0.92408384  0.65628162  0.59996674  1
  O  O34  1  0.64825170  0.34913294  0.33355550  1
  O  O35  1  0.88557581  0.56513735  0.25760117  1
  O  O36  1  0.66644450  0.35174830  0.65086706  1
  O  O37  1  0.40003326  0.07591616  0.34371838  1
  O  O38  1  0.56513735  0.25760117  0.88557581  1
  O  O39  1  0.74239883  0.11442419  0.43486265  1
  O  O40  1  0.95066594  0.29562709  0.98007731  1
  O  O41  1  0.70437291  0.01992269  0.04933406  1
