# generated using pymatgen
data_Li3V3P8O29
_symmetry_space_group_name_H-M   'P 1'
_cell_length_a   9.74826441
_cell_length_b   9.72560500
_cell_length_c   14.26069713
_cell_angle_alpha   89.84075709
_cell_angle_beta   90.17371936
_cell_angle_gamma   59.95074382
_symmetry_Int_Tables_number   1
_chemical_formula_structural   Li3V3P8O29
_chemical_formula_sum   'Li6 V6 P16 O58'
_cell_volume   1170.28649992
_cell_formula_units_Z   2
loop_
 _symmetry_equiv_pos_site_id
 _symmetry_equiv_pos_as_xyz
  1  'x, y, z'
loop_
 _atom_site_type_symbol
 _atom_site_label
 _atom_site_symmetry_multiplicity
 _atom_site_fract_x
 _atom_site_fract_y
 _atom_site_fract_z
 _atom_site_occupancy
  Li  Li0  1  0.76894182  0.31972618  0.05540254  1
  Li  Li1  1  0.67281192  0.23325134  0.44629121  1
  Li  Li2  1  0.32877758  0.76741463  0.55782873  1
  Li  Li3  1  0.09568201  0.23053985  0.94399554  1
  Li  Li4  1  0.01274689  0.92506012  0.00636632  1
  Li  Li5  1  0.00005384  0.00459945  0.50006277  1
  V  V6  1  0.56119370  0.43853804  0.24755699  1
  V  V7  1  0.43125159  0.56623758  0.75672950  1
  V  V8  1  0.56504325  0.99884753  0.75184116  1
  V  V9  1  0.43765317  0.00140147  0.24584837  1
  V  V10  1  0.99859619  0.56614903  0.25685632  1
  V  V11  1  0.99910068  0.44085648  0.74076030  1
  P  P12  1  0.91655060  0.77603346  0.83930420  1
  P  P13  1  0.77813594  0.91946764  0.33961731  1
  P  P14  1  0.91446156  0.30128234  0.34269298  1
  P  P15  1  0.67053184  0.66377540  0.13335888  1
  P  P16  1  0.65857295  0.67041760  0.63312128  1
  P  P17  1  0.77935191  0.31491700  0.83976171  1
  P  P18  1  0.68494008  0.22548616  0.66131248  1
  P  P19  1  0.30432713  0.91880501  0.84329778  1
  P  P20  1  0.69749413  0.08331611  0.15349150  1
  P  P21  1  0.31419600  0.77867942  0.34132271  1
  P  P22  1  0.21437931  0.69619995  0.16267580  1
  P  P23  1  0.33748220  0.33076729  0.36645261  1
  P  P24  1  0.33068246  0.33032598  0.86733988  1
  P  P25  1  0.08413487  0.70178400  0.65571128  1
  P  P26  1  0.22246284  0.08338432  0.65829366  1
  P  P27  1  0.08548070  0.22878741  0.16041413  1
  O  O28  1  0.00956381  0.79910308  0.57103043  1
  O  O29  1  0.91316597  0.74301607  0.33640317  1
  O  O30  1  0.79545724  0.01005303  0.06954461  1
  O  O31  1  0.74041432  0.91103953  0.83130707  1
  O  O32  1  0.92196261  0.61532197  0.82301307  1
  O  O33  1  0.81498813  0.66195615  0.18310481  1
  O  O34  1  0.92223902  0.45685941  0.33345713  1
  O  O35  1  0.00293219  0.23255779  0.07038038  1
  O  O36  1  0.92191175  0.34366716  0.83354124  1
  O  O37  1  0.66254703  0.81308179  0.68054841  1
  O  O38  1  0.61829803  0.92279909  0.32649613  1
  O  O39  1  0.81057169  0.52018451  0.67678765  1
  O  O40  1  0.67679213  0.65139283  0.02972053  1
  O  O41  1  0.65444002  0.67147752  0.52917024  1
  O  O42  1  0.67202434  0.51042643  0.17499761  1
  O  O43  1  0.46123379  0.92051500  0.83135538  1
  O  O44  1  0.52297029  0.81158718  0.17645283  1
  O  O45  1  0.73676296  0.34337275  0.33537760  1
  O  O46  1  0.79754300  0.20617022  0.75027583  1
  O  O47  1  0.76565701  0.21690208  0.57112539  1
  O  O48  1  0.78214456  0.23705544  0.93022061  1
  O  O49  1  0.62035999  0.47441320  0.82441836  1
  O  O50  1  0.50903380  0.67096783  0.67452000  1
  O  O51  1  0.65539979  0.26175554  0.16164287  1
  O  O52  1  0.47113989  0.61925110  0.32341635  1
  O  O53  1  0.34791658  0.91698006  0.32787600  1
  O  O54  1  0.80126006  0.99925002  0.24624314  1
  O  O55  1  0.79104037  0.00700726  0.42152435  1
  O  O56  1  0.20491395  0.99874651  0.57625639  1
  O  O57  1  0.65397380  0.08447077  0.67088228  1
  O  O58  1  0.52854011  0.38350642  0.67757178  1
  O  O59  1  0.34245964  0.74301491  0.83539659  1
  O  O60  1  0.48729683  0.33055326  0.32191804  1
  O  O61  1  0.37790123  0.53894798  0.17336499  1
  O  O62  1  0.19783537  0.79250812  0.07875000  1
  O  O63  1  0.24051557  0.78429303  0.43333963  1
  O  O64  1  0.19770370  0.79594170  0.25709796  1
  O  O65  1  0.26131966  0.65821731  0.66483314  1
  O  O66  1  0.47772336  0.18651468  0.82039421  1
  O  O67  1  0.54145224  0.07805639  0.16631253  1
  O  O68  1  0.33270833  0.48093029  0.82467749  1
  O  O69  1  0.33077664  0.32671339  0.97123914  1
  O  O70  1  0.35412808  0.32286599  0.47003468  1
  O  O71  1  0.18783907  0.48115730  0.32650196  1
  O  O72  1  0.38271954  0.07764935  0.66990068  1
  O  O73  1  0.33687644  0.18688748  0.31744025  1
  O  O74  1  0.08092384  0.65496895  0.17238513  1
  O  O75  1  0.00116175  0.80062897  0.74887465  1
  O  O76  1  0.99621972  0.78550273  0.92478938  1
  O  O77  1  0.08010173  0.54240523  0.66738689  1
  O  O78  1  0.18311275  0.33083566  0.82312690  1
  O  O79  1  0.08736281  0.38412011  0.17833333  1
  O  O80  1  0.25771492  0.08743567  0.16510934  1
  O  O81  1  0.20643280  0.00272325  0.92637230  1
  O  O82  1  0.19911675  0.00208867  0.75094623  1
  O  O83  1  0.08750810  0.26059238  0.66460455  1
  O  O84  1  0.99091328  0.19692905  0.42475433  1
  O  O85  1  0.99218642  0.20506463  0.24574310  1
