# generated using pymatgen
data_MnOF
_symmetry_space_group_name_H-M   'P 1'
_cell_length_a   3.79732797
_cell_length_b   4.38426101
_cell_length_c   5.51405020
_cell_angle_alpha   68.03667889
_cell_angle_beta   109.69066919
_cell_angle_gamma   89.76151337
_symmetry_Int_Tables_number   1
_chemical_formula_structural   MnOF
_chemical_formula_sum   'Mn2 O2 F2'
_cell_volume   79.26369221
_cell_formula_units_Z   2
loop_
 _symmetry_equiv_pos_site_id
 _symmetry_equiv_pos_as_xyz
  1  'x, y, z'
loop_
 _atom_site_type_symbol
 _atom_site_label
 _atom_site_symmetry_multiplicity
 _atom_site_fract_x
 _atom_site_fract_y
 _atom_site_fract_z
 _atom_site_occupancy
  Mn  Mn0  1  0.13591788  0.61637440  0.76762715  1
  Mn  Mn1  1  0.86408212  0.38362560  0.23237285  1
  O  O2  1  0.66698380  0.62603351  0.83205930  1
  O  O3  1  0.33301620  0.37396649  0.16794070  1
  F  F4  1  0.06455732  0.18350681  0.64556258  1
  F  F5  1  0.93544268  0.81649319  0.35443742  1
