# generated using pymatgen
data_Li3V3P8O29
_symmetry_space_group_name_H-M   'P 1'
_cell_length_a   9.77670520
_cell_length_b   9.71930878
_cell_length_c   14.38678390
_cell_angle_alpha   90.13990471
_cell_angle_beta   91.26953151
_cell_angle_gamma   60.22328979
_symmetry_Int_Tables_number   1
_chemical_formula_structural   Li3V3P8O29
_chemical_formula_sum   'Li6 V6 P16 O58'
_cell_volume   1186.22555180
_cell_formula_units_Z   2
loop_
 _symmetry_equiv_pos_site_id
 _symmetry_equiv_pos_as_xyz
  1  'x, y, z'
loop_
 _atom_site_type_symbol
 _atom_site_label
 _atom_site_symmetry_multiplicity
 _atom_site_fract_x
 _atom_site_fract_y
 _atom_site_fract_z
 _atom_site_occupancy
  Li  Li0  1  0.91945308  0.30383146  0.55749748  1
  Li  Li1  1  0.32837828  0.90624519  0.06228970  1
  Li  Li2  1  0.68764094  0.22264210  0.43822674  1
  Li  Li3  1  0.29868919  0.77841384  0.55917177  1
  Li  Li4  1  0.67414726  0.09456486  0.94163123  1
  Li  Li5  1  0.99712726  0.00646657  0.00891622  1
  V  V6  1  0.56734809  0.44096999  0.24239176  1
  V  V7  1  0.43009832  0.56328437  0.75520059  1
  V  V8  1  0.56811851  0.99690663  0.74446632  1
  V  V9  1  0.43401918  0.00160166  0.25422548  1
  V  V10  1  0.99698595  0.56567748  0.24524058  1
  V  V11  1  0.00353108  0.43923132  0.75776007  1
  P  P12  1  0.91909802  0.78487861  0.84063657  1
  P  P13  1  0.78063967  0.90824966  0.33484303  1
  P  P14  1  0.91301216  0.31580024  0.34185050  1
  P  P15  1  0.66114726  0.67421552  0.13044035  1
  P  P16  1  0.66385249  0.66012931  0.63462042  1
  P  P17  1  0.78152473  0.30455386  0.83628033  1
  P  P18  1  0.67674995  0.23408360  0.65609765  1
  P  P19  1  0.31900144  0.91304809  0.84446234  1
  P  P20  1  0.68319147  0.08734661  0.15635330  1
  P  P21  1  0.32355706  0.76657701  0.34400460  1
  P  P22  1  0.21555229  0.69858665  0.16462029  1
  P  P23  1  0.33680215  0.33758600  0.36507036  1
  P  P24  1  0.34148043  0.32570086  0.86744902  1
  P  P25  1  0.08157978  0.69021131  0.65779748  1
  P  P26  1  0.22167471  0.09103314  0.66575233  1
  P  P27  1  0.08092730  0.21646643  0.16201859  1
  O  O28  1  0.00074251  0.76490985  0.56948496  1
  O  O29  1  0.92046486  0.73703223  0.33118523  1
  O  O30  1  0.76030619  0.02876320  0.06544689  1
  O  O31  1  0.74183242  0.91733825  0.83199193  1
  O  O32  1  0.92439976  0.61998387  0.83087980  1
  O  O33  1  0.80851046  0.67563794  0.17452976  1
  O  O34  1  0.90575936  0.47524689  0.31850164  1
  O  O35  1  0.00286568  0.18411040  0.08224426  1
  O  O36  1  0.91439447  0.34741393  0.83411853  1
  O  O37  1  0.65674121  0.81516142  0.67849744  1
  O  O38  1  0.62437640  0.90168253  0.31985248  1
  O  O39  1  0.81689337  0.51777530  0.67815328  1
  O  O40  1  0.65409458  0.67177246  0.02744546  1
  O  O41  1  0.65749434  0.66384025  0.53168810  1
  O  O42  1  0.66951919  0.51904566  0.17511920  1
  O  O43  1  0.47421262  0.91334830  0.82637942  1
  O  O44  1  0.50883688  0.81746091  0.17044130  1
  O  O45  1  0.74363739  0.33830479  0.33264360  1
  O  O46  1  0.79931735  0.21578961  0.73787135  1
  O  O47  1  0.74548262  0.24495573  0.56636940  1
  O  O48  1  0.80047307  0.19418160  0.91332655  1
  O  O49  1  0.61831968  0.45945693  0.82951727  1
  O  O50  1  0.51933368  0.65704097  0.67737787  1
  O  O51  1  0.64823430  0.26087653  0.17209288  1
  O  O52  1  0.48207802  0.61881953  0.31875739  1
  O  O53  1  0.34495058  0.91369624  0.32960622  1
  O  O54  1  0.80124451  0.98720494  0.24020686  1
  O  O55  1  0.77486339  0.00390603  0.41624733  1
  O  O56  1  0.22744871  0.99308017  0.58538532  1
  O  O57  1  0.65619045  0.08623803  0.66594000  1
  O  O58  1  0.51773053  0.38193592  0.67791454  1
  O  O59  1  0.34750476  0.74190656  0.82741241  1
  O  O60  1  0.48107113  0.34394912  0.32596049  1
  O  O61  1  0.37910854  0.54247871  0.16964254  1
  O  O62  1  0.19718084  0.81051119  0.08840340  1
  O  O63  1  0.26419987  0.75797658  0.43578715  1
  O  O64  1  0.19912421  0.78331714  0.26384697  1
  O  O65  1  0.25459693  0.66053025  0.66626890  1
  O  O66  1  0.49228813  0.18194868  0.82673598  1
  O  O67  1  0.52968222  0.08317966  0.17086584  1
  O  O68  1  0.33063905  0.48030984  0.82249766  1
  O  O69  1  0.34804616  0.32620048  0.97036528  1
  O  O70  1  0.33805673  0.33003956  0.46783735  1
  O  O71  1  0.18452362  0.47309145  0.31603659  1
  O  O72  1  0.37724637  0.09868284  0.67954482  1
  O  O73  1  0.34674937  0.18158429  0.32029039  1
  O  O74  1  0.08349994  0.65499534  0.16435637  1
  O  O75  1  0.99685883  0.80039116  0.74689731  1
  O  O76  1  0.99390478  0.80964485  0.92443477  1
  O  O77  1  0.08931633  0.52889825  0.68291217  1
  O  O78  1  0.19187734  0.32386383  0.82434559  1
  O  O79  1  0.06878106  0.38231346  0.16759897  1
  O  O80  1  0.25923084  0.08516850  0.16673925  1
  O  O81  1  0.24719656  0.97227682  0.93621218  1
  O  O82  1  0.19947621  0.01794677  0.76186916  1
  O  O83  1  0.07863512  0.26144604  0.66367684  1
  O  O84  1  0.98405282  0.24989269  0.43474980  1
  O  O85  1  0.01172161  0.19696817  0.26007247  1
