# generated using pymatgen
data_Li4Ti3Fe3(SbO8)2
_symmetry_space_group_name_H-M   'P 1'
_cell_length_a   6.07329182
_cell_length_b   6.01294504
_cell_length_c   9.85745258
_cell_angle_alpha   89.50579284
_cell_angle_beta   91.09028962
_cell_angle_gamma   119.95807574
_symmetry_Int_Tables_number   1
_chemical_formula_structural   Li4Ti3Fe3(SbO8)2
_chemical_formula_sum   'Li4 Ti3 Fe3 Sb2 O16'
_cell_volume   311.82517145
_cell_formula_units_Z   1
loop_
 _symmetry_equiv_pos_site_id
 _symmetry_equiv_pos_as_xyz
  1  'x, y, z'
loop_
 _atom_site_type_symbol
 _atom_site_label
 _atom_site_symmetry_multiplicity
 _atom_site_fract_x
 _atom_site_fract_y
 _atom_site_fract_z
 _atom_site_occupancy
  Li  Li0  1  0.32431580  0.66456198  0.90135066  1
  Li  Li1  1  0.99499322  0.99625653  0.98737329  1
  Li  Li2  1  0.00555438  0.00348885  0.49063151  1
  Li  Li3  1  0.66230122  0.33280731  0.40422860  1
  Ti  Ti4  1  0.18053930  0.83211458  0.21498570  1
  Ti  Ti5  1  0.17588218  0.34315338  0.21705155  1
  Ti  Ti6  1  0.34073169  0.17100335  0.71741770  1
  Fe  Fe7  1  0.65732379  0.83157800  0.20890021  1
  Fe  Fe8  1  0.83453615  0.66095822  0.71234972  1
  Fe  Fe9  1  0.83349752  0.17472069  0.71343103  1
  Sb  Sb10  1  0.34540940  0.66925858  0.49414230  1
  Sb  Sb11  1  0.67561964  0.33976058  0.98688950  1
  O  O12  1  0.17114299  0.83600869  0.60338938  1
  O  O13  1  0.03821456  0.51623352  0.33544241  1
  O  O14  1  0.29834086  0.64864076  0.10548584  1
  O  O15  1  0.01977490  0.00819700  0.30071519  1
  O  O16  1  0.01590929  0.00137199  0.80306302  1
  O  O17  1  0.18065851  0.32867273  0.59917936  1
  O  O18  1  0.46191717  0.96414683  0.34210641  1
  O  O19  1  0.46478630  0.50351343  0.33948035  1
  O  O20  1  0.33926951  0.17042200  0.09782068  1
  O  O21  1  0.68401044  0.82985648  0.58985234  1
  O  O22  1  0.51093581  0.47688566  0.84622831  1
  O  O23  1  0.50532730  0.04026122  0.85182597  1
  O  O24  1  0.64046252  0.32697424  0.60718813  1
  O  O25  1  0.84037213  0.66817604  0.09437289  1
  O  O26  1  0.95780178  0.49070686  0.85012051  1
  O  O27  1  0.84037065  0.17057050  0.09281544  1
