# generated using pymatgen
data_TlN3
_symmetry_space_group_name_H-M   'P 1'
_cell_length_a   5.83078320
_cell_length_b   5.83078320
_cell_length_c   5.83078320
_cell_angle_alpha   101.04553308
_cell_angle_beta   113.84134812
_cell_angle_gamma   113.84134817
_symmetry_Int_Tables_number   1
_chemical_formula_structural   TlN3
_chemical_formula_sum   'Tl2 N6'
_cell_volume   150.17867866
_cell_formula_units_Z   2
loop_
 _symmetry_equiv_pos_site_id
 _symmetry_equiv_pos_as_xyz
  1  'x, y, z'
loop_
 _atom_site_type_symbol
 _atom_site_label
 _atom_site_symmetry_multiplicity
 _atom_site_fract_x
 _atom_site_fract_y
 _atom_site_fract_z
 _atom_site_occupancy
  N  N0  1  0.50000000  0.86787375  0.63212625  1
  N  N1  1  0.76425249  0.63212625  0.13212625  1
  N  N2  1  0.50000000  0.00000000  0.50000000  1
  N  N3  1  0.50000000  0.50000000  0.00000000  1
  N  N4  1  0.50000000  0.13212625  0.36787375  1
  N  N5  1  0.23574751  0.36787375  0.86787375  1
  Tl  Tl6  1  0.00000000  0.75000000  0.75000000  1
  Tl  Tl7  1  0.00000000  0.25000000  0.25000000  1
