# generated using pymatgen
data_CoF3
_symmetry_space_group_name_H-M   'P 1'
_cell_length_a   5.11559926
_cell_length_b   5.11559817
_cell_length_c   6.78885935
_cell_angle_alpha   90.00000000
_cell_angle_beta   90.00000000
_cell_angle_gamma   119.99999998
_symmetry_Int_Tables_number   1
_chemical_formula_structural   CoF3
_chemical_formula_sum   'Co3 F9'
_cell_volume   153.85810601
_cell_formula_units_Z   3
loop_
 _symmetry_equiv_pos_site_id
 _symmetry_equiv_pos_as_xyz
  1  'x, y, z'
loop_
 _atom_site_type_symbol
 _atom_site_label
 _atom_site_symmetry_multiplicity
 _atom_site_fract_x
 _atom_site_fract_y
 _atom_site_fract_z
 _atom_site_occupancy
  Co  Co0  1  0.66666700  0.33333300  0.33810671  1
  Co  Co1  1  0.00000000  -0.00000000  0.00000000  1
  Co  Co2  1  0.33333300  0.66666700  0.66189329  1
  F  F3  1  0.93662758  0.67218381  0.17715374  1
  F  F4  1  0.26444377  0.32781619  0.82284626  1
  F  F5  1  0.32781619  0.26444377  0.17715374  1
  F  F6  1  0.61470408  0.61470408  0.50000000  1
  F  F7  1  0.06337242  0.73555623  0.82284626  1
  F  F8  1  0.38529592  0.00000000  0.50000000  1
  F  F9  1  0.73555623  0.06337242  0.17715374  1
  F  F10  1  1.00000000  0.38529592  0.50000000  1
  F  F11  1  0.67218381  0.93662758  0.82284626  1
