# generated using pymatgen
data_Li3V3P8O29
_symmetry_space_group_name_H-M   'P 1'
_cell_length_a   9.75351871
_cell_length_b   9.75490523
_cell_length_c   14.37281018
_cell_angle_alpha   90.61993156
_cell_angle_beta   90.21504956
_cell_angle_gamma   60.13319130
_symmetry_Int_Tables_number   1
_chemical_formula_structural   Li3V3P8O29
_chemical_formula_sum   'Li6 V6 P16 O58'
_cell_volume   1185.80101527
_cell_formula_units_Z   2
loop_
 _symmetry_equiv_pos_site_id
 _symmetry_equiv_pos_as_xyz
  1  'x, y, z'
loop_
 _atom_site_type_symbol
 _atom_site_label
 _atom_site_symmetry_multiplicity
 _atom_site_fract_x
 _atom_site_fract_y
 _atom_site_fract_z
 _atom_site_occupancy
  Li  Li0  1  0.91780004  0.30396189  0.56045619  1
  Li  Li1  1  0.76903277  0.32368518  0.05613357  1
  Li  Li2  1  0.32083569  0.90872303  0.05595485  1
  Li  Li3  1  0.31875063  0.77160658  0.55942016  1
  Li  Li4  1  0.07943969  0.69777625  0.44006856  1
  Li  Li5  1  0.98102239  0.95877470  0.00021142  1
  V  V6  1  0.56803315  0.43242558  0.25126497  1
  V  V7  1  0.43291211  0.56293760  0.75428599  1
  V  V8  1  0.56716044  0.00035318  0.74690144  1
  V  V9  1  0.43893692  0.00068835  0.25114653  1
  V  V10  1  0.99214500  0.57011980  0.24172896  1
  V  V11  1  0.00480213  0.43517586  0.75475837  1
  P  P12  1  0.91509683  0.78314457  0.83473450  1
  P  P13  1  0.77510321  0.91652339  0.34196044  1
  P  P14  1  0.91220412  0.32215652  0.34373473  1
  P  P15  1  0.66183619  0.66527827  0.13029174  1
  P  P16  1  0.66694765  0.66190491  0.63321844  1
  P  P17  1  0.77462498  0.31342291  0.84270371  1
  P  P18  1  0.68693250  0.22477846  0.66293035  1
  P  P19  1  0.31300769  0.91613842  0.84325735  1
  P  P20  1  0.69681584  0.08157966  0.15866807  1
  P  P21  1  0.32109882  0.77176877  0.34190562  1
  P  P22  1  0.22449920  0.69187779  0.16245827  1
  P  P23  1  0.32678099  0.34114594  0.36470569  1
  P  P24  1  0.33672307  0.33052780  0.86724567  1
  P  P25  1  0.09128537  0.67963405  0.65551717  1
  P  P26  1  0.22426307  0.08618211  0.66367091  1
  P  P27  1  0.08605317  0.21994849  0.16478450  1
  O  O28  1  0.01903717  0.74359970  0.56388409  1
  O  O29  1  0.91840094  0.74420647  0.33253596  1
  O  O30  1  0.79475965  0.00410866  0.07562594  1
  O  O31  1  0.74041229  0.91592073  0.82834572  1
  O  O32  1  0.92095737  0.61960628  0.82722405  1
  O  O33  1  0.80938063  0.67209378  0.17379362  1
  O  O34  1  0.90097385  0.48187733  0.31784869  1
  O  O35  1  0.98915046  0.21209520  0.08720064  1
  O  O36  1  0.91343112  0.34674800  0.82854330  1
  O  O37  1  0.65742758  0.81518489  0.67785173  1
  O  O38  1  0.62054386  0.90699570  0.31930708  1
  O  O39  1  0.82043721  0.51963034  0.67479091  1
  O  O40  1  0.66405459  0.65959006  0.02700667  1
  O  O41  1  0.66207807  0.66179011  0.52983942  1
  O  O42  1  0.67360834  0.51100803  0.17184600  1
  O  O43  1  0.46859131  0.91781170  0.82777321  1
  O  O44  1  0.51029956  0.81314367  0.17099064  1
  O  O45  1  0.74506546  0.34092029  0.32760187  1
  O  O46  1  0.78911141  0.19943445  0.75807072  1
  O  O47  1  0.77549531  0.23081487  0.58142469  1
  O  O48  1  0.78670031  0.23719720  0.93365719  1
  O  O49  1  0.61659090  0.47117077  0.82815362  1
  O  O50  1  0.52005294  0.65729875  0.67483529  1
  O  O51  1  0.65480693  0.25909506  0.16440336  1
  O  O52  1  0.48214280  0.62019569  0.32132349  1
  O  O53  1  0.34316683  0.91729357  0.33156072  1
  O  O54  1  0.79503450  0.00371552  0.25226311  1
  O  O55  1  0.76974032  0.99650776  0.42987653  1
  O  O56  1  0.22669101  0.99009732  0.58238829  1
  O  O57  1  0.65761363  0.08247923  0.66474037  1
  O  O58  1  0.52582768  0.37781596  0.68062965  1
  O  O59  1  0.34382729  0.74411685  0.82713529  1
  O  O60  1  0.47257618  0.34609334  0.31834116  1
  O  O61  1  0.38487086  0.53753675  0.17059879  1
  O  O62  1  0.20563429  0.79787168  0.08376377  1
  O  O63  1  0.25027191  0.76167894  0.43187156  1
  O  O64  1  0.20237141  0.78676619  0.26004170  1
  O  O65  1  0.26045339  0.65811705  0.66314000  1
  O  O66  1  0.48312557  0.18716802  0.82110123  1
  O  O67  1  0.54033422  0.07606750  0.17078496  1
  O  O68  1  0.33033892  0.48289354  0.82354782  1
  O  O69  1  0.33348942  0.33414102  0.97008288  1
  O  O70  1  0.33203979  0.34090504  0.46744557  1
  O  O71  1  0.17677263  0.48612136  0.32393955  1
  O  O72  1  0.37916001  0.09226380  0.67708089  1
  O  O73  1  0.33871521  0.18729583  0.31781209  1
  O  O74  1  0.08761814  0.65341049  0.16616664  1
  O  O75  1  0.99277683  0.79898845  0.73890207  1
  O  O76  1  0.99825869  0.80030653  0.91621800  1
  O  O77  1  0.09860758  0.52132824  0.67986982  1
  O  O78  1  0.18728372  0.32930678  0.82309683  1
  O  O79  1  0.08439687  0.38120345  0.17258935  1
  O  O80  1  0.25974749  0.08197704  0.16167355  1
  O  O81  1  0.23500686  0.97825569  0.93485373  1
  O  O82  1  0.19726843  0.01527634  0.75955407  1
  O  O83  1  0.08154503  0.25781987  0.66256365  1
  O  O84  1  0.97988384  0.26236335  0.43622256  1
  O  O85  1  0.02061976  0.19905072  0.26383470  1
