# generated using pymatgen
data_CrCu(PO4)2
_symmetry_space_group_name_H-M   'P 1'
_cell_length_a   9.92816770
_cell_length_b   5.93776300
_cell_length_c   4.92297903
_cell_angle_alpha   90.00000000
_cell_angle_beta   93.50323651
_cell_angle_gamma   90.00000000
_symmetry_Int_Tables_number   1
_chemical_formula_structural   CrCu(PO4)2
_chemical_formula_sum   'Cr2 Cu2 P4 O16'
_cell_volume   289.67275204
_cell_formula_units_Z   2
loop_
 _symmetry_equiv_pos_site_id
 _symmetry_equiv_pos_as_xyz
  1  'x, y, z'
loop_
 _atom_site_type_symbol
 _atom_site_label
 _atom_site_symmetry_multiplicity
 _atom_site_fract_x
 _atom_site_fract_y
 _atom_site_fract_z
 _atom_site_occupancy
  Cr  Cr0  1  0.21962046  0.75000000  0.46296543  1
  Cr  Cr1  1  0.78037954  0.25000000  0.53703457  1
  Cu  Cu2  1  0.29286220  0.25000000  0.88767157  1
  Cu  Cu3  1  0.70713780  0.75000000  0.11232843  1
  P  P4  1  0.09761890  0.25000000  0.40733321  1
  P  P5  1  0.40068504  0.75000000  0.92866569  1
  P  P6  1  0.59931496  0.25000000  0.07133431  1
  P  P7  1  0.90238110  0.75000000  0.59266679  1
  O  O8  1  0.05472640  0.75000000  0.66501249  1
  O  O9  1  0.11963002  0.25000000  0.72482657  1
  O  O10  1  0.16635754  0.03914933  0.28520726  1
  O  O11  1  0.16635754  0.46085067  0.28520726  1
  O  O12  1  0.32724979  0.94660631  0.75703820  1
  O  O13  1  0.32724979  0.55339369  0.75703820  1
  O  O14  1  0.37724979  0.75000000  0.22878810  1
  O  O15  1  0.44829410  0.25000000  0.12513842  1
  O  O16  1  0.55170590  0.75000000  0.87486158  1
  O  O17  1  0.62275021  0.25000000  0.77121190  1
  O  O18  1  0.67275021  0.05339369  0.24296180  1
  O  O19  1  0.67275021  0.44660631  0.24296180  1
  O  O20  1  0.83364246  0.53914933  0.71479274  1
  O  O21  1  0.83364246  0.96085067  0.71479274  1
  O  O22  1  0.88036998  0.75000000  0.27517343  1
  O  O23  1  0.94527360  0.25000000  0.33498751  1
