# generated using pymatgen
data_H6PbCI3N
_symmetry_space_group_name_H-M   'P 1'
_cell_length_a   6.43839326
_cell_length_b   6.43672416
_cell_length_c   6.49207037
_cell_angle_alpha   90.41946266
_cell_angle_beta   90.00369171
_cell_angle_gamma   89.99764213
_symmetry_Int_Tables_number   1
_chemical_formula_structural   H6PbCI3N
_chemical_formula_sum   'H6 Pb1 C1 I3 N1'
_cell_volume   269.03821742
_cell_formula_units_Z   1
loop_
 _symmetry_equiv_pos_site_id
 _symmetry_equiv_pos_as_xyz
  1  'x, y, z'
loop_
 _atom_site_type_symbol
 _atom_site_label
 _atom_site_symmetry_multiplicity
 _atom_site_fract_x
 _atom_site_fract_y
 _atom_site_fract_z
 _atom_site_occupancy
  H  H0  1  0.86100696  0.15909251  0.93112283  1
  H  H1  1  0.00027629  0.13236283  0.16822811  1
  H  H2  1  0.13037988  0.79600283  0.03901506  1
  H  H3  1  -0.00000276  0.82118564  0.82019082  1
  H  H4  1  0.87025355  0.79582312  0.03936453  1
  H  H5  1  0.13873701  0.15930056  0.93068617  1
  Pb  Pb6  1  0.49995105  0.52476119  0.52422081  1
  C  C7  1  0.00002409  0.09538712  0.00348527  1
  I  I8  1  0.50009856  0.57176070  0.02756401  1
  I  I9  1  0.49981590  0.03836282  0.55100611  1
  I  I10  1  0.99996362  0.56285313  0.49421618  1
  N  N11  1  0.00019385  0.86512755  0.97511210  1
