# generated using pymatgen
data_Rb2H2C2O5
_symmetry_space_group_name_H-M   'P 1'
_cell_length_a   5.83449421
_cell_length_b   5.83449421
_cell_length_c   11.09928061
_cell_angle_alpha   93.67766746
_cell_angle_beta   105.15755264
_cell_angle_gamma   112.36836296
_symmetry_Int_Tables_number   1
_chemical_formula_structural   Rb2H2C2O5
_chemical_formula_sum   'Rb4 H4 C4 O10'
_cell_volume   331.53217312
_cell_formula_units_Z   2
loop_
 _symmetry_equiv_pos_site_id
 _symmetry_equiv_pos_as_xyz
  1  'x, y, z'
loop_
 _atom_site_type_symbol
 _atom_site_label
 _atom_site_symmetry_multiplicity
 _atom_site_fract_x
 _atom_site_fract_y
 _atom_site_fract_z
 _atom_site_occupancy
  Rb  Rb0  1  0.18040398  0.30993289  0.13018574  1
  Rb  Rb1  1  0.67974815  0.05021724  0.36981426  1
  Rb  Rb2  1  0.32025285  0.94978276  0.63018574  1
  Rb  Rb3  1  0.81959602  0.69006711  0.86981426  1
  H  H4  1  0.76845623  0.65364285  0.19849175  1
  H  H5  1  0.95515210  0.56996448  0.30150925  1
  H  H6  1  0.04484690  0.43003352  0.69849075  1
  H  H7  1  0.23154277  0.34635615  0.80150925  1
  C  C8  1  0.49498144  0.91582826  0.05345330  1
  C  C9  1  0.36237597  0.44152714  0.44654770  1
  C  C10  1  0.63762303  0.55847086  0.55345230  1
  C  C11  1  0.50502056  0.08417174  0.94654770  1
  O  O12  1  0.68986753  0.86049290  0.09334623  1
  O  O13  1  0.29825424  0.84981608  0.09266110  1
  O  O14  1  0.77206443  0.52206343  0.25000000  1
  O  O15  1  0.25715597  0.20559314  0.40733990  1
  O  O16  1  0.26714668  0.59652131  0.40665377  1
  O  O17  1  0.73285232  0.40347769  0.59334623  1
  O  O18  1  0.74284603  0.79440786  0.59266110  1
  O  O19  1  0.22793657  0.47793657  0.75000000  1
  O  O20  1  0.70174576  0.15018392  0.90733890  1
  O  O21  1  0.31013247  0.13950710  0.90665377  1
