# generated using pymatgen
data_Mg14CrCu
_symmetry_space_group_name_H-M   'P 1'
_cell_length_a   6.27442625
_cell_length_b   6.27442576
_cell_length_c   9.93544623
_cell_angle_alpha   90.00000000
_cell_angle_beta   90.00000000
_cell_angle_gamma   120.00000263
_symmetry_Int_Tables_number   1
_chemical_formula_structural   Mg14CrCu
_chemical_formula_sum   'Mg14 Cr1 Cu1'
_cell_volume   338.73962438
_cell_formula_units_Z   1
loop_
 _symmetry_equiv_pos_site_id
 _symmetry_equiv_pos_as_xyz
  1  'x, y, z'
loop_
 _atom_site_type_symbol
 _atom_site_label
 _atom_site_symmetry_multiplicity
 _atom_site_fract_x
 _atom_site_fract_y
 _atom_site_fract_z
 _atom_site_occupancy
  Mg  Mg0  1  0.16527244  0.83263572  0.12500000  1
  Mg  Mg1  1  0.16884170  0.83442035  0.62500000  1
  Mg  Mg2  1  0.66736428  0.33472756  0.12500000  1
  Mg  Mg3  1  0.66557965  0.33115830  0.62500000  1
  Mg  Mg4  1  0.66736428  0.83263572  0.12500000  1
  Mg  Mg5  1  0.66557965  0.83442035  0.62500000  1
  Mg  Mg6  1  0.32749808  0.17250192  0.37173710  1
  Mg  Mg7  1  0.32749808  0.17250192  0.87826290  1
  Mg  Mg8  1  0.32749808  0.65499716  0.37173710  1
  Mg  Mg9  1  0.32749808  0.65499716  0.87826290  1
  Mg  Mg10  1  0.84500284  0.17250192  0.37173710  1
  Mg  Mg11  1  0.84500284  0.17250192  0.87826290  1
  Mg  Mg12  1  0.83333300  0.66666700  0.37495675  1
  Mg  Mg13  1  0.83333300  0.66666700  0.87504325  1
  Cr  Cr14  1  0.16666700  0.33333300  0.62500000  1
  Cu  Cu15  1  0.16666700  0.33333300  0.12500000  1
