# generated using pymatgen
data_SiGeN2O
_symmetry_space_group_name_H-M   'P 1'
_cell_length_a   9.18467785
_cell_length_b   5.00892261
_cell_length_c   5.39055528
_cell_angle_alpha   90.00005883
_cell_angle_beta   31.52424586
_cell_angle_gamma   90.00001976
_symmetry_Int_Tables_number   1
_chemical_formula_structural   SiGeN2O
_chemical_formula_sum   'Si2 Ge2 N4 O2'
_cell_volume   129.66614988
_cell_formula_units_Z   2
loop_
 _symmetry_equiv_pos_site_id
 _symmetry_equiv_pos_as_xyz
  1  'x, y, z'
loop_
 _atom_site_type_symbol
 _atom_site_label
 _atom_site_symmetry_multiplicity
 _atom_site_fract_x
 _atom_site_fract_y
 _atom_site_fract_z
 _atom_site_occupancy
  Si  Si0  1  0.16516585  0.31443950  0.31672528  1
  Si  Si1  1  0.83483448  0.81443975  0.68327462  1
  Ge  Ge2  1  0.51949256  0.31613100  0.30484589  1
  Ge  Ge3  1  0.48050716  0.81613105  0.69515491  1
  N  N4  1  0.58693781  0.67512600  0.23945206  1
  N  N5  1  0.15278459  0.65467861  0.27251157  1
  N  N6  1  0.84721544  0.15467839  0.72748903  1
  N  N7  1  0.41306223  0.17512627  0.76054910  1
  O  O8  1  0.24887310  0.24362320  0.48316708  1
  O  O9  1  0.75112577  0.74362524  0.51683444  1
