# generated using pymatgen
data_Mg5Sc
_symmetry_space_group_name_H-M   'P 1'
_cell_length_a   3.19675838
_cell_length_b   6.18077015
_cell_length_c   7.57704094
_cell_angle_alpha   75.48135016
_cell_angle_beta   90.00000000
_cell_angle_gamma   104.98731468
_symmetry_Int_Tables_number   1
_chemical_formula_structural   Mg5Sc
_chemical_formula_sum   'Mg5 Sc1'
_cell_volume   139.66268005
_cell_formula_units_Z   1
loop_
 _symmetry_equiv_pos_site_id
 _symmetry_equiv_pos_as_xyz
  1  'x, y, z'
loop_
 _atom_site_type_symbol
 _atom_site_label
 _atom_site_symmetry_multiplicity
 _atom_site_fract_x
 _atom_site_fract_y
 _atom_site_fract_z
 _atom_site_occupancy
  Mg  Mg0  1  0.00087565  0.00175231  0.99787330  1
  Mg  Mg1  1  0.72195606  0.44391612  0.05564177  1
  Mg  Mg2  1  0.33382901  0.66765903  0.33512070  1
  Mg  Mg3  1  0.05671134  0.11342269  0.38646727  1
  Mg  Mg4  1  0.66556821  0.33114043  0.66647182  1
  Sc  Sc5  1  0.38772072  0.77544143  0.72509213  1
