# generated using pymatgen
data_Sm5Mg
_symmetry_space_group_name_H-M   'P 1'
_cell_length_a   6.25480900
_cell_length_b   6.25481063
_cell_length_c   6.73947674
_cell_angle_alpha   117.64826386
_cell_angle_beta   62.35173068
_cell_angle_gamma   119.99998215
_symmetry_Int_Tables_number   1
_chemical_formula_structural   Sm5Mg
_chemical_formula_sum   'Sm5 Mg1'
_cell_volume   192.79474315
_cell_formula_units_Z   1
loop_
 _symmetry_equiv_pos_site_id
 _symmetry_equiv_pos_as_xyz
  1  'x, y, z'
loop_
 _atom_site_type_symbol
 _atom_site_label
 _atom_site_symmetry_multiplicity
 _atom_site_fract_x
 _atom_site_fract_y
 _atom_site_fract_z
 _atom_site_occupancy
  Sm  Sm0  1  0.67912284  0.34579084  0.00000000  1
  Sm  Sm1  1  0.98754216  1.00000000  0.00000000  1
  Sm  Sm2  1  0.33333300  0.65420916  1.00000000  1
  Sm  Sm3  1  0.49984535  0.83348765  0.50046295  1
  Sm  Sm4  1  0.16682065  0.16651235  0.49953705  1
  Mg  Mg5  1  0.83333200  0.50000000  0.50000100  1
