# generated using pymatgen
data_CsBaSiHO4
_symmetry_space_group_name_H-M   'P 1'
_cell_length_a   6.12414463
_cell_length_b   8.34261651
_cell_length_c   6.28383873
_cell_angle_alpha   90.00000000
_cell_angle_beta   120.90284863
_cell_angle_gamma   90.00000000
_symmetry_Int_Tables_number   1
_chemical_formula_structural   CsBaSiHO4
_chemical_formula_sum   'Cs2 Ba2 Si2 H2 O8'
_cell_volume   275.47358850
_cell_formula_units_Z   2
loop_
 _symmetry_equiv_pos_site_id
 _symmetry_equiv_pos_as_xyz
  1  'x, y, z'
loop_
 _atom_site_type_symbol
 _atom_site_label
 _atom_site_symmetry_multiplicity
 _atom_site_fract_x
 _atom_site_fract_y
 _atom_site_fract_z
 _atom_site_occupancy
  Cs  Cs0  1  0.35895568  0.77010711  0.63567522  1
  Cs  Cs1  1  0.64104432  0.27010711  0.36432478  1
  Ba  Ba2  1  0.99385292  0.51711952  0.98343709  1
  Ba  Ba3  1  0.00614708  0.01711952  0.01656291  1
  Si  Si4  1  0.69106305  0.75429243  0.30754622  1
  Si  Si5  1  0.30893695  0.25429243  0.69245378  1
  H  H6  1  0.94360783  0.98691215  0.48279583  1
  H  H7  1  0.05639217  0.48691215  0.51720417  1
  O  O8  1  0.37975223  0.76326606  0.15380771  1
  O  O9  1  0.62024777  0.26326606  0.84619229  1
  O  O10  1  0.81094739  0.75939502  0.12616824  1
  O  O11  1  0.18905261  0.25939502  0.87383176  1
  O  O12  1  0.81198743  0.60620472  0.50917425  1
  O  O13  1  0.18801257  0.10620472  0.49082575  1
  O  O14  1  0.80674153  0.92570299  0.49127947  1
  O  O15  1  0.19325847  0.42570299  0.50872053  1
