# generated using pymatgen
data_CaMoN3
_symmetry_space_group_name_H-M   'P 1'
_cell_length_a   3.53527116
_cell_length_b   4.29575692
_cell_length_c   8.84143261
_cell_angle_alpha   90.00000000
_cell_angle_beta   90.00000000
_cell_angle_gamma   90.00000000
_symmetry_Int_Tables_number   1
_chemical_formula_structural   CaMoN3
_chemical_formula_sum   'Ca2 Mo2 N6'
_cell_volume   134.27188003
_cell_formula_units_Z   2
loop_
 _symmetry_equiv_pos_site_id
 _symmetry_equiv_pos_as_xyz
  1  'x, y, z'
loop_
 _atom_site_type_symbol
 _atom_site_label
 _atom_site_symmetry_multiplicity
 _atom_site_fract_x
 _atom_site_fract_y
 _atom_site_fract_z
 _atom_site_occupancy
  Ca  Ca0  1  0.50000000  0.50000000  0.81560721  1
  Ca  Ca1  1  0.50000000  0.00000000  0.19103777  1
  Mo  Mo2  1  0.00000000  0.00000000  0.61205057  1
  Mo  Mo3  1  0.00000000  0.50000000  0.40453415  1
  N  N4  1  0.00000000  0.00000000  0.39092250  1
  N  N5  1  0.50000000  0.50000000  0.31468091  1
  N  N6  1  0.00000000  0.64312688  0.02431765  1
  N  N7  1  0.00000000  0.50000000  0.62417442  1
  N  N8  1  0.50000000  0.00000000  0.70308716  1
  N  N9  1  0.00000000  0.35687312  0.02431765  1
