# generated using pymatgen
data_LiFeSiO4
_symmetry_space_group_name_H-M   'P 1'
_cell_length_a   9.93553441
_cell_length_b   10.34728228
_cell_length_c   16.84146699
_cell_angle_alpha   105.24740742
_cell_angle_beta   107.15587796
_cell_angle_gamma   61.30783635
_symmetry_Int_Tables_number   1
_chemical_formula_structural   LiFeSiO4
_chemical_formula_sum   'Li16 Fe16 Si16 O64'
_cell_volume   1435.93169643
_cell_formula_units_Z   16
loop_
 _symmetry_equiv_pos_site_id
 _symmetry_equiv_pos_as_xyz
  1  'x, y, z'
loop_
 _atom_site_type_symbol
 _atom_site_label
 _atom_site_symmetry_multiplicity
 _atom_site_fract_x
 _atom_site_fract_y
 _atom_site_fract_z
 _atom_site_occupancy
  Li  Li0  1  0.62822474  0.98132778  0.18470859  1
  Li  Li1  1  0.07715692  0.96837377  0.68799002  1
  Li  Li2  1  0.81333069  0.89933772  0.43385983  1
  Li  Li3  1  0.38952989  0.82327069  0.43688524  1
  Li  Li4  1  0.72225028  0.89908256  0.93416306  1
  Li  Li5  1  0.22356819  0.82386574  0.93689051  1
  Li  Li6  1  0.11839192  0.56615240  0.18675227  1
  Li  Li7  1  0.64245933  0.46837377  0.18799002  1
  Li  Li8  1  0.00035431  0.55792067  0.68802641  1
  Li  Li9  1  0.57515607  0.48132778  0.68470859  1
  Li  Li10  1  0.31283122  0.39908256  0.43416306  1
  Li  Li11  1  0.88945658  0.32386574  0.43689051  1
  Li  Li12  1  0.72119142  0.39933772  0.93385983  1
  Li  Li13  1  0.22408365  0.32327069  0.93688524  1
  Li  Li14  1  0.12975144  0.05792067  0.18802641  1
  Li  Li15  1  0.50220795  0.06615240  0.68675227  1
  Fe  Fe16  1  0.94673884  0.87282245  0.12166329  1
  Fe  Fe17  1  0.44988096  0.79654532  0.12130318  1
  Fe  Fe18  1  0.80139282  0.86408920  0.61891340  1
  Fe  Fe19  1  0.37620554  0.80863514  0.62584400  1
  Fe  Fe20  1  0.11976092  0.69855330  0.37696899  1
  Fe  Fe21  1  0.68803386  0.62792718  0.37642947  1
  Fe  Fe22  1  0.55874649  0.69561336  0.87555797  1
  Fe  Fe23  1  0.05879279  0.63040425  0.87787914  1
  Fe  Fe24  1  0.95343137  0.36408920  0.11891340  1
  Fe  Fe25  1  0.44100332  0.30863514  0.12584400  1
  Fe  Fe26  1  0.30210200  0.37282245  0.62166329  1
  Fe  Fe27  1  0.87487690  0.29654532  0.62130318  1
  Fe  Fe28  1  0.62119812  0.19561336  0.37555797  1
  Fe  Fe29  1  0.18868110  0.13040425  0.37787914  1
  Fe  Fe30  1  0.55865477  0.19855330  0.87696899  1
  Fe  Fe31  1  0.06046842  0.12792718  0.87642947  1
  Si  Si32  1  0.49926020  0.94058026  0.31305450  1
  Si  Si33  1  0.37344256  0.01020043  0.81108195  1
  Si  Si34  1  0.87065794  0.94191657  0.81236864  1
  Si  Si35  1  0.77166658  0.68093537  0.06038418  1
  Si  Si36  1  0.26672575  0.60802425  0.06336135  1
  Si  Si37  1  0.11071193  0.68348894  0.56166705  1
  Si  Si38  1  0.68636797  0.60582157  0.56242639  1
  Si  Si39  1  0.42743897  0.51020043  0.31108195  1
  Si  Si40  1  0.99979313  0.44191657  0.31236864  1
  Si  Si41  1  0.36755849  0.51485255  0.80982241  1
  Si  Si42  1  0.87321404  0.44058026  0.81305450  1
  Si  Si43  1  0.76746617  0.18348894  0.06166705  1
  Si  Si44  1  0.27023685  0.10582157  0.06242639  1
  Si  Si45  1  0.60778122  0.18093537  0.56038418  1
  Si  Si46  1  0.18861235  0.10802425  0.56336135  1
  Si  Si47  1  0.92741037  0.01485255  0.30982241  1
  O  O48  1  0.39914246  0.98949143  0.38735578  1
  O  O49  1  0.30741414  0.92787911  0.04088442  1
  O  O50  1  0.85187928  0.94483944  0.21773094  1
  O  O51  1  0.38759348  0.90814129  0.22334263  1
  O  O52  1  0.81186604  0.80221419  0.03670286  1
  O  O53  1  0.65300711  0.77196660  0.12795637  1
  O  O54  1  0.97513787  0.90039510  0.37715851  1
  O  O55  1  0.99820600  0.98895736  0.88630417  1
  O  O56  1  0.30853543  0.93019161  0.54056018  1
  O  O57  1  0.42509292  0.94176192  0.71854845  1
  O  O58  1  0.92875514  0.90192375  0.72259556  1
  O  O59  1  0.14399020  0.70369737  0.12901084  1
  O  O60  1  0.92597964  0.80637841  0.53781375  1
  O  O61  1  0.66572450  0.79828670  0.34303968  1
  O  O62  1  0.20873654  0.77261044  0.62912401  1
  O  O63  1  0.43614205  0.61554192  0.10548463  1
  O  O64  1  0.50780405  0.89694992  0.87854502  1
  O  O65  1  0.30113236  0.67542857  0.34802739  1
  O  O66  1  0.78431050  0.69506899  0.62858076  1
  O  O67  1  0.60711732  0.68024267  0.47512397  1
  O  O68  1  0.87610583  0.80000940  0.84300984  1
  O  O69  1  0.04478768  0.56763166  0.29803552  1
  O  O70  1  0.57474952  0.52795413  0.29738415  1
  O  O71  1  0.18200943  0.61153579  0.47559862  1
  O  O72  1  0.93445254  0.54691718  0.10238856  1
  O  O73  1  0.54890645  0.62290075  0.60627156  1
  O  O74  1  0.36866643  0.67870080  0.84909922  1
  O  O75  1  0.18749431  0.68154784  0.97565354  1
  O  O76  1  0.89914081  0.48895736  0.38630417  1
  O  O77  1  0.30183314  0.43019161  0.04056018  1
  O  O78  1  0.35169361  0.44176192  0.21854845  1
  O  O79  1  0.89191666  0.40192375  0.22259556  1
  O  O80  1  0.18623174  0.53680950  0.79506970  1
  O  O81  1  0.68666392  0.56169248  0.79800144  1
  O  O82  1  0.11799481  0.55075181  0.60215482  1
  O  O83  1  0.68375948  0.61007641  0.97475334  1
  O  O84  1  0.80545569  0.30637841  0.03781375  1
  O  O85  1  0.64777703  0.27261044  0.12912401  1
  O  O86  1  0.99872189  0.48949143  0.88735578  1
  O  O87  1  0.47379004  0.39694992  0.37854502  1
  O  O88  1  0.80559116  0.42787911  0.54088442  1
  O  O89  1  0.42101221  0.44483944  0.71773094  1
  O  O90  1  0.92760786  0.40814129  0.72334263  1
  O  O91  1  0.14920127  0.19506899  0.12858076  1
  O  O92  1  0.16689362  0.30000940  0.34300984  1
  O  O93  1  0.42262264  0.30221419  0.53670286  1
  O  O94  1  0.43446535  0.12290075  0.10627156  1
  O  O95  1  0.70298365  0.27196660  0.62795637  1
  O  O96  1  0.50162554  0.40039510  0.87715851  1
  O  O97  1  0.80173199  0.17870080  0.34909922  1
  O  O98  1  0.28132327  0.20369737  0.62901084  1
  O  O99  1  0.10661138  0.18154784  0.47565354  1
  O  O100  1  0.87902848  0.29828670  0.84303968  1
  O  O101  1  0.07202846  0.03680950  0.29506970  1
  O  O102  1  0.54964504  0.06169248  0.29800144  1
  O  O103  1  0.93340719  0.05075181  0.10215482  1
  O  O104  1  0.68091845  0.11007641  0.47475334  1
  O  O105  1  0.05380166  0.11554192  0.60548463  1
  O  O106  1  0.37146746  0.17542857  0.84802739  1
  O  O107  1  0.18776399  0.18024267  0.97512397  1
  O  O108  1  0.68561617  0.06763166  0.79803552  1
  O  O109  1  0.19468050  0.02795413  0.79738415  1
  O  O110  1  0.68205340  0.11153579  0.97559862  1
  O  O111  1  0.62101883  0.04691718  0.60238856  1
