# generated using pymatgen
data_AgBiO2
_symmetry_space_group_name_H-M   'P 1'
_cell_length_a   3.68416112
_cell_length_b   3.68416084
_cell_length_c   6.79211975
_cell_angle_alpha   74.26380653
_cell_angle_beta   74.26381224
_cell_angle_gamma   59.99999671
_symmetry_Int_Tables_number   1
_chemical_formula_structural   AgBiO2
_chemical_formula_sum   'Ag1 Bi1 O2'
_cell_volume   75.82266979
_cell_formula_units_Z   1
loop_
 _symmetry_equiv_pos_site_id
 _symmetry_equiv_pos_as_xyz
  1  'x, y, z'
loop_
 _atom_site_type_symbol
 _atom_site_label
 _atom_site_symmetry_multiplicity
 _atom_site_fract_x
 _atom_site_fract_y
 _atom_site_fract_z
 _atom_site_occupancy
  Ag  Ag0  1  0.50000000  0.50000000  0.50000000  1
  Bi  Bi1  1  0.00000000  0.00000000  0.00000000  1
  O  O2  1  0.39199000  0.39199000  0.82403000  1
  O  O3  1  0.60801000  0.60801000  0.17597000  1
