# generated using pymatgen
data_Ca2La5Mn7NiO24
_symmetry_space_group_name_H-M   'P 1'
_cell_length_a   10.98225403
_cell_length_b   5.47763855
_cell_length_c   7.69200793
_cell_angle_alpha   90.00227850
_cell_angle_beta   90.10254203
_cell_angle_gamma   89.88456029
_symmetry_Int_Tables_number   1
_chemical_formula_structural   Ca2La5Mn7NiO24
_chemical_formula_sum   'Ca2 La5 Mn7 Ni1 O24'
_cell_volume   462.72504063
_cell_formula_units_Z   1
loop_
 _symmetry_equiv_pos_site_id
 _symmetry_equiv_pos_as_xyz
  1  'x, y, z'
loop_
 _atom_site_type_symbol
 _atom_site_label
 _atom_site_symmetry_multiplicity
 _atom_site_fract_x
 _atom_site_fract_y
 _atom_site_fract_z
 _atom_site_occupancy
  Ca  Ca0  1  0.48352801  0.00348952  0.75019535  1
  Ca  Ca1  1  0.72689528  0.48730636  0.75192334  1
  La  La2  1  0.02224617  0.99605814  0.24616029  1
  La  La3  1  0.23993857  0.49521947  0.75500704  1
  La  La4  1  0.50056820  0.99729391  0.24859633  1
  La  La5  1  0.75970281  0.50581138  0.24782812  1
  La  La6  1  0.99061723  0.99606949  0.75419700  1
  Mn  Mn7  1  0.25267573  0.99579579  0.49373140  1
  Mn  Mn8  1  0.49525418  0.49796697  0.50093684  1
  Mn  Mn9  1  0.74705303  0.00075477  0.50567443  1
  Mn  Mn10  1  0.25102964  0.99416949  0.00467748  1
  Mn  Mn11  1  0.49584002  0.49795237  0.99870754  1
  Mn  Mn12  1  0.74766222  0.00269088  0.99547071  1
  Mn  Mn13  1  0.00117145  0.49907507  0.49865417  1
  Ni  Ni14  1  0.00073901  0.49851413  0.00246610  1
  O  O15  1  0.00992703  0.55305630  0.74382290  1
  O  O16  1  0.11665866  0.21477024  0.96822655  1
  O  O17  1  0.11118033  0.22139788  0.53220402  1
  O  O18  1  0.13184714  0.74013155  0.47507215  1
  O  O19  1  0.13669443  0.74601883  0.01880233  1
  O  O20  1  0.25566558  0.06138296  0.24912005  1
  O  O21  1  0.25215170  0.94312637  0.74867338  1
  O  O22  1  0.36913659  0.26895125  0.95853296  1
  O  O23  1  0.36760996  0.26815212  0.54165811  1
  O  O24  1  0.39422172  0.78521182  0.48232271  1
  O  O25  1  0.39552314  0.78380312  0.01621074  1
  O  O26  1  0.51229218  0.44081085  0.24963384  1
  O  O27  1  0.50479941  0.56880377  0.75014878  1
  O  O28  1  0.61078809  0.21999739  0.53775998  1
  O  O29  1  0.60836674  0.21955724  0.96238725  1
  O  O30  1  0.63789921  0.72401844  0.46728637  1
  O  O31  1  0.63713681  0.72198988  0.03354507  1
  O  O32  1  0.73939212  0.06162760  0.25037039  1
  O  O33  1  0.75747320  0.91890776  0.75050179  1
  O  O34  1  0.85395919  0.27019814  0.96418355  1
  O  O35  1  0.85741430  0.27655974  0.54071214  1
  O  O36  1  0.88748393  0.78325662  0.46454811  1
  O  O37  1  0.88380124  0.78957049  0.03468776  1
  O  O38  1  0.98371575  0.43692793  0.25742694  1
