# generated using pymatgen
data_Y2Ti3O9
_symmetry_space_group_name_H-M   'P 1'
_cell_length_a   5.30592941
_cell_length_b   16.55254377
_cell_length_c   7.67988489
_cell_angle_alpha   90.00000000
_cell_angle_beta   90.00000000
_cell_angle_gamma   90.00000000
_symmetry_Int_Tables_number   1
_chemical_formula_structural   Y2Ti3O9
_chemical_formula_sum   'Y8 Ti12 O36'
_cell_volume   674.49839946
_cell_formula_units_Z   4
loop_
 _symmetry_equiv_pos_site_id
 _symmetry_equiv_pos_as_xyz
  1  'x, y, z'
loop_
 _atom_site_type_symbol
 _atom_site_label
 _atom_site_symmetry_multiplicity
 _atom_site_fract_x
 _atom_site_fract_y
 _atom_site_fract_z
 _atom_site_occupancy
  Y  Y0  1  0.01021820  0.31505068  0.75000000  1
  Y  Y1  1  0.02135890  0.64821915  0.75000000  1
  Y  Y2  1  0.52135890  0.51844785  0.25000000  1
  Y  Y3  1  0.51021820  0.85161632  0.25000000  1
  Y  Y4  1  0.47864110  0.14821915  0.75000000  1
  Y  Y5  1  0.48978180  0.81505068  0.75000000  1
  Y  Y6  1  0.97864110  0.01844785  0.25000000  1
  Y  Y7  1  0.98978180  0.35161632  0.25000000  1
  Ti  Ti8  1  0.99163500  0.16665746  0.49098373  1
  Ti  Ti9  1  0.00836500  0.50000954  0.50901627  1
  Ti  Ti10  1  0.00000000  0.83333300  0.50000000  1
  Ti  Ti11  1  0.49163500  0.00000954  0.50901627  1
  Ti  Ti12  1  0.50000000  0.33333300  0.50000000  1
  Ti  Ti13  1  0.50836500  0.66665746  0.49098373  1
  Ti  Ti14  1  0.49163500  0.00000954  0.99098373  1
  Ti  Ti15  1  0.50000000  0.33333300  0.00000000  1
  Ti  Ti16  1  0.50836500  0.66665746  0.00901627  1
  Ti  Ti17  1  0.99163500  0.16665746  0.00901627  1
  Ti  Ti18  1  0.00836500  0.50000954  0.99098373  1
  Ti  Ti19  1  0.00000000  0.83333300  0.00000000  1
  O  O20  1  0.72637327  0.09100685  0.46348208  1
  O  O21  1  0.70968567  0.42898074  0.43532375  1
  O  O22  1  0.68709566  0.77095701  0.46628085  1
  O  O23  1  0.22637327  0.07565915  0.53651792  1
  O  O24  1  0.18709566  0.39570999  0.53371915  1
  O  O25  1  0.20968567  0.73768626  0.56467625  1
  O  O26  1  0.81290434  0.27095701  0.03371915  1
  O  O27  1  0.77362673  0.59100685  0.03651792  1
  O  O28  1  0.79031433  0.92898074  0.06467625  1
  O  O29  1  0.29031433  0.23768626  0.93532375  1
  O  O30  1  0.27362673  0.57565915  0.96348208  1
  O  O31  1  0.31290434  0.89570999  0.96628085  1
  O  O32  1  0.29031433  0.23768626  0.56467625  1
  O  O33  1  0.27362673  0.57565915  0.53651792  1
  O  O34  1  0.31290434  0.89570999  0.53371915  1
  O  O35  1  0.81290434  0.27095701  0.46628085  1
  O  O36  1  0.77362673  0.59100685  0.46348208  1
  O  O37  1  0.79031433  0.92898074  0.43532375  1
  O  O38  1  0.22637327  0.07565915  0.96348208  1
  O  O39  1  0.18709566  0.39570999  0.96628085  1
  O  O40  1  0.20968567  0.73768626  0.93532375  1
  O  O41  1  0.72637327  0.09100685  0.03651792  1
  O  O42  1  0.70968567  0.42898074  0.06467625  1
  O  O43  1  0.68709566  0.77095701  0.03371915  1
  O  O44  1  0.06370833  0.16102603  0.25000000  1
  O  O45  1  0.10678515  0.48816566  0.25000000  1
  O  O46  1  0.08852684  0.82698737  0.25000000  1
  O  O47  1  0.56370833  0.00563997  0.75000000  1
  O  O48  1  0.58852684  0.33967963  0.75000000  1
  O  O49  1  0.60678515  0.67850134  0.75000000  1
  O  O50  1  0.41147316  0.32698737  0.25000000  1
  O  O51  1  0.43629167  0.66102603  0.25000000  1
  O  O52  1  0.39321485  0.98816566  0.25000000  1
  O  O53  1  0.89321485  0.17850134  0.75000000  1
  O  O54  1  0.93629167  0.50563997  0.75000000  1
  O  O55  1  0.91147316  0.83967963  0.75000000  1
