# generated using pymatgen
data_RbPbBr3
_symmetry_space_group_name_H-M   'P 1'
_cell_length_a   5.98042420
_cell_length_b   5.98507327
_cell_length_c   5.98509528
_cell_angle_alpha   90.06772244
_cell_angle_beta   90.12103204
_cell_angle_gamma   89.99375446
_symmetry_Int_Tables_number   1
_chemical_formula_structural   RbPbBr3
_chemical_formula_sum   'Rb1 Pb1 Br3'
_cell_volume   214.22554457
_cell_formula_units_Z   1
loop_
 _symmetry_equiv_pos_site_id
 _symmetry_equiv_pos_as_xyz
  1  'x, y, z'
loop_
 _atom_site_type_symbol
 _atom_site_label
 _atom_site_symmetry_multiplicity
 _atom_site_fract_x
 _atom_site_fract_y
 _atom_site_fract_z
 _atom_site_occupancy
  Rb  Rb0  1  0.99980532  0.99832444  0.99704423  1
  Pb  Pb1  1  0.48356805  0.49807442  0.49265608  1
  Br  Br2  1  0.48527500  0.99851103  0.49593367  1
  Br  Br3  1  0.98415110  0.50797872  0.51052395  1
  Br  Br4  1  0.48720354  0.49711239  0.99384007  1
