# generated using pymatgen
data_Ta4Mn2Zn3O16
_symmetry_space_group_name_H-M   'P 1'
_cell_length_a   5.20326002
_cell_length_b   5.93104310
_cell_length_c   10.10243869
_cell_angle_alpha   105.04958884
_cell_angle_beta   89.67804466
_cell_angle_gamma   92.61969661
_symmetry_Int_Tables_number   1
_chemical_formula_structural   Ta4Mn2Zn3O16
_chemical_formula_sum   'Ta4 Mn2 Zn3 O16'
_cell_volume   300.75475164
_cell_formula_units_Z   1
loop_
 _symmetry_equiv_pos_site_id
 _symmetry_equiv_pos_as_xyz
  1  'x, y, z'
loop_
 _atom_site_type_symbol
 _atom_site_label
 _atom_site_symmetry_multiplicity
 _atom_site_fract_x
 _atom_site_fract_y
 _atom_site_fract_z
 _atom_site_occupancy
  Ta  Ta0  1  0.74238639  0.27885892  0.22905634  1
  Ta  Ta1  1  0.77556536  0.04307491  0.76211303  1
  Ta  Ta2  1  0.25428583  0.72861047  0.76794015  1
  Ta  Ta3  1  0.23631685  0.95853016  0.23977560  1
  Mn  Mn4  1  0.74773432  0.65056015  0.00005315  1
  Mn  Mn5  1  0.25857878  0.34739589  0.99549589  1
  Zn  Zn6  1  0.76253038  0.44355533  0.56861645  1
  Zn  Zn7  1  0.71823387  0.88476850  0.44559420  1
  Zn  Zn8  1  0.23280607  0.54511418  0.44347895  1
  O  O9  1  0.07521247  0.21201157  0.13305589  1
  O  O10  1  0.44508492  0.03681751  0.86416837  1
  O  O11  1  0.92276185  0.79845597  0.87227549  1
  O  O12  1  0.55931243  0.97362724  0.13490361  1
  O  O13  1  0.58336783  0.44039135  0.10703606  1
  O  O14  1  0.94633496  0.30616845  0.88726321  1
  O  O15  1  0.42235688  0.56167352  0.89357237  1
  O  O16  1  0.05358368  0.70651543  0.11486891  1
  O  O17  1  0.42656814  0.27402494  0.34530012  1
  O  O18  1  0.07978960  0.92235742  0.66354205  1
  O  O19  1  0.36428282  0.79958815  0.36399810  1
  O  O20  1  0.13635494  0.47116696  0.61992592  1
  O  O21  1  0.66510524  0.15537010  0.61215636  1
  O  O22  1  0.85217673  0.55237154  0.38604920  1
  O  O23  1  0.92046728  0.07814234  0.34161515  1
  O  O24  1  0.57740337  0.72299299  0.65256342  1
