# generated using pymatgen
data_CaLa2SnO6
_symmetry_space_group_name_H-M   'P 1'
_cell_length_a   5.89743210
_cell_length_b   5.89743169
_cell_length_c   5.89743237
_cell_angle_alpha   61.15391332
_cell_angle_beta   61.15391444
_cell_angle_gamma   61.15391765
_symmetry_Int_Tables_number   1
_chemical_formula_structural   CaLa2SnO6
_chemical_formula_sum   'Ca1 La2 Sn1 O6'
_cell_volume   148.80112324
_cell_formula_units_Z   1
loop_
 _symmetry_equiv_pos_site_id
 _symmetry_equiv_pos_as_xyz
  1  'x, y, z'
loop_
 _atom_site_type_symbol
 _atom_site_label
 _atom_site_symmetry_multiplicity
 _atom_site_fract_x
 _atom_site_fract_y
 _atom_site_fract_z
 _atom_site_occupancy
  Ca  Ca0  1  0.50000000  0.50000000  0.50000000  1
  La  La1  1  0.76367801  0.76367801  0.76367801  1
  La  La2  1  0.23632199  0.23632199  0.23632199  1
  Sn  Sn3  1  0.00000000  0.00000000  0.00000000  1
  O  O4  1  0.34538289  0.78296028  0.12810022  1
  O  O5  1  0.78296028  0.12810022  0.34538289  1
  O  O6  1  0.12810022  0.34538289  0.78296028  1
  O  O7  1  0.65461711  0.21703972  0.87189978  1
  O  O8  1  0.87189978  0.65461711  0.21703972  1
  O  O9  1  0.21703972  0.87189978  0.65461711  1
