# generated using pymatgen
data_Cu2GeSe4
_symmetry_space_group_name_H-M   'P 1'
_cell_length_a   5.63012651
_cell_length_b   5.63012644
_cell_length_c   6.51369385
_cell_angle_alpha   115.60574357
_cell_angle_beta   115.60574449
_cell_angle_gamma   89.99999632
_symmetry_Int_Tables_number   1
_chemical_formula_structural   Cu2GeSe4
_chemical_formula_sum   'Cu2 Ge1 Se4'
_cell_volume   163.42030110
_cell_formula_units_Z   1
loop_
 _symmetry_equiv_pos_site_id
 _symmetry_equiv_pos_as_xyz
  1  'x, y, z'
loop_
 _atom_site_type_symbol
 _atom_site_label
 _atom_site_symmetry_multiplicity
 _atom_site_fract_x
 _atom_site_fract_y
 _atom_site_fract_z
 _atom_site_occupancy
  Cu  Cu0  1  0.75000000  0.25000000  0.50000000  1
  Cu  Cu1  1  0.25000000  0.75000000  0.50000000  1
  Ge  Ge2  1  0.50000000  0.50000000  0.00000000  1
  Se  Se3  1  0.36556668  0.36556668  0.24634063  1
  Se  Se4  1  0.11922605  0.63443332  0.75365937  1
  Se  Se5  1  0.63443332  0.11922605  0.75365937  1
  Se  Se6  1  0.88077395  0.88077395  0.24634063  1
