# generated using pymatgen
data_CaFeAsO5
_symmetry_space_group_name_H-M   'P 1'
_cell_length_a   7.70923548
_cell_length_b   5.98939859
_cell_length_c   9.04394099
_cell_angle_alpha   89.97365199
_cell_angle_beta   90.00452101
_cell_angle_gamma   90.04759061
_symmetry_Int_Tables_number   1
_chemical_formula_structural   CaFeAsO5
_chemical_formula_sum   'Ca4 Fe4 As4 O20'
_cell_volume   417.59188518
_cell_formula_units_Z   4
loop_
 _symmetry_equiv_pos_site_id
 _symmetry_equiv_pos_as_xyz
  1  'x, y, z'
loop_
 _atom_site_type_symbol
 _atom_site_label
 _atom_site_symmetry_multiplicity
 _atom_site_fract_x
 _atom_site_fract_y
 _atom_site_fract_z
 _atom_site_occupancy
  Ca  Ca0  1  0.89743800  0.77505227  0.07974210  1
  Ca  Ca1  1  0.60253837  0.22511347  0.57976256  1
  Ca  Ca2  1  0.39745162  0.72500465  0.92012023  1
  Ca  Ca3  1  0.10259625  0.27501195  0.42043498  1
  Fe  Fe4  1  0.99194243  0.49603760  0.75491378  1
  Fe  Fe5  1  0.50819157  0.50383902  0.25461452  1
  Fe  Fe6  1  0.49190317  0.00392178  0.24515651  1
  Fe  Fe7  1  0.00806025  0.99603717  0.74523854  1
  As  As8  1  0.63877367  0.26886840  0.93541451  1
  As  As9  1  0.86098371  0.73091425  0.43575103  1
  As  As10  1  0.13913779  0.23168846  0.06433986  1
  As  As11  1  0.36107349  0.76888664  0.56432029  1
  O  O12  1  0.82133480  0.24162333  0.81953062  1
  O  O13  1  0.67820352  0.75818806  0.32025673  1
  O  O14  1  0.32192753  0.25848018  0.17978253  1
  O  O15  1  0.17843354  0.74183826  0.68024381  1
  O  O16  1  0.47605863  0.33657924  0.81633245  1
  O  O17  1  0.02378813  0.66383118  0.31585013  1
  O  O18  1  0.97626823  0.16346293  0.18432022  1
  O  O19  1  0.52383382  0.83644365  0.68378418  1
  O  O20  1  0.61223341  0.01855568  0.02845441  1
  O  O21  1  0.88802941  0.98133133  0.52861350  1
  O  O22  1  0.11178791  0.48126963  0.97157569  1
  O  O23  1  0.38787111  0.51866553  0.47124308  1
  O  O24  1  0.65452451  0.49603428  0.05323481  1
  O  O25  1  0.84606851  0.50360203  0.55299852  1
  O  O26  1  0.15395774  0.00373383  0.94704215  1
  O  O27  1  0.34553747  0.99613870  0.44688661  1
  O  O28  1  0.88123637  0.75493620  0.82984654  1
  O  O29  1  0.61850240  0.24465369  0.32989264  1
  O  O30  1  0.38162510  0.74459692  0.16996449  1
  O  O31  1  0.11868554  0.25566169  0.67033795  1
