# generated using pymatgen
data_Sr6Y2Co3(Cu2O7)3
_symmetry_space_group_name_H-M   'P 1'
_cell_length_a   16.18830139
_cell_length_b   5.44261806
_cell_length_c   12.24022722
_cell_angle_alpha   102.81139860
_cell_angle_beta   102.66257108
_cell_angle_gamma   90.15329915
_symmetry_Int_Tables_number   1
_chemical_formula_structural   Sr6Y2Co3(Cu2O7)3
_chemical_formula_sum   'Sr12 Y4 Co6 Cu12 O42'
_cell_volume   1024.53014909
_cell_formula_units_Z   2
loop_
 _symmetry_equiv_pos_site_id
 _symmetry_equiv_pos_as_xyz
  1  'x, y, z'
loop_
 _atom_site_type_symbol
 _atom_site_label
 _atom_site_symmetry_multiplicity
 _atom_site_fract_x
 _atom_site_fract_y
 _atom_site_fract_z
 _atom_site_occupancy
  Sr  Sr0  1  0.11184944  0.34093837  0.69636347  1
  Sr  Sr1  1  0.44672285  0.35380642  0.71594143  1
  Sr  Sr2  1  0.77614553  0.33870456  0.69872949  1
  Sr  Sr3  1  0.21350001  0.65762960  0.30208192  1
  Sr  Sr4  1  0.54207642  0.64464431  0.28389381  1
  Sr  Sr5  1  0.87657229  0.66062051  0.30297870  1
  Sr  Sr6  1  0.27637224  0.85859933  0.69851671  1
  Sr  Sr7  1  0.61204090  0.85434343  0.69626364  1
  Sr  Sr8  1  0.94702212  0.86098779  0.71610152  1
  Sr  Sr9  1  0.04151903  0.13840606  0.28405641  1
  Sr  Sr10  1  0.37680132  0.14160062  0.30306418  1
  Sr  Sr11  1  0.71326937  0.14287866  0.30180095  1
  Y  Y12  1  0.33108261  0.00042279  0.00028384  1
  Y  Y13  1  0.65964144  0.99994300  0.99988867  1
  Y  Y14  1  0.15955770  0.49989241  0.99963988  1
  Y  Y15  1  0.83110335  0.50024692  0.00017822  1
  Co  Co16  1  0.08862518  0.68401323  0.49939464  1
  Co  Co17  1  0.42270889  0.68530201  0.49952604  1
  Co  Co18  1  0.75659518  0.68640011  0.50116508  1
  Co  Co19  1  0.25754466  0.31453986  0.50121432  1
  Co  Co20  1  0.58982464  0.31489466  0.49950029  1
  Co  Co21  1  0.92380910  0.31388008  0.49920572  1
  Cu  Cu22  1  0.31024222  0.43495031  0.86771463  1
  Cu  Cu23  1  0.63553973  0.43459492  0.86775477  1
  Cu  Cu24  1  0.97289431  0.43337501  0.86700159  1
  Cu  Cu25  1  0.01755209  0.56699329  0.13368342  1
  Cu  Cu26  1  0.35436247  0.56535833  0.13271432  1
  Cu  Cu27  1  0.67979573  0.56617282  0.13300248  1
  Cu  Cu28  1  0.13539490  0.93291864  0.86701402  1
  Cu  Cu29  1  0.47296170  0.93336654  0.86672474  1
  Cu  Cu30  1  0.81006359  0.93226556  0.86702574  1
  Cu  Cu31  1  0.17989106  0.06698945  0.13240404  1
  Cu  Cu32  1  0.51712916  0.06662019  0.13286295  1
  Cu  Cu33  1  0.85436830  0.06731830  0.13221315  1
  O  O34  1  0.04038124  0.35750765  0.49445313  1
  O  O35  1  0.37606796  0.36424442  0.50623274  1
  O  O36  1  0.70743275  0.35971488  0.49930663  1
  O  O37  1  0.20738770  0.63008682  0.49933386  1
  O  O38  1  0.54053897  0.62754541  0.49452281  1
  O  O39  1  0.87630116  0.63430332  0.50610530  1
  O  O40  1  0.06146384  0.20188149  0.86162392  1
  O  O41  1  0.38436476  0.16619622  0.86321685  1
  O  O42  1  0.72538676  0.19221286  0.87837185  1
  O  O43  1  0.10767944  0.79851187  0.13813667  1
  O  O44  1  0.43021100  0.83530822  0.13789709  1
  O  O45  1  0.76639540  0.80946034  0.12179680  1
  O  O46  1  0.22558201  0.18685504  0.87792732  1
  O  O47  1  0.56172609  0.15987123  0.86146604  1
  O  O48  1  0.88445210  0.19738454  0.86289069  1
  O  O49  1  0.26602442  0.81371612  0.12157139  1
  O  O50  1  0.60717101  0.84025924  0.13778658  1
  O  O51  1  0.92982314  0.80349834  0.13770027  1
  O  O52  1  0.22384259  0.68617652  0.87542993  1
  O  O53  1  0.56017601  0.69775254  0.85743229  1
  O  O54  1  0.88164842  0.65643581  0.85760003  1
  O  O55  1  0.26513554  0.31322027  0.12407171  1
  O  O56  1  0.60718121  0.30169188  0.14205370  1
  O  O57  1  0.92890147  0.34307137  0.14258898  1
  O  O58  1  0.05998359  0.65952542  0.85772042  1
  O  O59  1  0.38164539  0.70096471  0.85794682  1
  O  O60  1  0.72364904  0.68877710  0.87570733  1
  O  O61  1  0.10754853  0.34002253  0.14215880  1
  O  O62  1  0.42916182  0.29917067  0.14283553  1
  O  O63  1  0.76552764  0.31026497  0.12448902  1
  O  O64  1  0.10041316  0.84259051  0.64696982  1
  O  O65  1  0.43185099  0.85497519  0.64503691  1
  O  O66  1  0.76222757  0.85100813  0.64799168  1
  O  O67  1  0.22065168  0.15708652  0.35383181  1
  O  O68  1  0.55041844  0.15303856  0.35513244  1
  O  O69  1  0.88136124  0.15896464  0.35388735  1
  O  O70  1  0.26352818  0.30222206  0.64703148  1
  O  O71  1  0.60118882  0.30784307  0.64560935  1
  O  O72  1  0.93317794  0.29545673  0.64442515  1
  O  O73  1  0.04897698  0.70574313  0.35387989  1
  O  O74  1  0.38011616  0.69975317  0.35303623  1
  O  O75  1  0.71901930  0.70218839  0.35284958  1
