# generated using pymatgen
data_VZnAsO5
_symmetry_space_group_name_H-M   'P 1'
_cell_length_a   8.20291745
_cell_length_b   6.22604441
_cell_length_c   8.36207820
_cell_angle_alpha   89.99996058
_cell_angle_beta   89.98264376
_cell_angle_gamma   89.73478393
_symmetry_Int_Tables_number   1
_chemical_formula_structural   VZnAsO5
_chemical_formula_sum   'V4 Zn4 As4 O20'
_cell_volume   427.06119128
_cell_formula_units_Z   4
loop_
 _symmetry_equiv_pos_site_id
 _symmetry_equiv_pos_as_xyz
  1  'x, y, z'
loop_
 _atom_site_type_symbol
 _atom_site_label
 _atom_site_symmetry_multiplicity
 _atom_site_fract_x
 _atom_site_fract_y
 _atom_site_fract_z
 _atom_site_occupancy
  V  V0  1  0.99520029  0.48986596  0.74500238  1
  V  V1  1  0.50477625  0.51016250  0.24498166  1
  V  V2  1  0.49514156  0.01031829  0.25607113  1
  V  V3  1  0.00485328  0.98970692  0.75608109  1
  Zn  Zn4  1  0.89391789  0.66043150  0.06752837  1
  Zn  Zn5  1  0.60614799  0.33953410  0.56749730  1
  Zn  Zn6  1  0.40157093  0.83955211  0.93127039  1
  Zn  Zn7  1  0.09849292  0.16047631  0.43126930  1
  As  As8  1  0.66729518  0.25474016  0.93436936  1
  As  As9  1  0.83294725  0.74517451  0.43403841  1
  As  As10  1  0.16693022  0.24347544  0.06636561  1
  As  As11  1  0.33282180  0.75643912  0.56609803  1
  O  O12  1  0.86149697  0.23812863  0.85427265  1
  O  O13  1  0.63847017  0.76189449  0.35419986  1
  O  O14  1  0.36146927  0.26202966  0.14699338  1
  O  O15  1  0.13857553  0.73801328  0.64702548  1
  O  O16  1  0.53294218  0.29494707  0.78080853  1
  O  O17  1  0.96694076  0.70499143  0.28106919  1
  O  O18  1  0.03050520  0.20478137  0.21716932  1
  O  O19  1  0.46965015  0.79517647  0.71735933  1
  O  O20  1  0.62103527  0.02014589  0.03357587  1
  O  O21  1  0.87896236  0.97994644  0.53360682  1
  O  O22  1  0.11866781  0.47783106  0.96669628  1
  O  O23  1  0.38130859  0.52223186  0.46672940  1
  O  O24  1  0.67436826  0.47655203  0.06227752  1
  O  O25  1  0.82556087  0.52344946  0.56235548  1
  O  O26  1  0.17509418  0.02171063  0.93860786  1
  O  O27  1  0.32492218  0.97822401  0.43865913  1
  O  O28  1  0.89568173  0.74516053  0.85036148  1
  O  O29  1  0.60430383  0.25487421  0.35035407  1
  O  O30  1  0.39792233  0.75646277  0.14863681  1
  O  O31  1  0.10202479  0.24357377  0.64866853  1
