# generated using pymatgen
data_Ca3Mn2(WO6)2
_symmetry_space_group_name_H-M   'P 1'
_cell_length_a   5.51847624
_cell_length_b   5.61483257
_cell_length_c   7.62882498
_cell_angle_alpha   90.62201597
_cell_angle_beta   89.67410686
_cell_angle_gamma   93.97093836
_symmetry_Int_Tables_number   1
_chemical_formula_structural   Ca3Mn2(WO6)2
_chemical_formula_sum   'Ca3 Mn2 W2 O12'
_cell_volume   235.79732110
_cell_formula_units_Z   1
loop_
 _symmetry_equiv_pos_site_id
 _symmetry_equiv_pos_as_xyz
  1  'x, y, z'
loop_
 _atom_site_type_symbol
 _atom_site_label
 _atom_site_symmetry_multiplicity
 _atom_site_fract_x
 _atom_site_fract_y
 _atom_site_fract_z
 _atom_site_occupancy
  Ca  Ca0  1  0.99892614  0.04571278  0.25332972  1
  Ca  Ca1  1  0.00101589  0.95653464  0.75119551  1
  Ca  Ca2  1  0.48265949  0.45104745  0.75012171  1
  Mn  Mn3  1  0.50049368  0.99018658  0.99931167  1
  Mn  Mn4  1  0.99499864  0.49918102  0.50218196  1
  W  W5  1  0.50068545  0.98945005  0.49155457  1
  W  W6  1  0.99535500  0.50227968  0.00993046  1
  O  O7  1  0.71789607  0.27474765  0.46422309  1
  O  O8  1  0.82680051  0.79010031  0.03035787  1
  O  O9  1  0.28498760  0.71197194  0.55200819  1
  O  O10  1  0.19413526  0.23557356  0.95458313  1
  O  O11  1  0.22898141  0.18858362  0.54065593  1
  O  O12  1  0.28511109  0.71414539  0.94430397  1
  O  O13  1  0.78424487  0.81314494  0.47025248  1
  O  O14  1  0.71873048  0.27987252  0.03719820  1
  O  O15  1  0.06585045  0.49061816  0.25201695  1
  O  O16  1  0.41861792  0.97451792  0.24898844  1
  O  O17  1  0.57619546  0.02138705  0.75070143  1
  O  O18  1  0.91018860  0.51529273  0.75038770  1
