# generated using pymatgen
data_Ca3Cr2O7
_symmetry_space_group_name_H-M   'P 1'
_cell_length_a   5.40236397
_cell_length_b   5.37287334
_cell_length_c   10.08071468
_cell_angle_alpha   105.45566149
_cell_angle_beta   90.00000000
_cell_angle_gamma   90.00000000
_symmetry_Int_Tables_number   1
_chemical_formula_structural   Ca3Cr2O7
_chemical_formula_sum   'Ca6 Cr4 O14'
_cell_volume   282.02353085
_cell_formula_units_Z   2
loop_
 _symmetry_equiv_pos_site_id
 _symmetry_equiv_pos_as_xyz
  1  'x, y, z'
loop_
 _atom_site_type_symbol
 _atom_site_label
 _atom_site_symmetry_multiplicity
 _atom_site_fract_x
 _atom_site_fract_y
 _atom_site_fract_z
 _atom_site_occupancy
  Ca  Ca0  1  0.70975723  0.75550168  1.00000000  1
  Ca  Ca1  1  0.20975723  0.24449832  0.00000000  1
  Ca  Ca2  1  0.78610027  0.56996293  0.62643212  1
  Ca  Ca3  1  0.28610027  0.43003707  0.37356788  1
  Ca  Ca4  1  0.78610027  0.94352981  0.37356788  1
  Ca  Ca5  1  0.28610027  0.05647019  0.62643212  1
  Cr  Cr6  1  0.75062106  0.34953518  0.19688849  1
  Cr  Cr7  1  0.25062106  0.65046482  0.80311151  1
  Cr  Cr8  1  0.25062106  0.84735331  0.19688849  1
  Cr  Cr9  1  0.75062106  0.15264669  0.80311151  1
  O  O10  1  0.73473713  0.00006149  0.60753376  1
  O  O11  1  0.23473713  -0.00006149  0.39246624  1
  O  O12  1  0.23473713  0.60747127  0.60753376  1
  O  O13  1  0.73473713  0.39252873  0.39246624  1
  O  O14  1  0.03717307  0.34249498  0.77806965  1
  O  O15  1  0.53717307  0.65750502  0.22193035  1
  O  O16  1  0.53717307  0.43557467  0.77806965  1
  O  O17  1  0.03717307  0.56442533  0.22193035  1
  O  O18  1  0.96332708  0.86871768  0.83214490  1
  O  O19  1  0.46332708  0.13128232  0.16785510  1
  O  O20  1  0.76632754  0.31967566  0.00000000  1
  O  O21  1  0.26632754  0.68032434  1.00000000  1
  O  O22  1  0.96332708  0.03657278  0.16785510  1
  O  O23  1  0.46332708  0.96342722  0.83214490  1
