# generated using pymatgen
data_ReSbO6
_symmetry_space_group_name_H-M   'P 1'
_cell_length_a   5.21642875
_cell_length_b   5.36350922
_cell_length_c   7.38234983
_cell_angle_alpha   90.00000000
_cell_angle_beta   90.00000000
_cell_angle_gamma   89.98313826
_symmetry_Int_Tables_number   1
_chemical_formula_structural   ReSbO6
_chemical_formula_sum   'Re2 Sb2 O12'
_cell_volume   206.54605969
_cell_formula_units_Z   2
loop_
 _symmetry_equiv_pos_site_id
 _symmetry_equiv_pos_as_xyz
  1  'x, y, z'
loop_
 _atom_site_type_symbol
 _atom_site_label
 _atom_site_symmetry_multiplicity
 _atom_site_fract_x
 _atom_site_fract_y
 _atom_site_fract_z
 _atom_site_occupancy
  Re  Re0  1  0.50000000  0.00000000  0.50000000  1
  Re  Re1  1  0.50000000  0.00000000  0.00000000  1
  Sb  Sb2  1  0.00000000  0.50000000  0.50000000  1
  Sb  Sb3  1  0.00000000  0.50000000  0.00000000  1
  O  O4  1  0.31071757  0.71242686  0.45020581  1
  O  O5  1  0.20725748  0.19094201  0.04955167  1
  O  O6  1  0.68928243  0.28757314  0.95020581  1
  O  O7  1  0.79274252  0.80905799  0.54955167  1
  O  O8  1  0.20725748  0.19094201  0.45044833  1
  O  O9  1  0.79274252  0.80905799  0.95044833  1
  O  O10  1  0.88000766  0.52297663  0.25000000  1
  O  O11  1  0.31071757  0.71242686  0.04979419  1
  O  O12  1  0.41473641  0.98371219  0.75000000  1
  O  O13  1  0.68928243  0.28757314  0.54979419  1
  O  O14  1  0.11999234  0.47702337  0.75000000  1
  O  O15  1  0.58526359  0.01628781  0.25000000  1
