# generated using pymatgen
data_La2MgMoO6
_symmetry_space_group_name_H-M   'P 1'
_cell_length_a   5.63939918
_cell_length_b   5.63939881
_cell_length_c   5.63939941
_cell_angle_alpha   61.25181308
_cell_angle_beta   61.25181422
_cell_angle_gamma   61.25181716
_symmetry_Int_Tables_number   1
_chemical_formula_structural   La2MgMoO6
_chemical_formula_sum   'La2 Mg1 Mo1 O6'
_cell_volume   130.38852124
_cell_formula_units_Z   1
loop_
 _symmetry_equiv_pos_site_id
 _symmetry_equiv_pos_as_xyz
  1  'x, y, z'
loop_
 _atom_site_type_symbol
 _atom_site_label
 _atom_site_symmetry_multiplicity
 _atom_site_fract_x
 _atom_site_fract_y
 _atom_site_fract_z
 _atom_site_occupancy
  La  La0  1  0.75021508  0.75021508  0.75021508  1
  La  La1  1  0.24978492  0.24978492  0.24978492  1
  Mg  Mg2  1  0.50000000  0.50000000  0.50000000  1
  Mo  Mo3  1  0.00000000  0.00000000  0.00000000  1
  O  O4  1  0.33399668  0.75095964  0.16404195  1
  O  O5  1  0.75095964  0.16404195  0.33399668  1
  O  O6  1  0.16404195  0.33399668  0.75095964  1
  O  O7  1  0.66600332  0.24904036  0.83595805  1
  O  O8  1  0.83595805  0.66600332  0.24904036  1
  O  O9  1  0.24904036  0.83595805  0.66600332  1
