# generated using pymatgen
data_Ca2AgSbO6
_symmetry_space_group_name_H-M   'P 1'
_cell_length_a   5.82081810
_cell_length_b   6.08640133
_cell_length_c   7.72052325
_cell_angle_alpha   90.00000000
_cell_angle_beta   90.00000000
_cell_angle_gamma   101.81520379
_symmetry_Int_Tables_number   1
_chemical_formula_structural   Ca2AgSbO6
_chemical_formula_sum   'Ca4 Ag2 Sb2 O12'
_cell_volume   267.72634990
_cell_formula_units_Z   2
loop_
 _symmetry_equiv_pos_site_id
 _symmetry_equiv_pos_as_xyz
  1  'x, y, z'
loop_
 _atom_site_type_symbol
 _atom_site_label
 _atom_site_symmetry_multiplicity
 _atom_site_fract_x
 _atom_site_fract_y
 _atom_site_fract_z
 _atom_site_occupancy
  Ca  Ca0  1  0.52565562  0.57400176  0.75000000  1
  Ca  Ca1  1  0.47434438  0.42599824  0.25000000  1
  Ca  Ca2  1  0.03844321  0.04138224  0.75000000  1
  Ca  Ca3  1  0.96155679  0.95861776  0.25000000  1
  Ag  Ag4  1  0.50000000  0.00000000  0.50000000  1
  Ag  Ag5  1  0.50000000  0.00000000  0.00000000  1
  Sb  Sb6  1  0.00000000  0.50000000  0.50000000  1
  Sb  Sb7  1  0.00000000  0.50000000  0.00000000  1
  O  O8  1  0.33697313  0.66850806  0.45695170  1
  O  O9  1  0.12895495  0.23164269  0.05407719  1
  O  O10  1  0.66302687  0.33149194  0.95695170  1
  O  O11  1  0.87104505  0.76835731  0.55407719  1
  O  O12  1  0.12895495  0.23164269  0.44592281  1
  O  O13  1  0.87104505  0.76835731  0.94592281  1
  O  O14  1  0.90323018  0.55791211  0.25000000  1
  O  O15  1  0.33697313  0.66850806  0.04304830  1
  O  O16  1  0.39740231  0.92880669  0.75000000  1
  O  O17  1  0.66302687  0.33149194  0.54304830  1
  O  O18  1  0.09676982  0.44208789  0.75000000  1
  O  O19  1  0.60259769  0.07119331  0.25000000  1
