# generated using pymatgen
data_Sn5(S2Cl)2
_symmetry_space_group_name_H-M   'P 1'
_cell_length_a   5.88605021
_cell_length_b   5.97880959
_cell_length_c   18.03610363
_cell_angle_alpha   90.00000000
_cell_angle_beta   90.00000000
_cell_angle_gamma   90.00000000
_symmetry_Int_Tables_number   1
_chemical_formula_structural   Sn5(S2Cl)2
_chemical_formula_sum   'Sn10 S8 Cl4'
_cell_volume   634.71886552
_cell_formula_units_Z   2
loop_
 _symmetry_equiv_pos_site_id
 _symmetry_equiv_pos_as_xyz
  1  'x, y, z'
loop_
 _atom_site_type_symbol
 _atom_site_label
 _atom_site_symmetry_multiplicity
 _atom_site_fract_x
 _atom_site_fract_y
 _atom_site_fract_z
 _atom_site_occupancy
  Sn  Sn0  1  0.25722945  0.33258909  0.57471044  1
  Sn  Sn1  1  0.74277055  0.33258909  0.42528956  1
  Sn  Sn2  1  0.74277055  0.33258909  0.07471044  1
  Sn  Sn3  1  0.25722945  0.33258909  0.92528956  1
  Sn  Sn4  1  0.24880858  0.86838240  0.42439223  1
  Sn  Sn5  1  0.75119142  0.86838240  0.57560777  1
  Sn  Sn6  1  0.75119142  0.86838240  0.92439223  1
  Sn  Sn7  1  0.24880858  0.86838240  0.07560777  1
  Sn  Sn8  1  0.74365671  0.36376063  0.75000000  1
  Sn  Sn9  1  0.25634329  0.36376063  0.25000000  1
  S  S10  1  0.24988717  0.88727433  0.57093087  1
  S  S11  1  0.75011283  0.88727433  0.42906913  1
  S  S12  1  0.75011283  0.88727433  0.07093087  1
  S  S13  1  0.24988717  0.88727433  0.92906913  1
  S  S14  1  0.26031112  0.34314071  0.41968477  1
  S  S15  1  0.73968888  0.34314071  0.58031523  1
  S  S16  1  0.73968888  0.34314071  0.91968477  1
  S  S17  1  0.26031112  0.34314071  0.08031523  1
  Cl  Cl18  1  0.76323679  0.94070745  0.75000000  1
  Cl  Cl19  1  0.23676321  0.94070745  0.25000000  1
  Cl  Cl20  1  0.29836972  0.35934887  0.75000000  1
  Cl  Cl21  1  0.70163028  0.35934887  0.25000000  1
