# generated using pymatgen
data_LiFe3P3O13
_symmetry_space_group_name_H-M   'P 1'
_cell_length_a   6.35790033
_cell_length_b   7.56995978
_cell_length_c   10.50118645
_cell_angle_alpha   99.44852124
_cell_angle_beta   90.00000000
_cell_angle_gamma   90.00000000
_symmetry_Int_Tables_number   1
_chemical_formula_structural   LiFe3P3O13
_chemical_formula_sum   'Li2 Fe6 P6 O26'
_cell_volume   498.55544911
_cell_formula_units_Z   2
loop_
 _symmetry_equiv_pos_site_id
 _symmetry_equiv_pos_as_xyz
  1  'x, y, z'
loop_
 _atom_site_type_symbol
 _atom_site_label
 _atom_site_symmetry_multiplicity
 _atom_site_fract_x
 _atom_site_fract_y
 _atom_site_fract_z
 _atom_site_occupancy
  Li  Li0  1  0.75000000  0.62091810  0.13546814  1
  Li  Li1  1  0.25000000  0.37908190  0.86453186  1
  Fe  Fe2  1  0.25000000  0.36163428  0.19650100  1
  Fe  Fe3  1  0.75000000  0.63836572  0.80349900  1
  Fe  Fe4  1  0.25000000  0.77938461  0.44479012  1
  Fe  Fe5  1  0.50000000  0.00000000  0.00000000  1
  Fe  Fe6  1  0.75000000  0.22061539  0.55520988  1
  Fe  Fe7  1  0.00000000  0.00000000  0.00000000  1
  P  P8  1  0.25000000  0.21870638  0.48283284  1
  P  P9  1  0.75000000  0.78129362  0.51716716  1
  P  P10  1  0.25000000  0.73183015  0.76675720  1
  P  P11  1  0.75000000  0.26816985  0.23324280  1
  P  P12  1  0.75000000  0.30586337  0.87975790  1
  P  P13  1  0.25000000  0.69413663  0.12024210  1
  O  O14  1  0.75000000  0.34905433  0.73933743  1
  O  O15  1  0.55473636  0.74070833  0.43068551  1
  O  O16  1  0.25000000  0.78218073  0.63181805  1
  O  O17  1  0.54586374  0.20482888  0.90363232  1
  O  O18  1  0.75000000  0.65624393  0.61883087  1
  O  O19  1  0.75000000  0.87527113  0.91029667  1
  O  O20  1  0.25000000  0.34375607  0.38116913  1
  O  O21  1  0.04586374  0.79517112  0.09636768  1
  O  O22  1  0.25000000  0.02090026  0.41499032  1
  O  O23  1  0.75000000  0.97909974  0.58500968  1
  O  O24  1  0.06002058  0.61655454  0.79329912  1
  O  O25  1  0.25000000  0.12472887  0.08970333  1
  O  O26  1  0.56002058  0.38344546  0.20670088  1
  O  O27  1  0.75000000  0.49879214  0.95772139  1
  O  O28  1  0.75000000  0.21781927  0.36818195  1
  O  O29  1  0.45413626  0.79517112  0.09636768  1
  O  O30  1  0.94526364  0.74070833  0.43068551  1
  O  O31  1  0.44526364  0.25929167  0.56931449  1
  O  O32  1  0.43997942  0.61655454  0.79329912  1
  O  O33  1  0.25000000  0.65094567  0.26066257  1
  O  O34  1  0.75000000  0.09177601  0.12876051  1
  O  O35  1  0.25000000  0.90822399  0.87123949  1
  O  O36  1  0.93997942  0.38344546  0.20670088  1
  O  O37  1  0.95413626  0.20482888  0.90363232  1
  O  O38  1  0.05473636  0.25929167  0.56931449  1
  O  O39  1  0.25000000  0.50120786  0.04227861  1
