# generated using pymatgen
data_CeSe2
_symmetry_space_group_name_H-M   'P 1'
_cell_length_a   4.24770191
_cell_length_b   7.72026511
_cell_length_c   7.72061137
_cell_angle_alpha   119.99851934
_cell_angle_beta   90.00000000
_cell_angle_gamma   90.00000000
_symmetry_Int_Tables_number   1
_chemical_formula_structural   CeSe2
_chemical_formula_sum   'Ce3 Se6'
_cell_volume   219.26789601
_cell_formula_units_Z   3
loop_
 _symmetry_equiv_pos_site_id
 _symmetry_equiv_pos_as_xyz
  1  'x, y, z'
loop_
 _atom_site_type_symbol
 _atom_site_label
 _atom_site_symmetry_multiplicity
 _atom_site_fract_x
 _atom_site_fract_y
 _atom_site_fract_z
 _atom_site_occupancy
  Ce  Ce0  1  0.50000000  0.33332330  0.66667897  1
  Ce  Ce1  1  0.50000000  0.66664433  0.33332103  1
  Ce  Ce2  1  0.00000000  0.99999380  0.00000000  1
  Se  Se3  1  0.50000000  0.25910402  0.00000000  1
  Se  Se4  1  0.50000000  0.74083729  0.74084323  1
  Se  Se5  1  0.50000000  0.99999406  0.25915677  1
  Se  Se6  1  0.00000000  0.59549871  1.00000000  1
  Se  Se7  1  0.00000000  0.40450091  0.40449733  1
  Se  Se8  1  0.00000000  0.00000358  0.59550267  1
