# generated using pymatgen
data_SmC6
_symmetry_space_group_name_H-M   'P 1'
_cell_length_a   4.33039023
_cell_length_b   4.33039023
_cell_length_c   4.67349406
_cell_angle_alpha   90.00000000
_cell_angle_beta   90.00000000
_cell_angle_gamma   119.99999339
_symmetry_Int_Tables_number   1
_chemical_formula_structural   SmC6
_chemical_formula_sum   'Sm1 C6'
_cell_volume   75.89731698
_cell_formula_units_Z   1
loop_
 _symmetry_equiv_pos_site_id
 _symmetry_equiv_pos_as_xyz
  1  'x, y, z'
loop_
 _atom_site_type_symbol
 _atom_site_label
 _atom_site_symmetry_multiplicity
 _atom_site_fract_x
 _atom_site_fract_y
 _atom_site_fract_z
 _atom_site_occupancy
  Sm  Sm0  1  0.00000000  0.00000000  0.00000000  1
  C  C1  1  0.66698823  0.66698823  0.50000000  1
  C  C2  1  0.33301177  0.33301177  0.50000000  1
  C  C3  1  0.00000000  0.33301177  0.50000000  1
  C  C4  1  1.00000000  0.66698823  0.50000000  1
  C  C5  1  0.33301177  0.00000000  0.50000000  1
  C  C6  1  0.66698823  1.00000000  0.50000000  1
