# generated using pymatgen
data_Ti(VTe2)2
_symmetry_space_group_name_H-M   'P 1'
_cell_length_a   4.01477222
_cell_length_b   7.02980091
_cell_length_c   7.25455326
_cell_angle_alpha   119.19595766
_cell_angle_beta   106.06376971
_cell_angle_gamma   90.00000000
_symmetry_Int_Tables_number   1
_chemical_formula_structural   Ti(VTe2)2
_chemical_formula_sum   'Ti1 V2 Te4'
_cell_volume   169.51728231
_cell_formula_units_Z   1
loop_
 _symmetry_equiv_pos_site_id
 _symmetry_equiv_pos_as_xyz
  1  'x, y, z'
loop_
 _atom_site_type_symbol
 _atom_site_label
 _atom_site_symmetry_multiplicity
 _atom_site_fract_x
 _atom_site_fract_y
 _atom_site_fract_z
 _atom_site_occupancy
  Ti  Ti0  1  0.00000000  0.00000000  0.00000000  1
  V  V1  1  0.24399671  0.27338179  0.48799342  1
  V  V2  1  0.75600329  0.72661821  0.51200658  1
  Te  Te3  1  0.11582538  0.46041574  0.23165076  1
  Te  Te4  1  0.88417462  0.53958426  0.76834924  1
  Te  Te5  1  0.36614014  0.03801088  0.73228027  1
  Te  Te6  1  0.63385986  0.96198912  0.26771973  1
