# generated using pymatgen
data_Mg14ZrCd
_symmetry_space_group_name_H-M   'P 1'
_cell_length_a   6.42925009
_cell_length_b   6.38259615
_cell_length_c   10.17265459
_cell_angle_alpha   90.00000000
_cell_angle_beta   90.00000000
_cell_angle_gamma   119.76025084
_symmetry_Int_Tables_number   1
_chemical_formula_structural   Mg14ZrCd
_chemical_formula_sum   'Mg14 Zr1 Cd1'
_cell_volume   362.38211390
_cell_formula_units_Z   1
loop_
 _symmetry_equiv_pos_site_id
 _symmetry_equiv_pos_as_xyz
  1  'x, y, z'
loop_
 _atom_site_type_symbol
 _atom_site_label
 _atom_site_symmetry_multiplicity
 _atom_site_fract_x
 _atom_site_fract_y
 _atom_site_fract_z
 _atom_site_occupancy
  Mg  Mg0  1  0.16663626  0.33331763  0.62500000  1
  Mg  Mg1  1  0.16635630  0.83317765  0.62500000  1
  Mg  Mg2  1  0.66329882  0.32771473  0.12500000  1
  Mg  Mg3  1  0.66663757  0.33365247  0.62500000  1
  Mg  Mg4  1  0.66329882  0.83558309  0.12500000  1
  Mg  Mg5  1  0.66663757  0.83298410  0.62500000  1
  Mg  Mg6  1  0.33167544  0.16886928  0.37348630  1
  Mg  Mg7  1  0.33167544  0.16886928  0.87651370  1
  Mg  Mg8  1  0.33167544  0.66280716  0.37348630  1
  Mg  Mg9  1  0.33167544  0.66280716  0.87651370  1
  Mg  Mg10  1  0.83795181  0.16897640  0.37514660  1
  Mg  Mg11  1  0.83795181  0.16897640  0.87485340  1
  Mg  Mg12  1  0.83426374  0.66713237  0.37190211  1
  Mg  Mg13  1  0.83426374  0.66713237  0.87809789  1
  Zr  Zr14  1  0.16341594  0.33170747  0.12500000  1
  Cd  Cd15  1  0.17258585  0.83629243  0.12500000  1
