# generated using pymatgen
data_TmU2S3O2
_symmetry_space_group_name_H-M   'P 1'
_cell_length_a   3.79120925
_cell_length_b   3.79120925
_cell_length_c   10.85137069
_cell_angle_alpha   100.06050417
_cell_angle_beta   100.06050417
_cell_angle_gamma   90.00000000
_symmetry_Int_Tables_number   1
_chemical_formula_structural   TmU2S3O2
_chemical_formula_sum   'Tm1 U2 S3 O2'
_cell_volume   151.13517319
_cell_formula_units_Z   1
loop_
 _symmetry_equiv_pos_site_id
 _symmetry_equiv_pos_as_xyz
  1  'x, y, z'
loop_
 _atom_site_type_symbol
 _atom_site_label
 _atom_site_symmetry_multiplicity
 _atom_site_fract_x
 _atom_site_fract_y
 _atom_site_fract_z
 _atom_site_occupancy
  Tm  Tm0  1  -0.00000000  -0.00000000  -0.00000000  1
  U  U1  1  0.31407485  0.31407485  0.62814969  1
  U  U2  1  0.68592515  0.68592515  0.37185031  1
  S  S3  1  0.12754580  0.12754580  0.25509160  1
  S  S4  1  0.87245420  0.87245420  0.74490840  1
  S  S5  1  0.50000000  0.50000000  0.00000000  1
  O  O6  1  0.25000000  0.75000000  0.50000000  1
  O  O7  1  0.75000000  0.25000000  0.50000000  1
