# generated using pymatgen
data_YMg6Zr
_symmetry_space_group_name_H-M   'P 1'
_cell_length_a   6.37211352
_cell_length_b   8.47468811
_cell_length_c   4.70732729
_cell_angle_alpha   90.00000000
_cell_angle_beta   90.00000000
_cell_angle_gamma   131.68099089
_symmetry_Int_Tables_number   1
_chemical_formula_structural   YMg6Zr
_chemical_formula_sum   'Y1 Mg6 Zr1'
_cell_volume   189.85417492
_cell_formula_units_Z   1
loop_
 _symmetry_equiv_pos_site_id
 _symmetry_equiv_pos_as_xyz
  1  'x, y, z'
loop_
 _atom_site_type_symbol
 _atom_site_label
 _atom_site_symmetry_multiplicity
 _atom_site_fract_x
 _atom_site_fract_y
 _atom_site_fract_z
 _atom_site_occupancy
  Y  Y0  1  0.24728375  0.37364087  0.25000000  1
  Mg  Mg1  1  0.74940329  0.37582122  0.25000000  1
  Mg  Mg2  1  0.74940329  0.87358107  0.25000000  1
  Mg  Mg3  1  0.25115872  0.11632039  0.75000000  1
  Mg  Mg4  1  0.25115872  0.63483933  0.75000000  1
  Mg  Mg5  1  0.73340175  0.11670138  0.75000000  1
  Mg  Mg6  1  0.76681063  0.63340582  0.75000000  1
  Zr  Zr7  1  0.25137885  0.87568892  0.25000000  1
