# generated using pymatgen
data_Te2Mo3W(Se2S)2
_symmetry_space_group_name_H-M   'P 1'
_cell_length_a   3.34278414
_cell_length_b   3.34276818
_cell_length_c   38.01258666
_cell_angle_alpha   90.00021639
_cell_angle_beta   90.00000000
_cell_angle_gamma   120.00015799
_symmetry_Int_Tables_number   1
_chemical_formula_structural   Te2Mo3W(Se2S)2
_chemical_formula_sum   'Te2 Mo3 W1 Se4 S2'
_cell_volume   367.85101213
_cell_formula_units_Z   1
loop_
 _symmetry_equiv_pos_site_id
 _symmetry_equiv_pos_as_xyz
  1  'x, y, z'
loop_
 _atom_site_type_symbol
 _atom_site_label
 _atom_site_symmetry_multiplicity
 _atom_site_fract_x
 _atom_site_fract_y
 _atom_site_fract_z
 _atom_site_occupancy
  Te  Te0  1  0.33335194  0.66670489  0.70740402  1
  Te  Te1  1  0.33335172  0.66670444  0.60766676  1
  Mo  Mo2  1  0.33331099  0.66662199  0.09391641  1
  Mo  Mo3  1  0.66668981  0.33337962  0.28184188  1
  Mo  Mo4  1  0.66669046  0.33338092  0.65756453  1
  W  W5  1  0.33330963  0.66661926  0.46967528  1
  Se  Se6  1  0.33335536  0.66671171  0.32561776  1
  Se  Se7  1  0.66664699  0.33329297  0.05008455  1
  Se  Se8  1  0.66664837  0.33329575  0.13774002  1
  Se  Se9  1  0.33335074  0.66670248  0.23795037  1
  S  S10  1  0.66664666  0.33329231  0.42956082  1
  S  S11  1  0.66664733  0.33329366  0.50972560  1
