# generated using pymatgen
data_TeMoWSe3
_symmetry_space_group_name_H-M   'P 1'
_cell_length_a   3.38299731
_cell_length_b   3.38301802
_cell_length_c   38.47392358
_cell_angle_alpha   90.00035318
_cell_angle_beta   90.00000000
_cell_angle_gamma   119.99979738
_symmetry_Int_Tables_number   1
_chemical_formula_structural   TeMoWSe3
_chemical_formula_sum   'Te2 Mo2 W2 Se6'
_cell_volume   381.33262252
_cell_formula_units_Z   2
loop_
 _symmetry_equiv_pos_site_id
 _symmetry_equiv_pos_as_xyz
  1  'x, y, z'
loop_
 _atom_site_type_symbol
 _atom_site_label
 _atom_site_symmetry_multiplicity
 _atom_site_fract_x
 _atom_site_fract_y
 _atom_site_fract_z
 _atom_site_occupancy
  Te  Te0  1  0.33335969  0.66672039  0.70665322  1
  Te  Te1  1  0.33335260  0.66670620  0.60842808  1
  Mo  Mo2  1  0.33330955  0.66661910  0.46964834  1
  Mo  Mo3  1  0.66668866  0.33337733  0.28179984  1
  W  W4  1  0.33331015  0.66662029  0.09391566  1
  W  W5  1  0.66669014  0.33338028  0.65755994  1
  Se  Se6  1  0.33335280  0.66670660  0.32478601  1
  Se  Se7  1  0.66664322  0.33328544  0.05075775  1
  Se  Se8  1  0.66664017  0.33327934  0.42667653  1
  Se  Se9  1  0.66664883  0.33329667  0.13708195  1
  Se  Se10  1  0.66664761  0.33329421  0.51263900  1
  Se  Se11  1  0.33335658  0.66671415  0.23880169  1
