# generated using pymatgen
data_Te2MoW3(Se2S)2
_symmetry_space_group_name_H-M   'P 1'
_cell_length_a   3.33933052
_cell_length_b   3.33930926
_cell_length_c   38.74864754
_cell_angle_alpha   90.00047232
_cell_angle_beta   90.00000000
_cell_angle_gamma   120.00020652
_symmetry_Int_Tables_number   1
_chemical_formula_structural   Te2MoW3(Se2S)2
_chemical_formula_sum   'Te2 Mo1 W3 Se4 S2'
_cell_volume   374.19874415
_cell_formula_units_Z   1
loop_
 _symmetry_equiv_pos_site_id
 _symmetry_equiv_pos_as_xyz
  1  'x, y, z'
loop_
 _atom_site_type_symbol
 _atom_site_label
 _atom_site_symmetry_multiplicity
 _atom_site_fract_x
 _atom_site_fract_y
 _atom_site_fract_z
 _atom_site_occupancy
  Te  Te0  1  0.33336086  0.66672272  0.33081308  1
  Te  Te1  1  0.33335676  0.66671453  0.23283923  1
  Mo  Mo2  1  0.66668581  0.33337163  0.28179125  1
  W  W3  1  0.33331344  0.66662688  0.09391510  1
  W  W4  1  0.33331367  0.66662734  0.46966104  1
  W  W5  1  0.66668611  0.33337222  0.65753786  1
  Se  Se6  1  0.33336066  0.66672232  0.70082857  1
  Se  Se7  1  0.66663451  0.33326802  0.05062038  1
  Se  Se8  1  0.66664789  0.33329478  0.13720250  1
  Se  Se9  1  0.33335199  0.66670498  0.61420472  1
  S  S10  1  0.66664210  0.33328321  0.43034904  1
  S  S11  1  0.66664619  0.33329138  0.50898523  1
