# generated using pymatgen
data_Te2Mo3WSe6
_symmetry_space_group_name_H-M   'P 1'
_cell_length_a   3.38103705
_cell_length_b   3.38086363
_cell_length_c   40.64808257
_cell_angle_alpha   90.01186947
_cell_angle_beta   90.00014404
_cell_angle_gamma   120.00188345
_symmetry_Int_Tables_number   1
_chemical_formula_structural   Te2Mo3WSe6
_chemical_formula_sum   'Te2 Mo3 W1 Se6'
_cell_volume   402.38337005
_cell_formula_units_Z   1
loop_
 _symmetry_equiv_pos_site_id
 _symmetry_equiv_pos_as_xyz
  1  'x, y, z'
loop_
 _atom_site_type_symbol
 _atom_site_label
 _atom_site_symmetry_multiplicity
 _atom_site_fract_x
 _atom_site_fract_y
 _atom_site_fract_z
 _atom_site_occupancy
  Te  Te0  1  0.66674850  0.33350310  0.42310494  1
  Te  Te1  1  0.66693049  0.33386388  0.51617437  1
  Mo  Mo2  1  0.33295053  0.66590525  0.09342130  1
  Mo  Mo3  1  0.66669503  0.33338175  0.28072270  1
  Mo  Mo4  1  0.66682852  0.33365569  0.65910708  1
  W  W5  1  0.33352180  0.66705028  0.46969252  1
  Se  Se6  1  0.33346721  0.66692041  0.32141922  1
  Se  Se7  1  0.33354081  0.66708128  0.69981165  1
  Se  Se8  1  0.66612892  0.33226062  0.05271728  1
  Se  Se9  1  0.66634339  0.33268583  0.13415067  1
  Se  Se10  1  0.33334821  0.66669502  0.24001610  1
  Se  Se11  1  0.33349658  0.66699689  0.61841017  1
