# generated using pymatgen
data_Te2MoW3(Se2S)2
_symmetry_space_group_name_H-M   'P 1'
_cell_length_a   3.33957960
_cell_length_b   3.33955822
_cell_length_c   39.63318605
_cell_angle_alpha   90.00091438
_cell_angle_beta   89.99989389
_cell_angle_gamma   120.00018214
_symmetry_Int_Tables_number   1
_chemical_formula_structural   Te2MoW3(Se2S)2
_chemical_formula_sum   'Te2 Mo1 W3 Se4 S2'
_cell_volume   382.79798187
_cell_formula_units_Z   1
loop_
 _symmetry_equiv_pos_site_id
 _symmetry_equiv_pos_as_xyz
  1  'x, y, z'
loop_
 _atom_site_type_symbol
 _atom_site_label
 _atom_site_symmetry_multiplicity
 _atom_site_fract_x
 _atom_site_fract_y
 _atom_site_fract_z
 _atom_site_occupancy
  Te  Te0  1  0.66665119  0.33330163  0.42175322  1
  Te  Te1  1  0.66668017  0.33336890  0.51750736  1
  Mo  Mo2  1  0.33334065  0.66668362  0.46965280  1
  W  W3  1  0.33331777  0.66663835  0.09394255  1
  W  W4  1  0.66670479  0.33340575  0.28125287  1
  W  W5  1  0.66663838  0.33327353  0.65814357  1
  Se  Se6  1  0.33336820  0.66673459  0.32348595  1
  Se  Se7  1  0.33330372  0.66660595  0.70042031  1
  Se  Se8  1  0.33337682  0.66674928  0.23889898  1
  Se  Se9  1  0.33331660  0.66662986  0.61583335  1
  S  S10  1  0.66664039  0.33328250  0.05548734  1
  S  S11  1  0.66666132  0.33332605  0.13236969  1
