# generated using pymatgen
data_Te2Mo(WSe2)3
_symmetry_space_group_name_H-M   'P 1'
_cell_length_a   3.38152998
_cell_length_b   3.38149972
_cell_length_c   38.52435286
_cell_angle_alpha   89.99989924
_cell_angle_beta   89.99999318
_cell_angle_gamma   120.00027564
_symmetry_Int_Tables_number   1
_chemical_formula_structural   Te2Mo(WSe2)3
_chemical_formula_sum   'Te2 Mo1 W3 Se6'
_cell_volume   381.49370490
_cell_formula_units_Z   1
loop_
 _symmetry_equiv_pos_site_id
 _symmetry_equiv_pos_as_xyz
  1  'x, y, z'
loop_
 _atom_site_type_symbol
 _atom_site_label
 _atom_site_symmetry_multiplicity
 _atom_site_fract_x
 _atom_site_fract_y
 _atom_site_fract_z
 _atom_site_occupancy
  Te  Te0  1  0.66664696  0.33329311  0.42058912  1
  Te  Te1  1  0.66664578  0.33329074  0.51870229  1
  Mo  Mo2  1  0.66668954  0.33337968  0.28180482  1
  W  W3  1  0.33330886  0.66661716  0.09392758  1
  W  W4  1  0.33330908  0.66661771  0.46967351  1
  W  W5  1  0.66668917  0.33337880  0.65755670  1
  Se  Se6  1  0.33335215  0.66670509  0.32476707  1
  Se  Se7  1  0.33335931  0.66671925  0.70065079  1
  Se  Se8  1  0.66664483  0.33328884  0.05080795  1
  Se  Se9  1  0.66664597  0.33329135  0.13704483  1
  Se  Se10  1  0.33335630  0.66671337  0.23880520  1
  Se  Se11  1  0.33335205  0.66670490  0.61441814  1
