# generated using pymatgen
data_Te2Mo(WSe2)3
_symmetry_space_group_name_H-M   'P 1'
_cell_length_a   3.38230312
_cell_length_b   3.38229468
_cell_length_c   38.49632002
_cell_angle_alpha   90.00074856
_cell_angle_beta   90.00000000
_cell_angle_gamma   120.00008254
_symmetry_Int_Tables_number   1
_chemical_formula_structural   Te2Mo(WSe2)3
_chemical_formula_sum   'Te2 Mo1 W3 Se6'
_cell_volume   381.39364753
_cell_formula_units_Z   1
loop_
 _symmetry_equiv_pos_site_id
 _symmetry_equiv_pos_as_xyz
  1  'x, y, z'
loop_
 _atom_site_type_symbol
 _atom_site_label
 _atom_site_symmetry_multiplicity
 _atom_site_fract_x
 _atom_site_fract_y
 _atom_site_fract_z
 _atom_site_occupancy
  Te  Te0  1  0.33335140  0.66670381  0.70663788  1
  Te  Te1  1  0.33335185  0.66670469  0.60844255  1
  Mo  Mo2  1  0.33330905  0.66661810  0.46967506  1
  W  W3  1  0.33330867  0.66661734  0.09391474  1
  W  W4  1  0.66669178  0.33338357  0.28182119  1
  W  W5  1  0.66668936  0.33337872  0.65755991  1
  Se  Se6  1  0.33336981  0.66674062  0.32493385  1
  Se  Se7  1  0.66664612  0.33329123  0.05078439  1
  Se  Se8  1  0.66664469  0.33328837  0.42668855  1
  Se  Se9  1  0.66664737  0.33329374  0.13704409  1
  Se  Se10  1  0.66664058  0.33328015  0.51261182  1
  Se  Se11  1  0.33334934  0.66669967  0.23863396  1
