# generated using pymatgen
data_Te2MoW3(Se2S)2
_symmetry_space_group_name_H-M   'P 1'
_cell_length_a   3.33972233
_cell_length_b   3.33972502
_cell_length_c   38.11921821
_cell_angle_alpha   89.99909863
_cell_angle_beta   90.00000066
_cell_angle_gamma   119.99995929
_symmetry_Int_Tables_number   1
_chemical_formula_structural   Te2MoW3(Se2S)2
_chemical_formula_sum   'Te2 Mo1 W3 Se4 S2'
_cell_volume   368.21024271
_cell_formula_units_Z   1
loop_
 _symmetry_equiv_pos_site_id
 _symmetry_equiv_pos_as_xyz
  1  'x, y, z'
loop_
 _atom_site_type_symbol
 _atom_site_label
 _atom_site_symmetry_multiplicity
 _atom_site_fract_x
 _atom_site_fract_y
 _atom_site_fract_z
 _atom_site_occupancy
  Te  Te0  1  0.33335051  0.66670158  0.33152586  1
  Te  Te1  1  0.33335346  0.66670754  0.23201662  1
  Mo  Mo2  1  0.66668897  0.33337853  0.28176417  1
  W  W3  1  0.33331080  0.66662098  0.09390932  1
  W  W4  1  0.33331113  0.66662144  0.46970578  1
  W  W5  1  0.66669066  0.33338229  0.65753193  1
  Se  Se6  1  0.33334562  0.66669178  0.70147349  1
  Se  Se7  1  0.66665067  0.33330081  0.42575420  1
  Se  Se8  1  0.66664631  0.33329219  0.51363929  1
  Se  Se9  1  0.33335940  0.66671924  0.61358830  1
  S  S10  1  0.66664742  0.33329390  0.05395464  1
  S  S11  1  0.66664506  0.33328972  0.13388441  1
