# generated using pymatgen
data_TeMoWSe3
_symmetry_space_group_name_H-M   'P 1'
_cell_length_a   3.38354523
_cell_length_b   3.38345582
_cell_length_c   38.47438121
_cell_angle_alpha   90.00012948
_cell_angle_beta   90.00000000
_cell_angle_gamma   120.00087425
_symmetry_Int_Tables_number   1
_chemical_formula_structural   TeMoWSe3
_chemical_formula_sum   'Te2 Mo2 W2 Se6'
_cell_volume   381.44413872
_cell_formula_units_Z   2
loop_
 _symmetry_equiv_pos_site_id
 _symmetry_equiv_pos_as_xyz
  1  'x, y, z'
loop_
 _atom_site_type_symbol
 _atom_site_label
 _atom_site_symmetry_multiplicity
 _atom_site_fract_x
 _atom_site_fract_y
 _atom_site_fract_z
 _atom_site_occupancy
  Te  Te0  1  0.33335063  0.66670227  0.70663553  1
  Te  Te1  1  0.33335335  0.66670769  0.60843581  1
  Mo  Mo2  1  0.33331038  0.66662076  0.09392394  1
  Mo  Mo3  1  0.66669026  0.33338051  0.28179789  1
  W  W4  1  0.33331342  0.66662684  0.46964630  1
  W  W5  1  0.66669193  0.33338387  0.65754614  1
  Se  Se6  1  0.33335416  0.66670933  0.32484020  1
  Se  Se7  1  0.66664654  0.33329208  0.05089042  1
  Se  Se8  1  0.66664311  0.33328522  0.42652052  1
  Se  Se9  1  0.66664505  0.33328909  0.13696576  1
  Se  Se10  1  0.66664946  0.33329792  0.51279563  1
  Se  Se11  1  0.33335171  0.66670442  0.23874986  1
