# generated using pymatgen
data_Te2Mo(WSe2)3
_symmetry_space_group_name_H-M   'P 1'
_cell_length_a   3.38164382
_cell_length_b   3.38159577
_cell_length_c   38.48617178
_cell_angle_alpha   90.00049949
_cell_angle_beta   90.00000142
_cell_angle_gamma   120.00046189
_symmetry_Int_Tables_number   1
_chemical_formula_structural   Te2Mo(WSe2)3
_chemical_formula_sum   'Te2 Mo1 W3 Se6'
_cell_volume   381.13855063
_cell_formula_units_Z   1
loop_
 _symmetry_equiv_pos_site_id
 _symmetry_equiv_pos_as_xyz
  1  'x, y, z'
loop_
 _atom_site_type_symbol
 _atom_site_label
 _atom_site_symmetry_multiplicity
 _atom_site_fract_x
 _atom_site_fract_y
 _atom_site_fract_z
 _atom_site_occupancy
  Te  Te0  1  0.33335380  0.66670835  0.70665645  1
  Te  Te1  1  0.33335139  0.66670359  0.60841864  1
  Mo  Mo2  1  0.66669196  0.33338433  0.28181787  1
  W  W3  1  0.33330869  0.66661694  0.09392171  1
  W  W4  1  0.33330942  0.66661841  0.46966219  1
  W  W5  1  0.66669028  0.33338084  0.65755997  1
  Se  Se6  1  0.33336397  0.66672883  0.32481274  1
  Se  Se7  1  0.66664246  0.33328419  0.05077178  1
  Se  Se8  1  0.66664651  0.33329220  0.42649223  1
  Se  Se9  1  0.66664759  0.33329444  0.13707583  1
  Se  Se10  1  0.66664346  0.33328616  0.51279341  1
  Se  Se11  1  0.33335047  0.66670170  0.23876517  1
