# generated using pymatgen
data_BaYMg14
_symmetry_space_group_name_H-M   'P 1'
_cell_length_a   6.68242471
_cell_length_b   6.67847882
_cell_length_c   10.65395504
_cell_angle_alpha   90.00000000
_cell_angle_beta   90.00000000
_cell_angle_gamma   119.98047458
_symmetry_Int_Tables_number   1
_chemical_formula_structural   BaYMg14
_chemical_formula_sum   'Ba1 Y1 Mg14'
_cell_volume   411.84949037
_cell_formula_units_Z   1
loop_
 _symmetry_equiv_pos_site_id
 _symmetry_equiv_pos_as_xyz
  1  'x, y, z'
loop_
 _atom_site_type_symbol
 _atom_site_label
 _atom_site_symmetry_multiplicity
 _atom_site_fract_x
 _atom_site_fract_y
 _atom_site_fract_z
 _atom_site_occupancy
  Ba  Ba0  1  0.16697130  0.83348515  0.12500000  1
  Y  Y1  1  0.17940489  0.33970195  0.12500000  1
  Mg  Mg2  1  0.16378339  0.33189120  0.62500000  1
  Mg  Mg3  1  0.16627015  0.83313458  0.62500000  1
  Mg  Mg4  1  0.66492631  0.33270023  0.12500000  1
  Mg  Mg5  1  0.66802079  0.33238855  0.62500000  1
  Mg  Mg6  1  0.66492631  0.83222508  0.12500000  1
  Mg  Mg7  1  0.66802079  0.83563124  0.62500000  1
  Mg  Mg8  1  0.33966335  0.17778353  0.39079260  1
  Mg  Mg9  1  0.33966335  0.17778353  0.85920740  1
  Mg  Mg10  1  0.33966335  0.66188081  0.39079260  1
  Mg  Mg11  1  0.33966335  0.66188081  0.85920740  1
  Mg  Mg12  1  0.83089896  0.16544998  0.37588082  1
  Mg  Mg13  1  0.83089896  0.16544998  0.87411918  1
  Mg  Mg14  1  0.81861239  0.65930669  0.38716749  1
  Mg  Mg15  1  0.81861239  0.65930669  0.86283251  1
