# generated using pymatgen
data_TeMoWSe2S
_symmetry_space_group_name_H-M   'P 1'
_cell_length_a   3.34091119
_cell_length_b   3.34089982
_cell_length_c   38.07192745
_cell_angle_alpha   90.00037878
_cell_angle_beta   90.00000000
_cell_angle_gamma   120.00011245
_symmetry_Int_Tables_number   1
_chemical_formula_structural   TeMoWSe2S
_chemical_formula_sum   'Te2 Mo2 W2 Se4 S2'
_cell_volume   368.01319330
_cell_formula_units_Z   2
loop_
 _symmetry_equiv_pos_site_id
 _symmetry_equiv_pos_as_xyz
  1  'x, y, z'
loop_
 _atom_site_type_symbol
 _atom_site_label
 _atom_site_symmetry_multiplicity
 _atom_site_fract_x
 _atom_site_fract_y
 _atom_site_fract_z
 _atom_site_occupancy
  Te  Te0  1  0.66665029  0.33329959  0.41989052  1
  Te  Te1  1  0.66665047  0.33329994  0.51948597  1
  Mo  Mo2  1  0.33331136  0.66662272  0.09392630  1
  Mo  Mo3  1  0.33331044  0.66662088  0.46966299  1
  W  W4  1  0.66668989  0.33337977  0.28178212  1
  W  W5  1  0.66669121  0.33338243  0.65754216  1
  Se  Se6  1  0.33335136  0.66670372  0.32575952  1
  Se  Se7  1  0.66664689  0.33329279  0.05012466  1
  Se  Se8  1  0.66663709  0.33327319  0.13770014  1
  Se  Se9  1  0.33334934  0.66669968  0.23778680  1
  S  S10  1  0.33335480  0.66671060  0.69755929  1
  S  S11  1  0.33335685  0.66671470  0.61752754  1
