# generated using pymatgen
data_TeMoWSe2S
_symmetry_space_group_name_H-M   'P 1'
_cell_length_a   3.34190595
_cell_length_b   3.34190497
_cell_length_c   38.04295865
_cell_angle_alpha   90.00019387
_cell_angle_beta   89.99998729
_cell_angle_gamma   119.99999892
_symmetry_Int_Tables_number   1
_chemical_formula_structural   TeMoWSe2S
_chemical_formula_sum   'Te2 Mo2 W2 Se4 S2'
_cell_volume   367.95375707
_cell_formula_units_Z   2
loop_
 _symmetry_equiv_pos_site_id
 _symmetry_equiv_pos_as_xyz
  1  'x, y, z'
loop_
 _atom_site_type_symbol
 _atom_site_label
 _atom_site_symmetry_multiplicity
 _atom_site_fract_x
 _atom_site_fract_y
 _atom_site_fract_z
 _atom_site_occupancy
  Te  Te0  1  0.66664409  0.33328731  0.04403956  1
  Te  Te1  1  0.66664775  0.33329514  0.14375108  1
  Mo  Mo2  1  0.33330927  0.66661794  0.09387114  1
  Mo  Mo3  1  0.66668783  0.33337670  0.28182763  1
  W  W4  1  0.33330349  0.66660568  0.46965726  1
  W  W5  1  0.66669247  0.33338629  0.65754444  1
  Se  Se6  1  0.33335263  0.66670553  0.32564961  1
  Se  Se7  1  0.33336883  0.66673785  0.70155830  1
  Se  Se8  1  0.33335862  0.66671789  0.23801848  1
  Se  Se9  1  0.33335014  0.66670071  0.61350735  1
  S  S10  1  0.66663783  0.33327529  0.42964568  1
  S  S11  1  0.66664704  0.33329367  0.50967748  1
