# generated using pymatgen
data_KYMg14
_symmetry_space_group_name_H-M   'P 1'
_cell_length_a   6.68364502
_cell_length_b   6.68364442
_cell_length_c   10.47035540
_cell_angle_alpha   90.00000000
_cell_angle_beta   90.00000000
_cell_angle_gamma   120.00000295
_symmetry_Int_Tables_number   1
_chemical_formula_structural   KYMg14
_chemical_formula_sum   'K1 Y1 Mg14'
_cell_volume   405.05943717
_cell_formula_units_Z   1
loop_
 _symmetry_equiv_pos_site_id
 _symmetry_equiv_pos_as_xyz
  1  'x, y, z'
loop_
 _atom_site_type_symbol
 _atom_site_label
 _atom_site_symmetry_multiplicity
 _atom_site_fract_x
 _atom_site_fract_y
 _atom_site_fract_z
 _atom_site_occupancy
  K  K0  1  0.16666700  0.33333300  0.62500000  1
  Y  Y1  1  0.16666700  0.33333300  0.12500000  1
  Mg  Mg2  1  0.17303587  0.83651744  0.12500000  1
  Mg  Mg3  1  0.17106483  0.83553191  0.62500000  1
  Mg  Mg4  1  0.66348256  0.32696413  0.12500000  1
  Mg  Mg5  1  0.66446809  0.32893517  0.62500000  1
  Mg  Mg6  1  0.66348256  0.83651744  0.12500000  1
  Mg  Mg7  1  0.66446809  0.83553191  0.62500000  1
  Mg  Mg8  1  0.33800453  0.16199547  0.37025212  1
  Mg  Mg9  1  0.33800453  0.16199547  0.87974788  1
  Mg  Mg10  1  0.33800453  0.67601007  0.37025212  1
  Mg  Mg11  1  0.33800453  0.67601007  0.87974788  1
  Mg  Mg12  1  0.82398993  0.16199547  0.37025212  1
  Mg  Mg13  1  0.82398993  0.16199547  0.87974788  1
  Mg  Mg14  1  0.83333300  0.66666700  0.37504278  1
  Mg  Mg15  1  0.83333300  0.66666700  0.87495722  1
