# generated using pymatgen
data_Te2Mo(WSe2)3
_symmetry_space_group_name_H-M   'P 1'
_cell_length_a   3.38165964
_cell_length_b   3.38166564
_cell_length_c   38.52948096
_cell_angle_alpha   89.99967448
_cell_angle_beta   90.00000000
_cell_angle_gamma   119.99994134
_symmetry_Int_Tables_number   1
_chemical_formula_structural   Te2Mo(WSe2)3
_chemical_formula_sum   'Te2 Mo1 W3 Se6'
_cell_volume   381.57912312
_cell_formula_units_Z   1
loop_
 _symmetry_equiv_pos_site_id
 _symmetry_equiv_pos_as_xyz
  1  'x, y, z'
loop_
 _atom_site_type_symbol
 _atom_site_label
 _atom_site_symmetry_multiplicity
 _atom_site_fract_x
 _atom_site_fract_y
 _atom_site_fract_z
 _atom_site_occupancy
  Te  Te0  1  0.33335450  0.66671000  0.33084960  1
  Te  Te1  1  0.33335767  0.66671634  0.23275348  1
  Mo  Mo2  1  0.33331081  0.66662163  0.09391099  1
  W  W3  1  0.33331162  0.66662323  0.46966365  1
  W  W4  1  0.66669401  0.33338803  0.28179220  1
  W  W5  1  0.66669068  0.33338137  0.65752327  1
  Se  Se6  1  0.33335464  0.66671028  0.70064700  1
  Se  Se7  1  0.66663225  0.33326350  0.05096433  1
  Se  Se8  1  0.66663934  0.33327767  0.42656961  1
  Se  Se9  1  0.66664801  0.33329502  0.13687521  1
  Se  Se10  1  0.66665250  0.33330401  0.51278990  1
  Se  Se11  1  0.33335396  0.66670891  0.61440876  1
