# generated using pymatgen
data_Te2MoW3(Se2S)2
_symmetry_space_group_name_H-M   'P 1'
_cell_length_a   3.34047932
_cell_length_b   3.34047819
_cell_length_c   38.07664660
_cell_angle_alpha   89.99976781
_cell_angle_beta   90.00000000
_cell_angle_gamma   120.00001117
_symmetry_Int_Tables_number   1
_chemical_formula_structural   Te2MoW3(Se2S)2
_chemical_formula_sum   'Te2 Mo1 W3 Se4 S2'
_cell_volume   367.96516345
_cell_formula_units_Z   1
loop_
 _symmetry_equiv_pos_site_id
 _symmetry_equiv_pos_as_xyz
  1  'x, y, z'
loop_
 _atom_site_type_symbol
 _atom_site_label
 _atom_site_symmetry_multiplicity
 _atom_site_fract_x
 _atom_site_fract_y
 _atom_site_fract_z
 _atom_site_occupancy
  Te  Te0  1  0.66664818  0.33329536  0.04409008  1
  Te  Te1  1  0.66664868  0.33329636  0.14369461  1
  Mo  Mo2  1  0.33330905  0.66661809  0.09387807  1
  W  W3  1  0.33331051  0.66662102  0.46965267  1
  W  W4  1  0.66669371  0.33338742  0.28182574  1
  W  W5  1  0.66668666  0.33337331  0.65753771  1
  Se  Se6  1  0.33336065  0.66672229  0.32581372  1
  Se  Se7  1  0.33334605  0.66669309  0.70150294  1
  Se  Se8  1  0.33335353  0.66670805  0.23786626  1
  Se  Se9  1  0.33335292  0.66670683  0.61355458  1
  S  S10  1  0.66664377  0.33328653  0.42966808  1
  S  S11  1  0.66664632  0.33329164  0.50966354  1
