# generated using pymatgen
data_TeMoWSe2S
_symmetry_space_group_name_H-M   'P 1'
_cell_length_a   3.34361471
_cell_length_b   3.34217660
_cell_length_c   38.59158161
_cell_angle_alpha   89.97211464
_cell_angle_beta   90.00000000
_cell_angle_gamma   120.01423506
_symmetry_Int_Tables_number   1
_chemical_formula_structural   TeMoWSe2S
_chemical_formula_sum   'Te2 Mo2 W2 Se4 S2'
_cell_volume   373.42762993
_cell_formula_units_Z   2
loop_
 _symmetry_equiv_pos_site_id
 _symmetry_equiv_pos_as_xyz
  1  'x, y, z'
loop_
 _atom_site_type_symbol
 _atom_site_label
 _atom_site_symmetry_multiplicity
 _atom_site_fract_x
 _atom_site_fract_y
 _atom_site_fract_z
 _atom_site_occupancy
  Te  Te0  1  0.66720108  0.33440116  0.42051535  1
  Te  Te1  1  0.66676068  0.33352035  0.51873041  1
  Mo  Mo2  1  0.33359999  0.66719999  0.46961533  1
  Mo  Mo3  1  0.66722422  0.33444845  0.28083153  1
  W  W4  1  0.33383987  0.66767975  0.09372062  1
  W  W5  1  0.66523059  0.33046119  0.65873949  1
  Se  Se6  1  0.33368779  0.66737658  0.32404653  1
  Se  Se7  1  0.33189055  0.66378210  0.70212271  1
  Se  Se8  1  0.33403038  0.66806176  0.23766669  1
  Se  Se9  1  0.33214906  0.66429912  0.61532419  1
  S  S10  1  0.66735331  0.33470562  0.05428217  1
  S  S11  1  0.66703246  0.33406392  0.13315298  1
