# generated using pymatgen
data_Te2MoW3(Se2S)2
_symmetry_space_group_name_H-M   'P 1'
_cell_length_a   3.34035962
_cell_length_b   3.34037146
_cell_length_c   38.07463581
_cell_angle_alpha   89.99959749
_cell_angle_beta   90.00000000
_cell_angle_gamma   119.99988275
_symmetry_Int_Tables_number   1
_chemical_formula_structural   Te2MoW3(Se2S)2
_chemical_formula_sum   'Te2 Mo1 W3 Se4 S2'
_cell_volume   367.92126705
_cell_formula_units_Z   1
loop_
 _symmetry_equiv_pos_site_id
 _symmetry_equiv_pos_as_xyz
  1  'x, y, z'
loop_
 _atom_site_type_symbol
 _atom_site_label
 _atom_site_symmetry_multiplicity
 _atom_site_fract_x
 _atom_site_fract_y
 _atom_site_fract_z
 _atom_site_occupancy
  Te  Te0  1  0.66664667  0.33329234  0.04409615  1
  Te  Te1  1  0.66664690  0.33329280  0.14373155  1
  Mo  Mo2  1  0.33330860  0.66661721  0.09389299  1
  W  W3  1  0.33330708  0.66661417  0.46966521  1
  W  W4  1  0.66668756  0.33337511  0.28179870  1
  W  W5  1  0.66669498  0.33338995  0.65755401  1
  Se  Se6  1  0.33335072  0.66670244  0.70150360  1
  Se  Se7  1  0.66664860  0.33329621  0.42568143  1
  Se  Se8  1  0.66664531  0.33328961  0.51365938  1
  Se  Se9  1  0.33336036  0.66672171  0.61356104  1
  S  S10  1  0.33335122  0.66670344  0.32179459  1
  S  S11  1  0.33335200  0.66670500  0.24180935  1
