# generated using pymatgen
data_TeMoWSe2S
_symmetry_space_group_name_H-M   'P 1'
_cell_length_a   3.34177900
_cell_length_b   3.34174604
_cell_length_c   38.02203370
_cell_angle_alpha   90.00001449
_cell_angle_beta   90.00000000
_cell_angle_gamma   120.00032626
_symmetry_Int_Tables_number   1
_chemical_formula_structural   TeMoWSe2S
_chemical_formula_sum   'Te2 Mo2 W2 Se4 S2'
_cell_volume   367.71869832
_cell_formula_units_Z   2
loop_
 _symmetry_equiv_pos_site_id
 _symmetry_equiv_pos_as_xyz
  1  'x, y, z'
loop_
 _atom_site_type_symbol
 _atom_site_label
 _atom_site_symmetry_multiplicity
 _atom_site_fract_x
 _atom_site_fract_y
 _atom_site_fract_z
 _atom_site_occupancy
  Te  Te0  1  0.33336118  0.66672336  0.70740075  1
  Te  Te1  1  0.33335254  0.66670608  0.60768628  1
  Mo  Mo2  1  0.33330913  0.66661827  0.09388742  1
  Mo  Mo3  1  0.66668888  0.33337776  0.65756602  1
  W  W4  1  0.33331069  0.66662138  0.46966297  1
  W  W5  1  0.66668892  0.33337784  0.28181060  1
  Se  Se6  1  0.33335100  0.66670300  0.32583638  1
  Se  Se7  1  0.66664873  0.33329646  0.05009321  1
  Se  Se8  1  0.66664909  0.33329718  0.13772693  1
  Se  Se9  1  0.33335086  0.66670273  0.23777213  1
  S  S10  1  0.66664068  0.33328035  0.42962248  1
  S  S11  1  0.66664829  0.33329559  0.50968284  1
