# generated using pymatgen
data_TeMoWSe2S
_symmetry_space_group_name_H-M   'P 1'
_cell_length_a   3.34080002
_cell_length_b   3.34079402
_cell_length_c   38.07424097
_cell_angle_alpha   89.99996810
_cell_angle_beta   90.00000000
_cell_angle_gamma   120.00005939
_symmetry_Int_Tables_number   1
_chemical_formula_structural   TeMoWSe2S
_chemical_formula_sum   'Te2 Mo2 W2 Se4 S2'
_cell_volume   368.01185185
_cell_formula_units_Z   2
loop_
 _symmetry_equiv_pos_site_id
 _symmetry_equiv_pos_as_xyz
  1  'x, y, z'
loop_
 _atom_site_type_symbol
 _atom_site_label
 _atom_site_symmetry_multiplicity
 _atom_site_fract_x
 _atom_site_fract_y
 _atom_site_fract_z
 _atom_site_occupancy
  Te  Te0  1  0.33335482  0.66671063  0.33156803  1
  Te  Te1  1  0.33335077  0.66670254  0.23196800  1
  Mo  Mo2  1  0.33331087  0.66662174  0.46969426  1
  Mo  Mo3  1  0.66669047  0.33338094  0.28179643  1
  W  W4  1  0.33331126  0.66662253  0.09391900  1
  W  W5  1  0.66668574  0.33337148  0.65753249  1
  Se  Se6  1  0.33334732  0.66669565  0.70152283  1
  Se  Se7  1  0.66664898  0.33329696  0.42589494  1
  Se  Se8  1  0.66664872  0.33329644  0.51346140  1
  Se  Se9  1  0.33335668  0.66671437  0.61354461  1
  S  S10  1  0.66664672  0.33329244  0.05391563  1
  S  S11  1  0.66664764  0.33329429  0.13393036  1
