# generated using pymatgen
data_TeMoWSe2S
_symmetry_space_group_name_H-M   'P 1'
_cell_length_a   3.34119652
_cell_length_b   3.34119045
_cell_length_c   38.06457296
_cell_angle_alpha   90.00008970
_cell_angle_beta   89.99999868
_cell_angle_gamma   120.00003754
_symmetry_Int_Tables_number   1
_chemical_formula_structural   TeMoWSe2S
_chemical_formula_sum   'Te2 Mo2 W2 Se4 S2'
_cell_volume   368.00581442
_cell_formula_units_Z   2
loop_
 _symmetry_equiv_pos_site_id
 _symmetry_equiv_pos_as_xyz
  1  'x, y, z'
loop_
 _atom_site_type_symbol
 _atom_site_label
 _atom_site_symmetry_multiplicity
 _atom_site_fract_x
 _atom_site_fract_y
 _atom_site_fract_z
 _atom_site_occupancy
  Te  Te0  1  0.66664714  0.33329372  0.04406956  1
  Te  Te1  1  0.66664917  0.33329775  0.14371570  1
  Mo  Mo2  1  0.33330685  0.66661319  0.09387671  1
  Mo  Mo3  1  0.33331188  0.66662287  0.46965205  1
  W  W4  1  0.66668604  0.33337281  0.28181854  1
  W  W5  1  0.66669050  0.33338189  0.65753573  1
  Se  Se6  1  0.33335001  0.66670014  0.32581830  1
  Se  Se7  1  0.66664644  0.33329223  0.42587660  1
  Se  Se8  1  0.66665031  0.33330014  0.51348156  1
  Se  Se9  1  0.33334874  0.66669836  0.23784238  1
  S  S10  1  0.33335811  0.66671672  0.69754030  1
  S  S11  1  0.33335482  0.66671018  0.61752056  1
