# generated using pymatgen
data_Te2Mo3W(Se2S)2
_symmetry_space_group_name_H-M   'P 1'
_cell_length_a   3.34265393
_cell_length_b   3.34265563
_cell_length_c   38.05884981
_cell_angle_alpha   89.99949752
_cell_angle_beta   90.00000000
_cell_angle_gamma   119.99998312
_symmetry_Int_Tables_number   1
_chemical_formula_structural   Te2Mo3W(Se2S)2
_chemical_formula_sum   'Te2 Mo3 W1 Se4 S2'
_cell_volume   368.27260727
_cell_formula_units_Z   1
loop_
 _symmetry_equiv_pos_site_id
 _symmetry_equiv_pos_as_xyz
  1  'x, y, z'
loop_
 _atom_site_type_symbol
 _atom_site_label
 _atom_site_symmetry_multiplicity
 _atom_site_fract_x
 _atom_site_fract_y
 _atom_site_fract_z
 _atom_site_occupancy
  Te  Te0  1  0.66664834  0.33329568  0.04401630  1
  Te  Te1  1  0.66664973  0.33329845  0.14374147  1
  Mo  Mo2  1  0.33331515  0.66663030  0.09385169  1
  Mo  Mo3  1  0.33331246  0.66662492  0.46966888  1
  Mo  Mo4  1  0.66669000  0.33338000  0.28184390  1
  W  W5  1  0.66668929  0.33337858  0.65754895  1
  Se  Se6  1  0.33334992  0.66670084  0.32566148  1
  Se  Se7  1  0.66665020  0.33329940  0.42580873  1
  Se  Se8  1  0.66663592  0.33327084  0.51353540  1
  Se  Se9  1  0.33335027  0.66670155  0.23799012  1
  S  S10  1  0.33335211  0.66670522  0.69751477  1
  S  S11  1  0.33335661  0.66671421  0.61756633  1
