# generated using pymatgen
data_Te2Mo3W(Se2S)2
_symmetry_space_group_name_H-M   'P 1'
_cell_length_a   3.34081925
_cell_length_b   3.34081057
_cell_length_c   38.01442802
_cell_angle_alpha   90.00014265
_cell_angle_beta   90.00000000
_cell_angle_gamma   120.00008608
_symmetry_Int_Tables_number   1
_chemical_formula_structural   Te2Mo3W(Se2S)2
_chemical_formula_sum   'Te2 Mo3 W1 Se4 S2'
_cell_volume   367.43755732
_cell_formula_units_Z   1
loop_
 _symmetry_equiv_pos_site_id
 _symmetry_equiv_pos_as_xyz
  1  'x, y, z'
loop_
 _atom_site_type_symbol
 _atom_site_label
 _atom_site_symmetry_multiplicity
 _atom_site_fract_x
 _atom_site_fract_y
 _atom_site_fract_z
 _atom_site_occupancy
  Te  Te0  1  0.33335084  0.66670268  0.70739884  1
  Te  Te1  1  0.33335007  0.66670113  0.60771041  1
  Mo  Mo2  1  0.33330766  0.66661532  0.09390764  1
  Mo  Mo3  1  0.33330847  0.66661695  0.46964660  1
  Mo  Mo4  1  0.66668798  0.33337595  0.65758081  1
  W  W5  1  0.66669285  0.33338570  0.28180627  1
  Se  Se6  1  0.66664565  0.33329030  0.05009337  1
  Se  Se7  1  0.66664743  0.33329386  0.42581151  1
  Se  Se8  1  0.66664611  0.33329123  0.13773947  1
  Se  Se9  1  0.66664865  0.33329631  0.51346121  1
  S  S10  1  0.33335444  0.66670988  0.32184569  1
  S  S11  1  0.33335985  0.66672069  0.24174618  1
