# generated using pymatgen
data_TeMoWSe3
_symmetry_space_group_name_H-M   'P 1'
_cell_length_a   3.38326791
_cell_length_b   3.38327910
_cell_length_c   38.49132920
_cell_angle_alpha   89.99961197
_cell_angle_beta   90.00000000
_cell_angle_gamma   119.99989066
_symmetry_Int_Tables_number   1
_chemical_formula_structural   TeMoWSe3
_chemical_formula_sum   'Te2 Mo2 W2 Se6'
_cell_volume   381.56473957
_cell_formula_units_Z   2
loop_
 _symmetry_equiv_pos_site_id
 _symmetry_equiv_pos_as_xyz
  1  'x, y, z'
loop_
 _atom_site_type_symbol
 _atom_site_label
 _atom_site_symmetry_multiplicity
 _atom_site_fract_x
 _atom_site_fract_y
 _atom_site_fract_z
 _atom_site_occupancy
  Te  Te0  1  0.33335377  0.66670854  0.33089545  1
  Te  Te1  1  0.33335256  0.66670612  0.23272700  1
  Mo  Mo2  1  0.33330877  0.66661753  0.09388053  1
  Mo  Mo3  1  0.33331009  0.66662017  0.46966777  1
  W  W4  1  0.66669113  0.33338227  0.28177933  1
  W  W5  1  0.66669186  0.33338371  0.65753062  1
  Se  Se6  1  0.33335445  0.66670991  0.70067065  1
  Se  Se7  1  0.66665017  0.33329935  0.05093798  1
  Se  Se8  1  0.66664241  0.33328382  0.42670870  1
  Se  Se9  1  0.66665028  0.33329956  0.13690427  1
  Se  Se10  1  0.66664047  0.33327993  0.51266567  1
  Se  Se11  1  0.33335404  0.66670908  0.61438003  1
