# generated using pymatgen
data_Te2Mo(WSe2)3
_symmetry_space_group_name_H-M   'P 1'
_cell_length_a   3.38165711
_cell_length_b   3.38164997
_cell_length_c   38.48029768
_cell_angle_alpha   90.00089669
_cell_angle_beta   90.00000000
_cell_angle_gamma   120.00006991
_symmetry_Int_Tables_number   1
_chemical_formula_structural   Te2Mo(WSe2)3
_chemical_formula_sum   'Te2 Mo1 W3 Se6'
_cell_volume   381.08948928
_cell_formula_units_Z   1
loop_
 _symmetry_equiv_pos_site_id
 _symmetry_equiv_pos_as_xyz
  1  'x, y, z'
loop_
 _atom_site_type_symbol
 _atom_site_label
 _atom_site_symmetry_multiplicity
 _atom_site_fract_x
 _atom_site_fract_y
 _atom_site_fract_z
 _atom_site_occupancy
  Te  Te0  1  0.33335334  0.66670768  0.70662241  1
  Te  Te1  1  0.33335344  0.66670787  0.60846468  1
  Mo  Mo2  1  0.33330790  0.66661580  0.09391166  1
  W  W3  1  0.33331325  0.66662650  0.46966034  1
  W  W4  1  0.66669086  0.33338173  0.28179695  1
  W  W5  1  0.66669060  0.33338119  0.65758002  1
  Se  Se6  1  0.33336968  0.66674036  0.32492677  1
  Se  Se7  1  0.66663498  0.33326897  0.05096023  1
  Se  Se8  1  0.66663473  0.33326846  0.42652333  1
  Se  Se9  1  0.66664899  0.33329698  0.13688527  1
  Se  Se10  1  0.66665114  0.33330128  0.51276469  1
  Se  Se11  1  0.33335109  0.66670317  0.23865166  1
