# generated using pymatgen
data_Te2MoW3(Se2S)2
_symmetry_space_group_name_H-M   'P 1'
_cell_length_a   3.33996503
_cell_length_b   3.33995488
_cell_length_c   39.66931701
_cell_angle_alpha   90.01529787
_cell_angle_beta   90.00000000
_cell_angle_gamma   120.00010043
_symmetry_Int_Tables_number   1
_chemical_formula_structural   Te2MoW3(Se2S)2
_chemical_formula_sum   'Te2 Mo1 W3 Se4 S2'
_cell_volume   383.23698456
_cell_formula_units_Z   1
loop_
 _symmetry_equiv_pos_site_id
 _symmetry_equiv_pos_as_xyz
  1  'x, y, z'
loop_
 _atom_site_type_symbol
 _atom_site_label
 _atom_site_symmetry_multiplicity
 _atom_site_fract_x
 _atom_site_fract_y
 _atom_site_fract_z
 _atom_site_occupancy
  Te  Te0  1  0.66638080  0.33276060  0.04458261  1
  Te  Te1  1  0.66660328  0.33320557  0.14020382  1
  Mo  Mo2  1  0.33315974  0.66631948  0.09238442  1
  W  W3  1  0.33329795  0.66659591  0.47021567  1
  W  W4  1  0.66682719  0.33365438  0.28265837  1
  W  W5  1  0.66671488  0.33342977  0.65763815  1
  Se  Se6  1  0.33358917  0.66717934  0.32490417  1
  Se  Se7  1  0.66655314  0.33310529  0.42801074  1
  Se  Se8  1  0.66671185  0.33342269  0.51245338  1
  Se  Se9  1  0.33340602  0.66681303  0.24043643  1
  S  S10  1  0.33345578  0.66691256  0.69600922  1
  S  S11  1  0.33330020  0.66660140  0.61925103  1
