# generated using pymatgen
data_Te6Mo3WSe2
_symmetry_space_group_name_H-M   'P 1'
_cell_length_a   3.49854358
_cell_length_b   3.49852843
_cell_length_c   39.58097367
_cell_angle_alpha   90.00046201
_cell_angle_beta   90.00000204
_cell_angle_gamma   120.00012276
_symmetry_Int_Tables_number   1
_chemical_formula_structural   Te6Mo3WSe2
_chemical_formula_sum   'Te6 Mo3 W1 Se2'
_cell_volume   419.55534957
_cell_formula_units_Z   1
loop_
 _symmetry_equiv_pos_site_id
 _symmetry_equiv_pos_as_xyz
  1  'x, y, z'
loop_
 _atom_site_type_symbol
 _atom_site_label
 _atom_site_symmetry_multiplicity
 _atom_site_fract_x
 _atom_site_fract_y
 _atom_site_fract_z
 _atom_site_occupancy
  Te  Te0  1  0.33335824  0.66671727  0.32833170  1
  Te  Te1  1  0.33336003  0.66672072  0.70382913  1
  Te  Te2  1  0.66664160  0.33328247  0.42336787  1
  Te  Te3  1  0.66664840  0.33329591  0.51594005  1
  Te  Te4  1  0.33335585  0.66671239  0.23521975  1
  Te  Te5  1  0.33335539  0.66671153  0.61124281  1
  Mo  Mo6  1  0.33330610  0.66661196  0.09392708  1
  Mo  Mo7  1  0.33331032  0.66662041  0.46968074  1
  Mo  Mo8  1  0.66669306  0.33338642  0.65756149  1
  W  W9  1  0.66669314  0.33338669  0.28178812  1
  Se  Se10  1  0.66664139  0.33328209  0.05304317  1
  Se  Se11  1  0.66663646  0.33327214  0.13481610  1
