# generated using pymatgen
data_TeMoWSe3
_symmetry_space_group_name_H-M   'P 1'
_cell_length_a   3.38297503
_cell_length_b   3.38290570
_cell_length_c   38.47217421
_cell_angle_alpha   89.99992335
_cell_angle_beta   90.00000000
_cell_angle_gamma   120.00067788
_symmetry_Int_Tables_number   1
_chemical_formula_structural   TeMoWSe3
_chemical_formula_sum   'Te2 Mo2 W2 Se6'
_cell_volume   381.29672878
_cell_formula_units_Z   2
loop_
 _symmetry_equiv_pos_site_id
 _symmetry_equiv_pos_as_xyz
  1  'x, y, z'
loop_
 _atom_site_type_symbol
 _atom_site_label
 _atom_site_symmetry_multiplicity
 _atom_site_fract_x
 _atom_site_fract_y
 _atom_site_fract_z
 _atom_site_occupancy
  Te  Te0  1  0.66664686  0.33329272  0.42060483  1
  Te  Te1  1  0.66664690  0.33329281  0.51873178  1
  Mo  Mo2  1  0.33330960  0.66661919  0.09392470  1
  Mo  Mo3  1  0.66669064  0.33338129  0.65754969  1
  W  W4  1  0.33331023  0.66662045  0.46964835  1
  W  W5  1  0.66668809  0.33337618  0.28177108  1
  Se  Se6  1  0.33335664  0.66671429  0.32493294  1
  Se  Se7  1  0.33335257  0.66670615  0.70055410  1
  Se  Se8  1  0.66664345  0.33328589  0.05091863  1
  Se  Se9  1  0.66664791  0.33329481  0.13694312  1
  Se  Se10  1  0.33335443  0.66670986  0.23864962  1
  Se  Se11  1  0.33335268  0.66670637  0.61451916  1
