# generated using pymatgen
data_LaMg14Mn
_symmetry_space_group_name_H-M   'P 1'
_cell_length_a   6.54519164
_cell_length_b   6.54519108
_cell_length_c   10.27676314
_cell_angle_alpha   90.00000000
_cell_angle_beta   90.00000000
_cell_angle_gamma   120.00000281
_symmetry_Int_Tables_number   1
_chemical_formula_structural   LaMg14Mn
_chemical_formula_sum   'La1 Mg14 Mn1'
_cell_volume   381.26914755
_cell_formula_units_Z   1
loop_
 _symmetry_equiv_pos_site_id
 _symmetry_equiv_pos_as_xyz
  1  'x, y, z'
loop_
 _atom_site_type_symbol
 _atom_site_label
 _atom_site_symmetry_multiplicity
 _atom_site_fract_x
 _atom_site_fract_y
 _atom_site_fract_z
 _atom_site_occupancy
  La  La0  1  0.16666700  0.33333300  0.62500000  1
  Mg  Mg1  1  0.16423500  0.83211700  0.12500000  1
  Mg  Mg2  1  0.18009228  0.84004564  0.62500000  1
  Mg  Mg3  1  0.66788300  0.33576500  0.12500000  1
  Mg  Mg4  1  0.65995436  0.31990772  0.62500000  1
  Mg  Mg5  1  0.66788300  0.83211700  0.12500000  1
  Mg  Mg6  1  0.65995436  0.84004564  0.62500000  1
  Mg  Mg7  1  0.33315510  0.16684490  0.36216221  1
  Mg  Mg8  1  0.33315510  0.16684490  0.88783779  1
  Mg  Mg9  1  0.33315510  0.66631119  0.36216221  1
  Mg  Mg10  1  0.33315510  0.66631119  0.88783779  1
  Mg  Mg11  1  0.83368881  0.16684490  0.36216221  1
  Mg  Mg12  1  0.83368881  0.16684490  0.88783779  1
  Mg  Mg13  1  0.83333300  0.66666700  0.38143500  1
  Mg  Mg14  1  0.83333300  0.66666700  0.86856500  1
  Mn  Mn15  1  0.16666700  0.33333300  0.12500000  1
