# generated using pymatgen
data_TeMoWSe2S
_symmetry_space_group_name_H-M   'P 1'
_cell_length_a   3.34072241
_cell_length_b   3.34072478
_cell_length_c   38.02315582
_cell_angle_alpha   89.99958432
_cell_angle_beta   90.00000000
_cell_angle_gamma   119.99997661
_symmetry_Int_Tables_number   1
_chemical_formula_structural   TeMoWSe2S
_chemical_formula_sum   'Te2 Mo2 W2 Se4 S2'
_cell_volume   367.50223317
_cell_formula_units_Z   2
loop_
 _symmetry_equiv_pos_site_id
 _symmetry_equiv_pos_as_xyz
  1  'x, y, z'
loop_
 _atom_site_type_symbol
 _atom_site_label
 _atom_site_symmetry_multiplicity
 _atom_site_fract_x
 _atom_site_fract_y
 _atom_site_fract_z
 _atom_site_occupancy
  Te  Te0  1  0.66664454  0.33328809  0.04406593  1
  Te  Te1  1  0.66664677  0.33329253  0.14377269  1
  Mo  Mo2  1  0.33330543  0.66661086  0.09389817  1
  Mo  Mo3  1  0.33331172  0.66662343  0.46964311  1
  W  W4  1  0.66668826  0.33337652  0.28179227  1
  W  W5  1  0.66668853  0.33337706  0.65755658  1
  Se  Se6  1  0.33335844  0.66671787  0.70154501  1
  Se  Se7  1  0.66664825  0.33329550  0.42584334  1
  Se  Se8  1  0.66664870  0.33329639  0.51348319  1
  Se  Se9  1  0.33335459  0.66671019  0.61352457  1
  S  S10  1  0.33335244  0.66670589  0.32184694  1
  S  S11  1  0.33335233  0.66670566  0.24177621  1
