# generated using pymatgen
data_Te6Mo3WSe2
_symmetry_space_group_name_H-M   'P 1'
_cell_length_a   3.49919451
_cell_length_b   3.49919305
_cell_length_c   39.59251625
_cell_angle_alpha   90.00009435
_cell_angle_beta   90.00000000
_cell_angle_gamma   120.00001367
_symmetry_Int_Tables_number   1
_chemical_formula_structural   Te6Mo3WSe2
_chemical_formula_sum   'Te6 Mo3 W1 Se2'
_cell_volume   419.83598820
_cell_formula_units_Z   1
loop_
 _symmetry_equiv_pos_site_id
 _symmetry_equiv_pos_as_xyz
  1  'x, y, z'
loop_
 _atom_site_type_symbol
 _atom_site_label
 _atom_site_symmetry_multiplicity
 _atom_site_fract_x
 _atom_site_fract_y
 _atom_site_fract_z
 _atom_site_occupancy
  Te  Te0  1  0.33335577  0.66671254  0.32807375  1
  Te  Te1  1  0.33335414  0.66670929  0.70382167  1
  Te  Te2  1  0.66664005  0.33327909  0.42308837  1
  Te  Te3  1  0.66664873  0.33329645  0.51623473  1
  Te  Te4  1  0.33335562  0.66671224  0.23549539  1
  Te  Te5  1  0.33335634  0.66671368  0.61124533  1
  Mo  Mo6  1  0.33331074  0.66662148  0.09391849  1
  Mo  Mo7  1  0.66669238  0.33338476  0.28177200  1
  Mo  Mo8  1  0.66669095  0.33338190  0.65755040  1
  W  W9  1  0.33331059  0.66662119  0.46965885  1
  Se  Se10  1  0.66663935  0.33327769  0.05305581  1
  Se  Se11  1  0.66664535  0.33328969  0.13483321  1
