# generated using pymatgen
data_CaMg14Cr
_symmetry_space_group_name_H-M   'P 1'
_cell_length_a   6.46375616
_cell_length_b   6.43588389
_cell_length_c   10.41766084
_cell_angle_alpha   90.00000000
_cell_angle_beta   90.00000000
_cell_angle_gamma   119.85746500
_symmetry_Int_Tables_number   1
_chemical_formula_structural   CaMg14Cr
_chemical_formula_sum   'Ca1 Mg14 Cr1'
_cell_volume   375.85124073
_cell_formula_units_Z   1
loop_
 _symmetry_equiv_pos_site_id
 _symmetry_equiv_pos_as_xyz
  1  'x, y, z'
loop_
 _atom_site_type_symbol
 _atom_site_label
 _atom_site_symmetry_multiplicity
 _atom_site_fract_x
 _atom_site_fract_y
 _atom_site_fract_z
 _atom_site_occupancy
  Ca  Ca0  1  0.16477025  0.33238462  0.12500000  1
  Mg  Mg1  1  0.16723396  0.33361648  0.62500000  1
  Mg  Mg2  1  0.16598212  0.83299056  0.62500000  1
  Mg  Mg3  1  0.66113461  0.32532961  0.12500000  1
  Mg  Mg4  1  0.66635631  0.33424106  0.62500000  1
  Mg  Mg5  1  0.66113461  0.83580401  0.12500000  1
  Mg  Mg6  1  0.66635631  0.83211425  0.62500000  1
  Mg  Mg7  1  0.33437542  0.16047639  0.37787258  1
  Mg  Mg8  1  0.33437542  0.16047639  0.87212742  1
  Mg  Mg9  1  0.33437542  0.67390003  0.37787258  1
  Mg  Mg10  1  0.33437542  0.67390003  0.87212742  1
  Mg  Mg11  1  0.82997572  0.16498836  0.38389114  1
  Mg  Mg12  1  0.82997572  0.16498836  0.86610886  1
  Mg  Mg13  1  0.83937028  0.66968564  0.36649924  1
  Mg  Mg14  1  0.83937028  0.66968564  0.88350076  1
  Cr  Cr15  1  0.17083813  0.83541856  0.12500000  1
