# generated using pymatgen
data_TeMoWSe3
_symmetry_space_group_name_H-M   'P 1'
_cell_length_a   3.38322252
_cell_length_b   3.38320756
_cell_length_c   38.49897091
_cell_angle_alpha   89.99960570
_cell_angle_beta   89.99998912
_cell_angle_gamma   120.00008948
_symmetry_Int_Tables_number   1
_chemical_formula_structural   TeMoWSe3
_chemical_formula_sum   'Te2 Mo2 W2 Se6'
_cell_volume   381.62653688
_cell_formula_units_Z   2
loop_
 _symmetry_equiv_pos_site_id
 _symmetry_equiv_pos_as_xyz
  1  'x, y, z'
loop_
 _atom_site_type_symbol
 _atom_site_label
 _atom_site_symmetry_multiplicity
 _atom_site_fract_x
 _atom_site_fract_y
 _atom_site_fract_z
 _atom_site_occupancy
  Te  Te0  1  0.66665143  0.33330244  0.42058434  1
  Te  Te1  1  0.66664719  0.33329378  0.51873776  1
  Mo  Mo2  1  0.33330317  0.66660570  0.09392325  1
  Mo  Mo3  1  0.66669194  0.33338437  0.28175869  1
  W  W4  1  0.33331532  0.66662989  0.46964014  1
  W  W5  1  0.66669015  0.33338120  0.65755647  1
  Se  Se6  1  0.33335360  0.66670755  0.32476824  1
  Se  Se7  1  0.33336185  0.66672424  0.70069204  1
  Se  Se8  1  0.66663079  0.33326119  0.05095510  1
  Se  Se9  1  0.66664734  0.33329415  0.13692361  1
  Se  Se10  1  0.33335419  0.66670903  0.23881303  1
  Se  Se11  1  0.33335305  0.66670646  0.61439534  1
