# generated using pymatgen
data_NaMg14TiO16
_symmetry_space_group_name_H-M   'P 1'
_cell_length_a   8.56729025
_cell_length_b   8.57186413
_cell_length_c   4.27515420
_cell_angle_alpha   90.00000000
_cell_angle_beta   90.00000000
_cell_angle_gamma   90.00000000
_symmetry_Int_Tables_number   1
_chemical_formula_structural   NaMg14TiO16
_chemical_formula_sum   'Na1 Mg14 Ti1 O16'
_cell_volume   313.95726922
_cell_formula_units_Z   1
loop_
 _symmetry_equiv_pos_site_id
 _symmetry_equiv_pos_as_xyz
  1  'x, y, z'
loop_
 _atom_site_type_symbol
 _atom_site_label
 _atom_site_symmetry_multiplicity
 _atom_site_fract_x
 _atom_site_fract_y
 _atom_site_fract_z
 _atom_site_occupancy
  Na  Na0  1  -0.00000000  0.50000000  0.00000000  1
  Mg  Mg1  1  0.50000000  0.00000000  0.00000000  1
  Mg  Mg2  1  0.50000000  0.50000000  0.00000000  1
  Mg  Mg3  1  -0.00000000  0.25920238  0.50000000  1
  Mg  Mg4  1  -0.00000000  0.74079762  0.50000000  1
  Mg  Mg5  1  0.50000000  0.25242765  0.50000000  1
  Mg  Mg6  1  0.50000000  0.74757235  0.50000000  1
  Mg  Mg7  1  0.25281435  -0.00000000  0.50000000  1
  Mg  Mg8  1  0.24727567  0.50000000  0.50000000  1
  Mg  Mg9  1  0.74718565  0.00000000  0.50000000  1
  Mg  Mg10  1  0.75272433  0.50000000  0.50000000  1
  Mg  Mg11  1  0.25216963  0.25628887  0.00000000  1
  Mg  Mg12  1  0.25216963  0.74371113  -0.00000000  1
  Mg  Mg13  1  0.74783037  0.25628887  0.00000000  1
  Mg  Mg14  1  0.74783037  0.74371113  0.00000000  1
  Ti  Ti15  1  -0.00000000  -0.00000000  0.00000000  1
  O  O16  1  0.24745692  -0.00000000  0.00000000  1
  O  O17  1  0.26421925  0.50000000  0.00000000  1
  O  O18  1  0.75254308  -0.00000000  -0.00000000  1
  O  O19  1  0.73578075  0.50000000  0.00000000  1
  O  O20  1  0.24875788  0.24831106  0.50000000  1
  O  O21  1  0.24875788  0.75168894  0.50000000  1
  O  O22  1  0.75124212  0.24831106  0.50000000  1
  O  O23  1  0.75124212  0.75168894  0.50000000  1
  O  O24  1  -0.00000000  0.00000000  0.50000000  1
  O  O25  1  -0.00000000  0.50000000  0.50000000  1
  O  O26  1  0.50000000  0.00000000  0.50000000  1
  O  O27  1  0.50000000  0.50000000  0.50000000  1
  O  O28  1  -0.00000000  0.23231969  0.00000000  1
  O  O29  1  -0.00000000  0.76768031  -0.00000000  1
  O  O30  1  0.50000000  0.24478942  -0.00000000  1
  O  O31  1  0.50000000  0.75521058  0.00000000  1
