# generated using pymatgen
data_Te2Mo3W(Se2S)2
_symmetry_space_group_name_H-M   'P 1'
_cell_length_a   3.34191803
_cell_length_b   3.34191922
_cell_length_c   38.18365166
_cell_angle_alpha   89.99993787
_cell_angle_beta   90.00000029
_cell_angle_gamma   119.99997547
_symmetry_Int_Tables_number   1
_chemical_formula_structural   Te2Mo3W(Se2S)2
_chemical_formula_sum   'Te2 Mo3 W1 Se4 S2'
_cell_volume   369.31754463
_cell_formula_units_Z   1
loop_
 _symmetry_equiv_pos_site_id
 _symmetry_equiv_pos_as_xyz
  1  'x, y, z'
loop_
 _atom_site_type_symbol
 _atom_site_label
 _atom_site_symmetry_multiplicity
 _atom_site_fract_x
 _atom_site_fract_y
 _atom_site_fract_z
 _atom_site_occupancy
  Te  Te0  1  0.33335952  0.66671940  0.33146498  1
  Te  Te1  1  0.33335222  0.66670475  0.23212768  1
  Mo  Mo2  1  0.33330806  0.66661566  0.09382101  1
  Mo  Mo3  1  0.33331767  0.66663505  0.46975221  1
  Mo  Mo4  1  0.66668612  0.33337259  0.28179246  1
  W  W5  1  0.66668916  0.33337884  0.65753905  1
  Se  Se6  1  0.66664040  0.33328042  0.05016619  1
  Se  Se7  1  0.66664644  0.33329249  0.42605361  1
  Se  Se8  1  0.66664683  0.33329305  0.13751518  1
  Se  Se9  1  0.66664218  0.33328372  0.51344403  1
  S  S10  1  0.33335390  0.66670823  0.69742254  1
  S  S11  1  0.33335750  0.66671580  0.61764905  1
