# generated using pymatgen
data_TeMoWSe2S
_symmetry_space_group_name_H-M   'P 1'
_cell_length_a   3.34121377
_cell_length_b   3.34119344
_cell_length_c   38.07235363
_cell_angle_alpha   90.00086479
_cell_angle_beta   90.00000000
_cell_angle_gamma   120.00020120
_symmetry_Int_Tables_number   1
_chemical_formula_structural   TeMoWSe2S
_chemical_formula_sum   'Te2 Mo2 W2 Se4 S2'
_cell_volume   368.08266043
_cell_formula_units_Z   2
loop_
 _symmetry_equiv_pos_site_id
 _symmetry_equiv_pos_as_xyz
  1  'x, y, z'
loop_
 _atom_site_type_symbol
 _atom_site_label
 _atom_site_symmetry_multiplicity
 _atom_site_fract_x
 _atom_site_fract_y
 _atom_site_fract_z
 _atom_site_occupancy
  Te  Te0  1  0.33335541  0.66671182  0.33162418  1
  Te  Te1  1  0.33335797  0.66671693  0.23199810  1
  Mo  Mo2  1  0.33330867  0.66661734  0.09389219  1
  Mo  Mo3  1  0.66669071  0.33338142  0.28181938  1
  W  W4  1  0.33330661  0.66661321  0.46965704  1
  W  W5  1  0.66669056  0.33338112  0.65752588  1
  Se  Se6  1  0.33335330  0.66670760  0.70153758  1
  Se  Se7  1  0.66664768  0.33329436  0.05011018  1
  Se  Se8  1  0.66663854  0.33327607  0.13769450  1
  Se  Se9  1  0.33335930  0.66671960  0.61353464  1
  S  S10  1  0.66664298  0.33328495  0.42966104  1
  S  S11  1  0.66664829  0.33329557  0.50969329  1
