# generated using pymatgen
data_Te6Mo3WSe2
_symmetry_space_group_name_H-M   'P 1'
_cell_length_a   3.49704760
_cell_length_b   3.49705137
_cell_length_c   39.56878831
_cell_angle_alpha   89.99976438
_cell_angle_beta   90.00001078
_cell_angle_gamma   119.99994151
_symmetry_Int_Tables_number   1
_chemical_formula_structural   Te6Mo3WSe2
_chemical_formula_sum   'Te6 Mo3 W1 Se2'
_cell_volume   419.07060082
_cell_formula_units_Z   1
loop_
 _symmetry_equiv_pos_site_id
 _symmetry_equiv_pos_as_xyz
  1  'x, y, z'
loop_
 _atom_site_type_symbol
 _atom_site_label
 _atom_site_symmetry_multiplicity
 _atom_site_fract_x
 _atom_site_fract_y
 _atom_site_fract_z
 _atom_site_occupancy
  Te  Te0  1  0.33335594  0.66671235  0.32805772  1
  Te  Te1  1  0.33335396  0.66670857  0.70406256  1
  Te  Te2  1  0.66664563  0.33329086  0.42336894  1
  Te  Te3  1  0.66663754  0.33327441  0.51592944  1
  Te  Te4  1  0.33335211  0.66670497  0.23547548  1
  Te  Te5  1  0.33337394  0.66674844  0.61102111  1
  Mo  Mo6  1  0.33330708  0.66661350  0.09393114  1
  Mo  Mo7  1  0.33331045  0.66662021  0.46968953  1
  Mo  Mo8  1  0.66668957  0.33337955  0.28178743  1
  W  W9  1  0.66669064  0.33338208  0.65757094  1
  Se  Se10  1  0.66664235  0.33328418  0.05305418  1
  Se  Se11  1  0.66664079  0.33328088  0.13479952  1
