# generated using pymatgen
data_TeMoWSe2S
_symmetry_space_group_name_H-M   'P 1'
_cell_length_a   3.34041719
_cell_length_b   3.34049384
_cell_length_c   39.74569833
_cell_angle_alpha   90.00464814
_cell_angle_beta   90.00000996
_cell_angle_gamma   119.99923002
_symmetry_Int_Tables_number   1
_chemical_formula_structural   TeMoWSe2S
_chemical_formula_sum   'Te2 Mo2 W2 Se4 S2'
_cell_volume   384.09222541
_cell_formula_units_Z   2
loop_
 _symmetry_equiv_pos_site_id
 _symmetry_equiv_pos_as_xyz
  1  'x, y, z'
loop_
 _atom_site_type_symbol
 _atom_site_label
 _atom_site_symmetry_multiplicity
 _atom_site_fract_x
 _atom_site_fract_y
 _atom_site_fract_z
 _atom_site_occupancy
  Te  Te0  1  0.33342555  0.66685148  0.32939027  1
  Te  Te1  1  0.33332440  0.66664949  0.23387304  1
  Mo  Mo2  1  0.33327470  0.66654879  0.09318562  1
  Mo  Mo3  1  0.66670612  0.33341291  0.28162703  1
  W  W4  1  0.33334260  0.66668451  0.47055914  1
  W  W5  1  0.66667784  0.33335634  0.65753716  1
  Se  Se6  1  0.66657255  0.33314528  0.05122349  1
  Se  Se7  1  0.66668060  0.33336059  0.42840581  1
  Se  Se8  1  0.66663292  0.33326505  0.13516049  1
  Se  Se9  1  0.66668174  0.33336273  0.51272154  1
  S  S10  1  0.33335198  0.66670456  0.69585156  1
  S  S11  1  0.33332901  0.66665826  0.61921286  1
