# generated using pymatgen
data_CaMg14Bi
_symmetry_space_group_name_H-M   'P 1'
_cell_length_a   6.53168507
_cell_length_b   6.53168452
_cell_length_c   10.60055327
_cell_angle_alpha   90.00000000
_cell_angle_beta   90.00000000
_cell_angle_gamma   120.00000285
_symmetry_Int_Tables_number   1
_chemical_formula_structural   CaMg14Bi
_chemical_formula_sum   'Ca1 Mg14 Bi1'
_cell_volume   391.66033300
_cell_formula_units_Z   1
loop_
 _symmetry_equiv_pos_site_id
 _symmetry_equiv_pos_as_xyz
  1  'x, y, z'
loop_
 _atom_site_type_symbol
 _atom_site_label
 _atom_site_symmetry_multiplicity
 _atom_site_fract_x
 _atom_site_fract_y
 _atom_site_fract_z
 _atom_site_occupancy
  Ca  Ca0  1  0.16666700  0.33333300  0.12500000  1
  Mg  Mg1  1  0.17072802  0.83536351  0.12500000  1
  Mg  Mg2  1  0.16252737  0.83126319  0.62500000  1
  Mg  Mg3  1  0.66463649  0.32927198  0.12500000  1
  Mg  Mg4  1  0.66873681  0.33747263  0.62500000  1
  Mg  Mg5  1  0.66463649  0.83536351  0.12500000  1
  Mg  Mg6  1  0.66873681  0.83126319  0.62500000  1
  Mg  Mg7  1  0.33620174  0.16379826  0.37604585  1
  Mg  Mg8  1  0.33620174  0.16379826  0.87395415  1
  Mg  Mg9  1  0.33620174  0.67240448  0.37604585  1
  Mg  Mg10  1  0.33620174  0.67240448  0.87395415  1
  Mg  Mg11  1  0.82759552  0.16379826  0.37604585  1
  Mg  Mg12  1  0.82759552  0.16379826  0.87395415  1
  Mg  Mg13  1  0.83333300  0.66666700  0.37084549  1
  Mg  Mg14  1  0.83333300  0.66666700  0.87915451  1
  Bi  Bi15  1  0.16666700  0.33333300  0.62500000  1
