# generated using pymatgen
data_Mg30AlNiO32
_symmetry_space_group_name_H-M   'P 1'
_cell_length_a   8.47225388
_cell_length_b   8.52351273
_cell_length_c   8.52351273
_cell_angle_alpha   90.00000000
_cell_angle_beta   90.00000000
_cell_angle_gamma   90.00000000
_symmetry_Int_Tables_number   1
_chemical_formula_structural   Mg30AlNiO32
_chemical_formula_sum   'Mg30 Al1 Ni1 O32'
_cell_volume   615.51152561
_cell_formula_units_Z   1
loop_
 _symmetry_equiv_pos_site_id
 _symmetry_equiv_pos_as_xyz
  1  'x, y, z'
loop_
 _atom_site_type_symbol
 _atom_site_label
 _atom_site_symmetry_multiplicity
 _atom_site_fract_x
 _atom_site_fract_y
 _atom_site_fract_z
 _atom_site_occupancy
  Mg  Mg0  1  0.00000000  0.00000000  0.50000000  1
  Mg  Mg1  1  0.00000000  0.50000000  0.00000000  1
  Mg  Mg2  1  0.50000000  0.00000000  0.00000000  1
  Mg  Mg3  1  0.50000000  0.00000000  0.50000000  1
  Mg  Mg4  1  0.50000000  0.50000000  0.00000000  1
  Mg  Mg5  1  0.50000000  0.50000000  0.50000000  1
  Mg  Mg6  1  0.00000000  0.25396712  0.25396712  1
  Mg  Mg7  1  0.00000000  0.25396712  0.74603288  1
  Mg  Mg8  1  0.00000000  0.74603288  0.25396712  1
  Mg  Mg9  1  0.00000000  0.74603288  0.74603288  1
  Mg  Mg10  1  0.50000000  0.25121939  0.25121939  1
  Mg  Mg11  1  0.50000000  0.25121939  0.74878061  1
  Mg  Mg12  1  0.50000000  0.74878061  0.25121939  1
  Mg  Mg13  1  0.50000000  0.74878061  0.74878061  1
  Mg  Mg14  1  0.24985217  0.00000000  0.25144812  1
  Mg  Mg15  1  0.24985217  0.00000000  0.74855188  1
  Mg  Mg16  1  0.24730501  0.50000000  0.25246741  1
  Mg  Mg17  1  0.24730501  0.50000000  0.74753259  1
  Mg  Mg18  1  0.75014783  0.00000000  0.25144812  1
  Mg  Mg19  1  0.75014783  0.00000000  0.74855188  1
  Mg  Mg20  1  0.75269499  0.50000000  0.25246741  1
  Mg  Mg21  1  0.75269499  0.50000000  0.74753259  1
  Mg  Mg22  1  0.24985217  0.25144812  0.00000000  1
  Mg  Mg23  1  0.24730501  0.25246741  0.50000000  1
  Mg  Mg24  1  0.24985217  0.74855188  0.00000000  1
  Mg  Mg25  1  0.24730501  0.74753259  0.50000000  1
  Mg  Mg26  1  0.75014783  0.25144812  0.00000000  1
  Mg  Mg27  1  0.75269499  0.25246741  0.50000000  1
  Mg  Mg28  1  0.75014783  0.74855188  0.00000000  1
  Mg  Mg29  1  0.75269499  0.74753259  0.50000000  1
  Al  Al30  1  0.00000000  0.00000000  0.00000000  1
  Ni  Ni31  1  0.00000000  0.50000000  0.50000000  1
  O  O32  1  0.23615094  0.00000000  0.00000000  1
  O  O33  1  0.25024957  0.00000000  0.50000000  1
  O  O34  1  0.25024957  0.50000000  0.00000000  1
  O  O35  1  0.25716829  0.50000000  0.50000000  1
  O  O36  1  0.76384906  0.00000000  0.00000000  1
  O  O37  1  0.74975043  0.00000000  0.50000000  1
  O  O38  1  0.74975043  0.50000000  0.00000000  1
  O  O39  1  0.74283171  0.50000000  0.50000000  1
  O  O40  1  0.24950059  0.24959914  0.24959914  1
  O  O41  1  0.24950059  0.24959914  0.75040086  1
  O  O42  1  0.24950059  0.75040086  0.24959914  1
  O  O43  1  0.24950059  0.75040086  0.75040086  1
  O  O44  1  0.75049941  0.24959914  0.24959914  1
  O  O45  1  0.75049941  0.24959914  0.75040086  1
  O  O46  1  0.75049941  0.75040086  0.24959914  1
  O  O47  1  0.75049941  0.75040086  0.75040086  1
  O  O48  1  0.00000000  0.00000000  0.23206705  1
  O  O49  1  0.00000000  0.00000000  0.76793295  1
  O  O50  1  0.00000000  0.50000000  0.23264217  1
  O  O51  1  0.00000000  0.50000000  0.76735783  1
  O  O52  1  0.50000000  0.00000000  0.24670669  1
  O  O53  1  0.50000000  0.00000000  0.75329331  1
  O  O54  1  0.50000000  0.50000000  0.24815038  1
  O  O55  1  0.50000000  0.50000000  0.75184962  1
  O  O56  1  0.00000000  0.23206705  0.00000000  1
  O  O57  1  0.00000000  0.23264217  0.50000000  1
  O  O58  1  0.00000000  0.76793295  0.00000000  1
  O  O59  1  0.00000000  0.76735783  0.50000000  1
  O  O60  1  0.50000000  0.24670669  0.00000000  1
  O  O61  1  0.50000000  0.24815038  0.50000000  1
  O  O62  1  0.50000000  0.75329331  0.00000000  1
  O  O63  1  0.50000000  0.75184962  0.50000000  1
