# generated using pymatgen
data_Mg30TiVO32
_symmetry_space_group_name_H-M   'P 1'
_cell_length_a   8.55771370
_cell_length_b   8.53337113
_cell_length_c   8.53337113
_cell_angle_alpha   90.00000000
_cell_angle_beta   90.00000000
_cell_angle_gamma   90.00000000
_symmetry_Int_Tables_number   1
_chemical_formula_structural   Mg30TiVO32
_chemical_formula_sum   'Mg30 Ti1 V1 O32'
_cell_volume   623.15921477
_cell_formula_units_Z   1
loop_
 _symmetry_equiv_pos_site_id
 _symmetry_equiv_pos_as_xyz
  1  'x, y, z'
loop_
 _atom_site_type_symbol
 _atom_site_label
 _atom_site_symmetry_multiplicity
 _atom_site_fract_x
 _atom_site_fract_y
 _atom_site_fract_z
 _atom_site_occupancy
  Mg  Mg0  1  0.00000000  -0.00000000  0.50000000  1
  Mg  Mg1  1  0.00000000  0.50000000  -0.00000000  1
  Mg  Mg2  1  0.50000000  -0.00000000  -0.00000000  1
  Mg  Mg3  1  0.50000000  -0.00000000  0.50000000  1
  Mg  Mg4  1  0.50000000  0.50000000  -0.00000000  1
  Mg  Mg5  1  0.50000000  0.50000000  0.50000000  1
  Mg  Mg6  1  0.00000000  0.24888178  0.24888178  1
  Mg  Mg7  1  0.00000000  0.24888178  0.75111822  1
  Mg  Mg8  1  0.00000000  0.75111822  0.24888178  1
  Mg  Mg9  1  0.00000000  0.75111822  0.75111822  1
  Mg  Mg10  1  0.50000000  0.25012733  0.25012733  1
  Mg  Mg11  1  0.50000000  0.25012733  0.74987267  1
  Mg  Mg12  1  0.50000000  0.74987267  0.25012733  1
  Mg  Mg13  1  0.50000000  0.74987267  0.74987267  1
  Mg  Mg14  1  0.25082462  -0.00000000  0.25070555  1
  Mg  Mg15  1  0.25082462  -0.00000000  0.74929445  1
  Mg  Mg16  1  0.25107167  0.50000000  0.25014399  1
  Mg  Mg17  1  0.25107167  0.50000000  0.74985601  1
  Mg  Mg18  1  0.74917538  -0.00000000  0.25070555  1
  Mg  Mg19  1  0.74917538  -0.00000000  0.74929445  1
  Mg  Mg20  1  0.74892833  0.50000000  0.25014399  1
  Mg  Mg21  1  0.74892833  0.50000000  0.74985601  1
  Mg  Mg22  1  0.25082462  0.25070555  -0.00000000  1
  Mg  Mg23  1  0.25107167  0.25014399  0.50000000  1
  Mg  Mg24  1  0.25082462  0.74929445  -0.00000000  1
  Mg  Mg25  1  0.25107167  0.74985601  0.50000000  1
  Mg  Mg26  1  0.74917538  0.25070555  -0.00000000  1
  Mg  Mg27  1  0.74892833  0.25014399  0.50000000  1
  Mg  Mg28  1  0.74917538  0.74929445  -0.00000000  1
  Mg  Mg29  1  0.74892833  0.74985601  0.50000000  1
  Ti  Ti30  1  0.00000000  0.50000000  0.50000000  1
  V  V31  1  0.00000000  -0.00000000  -0.00000000  1
  O  O32  1  0.25486947  -0.00000000  -0.00000000  1
  O  O33  1  0.25045022  -0.00000000  0.50000000  1
  O  O34  1  0.25045022  0.50000000  -0.00000000  1
  O  O35  1  0.25936903  0.50000000  0.50000000  1
  O  O36  1  0.74513053  -0.00000000  -0.00000000  1
  O  O37  1  0.74954978  -0.00000000  0.50000000  1
  O  O38  1  0.74954978  0.50000000  -0.00000000  1
  O  O39  1  0.74063097  0.50000000  0.50000000  1
  O  O40  1  0.24922581  0.24992705  0.24992705  1
  O  O41  1  0.24922581  0.24992705  0.75007295  1
  O  O42  1  0.24922581  0.75007295  0.24992705  1
  O  O43  1  0.24922581  0.75007295  0.75007295  1
  O  O44  1  0.75077419  0.24992705  0.24992705  1
  O  O45  1  0.75077419  0.24992705  0.75007295  1
  O  O46  1  0.75077419  0.75007295  0.24992705  1
  O  O47  1  0.75077419  0.75007295  0.75007295  1
  O  O48  1  0.00000000  -0.00000000  0.25497194  1
  O  O49  1  0.00000000  -0.00000000  0.74502806  1
  O  O50  1  0.00000000  0.50000000  0.24699786  1
  O  O51  1  0.00000000  0.50000000  0.75300214  1
  O  O52  1  0.50000000  -0.00000000  0.25026144  1
  O  O53  1  0.50000000  -0.00000000  0.74973856  1
  O  O54  1  0.50000000  0.50000000  0.24895147  1
  O  O55  1  0.50000000  0.50000000  0.75104853  1
  O  O56  1  0.00000000  0.25497194  -0.00000000  1
  O  O57  1  0.00000000  0.24699786  0.50000000  1
  O  O58  1  0.00000000  0.74502806  -0.00000000  1
  O  O59  1  0.00000000  0.75300214  0.50000000  1
  O  O60  1  0.50000000  0.25026144  -0.00000000  1
  O  O61  1  0.50000000  0.24895147  0.50000000  1
  O  O62  1  0.50000000  0.74973856  -0.00000000  1
  O  O63  1  0.50000000  0.75104853  0.50000000  1
