# generated using pymatgen
data_CaV2O4
_symmetry_space_group_name_H-M   'P 1'
_cell_length_a   6.29879247
_cell_length_b   6.30472739
_cell_length_c   18.91855158
_cell_angle_alpha   59.95105702
_cell_angle_beta   60.25697824
_cell_angle_gamma   59.88870799
_symmetry_Int_Tables_number   1
_chemical_formula_structural   CaV2O4
_chemical_formula_sum   'Ca6 V12 O24'
_cell_volume   531.62274809
_cell_formula_units_Z   6
loop_
 _symmetry_equiv_pos_site_id
 _symmetry_equiv_pos_as_xyz
  1  'x, y, z'
loop_
 _atom_site_type_symbol
 _atom_site_label
 _atom_site_symmetry_multiplicity
 _atom_site_fract_x
 _atom_site_fract_y
 _atom_site_fract_z
 _atom_site_occupancy
  Ca  Ca0  1  0.12212188  0.12184476  0.04481767  1
  Ca  Ca1  1  0.12111528  0.12282328  0.37752784  1
  Ca  Ca2  1  0.49968002  0.49999736  0.00070122  1
  Ca  Ca3  1  0.12389700  0.12305781  0.71021917  1
  Ca  Ca4  1  0.87912067  0.87999406  0.28755553  1
  Ca  Ca5  1  0.87411523  0.87408985  0.62585281  1
  V  V6  1  0.00087202  0.49475484  0.16964633  1
  V  V7  1  0.49605509  0.49463650  0.16992897  1
  V  V8  1  0.00024360  0.50077136  0.49950295  1
  V  V9  1  0.49512126  0.00094840  0.16998904  1
  V  V10  1  0.50014695  0.49718544  0.33489824  1
  V  V11  1  0.49884690  0.50072010  0.49933825  1
  V  V12  1  0.01036693  0.50023930  0.83107420  1
  V  V13  1  0.49922160  0.00199315  0.49905044  1
  V  V14  1  0.49856069  0.00941215  0.83135144  1
  V  V15  1  0.50114659  0.50540376  0.66302783  1
  V  V16  1  0.50008558  0.49693062  0.83112681  1
  V  V17  1  0.87835660  0.87745263  0.95554339  1
  O  O18  1  0.24652692  0.24485583  0.10378129  1
  O  O19  1  0.26297238  0.26143128  0.23814430  1
  O  O20  1  0.24486736  0.69820306  0.10388596  1
  O  O21  1  0.69843280  0.24375192  0.10390103  1
  O  O22  1  0.31057635  0.72655635  0.24484477  1
  O  O23  1  0.27262333  0.27216207  0.41991526  1
  O  O24  1  0.73298361  0.30903293  0.24220929  1
  O  O25  1  0.75230591  0.75250001  0.08076241  1
  O  O26  1  0.26009203  0.69480725  0.42730916  1
  O  O27  1  0.26286559  0.25731280  0.56681699  1
  O  O28  1  0.72842342  0.72479817  0.24571804  1
  O  O29  1  0.69398601  0.27311218  0.42367109  1
  O  O30  1  0.30207667  0.73152290  0.57525574  1
  O  O31  1  0.26791409  0.27999983  0.75175838  1
  O  O32  1  0.73685744  0.30295260  0.57363187  1
  O  O33  1  0.73773280  0.74289649  0.43237590  1
  O  O34  1  0.26851026  0.26717386  0.89773267  1
  O  O35  1  0.27702975  0.69531867  0.75421182  1
  O  O36  1  0.72801039  0.73140772  0.57934121  1
  O  O37  1  0.69507496  0.26723173  0.75320858  1
  O  O38  1  0.26456367  0.76718562  0.90332690  1
  O  O39  1  0.73043881  0.73176485  0.76998969  1
  O  O40  1  0.75808832  0.26464465  0.90319863  1
  O  O41  1  0.76797122  0.75712285  0.90385891  1
