# generated using pymatgen
data_MgCd
_symmetry_space_group_name_H-M   'P 1'
_cell_length_a   9.63215128
_cell_length_b   5.28664332
_cell_length_c   6.08488757
_cell_angle_alpha   90.00000000
_cell_angle_beta   121.77402634
_cell_angle_gamma   90.00000000
_symmetry_Int_Tables_number   1
_chemical_formula_structural   MgCd
_chemical_formula_sum   'Mg6 Cd6'
_cell_volume   263.41588796
_cell_formula_units_Z   6
loop_
 _symmetry_equiv_pos_site_id
 _symmetry_equiv_pos_as_xyz
  1  'x, y, z'
loop_
 _atom_site_type_symbol
 _atom_site_label
 _atom_site_symmetry_multiplicity
 _atom_site_fract_x
 _atom_site_fract_y
 _atom_site_fract_z
 _atom_site_occupancy
  Mg  Mg0  1  0.66405047  0.66234702  0.00129744  1
  Mg  Mg1  1  0.33594953  0.66234702  0.99870256  1
  Mg  Mg2  1  0.00000000  0.50806820  0.50000000  1
  Mg  Mg3  1  0.16405047  0.16234702  0.00129744  1
  Mg  Mg4  1  0.83594953  0.16234702  0.99870256  1
  Mg  Mg5  1  0.50000000  0.00806820  0.50000000  1
  Cd  Cd6  1  0.00000000  0.66083249  0.00000000  1
  Cd  Cd7  1  0.33426658  0.50320314  0.50460623  1
  Cd  Cd8  1  0.66573342  0.50320314  0.49539377  1
  Cd  Cd9  1  0.50000000  0.16083249  0.00000000  1
  Cd  Cd10  1  0.83426658  0.00320314  0.50460623  1
  Cd  Cd11  1  0.16573342  0.00320314  0.49539377  1
