# generated using pymatgen
data_Si3H
_symmetry_space_group_name_H-M   'P 1'
_cell_length_a   3.87699917
_cell_length_b   3.87644360
_cell_length_c   11.42913526
_cell_angle_alpha   80.23438175
_cell_angle_beta   80.23483382
_cell_angle_gamma   59.99526033
_symmetry_Int_Tables_number   1
_chemical_formula_structural   Si3H
_chemical_formula_sum   'Si6 H2'
_cell_volume   145.86779346
_cell_formula_units_Z   2
loop_
 _symmetry_equiv_pos_site_id
 _symmetry_equiv_pos_as_xyz
  1  'x, y, z'
loop_
 _atom_site_type_symbol
 _atom_site_label
 _atom_site_symmetry_multiplicity
 _atom_site_fract_x
 _atom_site_fract_y
 _atom_site_fract_z
 _atom_site_occupancy
  Si  Si0  1  0.41617279  0.41621242  0.75144200  1
  Si  Si1  1  0.58382721  0.58378758  0.24855800  1
  Si  Si2  1  0.34507239  0.34500862  0.96484659  1
  Si  Si3  1  0.65492761  0.65499138  0.03515341  1
  Si  Si4  1  0.77206755  0.77212567  0.68373922  1
  Si  Si5  1  0.22793245  0.22787433  0.31626078  1
  H  H6  1  0.81679648  0.81682248  0.54958456  1
  H  H7  1  0.18320352  0.18317752  0.45041544  1
