# generated using pymatgen
data_MgFe3P3O13
_symmetry_space_group_name_H-M   'P 1'
_cell_length_a   6.34089553
_cell_length_b   7.64587175
_cell_length_c   10.12453217
_cell_angle_alpha   100.21329626
_cell_angle_beta   90.00000000
_cell_angle_gamma   90.00000000
_symmetry_Int_Tables_number   1
_chemical_formula_structural   MgFe3P3O13
_chemical_formula_sum   'Mg2 Fe6 P6 O26'
_cell_volume   483.07643018
_cell_formula_units_Z   2
loop_
 _symmetry_equiv_pos_site_id
 _symmetry_equiv_pos_as_xyz
  1  'x, y, z'
loop_
 _atom_site_type_symbol
 _atom_site_label
 _atom_site_symmetry_multiplicity
 _atom_site_fract_x
 _atom_site_fract_y
 _atom_site_fract_z
 _atom_site_occupancy
  Mg  Mg0  1  0.75000000  0.62624959  0.17763085  1
  Mg  Mg1  1  0.25000000  0.37375041  0.82236915  1
  Fe  Fe2  1  0.25000000  0.35348850  0.20804371  1
  Fe  Fe3  1  0.75000000  0.64651150  0.79195629  1
  Fe  Fe4  1  0.25000000  0.78295252  0.43258236  1
  Fe  Fe5  1  0.50000000  0.00000000  -0.00000000  1
  Fe  Fe6  1  0.75000000  0.21704748  0.56741764  1
  Fe  Fe7  1  -0.00000000  0.00000000  -0.00000000  1
  P  P8  1  0.25000000  0.21606104  0.49873665  1
  P  P9  1  0.75000000  0.78393896  0.50126335  1
  P  P10  1  0.25000000  0.72661513  0.75973215  1
  P  P11  1  0.75000000  0.27338487  0.24026785  1
  P  P12  1  0.75000000  0.31969917  0.89004744  1
  P  P13  1  0.25000000  0.68030083  0.10995256  1
  O  O14  1  0.75000000  0.37114837  0.74775405  1
  O  O15  1  0.56038978  0.74842602  0.40296728  1
  O  O16  1  0.25000000  0.77827805  0.62198874  1
  O  O17  1  0.54218032  0.21474783  0.90166977  1
  O  O18  1  0.75000000  0.65381886  0.60087892  1
  O  O19  1  0.75000000  0.87817520  0.90382154  1
  O  O20  1  0.25000000  0.34618114  0.39912108  1
  O  O21  1  0.04218032  0.78525217  0.09833023  1
  O  O22  1  0.25000000  0.02554114  0.41620764  1
  O  O23  1  0.75000000  0.97445886  0.58379236  1
  O  O24  1  0.06283761  0.60718795  0.78593921  1
  O  O25  1  0.25000000  0.12182480  0.09617846  1
  O  O26  1  0.56283761  0.39281205  0.21406079  1
  O  O27  1  0.75000000  0.50637337  0.97878633  1
  O  O28  1  0.75000000  0.22172195  0.37801126  1
  O  O29  1  0.45781968  0.78525217  0.09833023  1
  O  O30  1  0.93961022  0.74842602  0.40296728  1
  O  O31  1  0.43961022  0.25157398  0.59703272  1
  O  O32  1  0.43716239  0.60718795  0.78593921  1
  O  O33  1  0.25000000  0.62885163  0.25224595  1
  O  O34  1  0.75000000  0.09891455  0.13116887  1
  O  O35  1  0.25000000  0.90108545  0.86883113  1
  O  O36  1  0.93716239  0.39281205  0.21406079  1
  O  O37  1  0.95781968  0.21474783  0.90166977  1
  O  O38  1  0.06038978  0.25157398  0.59703272  1
  O  O39  1  0.25000000  0.49362663  0.02121367  1
