# generated using pymatgen
data_BaMgBiF7
_symmetry_space_group_name_H-M   'P 1'
_cell_length_a   5.71258608
_cell_length_b   9.92136934
_cell_length_c   10.78742638
_cell_angle_alpha   90.00000000
_cell_angle_beta   90.00000000
_cell_angle_gamma   91.42889771
_symmetry_Int_Tables_number   1
_chemical_formula_structural   BaMgBiF7
_chemical_formula_sum   'Ba4 Mg4 Bi4 F28'
_cell_volume   611.20535485
_cell_formula_units_Z   4
loop_
 _symmetry_equiv_pos_site_id
 _symmetry_equiv_pos_as_xyz
  1  'x, y, z'
loop_
 _atom_site_type_symbol
 _atom_site_label
 _atom_site_symmetry_multiplicity
 _atom_site_fract_x
 _atom_site_fract_y
 _atom_site_fract_z
 _atom_site_occupancy
  Ba  Ba0  1  0.25610338  0.49145571  0.33225997  1
  Ba  Ba1  1  0.74389662  0.00854429  0.83225997  1
  Ba  Ba2  1  0.74389662  0.50854429  0.66774003  1
  Ba  Ba3  1  0.25610338  0.99145571  0.16773903  1
  Mg  Mg4  1  0.69618389  0.80139528  0.37389058  1
  Mg  Mg5  1  0.30381611  0.69860472  0.87389058  1
  Mg  Mg6  1  0.69618389  0.30139528  0.12610942  1
  Mg  Mg7  1  0.30381611  0.19860472  0.62610942  1
  Bi  Bi8  1  0.22299067  0.83296716  0.58534167  1
  Bi  Bi9  1  0.77700933  0.16703284  0.41465833  1
  Bi  Bi10  1  0.22299067  0.33296716  0.91465833  1
  Bi  Bi11  1  0.77700933  0.66703284  0.08534167  1
  F  F12  1  0.14454283  0.12413554  0.47491264  1
  F  F13  1  0.40059908  0.40697515  0.09849999  1
  F  F14  1  0.50167976  0.76642901  0.72691995  1
  F  F15  1  0.49832024  0.23357099  0.27308005  1
  F  F16  1  0.91709437  0.37214824  0.46484158  1
  F  F17  1  0.20137347  0.52363216  0.78851625  1
  F  F18  1  0.03502474  0.77476261  0.77410484  1
  F  F19  1  0.08290563  0.12785176  0.96484158  1
  F  F20  1  0.40059908  0.90697515  0.40150001  1
  F  F21  1  0.49832024  0.73357099  0.22691995  1
  F  F22  1  0.14454283  0.62413554  0.02508736  1
  F  F23  1  0.85545717  0.87586446  0.52508736  1
  F  F24  1  0.96497526  0.72523739  0.27410484  1
  F  F25  1  0.44301463  0.84840760  0.97236184  1
  F  F26  1  0.08290563  0.62785176  0.53515842  1
  F  F27  1  0.91709437  0.87214824  0.03515842  1
  F  F28  1  0.96497526  0.22523739  0.22589516  1
  F  F29  1  0.85545717  0.37586446  0.97491264  1
  F  F30  1  0.55698537  0.65159240  0.47236184  1
  F  F31  1  0.59940092  0.59302485  0.90150001  1
  F  F32  1  0.55698537  0.15159240  0.02763816  1
  F  F33  1  0.03502474  0.27476261  0.72589516  1
  F  F34  1  0.44301463  0.34840760  0.52763816  1
  F  F35  1  0.79862653  0.97636784  0.28851625  1
  F  F36  1  0.79862653  0.47636784  0.21148375  1
  F  F37  1  0.20137347  0.02363216  0.71148375  1
  F  F38  1  0.59940092  0.09302485  0.59849999  1
  F  F39  1  0.50167976  0.26642901  0.77308005  1
