# generated using pymatgen
data_CeMg
_symmetry_space_group_name_H-M   'P 1'
_cell_length_a   13.04853911
_cell_length_b   3.16976479
_cell_length_c   7.65289488
_cell_angle_alpha   90.00000000
_cell_angle_beta   104.24648113
_cell_angle_gamma   90.00000000
_symmetry_Int_Tables_number   1
_chemical_formula_structural   CeMg
_chemical_formula_sum   'Ce6 Mg6'
_cell_volume   306.79530212
_cell_formula_units_Z   6
loop_
 _symmetry_equiv_pos_site_id
 _symmetry_equiv_pos_as_xyz
  1  'x, y, z'
loop_
 _atom_site_type_symbol
 _atom_site_label
 _atom_site_symmetry_multiplicity
 _atom_site_fract_x
 _atom_site_fract_y
 _atom_site_fract_z
 _atom_site_occupancy
  Ce  Ce0  1  0.33387413  -0.00000000  0.65517560  1
  Ce  Ce1  1  0.42118688  0.50000000  0.39205748  1
  Ce  Ce2  1  0.30065017  0.00000000  0.07038495  1
  Ce  Ce3  1  0.83387413  0.50000000  0.65517560  1
  Ce  Ce4  1  0.92118688  -0.00000000  0.39205748  1
  Ce  Ce5  1  0.80065017  0.50000000  0.07038495  1
  Mg  Mg6  1  0.01574642  -0.00000000  0.00105154  1
  Mg  Mg7  1  0.10994822  0.50000000  0.72121193  1
  Mg  Mg8  1  0.15192718  0.50000000  0.32678550  1
  Mg  Mg9  1  0.51574642  0.50000000  0.00105154  1
  Mg  Mg10  1  0.60994822  0.00000000  0.72121193  1
  Mg  Mg11  1  0.65192718  -0.00000000  0.32678550  1
