# generated using pymatgen
data_Sn(GeO3)2
_symmetry_space_group_name_H-M   'P 1'
_cell_length_a   5.63226388
_cell_length_b   9.16107563
_cell_length_c   10.01726525
_cell_angle_alpha   90.00000000
_cell_angle_beta   104.86482235
_cell_angle_gamma   90.00000000
_symmetry_Int_Tables_number   1
_chemical_formula_structural   Sn(GeO3)2
_chemical_formula_sum   'Sn4 Ge8 O24'
_cell_volume   499.56921498
_cell_formula_units_Z   4
loop_
 _symmetry_equiv_pos_site_id
 _symmetry_equiv_pos_as_xyz
  1  'x, y, z'
loop_
 _atom_site_type_symbol
 _atom_site_label
 _atom_site_symmetry_multiplicity
 _atom_site_fract_x
 _atom_site_fract_y
 _atom_site_fract_z
 _atom_site_occupancy
  Sn  Sn0  1  0.99349153  0.64495416  0.24896399  1
  Sn  Sn1  1  0.50650847  0.14495416  0.75103601  1
  Sn  Sn2  1  0.00650847  0.35504584  0.75103601  1
  Sn  Sn3  1  0.49349153  0.85504584  0.24896399  1
  Ge  Ge4  1  0.81979380  0.33450788  0.05071122  1
  Ge  Ge5  1  0.68020620  0.83450788  0.94928878  1
  Ge  Ge6  1  0.18020620  0.66549212  0.94928878  1
  Ge  Ge7  1  0.31979380  0.16549212  0.05071122  1
  Ge  Ge8  1  0.18948636  0.33698398  0.45389649  1
  Ge  Ge9  1  0.31051364  0.83698398  0.54610351  1
  Ge  Ge10  1  0.81051364  0.66301602  0.54610351  1
  Ge  Ge11  1  0.68948636  0.16301602  0.45389649  1
  O  O12  1  0.40375652  0.24492231  0.38452783  1
  O  O13  1  0.09624348  0.74492231  0.61547217  1
  O  O14  1  0.59624348  0.75507769  0.61547217  1
  O  O15  1  0.90375652  0.25507769  0.38452783  1
  O  O16  1  0.13085496  0.28739867  0.11243966  1
  O  O17  1  0.36914504  0.78739867  0.88756034  1
  O  O18  1  0.86914504  0.71260133  0.88756134  1
  O  O19  1  0.63085496  0.21260133  0.11243866  1
  O  O20  1  0.68283287  0.97862635  0.40700330  1
  O  O21  1  0.81716713  0.47862635  0.59299670  1
  O  O22  1  0.31716713  0.02137365  0.59299670  1
  O  O23  1  0.18283287  0.52137365  0.40700330  1
  O  O24  1  0.28855844  0.98677745  0.10411345  1
  O  O25  1  0.21144156  0.48677745  0.89588655  1
  O  O26  1  0.71144156  0.01322255  0.89588655  1
  O  O27  1  0.78855844  0.51322255  0.10411345  1
  O  O28  1  0.73890083  0.31929400  0.86309148  1
  O  O29  1  0.76109917  0.81929400  0.13690852  1
  O  O30  1  0.26109917  0.68070600  0.13690852  1
  O  O31  1  0.23890083  0.18070600  0.86309148  1
  O  O32  1  0.27654904  0.31882670  0.64100396  1
  O  O33  1  0.22345096  0.81882670  0.35899604  1
  O  O34  1  0.72345096  0.68117330  0.35899604  1
  O  O35  1  0.77654904  0.18117330  0.64100396  1
