# generated using pymatgen
data_Li3Mn4O8
_symmetry_space_group_name_H-M   'P 1'
_cell_length_a   10.29589812
_cell_length_b   10.29589832
_cell_length_c   5.31720273
_cell_angle_alpha   33.99792855
_cell_angle_beta   33.99792963
_cell_angle_gamma   32.62012182
_symmetry_Int_Tables_number   1
_chemical_formula_structural   Li3Mn4O8
_chemical_formula_sum   'Li3 Mn4 O8'
_cell_volume   153.07726297
_cell_formula_units_Z   1
loop_
 _symmetry_equiv_pos_site_id
 _symmetry_equiv_pos_as_xyz
  1  'x, y, z'
loop_
 _atom_site_type_symbol
 _atom_site_label
 _atom_site_symmetry_multiplicity
 _atom_site_fract_x
 _atom_site_fract_y
 _atom_site_fract_z
 _atom_site_occupancy
  Li  Li0  1  0.24745548  0.24745548  0.52097208  1
  Li  Li1  1  0.24822056  0.75103750  0.50040818  1
  Li  Li2  1  0.75103750  0.24822056  0.50040818  1
  Mn  Mn3  1  0.99645197  0.99645197  0.00301588  1
  Mn  Mn4  1  0.99846303  0.50139426  0.00048075  1
  Mn  Mn5  1  0.50139426  0.99846303  0.00048075  1
  Mn  Mn6  1  0.50303563  0.50303563  0.99713400  1
  O  O7  1  0.14288547  0.14288447  0.20142389  1
  O  O8  1  0.15638152  0.62962418  0.20179796  1
  O  O9  1  0.62962518  0.15638052  0.20179796  1
  O  O10  1  0.61951748  0.61951648  0.32597214  1
  O  O11  1  0.37888033  0.37887733  0.69423413  1
  O  O12  1  0.34973295  0.86523919  0.79456841  1
  O  O13  1  0.86524219  0.34972995  0.79456841  1
  O  O14  1  0.86168947  0.86168647  0.76273427  1
