# generated using pymatgen
data_MgTi2O4
_symmetry_space_group_name_H-M   'P 1'
_cell_length_a   2.91010065
_cell_length_b   10.01379596
_cell_length_c   9.64629393
_cell_angle_alpha   90.00422420
_cell_angle_beta   89.99588078
_cell_angle_gamma   89.98752550
_symmetry_Int_Tables_number   1
_chemical_formula_structural   MgTi2O4
_chemical_formula_sum   'Mg4 Ti8 O16'
_cell_volume   281.10412996
_cell_formula_units_Z   4
loop_
 _symmetry_equiv_pos_site_id
 _symmetry_equiv_pos_as_xyz
  1  'x, y, z'
loop_
 _atom_site_type_symbol
 _atom_site_label
 _atom_site_symmetry_multiplicity
 _atom_site_fract_x
 _atom_site_fract_y
 _atom_site_fract_z
 _atom_site_occupancy
  Mg  Mg0  1  0.25840789  0.74963006  0.13059150  1
  Mg  Mg1  1  0.25805746  0.24966255  0.36936339  1
  Mg  Mg2  1  0.74194417  0.75039805  0.63053670  1
  Mg  Mg3  1  0.74160543  0.25036271  0.86947718  1
  Ti  Ti4  1  0.75266345  0.56983639  0.37704258  1
  Ti  Ti5  1  0.75279872  0.06971958  0.12318094  1
  Ti  Ti6  1  0.24708546  0.06994218  0.62322032  1
  Ti  Ti7  1  0.75285427  0.43019590  0.12347758  1
  Ti  Ti8  1  0.24733479  0.43015481  0.62283836  1
  Ti  Ti9  1  0.75294523  0.93014605  0.37663034  1
  Ti  Ti10  1  0.24720240  0.93020391  0.87701698  1
  Ti  Ti11  1  0.24713451  0.56982589  0.87659538  1
  O  O12  1  0.25057589  0.88322644  0.52483049  1
  O  O13  1  0.74943906  0.11679338  0.47537859  1
  O  O14  1  0.25306950  0.00013273  0.25013992  1
  O  O15  1  0.74966506  0.88313944  0.02468359  1
  O  O16  1  0.74941010  0.61668237  0.02457972  1
  O  O17  1  0.75690447  0.25011306  0.21469387  1
  O  O18  1  0.25030349  0.11682374  0.97523858  1
  O  O19  1  0.24288868  0.24987276  0.71479497  1
  O  O20  1  0.25298264  0.50035048  0.24996730  1
  O  O21  1  0.74693277  0.99990788  0.74985240  1
  O  O22  1  0.25020747  0.61694329  0.52486708  1
  O  O23  1  0.24305314  0.74999022  0.78527046  1
  O  O24  1  0.75714317  0.74998096  0.28518470  1
  O  O25  1  0.74701049  0.49962423  0.75001740  1
  O  O26  1  0.25054960  0.38332652  0.97542069  1
  O  O27  1  0.74983270  0.38301742  0.47510901  1
