# generated using pymatgen
data_Mg2Sn3O8
_symmetry_space_group_name_H-M   'P 1'
_cell_length_a   6.31846850
_cell_length_b   6.31846878
_cell_length_c   9.54304584
_cell_angle_alpha   90.00000000
_cell_angle_beta   90.00000000
_cell_angle_gamma   120.00000347
_symmetry_Int_Tables_number   1
_chemical_formula_structural   Mg2Sn3O8
_chemical_formula_sum   'Mg4 Sn6 O16'
_cell_volume   329.94480527
_cell_formula_units_Z   2
loop_
 _symmetry_equiv_pos_site_id
 _symmetry_equiv_pos_as_xyz
  1  'x, y, z'
loop_
 _atom_site_type_symbol
 _atom_site_label
 _atom_site_symmetry_multiplicity
 _atom_site_fract_x
 _atom_site_fract_y
 _atom_site_fract_z
 _atom_site_occupancy
  Mg  Mg0  1  0.66666700  0.33333400  0.03043260  1
  Mg  Mg1  1  0.33333300  0.66666600  0.53043360  1
  Mg  Mg2  1  0.66666700  0.33333400  0.40541379  1
  Mg  Mg3  1  0.33333300  0.66666600  0.90541479  1
  Sn  Sn4  1  0.67101526  0.83550863  0.24426343  1
  Sn  Sn5  1  0.83550963  0.16449237  0.74426343  1
  Sn  Sn6  1  0.16449237  0.32898574  0.24426343  1
  Sn  Sn7  1  0.83550763  0.67101526  0.74426343  1
  Sn  Sn8  1  0.32898574  0.16449237  0.74426343  1
  Sn  Sn9  1  0.16449237  0.83550863  0.24426343  1
  O  O10  1  0.83010528  0.16989572  0.14287864  1
  O  O11  1  0.66020855  0.83010528  0.64287764  1
  O  O12  1  0.16989572  0.33979245  0.64287764  1
  O  O13  1  0.83010428  0.66020855  0.14287864  1
  O  O14  1  0.33979145  0.16989572  0.14287864  1
  O  O15  1  0.16989572  0.83010528  0.64287764  1
  O  O16  1  0.51823935  0.48175965  0.87145019  1
  O  O17  1  0.03647869  0.51823935  0.37144919  1
  O  O18  1  0.48176065  0.96352231  0.37144919  1
  O  O19  1  0.51823935  0.03647869  0.87145019  1
  O  O20  1  0.00000000  0.00000000  0.35777876  1
  O  O21  1  0.00000000  0.00000000  0.85777876  1
  O  O22  1  0.33333300  0.66666600  0.12410109  1
  O  O23  1  0.96352031  0.48175965  0.87145019  1
  O  O24  1  0.48175965  0.51823935  0.37144919  1
  O  O25  1  0.66666700  0.33333400  0.62410109  1
