# generated using pymatgen
data_CaMn(SiO3)2
_symmetry_space_group_name_H-M   'P 1'
_cell_length_a   5.48510190
_cell_length_b   9.83144850
_cell_length_c   19.22927624
_cell_angle_alpha   90.00000000
_cell_angle_beta   90.00000000
_cell_angle_gamma   90.00000000
_symmetry_Int_Tables_number   1
_chemical_formula_structural   CaMn(SiO3)2
_chemical_formula_sum   'Ca8 Mn8 Si16 O48'
_cell_volume   1036.96750453
_cell_formula_units_Z   8
loop_
 _symmetry_equiv_pos_site_id
 _symmetry_equiv_pos_as_xyz
  1  'x, y, z'
loop_
 _atom_site_type_symbol
 _atom_site_label
 _atom_site_symmetry_multiplicity
 _atom_site_fract_x
 _atom_site_fract_y
 _atom_site_fract_z
 _atom_site_occupancy
  Ca  Ca0  1  0.61186225  0.14508464  0.62255685  1
  Ca  Ca1  1  0.38813775  0.85491536  0.37744315  1
  Ca  Ca2  1  0.61186225  0.64508464  0.87744315  1
  Ca  Ca3  1  0.11186225  0.85491536  0.87744315  1
  Ca  Ca4  1  0.88813775  0.14508464  0.12255685  1
  Ca  Ca5  1  0.38813775  0.35491536  0.12255685  1
  Ca  Ca6  1  0.11186225  0.35491536  0.62255685  1
  Ca  Ca7  1  0.88813775  0.64508464  0.37744315  1
  Mn  Mn8  1  0.38567992  0.98947320  0.12693784  1
  Mn  Mn9  1  0.61432008  0.01052680  0.87306216  1
  Mn  Mn10  1  0.88567992  0.01052680  0.37306216  1
  Mn  Mn11  1  0.11432008  0.98947320  0.62693784  1
  Mn  Mn12  1  0.38567992  0.48947320  0.37306216  1
  Mn  Mn13  1  0.61432008  0.51052680  0.62693784  1
  Mn  Mn14  1  0.88567992  0.51052680  0.12693784  1
  Mn  Mn15  1  0.11432008  0.48947320  0.87306216  1
  Si  Si16  1  0.55738098  0.66602225  0.22670825  1
  Si  Si17  1  0.74121596  0.83187825  0.52462291  1
  Si  Si18  1  0.75878404  0.83187825  0.02462291  1
  Si  Si19  1  0.94261902  0.16602225  0.77329175  1
  Si  Si20  1  0.05738098  0.33397775  0.27329175  1
  Si  Si21  1  0.44261902  0.83397775  0.72670825  1
  Si  Si22  1  0.24121596  0.66812175  0.52462291  1
  Si  Si23  1  0.74121596  0.33187825  0.97537709  1
  Si  Si24  1  0.75878404  0.33187825  0.47537709  1
  Si  Si25  1  0.94261902  0.66602225  0.72670825  1
  Si  Si26  1  0.44261902  0.33397775  0.77329175  1
  Si  Si27  1  0.55738098  0.16602225  0.27329175  1
  Si  Si28  1  0.25878404  0.16812175  0.47537709  1
  Si  Si29  1  0.05738098  0.83397775  0.22670825  1
  Si  Si30  1  0.25878404  0.66812175  0.02462291  1
  Si  Si31  1  0.24121596  0.16812175  0.97537709  1
  O  O32  1  0.92715567  0.52155393  0.68659330  1
  O  O33  1  0.30685153  0.03279063  0.93171060  1
  O  O34  1  0.07284433  0.47844607  0.31340670  1
  O  O35  1  0.74544754  0.34677056  0.06040011  1
  O  O36  1  0.24544754  0.15322944  0.06040011  1
  O  O37  1  0.95559848  0.21618331  0.95438389  1
  O  O38  1  0.95759628  0.65703404  0.81155451  1
  O  O39  1  0.04240372  0.84296596  0.31155451  1
  O  O40  1  0.74544754  0.84677056  0.43959989  1
  O  O41  1  0.95759628  0.15703404  0.68844549  1
  O  O42  1  0.42715567  0.47844607  0.81340670  1
  O  O43  1  0.75455246  0.34677056  0.56040011  1
  O  O44  1  0.69314847  0.96720937  0.06828940  1
  O  O45  1  0.45759628  0.84296596  0.81155451  1
  O  O46  1  0.57284433  0.02155393  0.31340670  1
  O  O47  1  0.30685153  0.53279063  0.56828940  1
  O  O48  1  0.42715567  0.97844607  0.68659330  1
  O  O49  1  0.18122816  0.75884747  0.70111340  1
  O  O50  1  0.31877184  0.75884747  0.20111340  1
  O  O51  1  0.54440152  0.71618331  0.04561611  1
  O  O52  1  0.75455246  0.84677056  0.93959989  1
  O  O53  1  0.54240372  0.65703404  0.31155451  1
  O  O54  1  0.80685153  0.46720937  0.93171060  1
  O  O55  1  0.18122816  0.25884747  0.79888660  1
  O  O56  1  0.25455246  0.15322944  0.56040011  1
  O  O57  1  0.54240372  0.15703404  0.18844549  1
  O  O58  1  0.69314847  0.46720937  0.43171060  1
  O  O59  1  0.24544754  0.65322944  0.43959989  1
  O  O60  1  0.19314847  0.53279063  0.06828940  1
  O  O61  1  0.68122816  0.74115253  0.70111340  1
  O  O62  1  0.07284433  0.97844607  0.18659330  1
  O  O63  1  0.81877184  0.74115253  0.20111340  1
  O  O64  1  0.81877184  0.24115253  0.29888660  1
  O  O65  1  0.80685153  0.96720937  0.56828940  1
  O  O66  1  0.25455246  0.65322944  0.93959989  1
  O  O67  1  0.19314847  0.03279063  0.43171060  1
  O  O68  1  0.31877184  0.25884747  0.29888660  1
  O  O69  1  0.04440152  0.78381669  0.04561611  1
  O  O70  1  0.45559848  0.78381669  0.54561611  1
  O  O71  1  0.68122816  0.24115253  0.79888660  1
  O  O72  1  0.45559848  0.28381669  0.95438389  1
  O  O73  1  0.54440152  0.21618331  0.45438389  1
  O  O74  1  0.04440152  0.28381669  0.45438389  1
  O  O75  1  0.45759628  0.34296596  0.68844549  1
  O  O76  1  0.57284433  0.52155393  0.18659330  1
  O  O77  1  0.95559848  0.71618331  0.54561611  1
  O  O78  1  0.04240372  0.34296596  0.18844549  1
  O  O79  1  0.92715567  0.02155393  0.81340670  1
