# generated using pymatgen
data_CaLaFeCuO6
_symmetry_space_group_name_H-M   'P 1'
_cell_length_a   5.49850163
_cell_length_b   5.49647388
_cell_length_c   7.68674659
_cell_angle_alpha   89.93956038
_cell_angle_beta   90.00000000
_cell_angle_gamma   90.00000000
_symmetry_Int_Tables_number   1
_chemical_formula_structural   CaLaFeCuO6
_chemical_formula_sum   'Ca2 La2 Fe2 Cu2 O12'
_cell_volume   232.31157515
_cell_formula_units_Z   2
loop_
 _symmetry_equiv_pos_site_id
 _symmetry_equiv_pos_as_xyz
  1  'x, y, z'
loop_
 _atom_site_type_symbol
 _atom_site_label
 _atom_site_symmetry_multiplicity
 _atom_site_fract_x
 _atom_site_fract_y
 _atom_site_fract_z
 _atom_site_occupancy
  Ca  Ca0  1  0.53980018  0.51038961  0.24951275  1
  Ca  Ca1  1  0.96019982  0.01038961  0.74951275  1
  La  La2  1  0.02930988  0.99282383  0.25043145  1
  La  La3  1  0.47069012  0.49282383  0.75043145  1
  Fe  Fe4  1  0.50032197  -0.00027055  0.00065708  1
  Fe  Fe5  1  0.99967803  0.49972945  0.50065708  1
  Cu  Cu6  1  0.49953032  0.99968995  0.49975510  1
  Cu  Cu7  1  0.00046968  0.49968995  0.99975510  1
  O  O8  1  0.01380189  0.57926126  0.75239663  1
  O  O9  1  0.21709014  0.21659924  0.95794768  1
  O  O10  1  0.21684636  0.21605318  0.54176560  1
  O  O11  1  0.28315364  0.71605318  0.04176560  1
  O  O12  1  0.28290986  0.71659924  0.45794768  1
  O  O13  1  0.48619811  0.07926126  0.25239563  1
  O  O14  1  0.51827988  0.93055672  0.74750329  1
  O  O15  1  0.72182375  0.27689533  0.53824078  1
  O  O16  1  0.72293669  0.27799942  0.96179064  1
  O  O17  1  0.77706331  0.77799942  0.46179064  1
  O  O18  1  0.77817625  0.77689533  0.03824078  1
  O  O19  1  0.98172012  0.43055672  0.24750329  1
