# generated using pymatgen
data_Ba2ZnCuAg2F14
_symmetry_space_group_name_H-M   'P 1'
_cell_length_a   5.40989876
_cell_length_b   7.69323402
_cell_length_c   15.45770638
_cell_angle_alpha   91.69825376
_cell_angle_beta   89.69772650
_cell_angle_gamma   110.65282552
_symmetry_Int_Tables_number   1
_chemical_formula_structural   Ba2ZnCuAg2F14
_chemical_formula_sum   'Ba4 Zn2 Cu2 Ag4 F28'
_cell_volume   601.72553116
_cell_formula_units_Z   2
loop_
 _symmetry_equiv_pos_site_id
 _symmetry_equiv_pos_as_xyz
  1  'x, y, z'
loop_
 _atom_site_type_symbol
 _atom_site_label
 _atom_site_symmetry_multiplicity
 _atom_site_fract_x
 _atom_site_fract_y
 _atom_site_fract_z
 _atom_site_occupancy
  Ba  Ba0  1  0.09983064  0.37203000  0.62499916  1
  Ba  Ba1  1  0.27409086  0.37266553  0.12509215  1
  Ba  Ba2  1  0.90087889  0.62748119  0.37541388  1
  Ba  Ba3  1  0.72661775  0.62571315  0.87499692  1
  Zn  Zn4  1  0.42503001  0.99881369  0.74927137  1
  Zn  Zn5  1  0.57365562  0.99597958  0.25167439  1
  Cu  Cu6  1  0.49940565  0.99895467  0.99986961  1
  Cu  Cu7  1  0.50081455  0.99913982  0.49974978  1
  Ag  Ag8  1  0.08929143  0.23317677  0.87185924  1
  Ag  Ag9  1  0.91059547  0.76620908  0.12799634  1
  Ag  Ag10  1  0.14732942  0.23461987  0.37227930  1
  Ag  Ag11  1  0.85519375  0.76480005  0.62780992  1
  F  F12  1  0.86231115  0.97067252  0.33399313  1
  F  F13  1  0.86610167  0.28380997  0.45885058  1
  F  F14  1  0.13659726  0.71580966  0.54103505  1
  F  F15  1  0.62646467  0.48839890  0.59460049  1
  F  F16  1  0.62019009  0.08783346  0.61176072  1
  F  F17  1  0.53305864  0.90942296  0.88837065  1
  F  F18  1  0.41816996  0.28420126  0.95852376  1
  F  F19  1  0.88573161  0.02956683  0.16705820  1
  F  F20  1  0.37135831  0.34938295  0.77029676  1
  F  F21  1  0.37546626  0.51119729  0.40584641  1
  F  F22  1  0.77350718  0.20731745  0.77738225  1
  F  F23  1  0.13695051  0.51003666  0.90477313  1
  F  F24  1  0.43745998  0.20808480  0.27734464  1
  F  F25  1  0.22435855  0.79016721  0.22267071  1
  F  F26  1  0.46570266  0.08836998  0.11106409  1
  F  F27  1  0.62802006  0.65171535  0.22972129  1
  F  F28  1  0.14202352  0.84839662  0.00849649  1
  F  F29  1  0.14030979  0.02859351  0.66642990  1
  F  F30  1  0.85733708  0.14954558  0.99107409  1
  F  F31  1  0.70919806  0.84948315  0.50866528  1
  F  F32  1  0.58197898  0.71516771  0.04138695  1
  F  F33  1  0.56377174  0.78910043  0.72280660  1
  F  F34  1  0.98388108  0.35223896  0.27167540  1
  F  F35  1  0.29344621  0.14969225  0.49106360  1
  F  F36  1  0.38129818  0.91071185  0.38771987  1
  F  F37  1  0.11319281  0.96953013  0.83334360  1
  F  F38  1  0.02068295  0.64863269  0.72903204  1
  F  F39  1  0.86427499  0.48940244  0.09508825  1
