# generated using pymatgen
data_CaTaBiO5
_symmetry_space_group_name_H-M   'P 1'
_cell_length_a   5.88198969
_cell_length_b   8.62475551
_cell_length_c   12.14291967
_cell_angle_alpha   90.00000000
_cell_angle_beta   90.00000000
_cell_angle_gamma   109.72838949
_symmetry_Int_Tables_number   1
_chemical_formula_structural   CaTaBiO5
_chemical_formula_sum   'Ca4 Ta4 Bi4 O20'
_cell_volume   579.86086873
_cell_formula_units_Z   4
loop_
 _symmetry_equiv_pos_site_id
 _symmetry_equiv_pos_as_xyz
  1  'x, y, z'
loop_
 _atom_site_type_symbol
 _atom_site_label
 _atom_site_symmetry_multiplicity
 _atom_site_fract_x
 _atom_site_fract_y
 _atom_site_fract_z
 _atom_site_occupancy
  Ca  Ca0  1  0.63474656  0.17878813  0.91521612  1
  Ca  Ca1  1  0.36525344  0.82121187  0.08478388  1
  Ca  Ca2  1  0.86525344  0.32121187  0.41521612  1
  Ca  Ca3  1  0.13474656  0.67878813  0.58478388  1
  Ta  Ta4  1  0.80561801  0.96703153  0.64108838  1
  Ta  Ta5  1  0.19438199  0.03296847  0.35891162  1
  Ta  Ta6  1  0.69438199  0.53296847  0.14108838  1
  Ta  Ta7  1  0.30561801  0.46703153  0.85891162  1
  Bi  Bi8  1  0.12504297  0.15950236  0.09037885  1
  Bi  Bi9  1  0.87495703  0.84049764  0.90962115  1
  Bi  Bi10  1  0.62504297  0.65950236  0.40962115  1
  Bi  Bi11  1  0.37495703  0.34049764  0.59037885  1
  O  O12  1  0.53566761  0.33276166  0.06667402  1
  O  O13  1  0.05625468  0.31942032  0.94652987  1
  O  O14  1  0.47735010  0.63264659  0.18315213  1
  O  O15  1  0.74136308  0.51306117  0.52576893  1
  O  O16  1  0.80428712  0.49499575  0.27942539  1
  O  O17  1  0.30428712  0.99499575  0.22057461  1
  O  O18  1  0.55625468  0.81942032  0.55347013  1
  O  O19  1  0.44374532  0.18057968  0.44652987  1
  O  O20  1  0.25863692  0.48693883  0.47423107  1
  O  O21  1  0.96433239  0.16723834  0.56667402  1
  O  O22  1  0.19571288  0.50500425  0.72057461  1
  O  O23  1  0.46433239  0.66723834  0.93332598  1
  O  O24  1  0.03566761  0.83276166  0.43332598  1
  O  O25  1  0.69571288  0.00500425  0.77942539  1
  O  O26  1  0.75863692  0.98693883  0.02576893  1
  O  O27  1  0.24136308  0.01306117  0.97423107  1
  O  O28  1  0.52264990  0.36735341  0.81684787  1
  O  O29  1  0.94374532  0.68057968  0.05347013  1
  O  O30  1  0.02264990  0.86735341  0.68315213  1
  O  O31  1  0.97735010  0.13264659  0.31684787  1
