# generated using pymatgen
data_NiMoP2O9
_symmetry_space_group_name_H-M   'P 1'
_cell_length_a   6.43940605
_cell_length_b   8.03409713
_cell_length_c   14.00968065
_cell_angle_alpha   90.08237373
_cell_angle_beta   90.07292709
_cell_angle_gamma   89.81132973
_symmetry_Int_Tables_number   1
_chemical_formula_structural   NiMoP2O9
_chemical_formula_sum   'Ni4 Mo4 P8 O36'
_cell_volume   724.78295712
_cell_formula_units_Z   4
loop_
 _symmetry_equiv_pos_site_id
 _symmetry_equiv_pos_as_xyz
  1  'x, y, z'
loop_
 _atom_site_type_symbol
 _atom_site_label
 _atom_site_symmetry_multiplicity
 _atom_site_fract_x
 _atom_site_fract_y
 _atom_site_fract_z
 _atom_site_occupancy
  Ni  Ni0  1  0.49998874  0.99998690  0.99998990  1
  Ni  Ni1  1  0.50001285  0.50000743  0.49998381  1
  Ni  Ni2  1  0.00003443  0.50002443  0.49999111  1
  Ni  Ni3  1  0.99998954  0.00001097  0.00000943  1
  Mo  Mo4  1  0.75099465  0.35479487  0.87476060  1
  Mo  Mo5  1  0.24900757  0.64519393  0.12522686  1
  Mo  Mo6  1  0.25080983  0.85520657  0.62518411  1
  Mo  Mo7  1  0.74918556  0.14478515  0.37483244  1
  P  P8  1  0.25075057  0.34059882  0.94318958  1
  P  P9  1  0.74925559  0.65938908  0.05679792  1
  P  P10  1  0.75057731  0.84125528  0.55688063  1
  P  P11  1  0.24941780  0.15874503  0.44314144  1
  P  P12  1  0.75058792  0.39462150  0.68238211  1
  P  P13  1  0.24941688  0.60539584  0.31759585  1
  P  P14  1  0.25051229  0.89444387  0.81761827  1
  P  P15  1  0.74945903  0.10555388  0.18238843  1
  O  O16  1  0.04946454  0.60190056  0.37387653  1
  O  O17  1  0.55034259  0.39897463  0.62622742  1
  O  O18  1  0.94965190  0.10225376  0.12639860  1
  O  O19  1  0.45062956  0.89872148  0.87393647  1
  O  O20  1  0.95053783  0.39812564  0.62610781  1
  O  O21  1  0.44966091  0.60105220  0.37375789  1
  O  O22  1  0.05035719  0.89775557  0.87362104  1
  O  O23  1  0.54938038  0.10125209  0.12605710  1
  O  O24  1  0.24970225  0.33626557  0.48150827  1
  O  O25  1  0.75030594  0.66374597  0.51848848  1
  O  O26  1  0.74977369  0.83662706  0.01851293  1
  O  O27  1  0.25022517  0.16337284  0.98149057  1
  O  O28  1  0.75479803  0.16379819  0.94029367  1
  O  O29  1  0.24521369  0.83620240  0.05970399  1
  O  O30  1  0.25083232  0.66380148  0.55963321  1
  O  O31  1  0.74915644  0.33620617  0.44036527  1
  O  O32  1  0.75113666  0.23376115  0.75360166  1
  O  O33  1  0.24886582  0.76624453  0.24638570  1
  O  O34  1  0.25252733  0.73380503  0.74604994  1
  O  O35  1  0.74744960  0.26618724  0.25396682  1
  O  O36  1  0.44270161  0.12754466  0.37978128  1
  O  O37  1  0.94388148  0.87193080  0.62032375  1
  O  O38  1  0.55573696  0.62994362  0.12009642  1
  O  O39  1  0.05774509  0.37266778  0.87964112  1
  O  O40  1  0.55729255  0.87242426  0.62024365  1
  O  O41  1  0.05611163  0.12804824  0.37970209  1
  O  O42  1  0.44426382  0.37002858  0.87988751  1
  O  O43  1  0.94225874  0.62731155  0.12034222  1
  O  O44  1  0.75049431  0.97536098  0.26875840  1
  O  O45  1  0.24950348  0.02463761  0.73125851  1
  O  O46  1  0.24946868  0.47546117  0.23093437  1
  O  O47  1  0.75053087  0.52454530  0.76906115  1
  O  O48  1  0.75026109  0.97388719  0.47692770  1
  O  O49  1  0.24973161  0.02613618  0.52310895  1
  O  O50  1  0.25121945  0.47353332  0.02324970  1
  O  O51  1  0.74878125  0.52647466  0.97672633  1
