# generated using pymatgen
data_Zn(CuO2)2
_symmetry_space_group_name_H-M   'P 1'
_cell_length_a   3.12057771
_cell_length_b   9.27630191
_cell_length_c   9.92045262
_cell_angle_alpha   90.00006250
_cell_angle_beta   89.71868082
_cell_angle_gamma   90.06938535
_symmetry_Int_Tables_number   1
_chemical_formula_structural   Zn(CuO2)2
_chemical_formula_sum   'Zn4 Cu8 O16'
_cell_volume   287.16784595
_cell_formula_units_Z   4
loop_
 _symmetry_equiv_pos_site_id
 _symmetry_equiv_pos_as_xyz
  1  'x, y, z'
loop_
 _atom_site_type_symbol
 _atom_site_label
 _atom_site_symmetry_multiplicity
 _atom_site_fract_x
 _atom_site_fract_y
 _atom_site_fract_z
 _atom_site_occupancy
  Zn  Zn0  1  0.32995847  0.75012411  0.15440803  1
  Zn  Zn1  1  0.32576963  0.25013032  0.34543902  1
  Zn  Zn2  1  0.67431007  0.74988338  0.65455475  1
  Zn  Zn3  1  0.66993989  0.24987866  0.84561087  1
  Cu  Cu4  1  0.82940693  0.56894734  0.38552435  1
  Cu  Cu5  1  0.82899084  0.06891229  0.11476362  1
  Cu  Cu6  1  0.17055504  0.06897035  0.61446704  1
  Cu  Cu7  1  0.82890377  0.43105286  0.11472175  1
  Cu  Cu8  1  0.17045324  0.43106354  0.61446328  1
  Cu  Cu9  1  0.82937781  0.93097889  0.38552345  1
  Cu  Cu10  1  0.17112826  0.93095895  0.88524650  1
  Cu  Cu11  1  0.17115221  0.56901591  0.88524181  1
  O  O12  1  0.13015136  0.88393671  0.54217987  1
  O  O13  1  0.86963382  0.11605862  0.45774895  1
  O  O14  1  0.48056163  0.99985923  0.25061629  1
  O  O15  1  0.86926470  0.88380150  0.04282913  1
  O  O16  1  0.87006019  0.61616837  0.04283621  1
  O  O17  1  0.81968113  0.24998205  0.20167719  1
  O  O18  1  0.13102438  0.11621700  0.95707509  1
  O  O19  1  0.17877086  0.25000432  0.70148752  1
  O  O20  1  0.48052387  0.49983692  0.25074886  1
  O  O21  1  0.51950315  0.00019142  0.74943327  1
  O  O22  1  0.13086806  0.61612192  0.54219119  1
  O  O23  1  0.18048029  0.75002383  0.79839377  1
  O  O24  1  0.82105228  0.74999802  0.29861340  1
  O  O25  1  0.51945621  0.50013650  0.74937171  1
  O  O26  1  0.13013652  0.38384209  0.95709392  1
  O  O27  1  0.86888638  0.38390690  0.45773918  1
