# generated using pymatgen
data_Ba2Sr6Ti7MnO24
_symmetry_space_group_name_H-M   'P 1'
_cell_length_a   7.91475543
_cell_length_b   7.90825672
_cell_length_c   7.91475543
_cell_angle_alpha   90.00000000
_cell_angle_beta   90.03610549
_cell_angle_gamma   90.00000000
_symmetry_Int_Tables_number   1
_chemical_formula_structural   Ba2Sr6Ti7MnO24
_chemical_formula_sum   'Ba2 Sr6 Ti7 Mn1 O24'
_cell_volume   495.39962341
_cell_formula_units_Z   1
loop_
 _symmetry_equiv_pos_site_id
 _symmetry_equiv_pos_as_xyz
  1  'x, y, z'
loop_
 _atom_site_type_symbol
 _atom_site_label
 _atom_site_symmetry_multiplicity
 _atom_site_fract_x
 _atom_site_fract_y
 _atom_site_fract_z
 _atom_site_occupancy
  Ba  Ba0  1  0.24859092  0.75144072  0.24859092  1
  Ba  Ba1  1  0.75140908  0.75144072  0.75140908  1
  Sr  Sr2  1  0.24830878  0.24828378  0.24830878  1
  Sr  Sr3  1  0.24856740  0.24840897  0.75143260  1
  Sr  Sr4  1  0.24857198  0.75169676  0.75142802  1
  Sr  Sr5  1  0.75143260  0.24840897  0.24856740  1
  Sr  Sr6  1  0.75169122  0.24828378  0.75169122  1
  Sr  Sr7  1  0.75142802  0.75169676  0.24857198  1
  Ti  Ti8  1  -0.00000000  0.00261639  0.50000000  1
  Ti  Ti9  1  -0.00000000  0.49520242  -0.00000000  1
  Ti  Ti10  1  -0.00000000  0.49742212  0.50000000  1
  Ti  Ti11  1  0.50000000  0.00261639  -0.00000000  1
  Ti  Ti12  1  0.50000000  0.00277139  0.50000000  1
  Ti  Ti13  1  0.50000000  0.49742212  -0.00000000  1
  Ti  Ti14  1  0.50000000  0.49735528  0.50000000  1
  Mn  Mn15  1  -0.00000000  0.00123247  -0.00000000  1
  O  O16  1  0.24617718  0.00467287  0.99727636  1
  O  O17  1  0.24933002  0.00449750  0.50219473  1
  O  O18  1  0.24925431  0.49565258  0.99785584  1
  O  O19  1  0.24967624  0.49565670  0.50215935  1
  O  O20  1  0.75382282  0.00467287  0.00272364  1
  O  O21  1  0.75066998  0.00449750  0.49780527  1
  O  O22  1  0.75074569  0.49565258  0.00214416  1
  O  O23  1  0.75032376  0.49565670  0.49784065  1
  O  O24  1  -0.00000000  0.24636272  -0.00000000  1
  O  O25  1  -0.00000000  0.24944571  0.50000000  1
  O  O26  1  -0.00000000  0.75480337  -0.00000000  1
  O  O27  1  -0.00000000  0.75077410  0.50000000  1
  O  O28  1  0.50000000  0.24944571  -0.00000000  1
  O  O29  1  0.50000000  0.24980956  0.50000000  1
  O  O30  1  0.50000000  0.75077410  -0.00000000  1
  O  O31  1  0.50000000  0.75036708  0.50000000  1
  O  O32  1  0.99727636  0.00467287  0.24617718  1
  O  O33  1  0.00272364  0.00467287  0.75382282  1
  O  O34  1  0.99785584  0.49565258  0.24925431  1
  O  O35  1  0.00214416  0.49565258  0.75074569  1
  O  O36  1  0.50219473  0.00449750  0.24933002  1
  O  O37  1  0.49780527  0.00449750  0.75066998  1
  O  O38  1  0.50215935  0.49565670  0.24967624  1
  O  O39  1  0.49784065  0.49565670  0.75032376  1
