# generated using pymatgen
data_Sr2Ca2Mn(FeO4)3
_symmetry_space_group_name_H-M   'P 1'
_cell_length_a   7.73477460
_cell_length_b   7.75048738
_cell_length_c   7.75033346
_cell_angle_alpha   89.99879826
_cell_angle_beta   89.99979479
_cell_angle_gamma   89.99948562
_symmetry_Int_Tables_number   1
_chemical_formula_structural   Sr2Ca2Mn(FeO4)3
_chemical_formula_sum   'Sr4 Ca4 Mn2 Fe6 O24'
_cell_volume   464.61910545
_cell_formula_units_Z   2
loop_
 _symmetry_equiv_pos_site_id
 _symmetry_equiv_pos_as_xyz
  1  'x, y, z'
loop_
 _atom_site_type_symbol
 _atom_site_label
 _atom_site_symmetry_multiplicity
 _atom_site_fract_x
 _atom_site_fract_y
 _atom_site_fract_z
 _atom_site_occupancy
  Sr  Sr0  1  0.24999124  0.25020088  0.25015686  1
  Sr  Sr1  1  0.24999170  0.25020135  0.74984446  1
  Sr  Sr2  1  0.75000832  0.25019693  0.74981815  1
  Sr  Sr3  1  0.75000566  0.74978829  0.25016406  1
  Ca  Ca4  1  0.24999638  0.74979806  0.25016789  1
  Ca  Ca5  1  0.24999461  0.74979982  0.74983467  1
  Ca  Ca6  1  0.75000180  0.25019627  0.25017136  1
  Ca  Ca7  1  0.75000482  0.74979261  0.74984447  1
  Mn  Mn8  1  -0.00001709  0.50064279  0.50000478  1
  Mn  Mn9  1  0.50001960  0.50063485  0.49999624  1
  Fe  Fe10  1  0.99998820  0.99936144  0.00000651  1
  Fe  Fe11  1  0.99999290  0.99933710  0.49999136  1
  Fe  Fe12  1  0.99999334  0.50064703  0.00000737  1
  Fe  Fe13  1  0.50000928  0.99936091  0.00000683  1
  Fe  Fe14  1  0.50000563  0.99933889  0.49999308  1
  Fe  Fe15  1  0.50000850  0.50065064  0.00001121  1
  O  O16  1  0.25000172  0.99747184  0.00000891  1
  O  O17  1  0.24999968  0.99749975  0.49998983  1
  O  O18  1  0.24999953  0.50251642  0.00000568  1
  O  O19  1  0.25000178  0.50255347  0.49998928  1
  O  O20  1  0.75000097  -0.00017585  0.99999413  1
  O  O21  1  0.74999996  0.99981903  0.50000652  1
  O  O22  1  0.74999912  0.50016279  0.99999611  1
  O  O23  1  0.74999901  0.50012678  0.50000788  1
  O  O24  1  0.99882121  0.24922814  0.00116841  1
  O  O25  1  0.99879474  0.25240921  0.49880561  1
  O  O26  1  0.00115838  0.75076838  0.99884357  1
  O  O27  1  0.00118354  0.74758124  0.50117627  1
  O  O28  1  0.50119250  0.24923346  0.00117568  1
  O  O29  1  0.50121012  0.25240739  0.49880134  1
  O  O30  1  0.49882752  0.75076620  0.99884424  1
  O  O31  1  0.49880858  0.74758281  0.50117161  1
  O  O32  1  0.00001938  0.99981784  0.24924319  1
  O  O33  1  0.99998103  0.99748684  0.75075239  1
  O  O34  1  0.00000351  0.50018851  0.25243245  1
  O  O35  1  0.99999603  0.50255574  0.74756852  1
  O  O36  1  0.50000294  0.99981373  0.24924681  1
  O  O37  1  0.49999962  0.99748909  0.75075177  1
  O  O38  1  0.49999629  0.50019091  0.25242710  1
  O  O39  1  0.50000795  0.50255842  0.74757341  1
