# generated using pymatgen
data_SrMnSbF
_symmetry_space_group_name_H-M   'P 1'
_cell_length_a   4.45188479
_cell_length_b   4.45188479
_cell_length_c   9.60360045
_cell_angle_alpha   90.00000000
_cell_angle_beta   90.00000000
_cell_angle_gamma   90.00000000
_symmetry_Int_Tables_number   1
_chemical_formula_structural   SrMnSbF
_chemical_formula_sum   'Sr2 Mn2 Sb2 F2'
_cell_volume   190.33642888
_cell_formula_units_Z   2
loop_
 _symmetry_equiv_pos_site_id
 _symmetry_equiv_pos_as_xyz
  1  'x, y, z'
loop_
 _atom_site_type_symbol
 _atom_site_label
 _atom_site_symmetry_multiplicity
 _atom_site_fract_x
 _atom_site_fract_y
 _atom_site_fract_z
 _atom_site_occupancy
  Sr  Sr0  1  0.75000000  0.75000000  0.86705339  1
  Sr  Sr1  1  0.25000000  0.25000000  0.13294661  1
  Mn  Mn2  1  0.25000000  0.75000000  0.50000000  1
  Mn  Mn3  1  0.75000000  0.25000000  0.50000000  1
  Sb  Sb4  1  0.75000000  0.75000000  0.31246106  1
  Sb  Sb5  1  0.25000000  0.25000000  0.68753894  1
  F  F6  1  0.25000000  0.75000000  -0.00000000  1
  F  F7  1  0.75000000  0.25000000  -0.00000000  1
