# generated using pymatgen
data_Ba2Co2O5
_symmetry_space_group_name_H-M   'P 1'
_cell_length_a   5.65753217
_cell_length_b   5.69117914
_cell_length_c   9.59507650
_cell_angle_alpha   107.25156611
_cell_angle_beta   107.14640437
_cell_angle_gamma   90.00000000
_symmetry_Int_Tables_number   1
_chemical_formula_structural   Ba2Co2O5
_chemical_formula_sum   'Ba4 Co4 O10'
_cell_volume   280.63347662
_cell_formula_units_Z   2
loop_
 _symmetry_equiv_pos_site_id
 _symmetry_equiv_pos_as_xyz
  1  'x, y, z'
loop_
 _atom_site_type_symbol
 _atom_site_label
 _atom_site_symmetry_multiplicity
 _atom_site_fract_x
 _atom_site_fract_y
 _atom_site_fract_z
 _atom_site_occupancy
  Ba  Ba0  1  0.61571346  0.11474264  0.22271925  1
  Ba  Ba1  1  0.39299421  0.88525736  0.77728075  1
  Ba  Ba2  1  0.11571346  0.60797660  0.22271925  1
  Ba  Ba3  1  0.89299421  0.39202340  0.77728075  1
  Co  Co4  1  0.00392066  0.00000000  0.00000000  1
  Co  Co5  1  0.50392066  0.50000000  0.00000000  1
  Co  Co6  1  0.22690905  0.18320392  0.50000000  1
  Co  Co7  1  0.72690905  0.81679608  0.50000000  1
  O  O8  1  0.25038855  0.24906678  0.99535297  1
  O  O9  1  0.25503558  0.75093322  0.00464703  1
  O  O10  1  0.75038855  0.24628619  0.99535297  1
  O  O11  1  0.75503558  0.75371381  0.00464703  1
  O  O12  1  0.16336848  0.17383263  0.30516634  1
  O  O13  1  0.85820214  0.82616737  0.69483366  1
  O  O14  1  0.66336848  0.63133371  0.30516634  1
  O  O15  1  0.35820214  0.36866629  0.69483366  1
  O  O16  1  0.89746788  0.10282578  0.50000000  1
  O  O17  1  0.39746788  0.89717422  0.50000000  1
