# generated using pymatgen
data_CoTe(PbO3)2
_symmetry_space_group_name_H-M   'P 1'
_cell_length_a   5.69829698
_cell_length_b   5.69829698
_cell_length_c   5.69829718
_cell_angle_alpha   60.89831032
_cell_angle_beta   60.89831032
_cell_angle_gamma   60.89830451
_symmetry_Int_Tables_number   1
_chemical_formula_structural   CoTe(PbO3)2
_chemical_formula_sum   'Co1 Te1 Pb2 O6'
_cell_volume   133.48303681
_cell_formula_units_Z   1
loop_
 _symmetry_equiv_pos_site_id
 _symmetry_equiv_pos_as_xyz
  1  'x, y, z'
loop_
 _atom_site_type_symbol
 _atom_site_label
 _atom_site_symmetry_multiplicity
 _atom_site_fract_x
 _atom_site_fract_y
 _atom_site_fract_z
 _atom_site_occupancy
  Co  Co0  1  0.00000000  0.00000000  0.00000000  1
  Te  Te1  1  0.50000000  0.50000000  0.50000000  1
  Pb  Pb2  1  0.74767550  0.74767550  0.74767550  1
  Pb  Pb3  1  0.25232450  0.25232450  0.25232450  1
  O  O4  1  0.79228375  0.68561254  0.26798566  1
  O  O5  1  0.68561254  0.26798566  0.79228375  1
  O  O6  1  0.26798566  0.79228375  0.68561254  1
  O  O7  1  0.20771625  0.31438746  0.73201434  1
  O  O8  1  0.31438746  0.73201434  0.20771625  1
  O  O9  1  0.73201434  0.20771625  0.31438746  1
