# generated using pymatgen
data_Sr2TiMnO5
_symmetry_space_group_name_H-M   'P 1'
_cell_length_a   11.25349720
_cell_length_b   11.39848838
_cell_length_c   17.83783251
_cell_angle_alpha   108.63288191
_cell_angle_beta   108.38731971
_cell_angle_gamma   90.00000000
_symmetry_Int_Tables_number   1
_chemical_formula_structural   Sr2TiMnO5
_chemical_formula_sum   'Sr32 Ti16 Mn16 O80'
_cell_volume   2044.52040021
_cell_formula_units_Z   16
loop_
 _symmetry_equiv_pos_site_id
 _symmetry_equiv_pos_as_xyz
  1  'x, y, z'
loop_
 _atom_site_type_symbol
 _atom_site_label
 _atom_site_symmetry_multiplicity
 _atom_site_fract_x
 _atom_site_fract_y
 _atom_site_fract_z
 _atom_site_occupancy
  Sr  Sr0  1  0.30609873  0.06216685  0.11241925  1
  Sr  Sr1  1  0.30609873  0.06216685  0.61241925  1
  Sr  Sr2  1  0.30609873  0.56216685  0.11241925  1
  Sr  Sr3  1  0.30609873  0.56216685  0.61241925  1
  Sr  Sr4  1  0.80609873  0.06216685  0.11241925  1
  Sr  Sr5  1  0.80609873  0.06216685  0.61241925  1
  Sr  Sr6  1  0.80609873  0.56216685  0.11241925  1
  Sr  Sr7  1  0.80609873  0.56216685  0.61241925  1
  Sr  Sr8  1  0.19367948  0.43783315  0.38758075  1
  Sr  Sr9  1  0.19367948  0.43783315  0.88758075  1
  Sr  Sr10  1  0.19367948  0.93783315  0.38758075  1
  Sr  Sr11  1  0.19367948  0.93783315  0.88758075  1
  Sr  Sr12  1  0.69367948  0.43783315  0.38758075  1
  Sr  Sr13  1  0.69367948  0.43783315  0.88758075  1
  Sr  Sr14  1  0.69367948  0.93783315  0.38758075  1
  Sr  Sr15  1  0.69367948  0.93783315  0.88758075  1
  Sr  Sr16  1  0.05609873  0.30025241  0.11241925  1
  Sr  Sr17  1  0.05609873  0.30025241  0.61241925  1
  Sr  Sr18  1  0.05609873  0.80025241  0.11241925  1
  Sr  Sr19  1  0.05609873  0.80025241  0.61241925  1
  Sr  Sr20  1  0.55609873  0.30025241  0.11241925  1
  Sr  Sr21  1  0.55609873  0.30025241  0.61241925  1
  Sr  Sr22  1  0.55609873  0.80025241  0.11241925  1
  Sr  Sr23  1  0.55609873  0.80025241  0.61241925  1
  Sr  Sr24  1  0.44367948  0.19974759  0.38758075  1
  Sr  Sr25  1  0.44367948  0.19974759  0.88758075  1
  Sr  Sr26  1  0.44367948  0.69974759  0.38758075  1
  Sr  Sr27  1  0.44367948  0.69974759  0.88758075  1
  Sr  Sr28  1  0.94367948  0.19974759  0.38758075  1
  Sr  Sr29  1  0.94367948  0.19974759  0.88758075  1
  Sr  Sr30  1  0.94367948  0.69974759  0.38758075  1
  Sr  Sr31  1  0.94367948  0.69974759  0.88758075  1
  Ti  Ti32  1  0.99769583  -0.00000000  0.00000000  1
  Ti  Ti33  1  0.99769583  -0.00000000  0.50000000  1
  Ti  Ti34  1  0.99769583  0.50000000  0.00000000  1
  Ti  Ti35  1  0.99769583  0.50000000  0.50000000  1
  Ti  Ti36  1  0.49769583  -0.00000000  0.00000000  1
  Ti  Ti37  1  0.49769583  -0.00000000  0.50000000  1
  Ti  Ti38  1  0.49769583  0.50000000  0.00000000  1
  Ti  Ti39  1  0.49769583  0.50000000  0.50000000  1
  Ti  Ti40  1  0.24769583  0.25000000  0.00000000  1
  Ti  Ti41  1  0.24769583  0.25000000  0.50000000  1
  Ti  Ti42  1  0.24769583  0.75000000  -0.00000000  1
  Ti  Ti43  1  0.24769583  0.75000000  0.50000000  1
  Ti  Ti44  1  0.74769583  0.25000000  -0.00000000  1
  Ti  Ti45  1  0.74769583  0.25000000  0.50000000  1
  Ti  Ti46  1  0.74769583  0.75000000  -0.00000000  1
  Ti  Ti47  1  0.74769583  0.75000000  0.50000000  1
  Mn  Mn48  1  0.11220712  0.09620695  0.25000000  1
  Mn  Mn49  1  0.11220712  0.09620695  0.75000000  1
  Mn  Mn50  1  0.11220712  0.59620695  0.25000000  1
  Mn  Mn51  1  0.11220712  0.59620695  0.75000000  1
  Mn  Mn52  1  0.61220712  0.09620695  0.25000000  1
  Mn  Mn53  1  0.61220712  0.09620695  0.75000000  1
  Mn  Mn54  1  0.61220712  0.59620695  0.25000000  1
  Mn  Mn55  1  0.61220712  0.59620695  0.75000000  1
  Mn  Mn56  1  0.36220712  0.40379305  0.25000000  1
  Mn  Mn57  1  0.36220712  0.40379305  0.75000000  1
  Mn  Mn58  1  0.36220712  0.90379305  0.25000000  1
  Mn  Mn59  1  0.36220712  0.90379305  0.75000000  1
  Mn  Mn60  1  0.86220712  0.40379305  0.25000000  1
  Mn  Mn61  1  0.86220712  0.40379305  0.75000000  1
  Mn  Mn62  1  0.86220712  0.90379305  0.25000000  1
  Mn  Mn63  1  0.86220712  0.90379305  0.75000000  1
  O  O64  1  0.12768949  0.12343442  0.49059106  1
  O  O65  1  0.12768949  0.12343442  0.99059106  1
  O  O66  1  0.12768949  0.62343442  0.49059106  1
  O  O67  1  0.12768949  0.62343442  0.99059106  1
  O  O68  1  0.62768949  0.12343442  0.49059106  1
  O  O69  1  0.62768949  0.12343442  0.99059106  1
  O  O70  1  0.62768949  0.62343442  0.49059106  1
  O  O71  1  0.62768949  0.62343442  0.99059106  1
  O  O72  1  0.13709843  0.37656558  0.00940894  1
  O  O73  1  0.13709843  0.37656558  0.50940894  1
  O  O74  1  0.13709843  0.87656558  0.00940894  1
  O  O75  1  0.13709843  0.87656558  0.50940894  1
  O  O76  1  0.63709843  0.37656558  0.00940894  1
  O  O77  1  0.63709843  0.37656558  0.50940894  1
  O  O78  1  0.63709843  0.87656558  0.00940894  1
  O  O79  1  0.63709843  0.87656558  0.50940894  1
  O  O80  1  0.37768949  0.11715664  0.49059106  1
  O  O81  1  0.37768949  0.11715664  0.99059106  1
  O  O82  1  0.37768949  0.61715664  0.49059106  1
  O  O83  1  0.37768949  0.61715664  0.99059106  1
  O  O84  1  0.87768949  0.11715664  0.49059106  1
  O  O85  1  0.87768949  0.11715664  0.99059106  1
  O  O86  1  0.87768949  0.61715664  0.49059106  1
  O  O87  1  0.87768949  0.61715664  0.99059106  1
  O  O88  1  0.38709843  0.38284336  0.00940894  1
  O  O89  1  0.38709843  0.38284336  0.50940894  1
  O  O90  1  0.38709843  0.88284336  0.00940894  1
  O  O91  1  0.38709843  0.88284336  0.50940894  1
  O  O92  1  0.88709843  0.38284336  0.00940894  1
  O  O93  1  0.88709843  0.38284336  0.50940894  1
  O  O94  1  0.88709843  0.88284336  0.00940894  1
  O  O95  1  0.88709843  0.88284336  0.50940894  1
  O  O96  1  0.07534356  0.08306190  0.12376113  1
  O  O97  1  0.07534356  0.08306190  0.62376113  1
  O  O98  1  0.07534356  0.58306190  0.12376113  1
  O  O99  1  0.07534356  0.58306190  0.62376113  1
  O  O100  1  0.57534356  0.08306190  0.12376113  1
  O  O101  1  0.57534356  0.08306190  0.62376113  1
  O  O102  1  0.57534356  0.58306190  0.12376113  1
  O  O103  1  0.57534356  0.58306190  0.62376113  1
  O  O104  1  0.45158243  0.41693810  0.37623887  1
  O  O105  1  0.45158243  0.41693810  0.87623887  1
  O  O106  1  0.45158243  0.91693810  0.37623887  1
  O  O107  1  0.45158243  0.91693810  0.87623887  1
  O  O108  1  0.95158243  0.41693810  0.37623887  1
  O  O109  1  0.95158243  0.41693810  0.87623887  1
  O  O110  1  0.95158243  0.91693810  0.37623887  1
  O  O111  1  0.95158243  0.91693810  0.87623887  1
  O  O112  1  0.32534356  0.29069923  0.12376113  1
  O  O113  1  0.32534356  0.29069923  0.62376113  1
  O  O114  1  0.32534356  0.79069923  0.12376113  1
  O  O115  1  0.32534356  0.79069923  0.62376113  1
  O  O116  1  0.82534356  0.29069923  0.12376113  1
  O  O117  1  0.82534356  0.29069923  0.62376113  1
  O  O118  1  0.82534356  0.79069923  0.12376113  1
  O  O119  1  0.82534356  0.79069923  0.62376113  1
  O  O120  1  0.20158243  0.20930077  0.37623887  1
  O  O121  1  0.20158243  0.20930077  0.87623887  1
  O  O122  1  0.20158243  0.70930077  0.37623887  1
  O  O123  1  0.20158243  0.70930077  0.87623887  1
  O  O124  1  0.70158243  0.20930077  0.37623887  1
  O  O125  1  0.70158243  0.20930077  0.87623887  1
  O  O126  1  0.70158243  0.70930077  0.37623887  1
  O  O127  1  0.70158243  0.70930077  0.87623887  1
  O  O128  1  0.43060494  0.07224484  0.25000000  1
  O  O129  1  0.43060494  0.07224484  0.75000000  1
  O  O130  1  0.43060494  0.57224484  0.25000000  1
  O  O131  1  0.43060494  0.57224484  0.75000000  1
  O  O132  1  0.93060494  0.07224484  0.25000000  1
  O  O133  1  0.93060494  0.07224484  0.75000000  1
  O  O134  1  0.93060494  0.57224484  0.25000000  1
  O  O135  1  0.93060494  0.57224484  0.75000000  1
  O  O136  1  0.18060494  0.42775516  0.25000000  1
  O  O137  1  0.18060494  0.42775516  0.75000000  1
  O  O138  1  0.18060494  0.92775516  0.25000000  1
  O  O139  1  0.18060494  0.92775516  0.75000000  1
  O  O140  1  0.68060494  0.42775516  0.25000000  1
  O  O141  1  0.68060494  0.42775516  0.75000000  1
  O  O142  1  0.68060494  0.92775516  0.25000000  1
  O  O143  1  0.68060494  0.92775516  0.75000000  1
