# generated using pymatgen
data_SrRuO3
_symmetry_space_group_name_H-M   'P 1'
_cell_length_a   3.26335377
_cell_length_b   5.36079397
_cell_length_c   7.47387782
_cell_angle_alpha   90.00000000
_cell_angle_beta   90.00000000
_cell_angle_gamma   107.72040507
_symmetry_Int_Tables_number   1
_chemical_formula_structural   SrRuO3
_chemical_formula_sum   'Sr2 Ru2 O6'
_cell_volume   124.54562659
_cell_formula_units_Z   2
loop_
 _symmetry_equiv_pos_site_id
 _symmetry_equiv_pos_as_xyz
  1  'x, y, z'
loop_
 _atom_site_type_symbol
 _atom_site_label
 _atom_site_symmetry_multiplicity
 _atom_site_fract_x
 _atom_site_fract_y
 _atom_site_fract_z
 _atom_site_occupancy
  Sr  Sr0  1  0.24984746  0.49969492  0.25000000  1
  Sr  Sr1  1  0.75015254  0.50030508  0.75000000  1
  Ru  Ru2  1  -0.00000000  0.00000000  0.50000000  1
  Ru  Ru3  1  -0.00000000  0.00000000  -0.00000000  1
  O  O4  1  0.94593323  0.89186646  0.25000000  1
  O  O5  1  0.05406677  0.10813354  0.75000000  1
  O  O6  1  0.62234269  0.24468539  0.04527795  1
  O  O7  1  0.37765731  0.75531461  0.95472205  1
  O  O8  1  0.62234269  0.24468539  0.45472205  1
  O  O9  1  0.37765731  0.75531461  0.54527795  1
