# generated using pymatgen
data_Cr(RhSe2)2
_symmetry_space_group_name_H-M   'P 1'
_cell_length_a   3.72036932
_cell_length_b   6.57067015
_cell_length_c   6.62887217
_cell_angle_alpha   118.30245659
_cell_angle_beta   106.29712325
_cell_angle_gamma   90.00000008
_symmetry_Int_Tables_number   1
_chemical_formula_structural   Cr(RhSe2)2
_chemical_formula_sum   'Cr1 Rh2 Se4'
_cell_volume   135.23302872
_cell_formula_units_Z   1
loop_
 _symmetry_equiv_pos_site_id
 _symmetry_equiv_pos_as_xyz
  1  'x, y, z'
loop_
 _atom_site_type_symbol
 _atom_site_label
 _atom_site_symmetry_multiplicity
 _atom_site_fract_x
 _atom_site_fract_y
 _atom_site_fract_z
 _atom_site_occupancy
  Cr  Cr0  1  -0.00000000  0.00000000  0.00000000  1
  Rh  Rh1  1  0.73983732  0.72452894  0.47967463  1
  Rh  Rh2  1  0.26016268  0.27547106  0.52032537  1
  Se  Se3  1  0.63269303  0.97157266  0.26538605  1
  Se  Se4  1  0.36730697  0.02842734  0.73461395  1
  Se  Se5  1  0.87205070  0.54275650  0.74410141  1
  Se  Se6  1  0.12794930  0.45724350  0.25589859  1
