# generated using pymatgen
data_EuC2
_symmetry_space_group_name_H-M   'P 1'
_cell_length_a   4.02683055
_cell_length_b   4.02683055
_cell_length_c   7.41705337
_cell_angle_alpha   76.34300917
_cell_angle_beta   76.34300917
_cell_angle_gamma   64.66385362
_symmetry_Int_Tables_number   1
_chemical_formula_structural   EuC2
_chemical_formula_sum   'Eu2 C4'
_cell_volume   104.37172364
_cell_formula_units_Z   2
loop_
 _symmetry_equiv_pos_site_id
 _symmetry_equiv_pos_as_xyz
  1  'x, y, z'
loop_
 _atom_site_type_symbol
 _atom_site_label
 _atom_site_symmetry_multiplicity
 _atom_site_fract_x
 _atom_site_fract_y
 _atom_site_fract_z
 _atom_site_occupancy
  Eu  Eu0  1  0.81622837  0.18377163  0.25000000  1
  Eu  Eu1  1  0.18377163  0.81622837  0.75000000  1
  C  C2  1  0.14235031  0.42615258  0.44133884  1
  C  C3  1  0.57384742  0.85764969  0.05866116  1
  C  C4  1  0.85764969  0.57384742  0.55866116  1
  C  C5  1  0.42615258  0.14235031  0.94133884  1
