# generated using pymatgen
data_Ho2Ge6Pd
_symmetry_space_group_name_H-M   'P 1'
_cell_length_a   4.02877934
_cell_length_b   4.09596617
_cell_length_c   11.19111393
_cell_angle_alpha   90.00000000
_cell_angle_beta   100.36970344
_cell_angle_gamma   90.00000000
_symmetry_Int_Tables_number   1
_chemical_formula_structural   Ho2Ge6Pd
_chemical_formula_sum   'Ho2 Ge6 Pd1'
_cell_volume   181.65659399
_cell_formula_units_Z   1
loop_
 _symmetry_equiv_pos_site_id
 _symmetry_equiv_pos_as_xyz
  1  'x, y, z'
loop_
 _atom_site_type_symbol
 _atom_site_label
 _atom_site_symmetry_multiplicity
 _atom_site_fract_x
 _atom_site_fract_y
 _atom_site_fract_z
 _atom_site_occupancy
  Ge  Ge0  1  0.21219441  0.50000000  0.42438882  1
  Ge  Ge1  1  0.09818122  0.50000000  0.19636243  1
  Ge  Ge2  1  0.88993777  0.50000000  0.77987553  1
  Ge  Ge3  1  0.71366519  0.00000000  0.42733038  1
  Ge  Ge4  1  0.59985217  0.00000000  0.19970433  1
  Ge  Ge5  1  0.46232542  0.50000000  0.92465085  1
  Pd  Pd6  1  0.77951776  0.50000000  0.55903552  1
  Ho  Ho7  1  0.33820054  0.00000000  0.67640108  1
  Ho  Ho8  1  0.99812553  0.00000000  0.99625105  1
