# generated using pymatgen
data_TeMoWSe3
_symmetry_space_group_name_H-M   'P 1'
_cell_length_a   3.38205073
_cell_length_b   3.38200626
_cell_length_c   38.58939816
_cell_angle_alpha   90.00018637
_cell_angle_beta   90.00000000
_cell_angle_gamma   120.00044278
_symmetry_Int_Tables_number   1
_chemical_formula_structural   TeMoWSe3
_chemical_formula_sum   'Te2 Mo2 W2 Se6'
_cell_volume   382.25328319
_cell_formula_units_Z   2
loop_
 _symmetry_equiv_pos_site_id
 _symmetry_equiv_pos_as_xyz
  1  'x, y, z'
loop_
 _atom_site_type_symbol
 _atom_site_label
 _atom_site_symmetry_multiplicity
 _atom_site_fract_x
 _atom_site_fract_y
 _atom_site_fract_z
 _atom_site_occupancy
  Te  Te0  1  0.33335808  0.66671716  0.70650918  1
  Te  Te1  1  0.33335320  0.66670741  0.60857385  1
  Mo  Mo2  1  0.33331033  0.66662066  0.09392740  1
  Mo  Mo3  1  0.33330883  0.66661766  0.46962480  1
  W  W4  1  0.66669059  0.33338117  0.28180814  1
  W  W5  1  0.66669130  0.33338261  0.65753701  1
  Se  Se6  1  0.33335198  0.66670497  0.32480643  1
  Se  Se7  1  0.66664818  0.33329536  0.05105182  1
  Se  Se8  1  0.66664715  0.33329329  0.42678333  1
  Se  Se9  1  0.66664213  0.33328327  0.13680703  1
  Se  Se10  1  0.66664772  0.33329445  0.51252976  1
  Se  Se11  1  0.33335050  0.66670201  0.23878925  1
