# generated using pymatgen
data_TeMoWSe2S
_symmetry_space_group_name_H-M   'P 1'
_cell_length_a   3.34074312
_cell_length_b   3.34073032
_cell_length_c   38.08671012
_cell_angle_alpha   90.00025389
_cell_angle_beta   90.00000000
_cell_angle_gamma   120.00013482
_symmetry_Int_Tables_number   1
_chemical_formula_structural   TeMoWSe2S
_chemical_formula_sum   'Te2 Mo2 W2 Se4 S2'
_cell_volume   368.11880453
_cell_formula_units_Z   2
loop_
 _symmetry_equiv_pos_site_id
 _symmetry_equiv_pos_as_xyz
  1  'x, y, z'
loop_
 _atom_site_type_symbol
 _atom_site_label
 _atom_site_symmetry_multiplicity
 _atom_site_fract_x
 _atom_site_fract_y
 _atom_site_fract_z
 _atom_site_occupancy
  Te  Te0  1  0.33336446  0.66672992  0.70735750  1
  Te  Te1  1  0.33334961  0.66670022  0.60776147  1
  Mo  Mo2  1  0.33330447  0.66660894  0.09390692  1
  Mo  Mo3  1  0.66669250  0.33338499  0.65758033  1
  W  W4  1  0.33330835  0.66661669  0.46965118  1
  W  W5  1  0.66668970  0.33337940  0.28180491  1
  Se  Se6  1  0.66664639  0.33329178  0.05014649  1
  Se  Se7  1  0.66664790  0.33329479  0.42567055  1
  Se  Se8  1  0.66664306  0.33328512  0.13767766  1
  Se  Se9  1  0.66664845  0.33329589  0.51361112  1
  S  S10  1  0.33335375  0.66670850  0.32179278  1
  S  S11  1  0.33335138  0.66670376  0.24178710  1
