# generated using pymatgen
data_Ba3SnS5
_symmetry_space_group_name_H-M   'P 1'
_cell_length_a   8.56661287
_cell_length_b   9.46515140
_cell_length_c   8.56661287
_cell_angle_alpha   63.09359612
_cell_angle_beta   90.00000000
_cell_angle_gamma   116.90640388
_symmetry_Int_Tables_number   1
_chemical_formula_structural   Ba3SnS5
_chemical_formula_sum   'Ba6 Sn2 S10'
_cell_volume   533.73823432
_cell_formula_units_Z   2
loop_
 _symmetry_equiv_pos_site_id
 _symmetry_equiv_pos_as_xyz
  1  'x, y, z'
loop_
 _atom_site_type_symbol
 _atom_site_label
 _atom_site_symmetry_multiplicity
 _atom_site_fract_x
 _atom_site_fract_y
 _atom_site_fract_z
 _atom_site_occupancy
  Ba  Ba0  1  0.75000000  0.50000000  0.25000000  1
  Ba  Ba1  1  0.25000000  0.50000000  0.75000000  1
  Ba  Ba2  1  0.33614013  0.00000000  0.16385987  1
  Ba  Ba3  1  0.66385987  -0.00000000  0.83614013  1
  Ba  Ba4  1  0.16385987  0.00000000  0.66385987  1
  Ba  Ba5  1  0.83614013  -0.00000000  0.33614013  1
  Sn  Sn6  1  0.25000000  0.50000000  0.25000000  1
  Sn  Sn7  1  0.75000000  0.50000000  0.75000000  1
  S  S8  1  0.50000000  0.00000000  0.50000000  1
  S  S9  1  0.00000000  -0.00000000  -0.00000000  1
  S  S10  1  0.29886098  0.29322591  0.20113902  1
  S  S11  1  0.99436494  0.29322591  0.50563506  1
  S  S12  1  0.49436494  0.29322591  0.70113902  1
  S  S13  1  0.79886098  0.29322591  0.00563506  1
  S  S14  1  0.70113902  0.70677409  0.79886098  1
  S  S15  1  0.00563506  0.70677409  0.49436494  1
  S  S16  1  0.50563506  0.70677409  0.29886098  1
  S  S17  1  0.20113902  0.70677409  0.99436494  1
