# generated using pymatgen
data_Te2Mo(WSe2)3
_symmetry_space_group_name_H-M   'P 1'
_cell_length_a   3.38099200
_cell_length_b   3.38096602
_cell_length_c   38.64300345
_cell_angle_alpha   90.00009496
_cell_angle_beta   90.00000000
_cell_angle_gamma   120.00025422
_symmetry_Int_Tables_number   1
_chemical_formula_structural   Te2Mo(WSe2)3
_chemical_formula_sum   'Te2 Mo1 W3 Se6'
_cell_volume   382.54747672
_cell_formula_units_Z   1
loop_
 _symmetry_equiv_pos_site_id
 _symmetry_equiv_pos_as_xyz
  1  'x, y, z'
loop_
 _atom_site_type_symbol
 _atom_site_label
 _atom_site_symmetry_multiplicity
 _atom_site_fract_x
 _atom_site_fract_y
 _atom_site_fract_z
 _atom_site_occupancy
  Te  Te0  1  0.66664826  0.33329552  0.42074870  1
  Te  Te1  1  0.66665235  0.33330369  0.51856920  1
  Mo  Mo2  1  0.33331119  0.66662238  0.09391611  1
  W  W3  1  0.33331143  0.66662286  0.46966868  1
  W  W4  1  0.66668676  0.33337353  0.28177697  1
  W  W5  1  0.66668891  0.33337781  0.65756049  1
  Se  Se6  1  0.33335052  0.66670203  0.32477295  1
  Se  Se7  1  0.33335222  0.66670544  0.70053485  1
  Se  Se8  1  0.66664663  0.33329227  0.05107803  1
  Se  Se9  1  0.66664907  0.33329715  0.13677775  1
  Se  Se10  1  0.33334981  0.66670062  0.23878855  1
  Se  Se11  1  0.33335285  0.66670669  0.61455571  1
