# generated using pymatgen
data_La2CuGe6
_symmetry_space_group_name_H-M   'P 1'
_cell_length_a   4.22790294
_cell_length_b   4.17499353
_cell_length_c   11.33293761
_cell_angle_alpha   100.61433612
_cell_angle_beta   90.00000000
_cell_angle_gamma   90.00000000
_symmetry_Int_Tables_number   1
_chemical_formula_structural   La2CuGe6
_chemical_formula_sum   'La2 Cu1 Ge6'
_cell_volume   196.62010184
_cell_formula_units_Z   1
loop_
 _symmetry_equiv_pos_site_id
 _symmetry_equiv_pos_as_xyz
  1  'x, y, z'
loop_
 _atom_site_type_symbol
 _atom_site_label
 _atom_site_symmetry_multiplicity
 _atom_site_fract_x
 _atom_site_fract_y
 _atom_site_fract_z
 _atom_site_occupancy
  La  La0  1  0.00000000  0.00172522  0.00345045  1
  La  La1  1  0.00000000  0.67084192  0.34168385  1
  Cu  Cu2  1  0.50000000  0.22760155  0.45520310  1
  Ge  Ge3  1  0.00000000  0.28357072  0.56714144  1
  Ge  Ge4  1  -0.00000000  0.39455839  0.78911679  1
  Ge  Ge5  1  0.50000000  0.55297832  0.10595664  1
  Ge  Ge6  1  0.50000000  0.11898327  0.23796655  1
  Ge  Ge7  1  0.50000000  0.89615178  0.79230356  1
  Ge  Ge8  1  0.50000000  0.78458882  0.56917764  1
