# generated using pymatgen
data_TlBiF4
_symmetry_space_group_name_H-M   'P 1'
_cell_length_a   8.75593767
_cell_length_b   11.28481856
_cell_length_c   7.11903682
_cell_angle_alpha   29.60773080
_cell_angle_beta   52.05051306
_cell_angle_gamma   39.11291627
_symmetry_Int_Tables_number   1
_chemical_formula_structural   TlBiF4
_chemical_formula_sum   'Tl2 Bi2 F8'
_cell_volume   215.19274999
_cell_formula_units_Z   2
loop_
 _symmetry_equiv_pos_site_id
 _symmetry_equiv_pos_as_xyz
  1  'x, y, z'
loop_
 _atom_site_type_symbol
 _atom_site_label
 _atom_site_symmetry_multiplicity
 _atom_site_fract_x
 _atom_site_fract_y
 _atom_site_fract_z
 _atom_site_occupancy
  Tl  Tl0  1  0.00000000  0.00000000  -0.00000000  1
  Tl  Tl1  1  0.75000000  0.50000000  -0.00000000  1
  Bi  Bi2  1  0.50000000  0.00000000  -0.00000000  1
  Bi  Bi3  1  0.25000000  0.50000000  -0.00000000  1
  F  F4  1  0.17499618  0.95000382  0.29999618  1
  F  F5  1  0.57500382  0.04999618  0.20000382  1
  F  F6  1  0.37500000  0.45000382  0.29999618  1
  F  F7  1  0.17499618  0.45000382  0.79999618  1
  F  F8  1  0.87500000  0.54999618  0.20000382  1
  F  F9  1  0.57500382  0.54999618  0.70000382  1
  F  F10  1  0.37500000  0.04999618  0.70000382  1
  F  F11  1  0.87500000  0.95000382  0.79999618  1
