# generated using pymatgen
data_Li9Mn7O16
_symmetry_space_group_name_H-M   'P 1'
_cell_length_a   5.75304693
_cell_length_b   5.84548862
_cell_length_c   8.82584576
_cell_angle_alpha   90.51702286
_cell_angle_beta   90.00000000
_cell_angle_gamma   90.00000000
_symmetry_Int_Tables_number   1
_chemical_formula_structural   Li9Mn7O16
_chemical_formula_sum   'Li9 Mn7 O16'
_cell_volume   296.79555132
_cell_formula_units_Z   1
loop_
 _symmetry_equiv_pos_site_id
 _symmetry_equiv_pos_as_xyz
  1  'x, y, z'
loop_
 _atom_site_type_symbol
 _atom_site_label
 _atom_site_symmetry_multiplicity
 _atom_site_fract_x
 _atom_site_fract_y
 _atom_site_fract_z
 _atom_site_occupancy
  Li  Li0  1  0.74558305  0.24795196  0.24093361  1
  Li  Li1  1  0.74558305  0.75204804  0.75906639  1
  Li  Li2  1  0.50000000  -0.00000000  0.50000000  1
  Li  Li3  1  0.50000000  0.50000000  0.00000000  1
  Li  Li4  1  0.25441695  0.75204804  0.75906639  1
  Li  Li5  1  0.25441695  0.24795196  0.24093361  1
  Li  Li6  1  0.00000000  0.50000000  0.00000000  1
  Li  Li7  1  0.00000000  -0.00000000  0.50000000  1
  Li  Li8  1  0.50000000  -0.00000000  0.00000000  1
  Mn  Mn9  1  0.00000000  -0.00000000  0.00000000  1
  Mn  Mn10  1  0.25118857  0.75364020  0.24063909  1
  Mn  Mn11  1  0.00000000  0.50000000  0.50000000  1
  Mn  Mn12  1  0.74881143  0.75364020  0.24063909  1
  Mn  Mn13  1  0.74881143  0.24635980  0.75936091  1
  Mn  Mn14  1  0.50000000  0.50000000  0.50000000  1
  Mn  Mn15  1  0.25118857  0.24635980  0.75936091  1
  O  O16  1  0.76146110  0.23574465  0.98713478  1
  O  O17  1  0.74927396  0.72769848  0.49423539  1
  O  O18  1  0.50000000  0.97582928  0.25526683  1
  O  O19  1  0.50000000  0.48084803  0.75591535  1
  O  O20  1  0.25072604  0.72769848  0.49423539  1
  O  O21  1  0.23853890  0.23574465  0.98713478  1
  O  O22  1  -0.00000000  0.47418460  0.74998947  1
  O  O23  1  0.00000000  0.98352557  0.25710233  1
  O  O24  1  0.74927396  0.27230152  0.50576461  1
  O  O25  1  0.76146110  0.76425535  0.01286522  1
  O  O26  1  0.50000000  0.02417072  0.74473317  1
  O  O27  1  0.50000000  0.51915197  0.24408465  1
  O  O28  1  0.23853890  0.76425535  0.01286522  1
  O  O29  1  0.25072604  0.27230152  0.50576461  1
  O  O30  1  -0.00000000  0.52581540  0.25001053  1
  O  O31  1  0.00000000  0.01647443  0.74289767  1
