# generated using pymatgen
data_Li9Mn7O16
_symmetry_space_group_name_H-M   'P 1'
_cell_length_a   5.76639840
_cell_length_b   6.51841820
_cell_length_c   9.30408935
_cell_angle_alpha   82.66178770
_cell_angle_beta   71.94768811
_cell_angle_gamma   63.74827117
_symmetry_Int_Tables_number   1
_chemical_formula_structural   Li9Mn7O16
_chemical_formula_sum   'Li9 Mn7 O16'
_cell_volume   298.19223424
_cell_formula_units_Z   1
loop_
 _symmetry_equiv_pos_site_id
 _symmetry_equiv_pos_as_xyz
  1  'x, y, z'
loop_
 _atom_site_type_symbol
 _atom_site_label
 _atom_site_symmetry_multiplicity
 _atom_site_fract_x
 _atom_site_fract_y
 _atom_site_fract_z
 _atom_site_occupancy
  Li  Li0  1  0.50126789  0.24795137  0.24139443  1
  Li  Li1  1  0.99061370  0.75204863  0.75860557  1
  Li  Li2  1  0.25074978  0.99912385  0.49937658  1
  Li  Li3  1  0.74797280  0.50530814  0.99874627  1
  Li  Li4  1  0.25202720  0.49469186  0.00125373  1
  Li  Li5  1  0.74925022  0.00087615  0.50062342  1
  Li  Li6  1  0.00938630  0.24795137  0.24139443  1
  Li  Li7  1  0.49873211  0.75204863  0.75860557  1
  Li  Li8  1  0.50000000  0.00000000  0.00000000  1
  Mn  Mn9  1  -0.00000000  0.00000000  0.00000000  1
  Mn  Mn10  1  0.74529850  0.24690744  0.75940509  1
  Mn  Mn11  1  0.50000000  0.50000000  0.50000000  1
  Mn  Mn12  1  0.75161102  0.75309256  0.24059491  1
  Mn  Mn13  1  0.24838898  0.24690744  0.75940509  1
  Mn  Mn14  1  0.25470150  0.75309256  0.24059491  1
  Mn  Mn15  1  -0.00000000  0.50000000  0.50000000  1
  O  O16  1  0.64951963  0.23635857  0.98774756  1
  O  O17  1  0.13833990  0.72844276  0.49492528  1
  O  O18  1  0.38388385  0.97660806  0.25562423  1
  O  O19  1  0.88559295  0.47719019  0.75162390  1
  O  O20  1  0.38396138  0.47913969  0.75293756  1
  O  O21  1  0.88007618  0.98257872  0.25726892  1
  O  O22  1  0.12637424  0.23635857  0.98774756  1
  O  O23  1  0.63829206  0.72844276  0.49492528  1
  O  O24  1  0.36170794  0.27155724  0.50507472  1
  O  O25  1  0.87362576  0.76364143  0.01225244  1
  O  O26  1  0.11992382  0.01742128  0.74273108  1
  O  O27  1  0.61603862  0.52086031  0.24706244  1
  O  O28  1  0.11440705  0.52280981  0.24837610  1
  O  O29  1  0.61611615  0.02339194  0.74437577  1
  O  O30  1  0.86166010  0.27155724  0.50507472  1
  O  O31  1  0.35048037  0.76364143  0.01225244  1
