# generated using pymatgen
data_BaAgO2
_symmetry_space_group_name_H-M   'P 1'
_cell_length_a   3.91737519
_cell_length_b   6.30019601
_cell_length_c   6.30019615
_cell_angle_alpha   105.29212883
_cell_angle_beta   90.50395563
_cell_angle_gamma   90.50394221
_symmetry_Int_Tables_number   1
_chemical_formula_structural   BaAgO2
_chemical_formula_sum   'Ba2 Ag2 O4'
_cell_volume   149.96919712
_cell_formula_units_Z   2
loop_
 _symmetry_equiv_pos_site_id
 _symmetry_equiv_pos_as_xyz
  1  'x, y, z'
loop_
 _atom_site_type_symbol
 _atom_site_label
 _atom_site_symmetry_multiplicity
 _atom_site_fract_x
 _atom_site_fract_y
 _atom_site_fract_z
 _atom_site_occupancy
  Ba  Ba0  1  0.00000000  0.50000000  -0.00000000  1
  Ba  Ba1  1  0.00000000  -0.00000000  0.50000000  1
  Ag  Ag2  1  0.50000000  -0.00000000  -0.00000000  1
  Ag  Ag3  1  0.50000000  0.50000000  0.50000000  1
  O  O4  1  0.50000000  0.29351887  0.70648113  1
  O  O5  1  0.50000000  0.70648113  0.29351887  1
  O  O6  1  0.27315001  0.24810392  0.24810392  1
  O  O7  1  0.72684999  0.75189608  0.75189608  1
