# generated using pymatgen
data_Ca2Sn3S8
_symmetry_space_group_name_H-M   'P 1'
_cell_length_a   7.55889130
_cell_length_b   7.55884901
_cell_length_c   7.91439192
_cell_angle_alpha   61.48152952
_cell_angle_beta   61.47522863
_cell_angle_gamma   59.99981543
_symmetry_Int_Tables_number   1
_chemical_formula_structural   Ca2Sn3S8
_chemical_formula_sum   'Ca2 Sn3 S8'
_cell_volume   326.71356958
_cell_formula_units_Z   1
loop_
 _symmetry_equiv_pos_site_id
 _symmetry_equiv_pos_as_xyz
  1  'x, y, z'
loop_
 _atom_site_type_symbol
 _atom_site_label
 _atom_site_symmetry_multiplicity
 _atom_site_fract_x
 _atom_site_fract_y
 _atom_site_fract_z
 _atom_site_occupancy
  Ca  Ca0  1  0.15679780  0.15680444  0.52959996  1
  Ca  Ca1  1  0.84320220  0.84319556  0.47040004  1
  Sn  Sn2  1  0.50000000  -0.00000000  0.99999800  1
  Sn  Sn3  1  0.50000000  0.50000000  0.99999800  1
  Sn  Sn4  1  -0.00000000  0.50000000  0.00000000  1
  S  S5  1  0.42734728  0.89869766  0.77526895  1
  S  S6  1  0.89869656  0.42731840  0.77528648  1
  S  S7  1  0.89868311  0.89869766  0.77526995  1
  S  S8  1  0.57265272  0.10130234  0.22472805  1
  S  S9  1  0.10130344  0.57268160  0.22471052  1
  S  S10  1  0.10131689  0.10130234  0.22472705  1
  S  S11  1  0.40669301  0.40670625  0.77990773  1
  S  S12  1  0.59330699  0.59329375  0.22009227  1
