# generated using pymatgen
data_HfMg14V
_symmetry_space_group_name_H-M   'P 1'
_cell_length_a   6.36861332
_cell_length_b   6.23451829
_cell_length_c   10.18761451
_cell_angle_alpha   90.00000000
_cell_angle_beta   90.00000000
_cell_angle_gamma   119.30590171
_symmetry_Int_Tables_number   1
_chemical_formula_structural   HfMg14V
_chemical_formula_sum   'Hf1 Mg14 V1'
_cell_volume   352.73305946
_cell_formula_units_Z   1
loop_
 _symmetry_equiv_pos_site_id
 _symmetry_equiv_pos_as_xyz
  1  'x, y, z'
loop_
 _atom_site_type_symbol
 _atom_site_label
 _atom_site_symmetry_multiplicity
 _atom_site_fract_x
 _atom_site_fract_y
 _atom_site_fract_z
 _atom_site_occupancy
  Hf  Hf0  1  0.16347247  0.83173574  0.12500000  1
  Mg  Mg1  1  0.16558181  0.33279040  0.62500000  1
  Mg  Mg2  1  0.16684574  0.83342237  0.62500000  1
  Mg  Mg3  1  0.66150933  0.33491995  0.12500000  1
  Mg  Mg4  1  0.66524277  0.33155573  0.62500000  1
  Mg  Mg5  1  0.66150933  0.82658838  0.12500000  1
  Mg  Mg6  1  0.66524277  0.83368604  0.62500000  1
  Mg  Mg7  1  0.32975531  0.16647677  0.36971517  1
  Mg  Mg8  1  0.32975531  0.16647677  0.88028483  1
  Mg  Mg9  1  0.32975531  0.66327955  0.36971517  1
  Mg  Mg10  1  0.32975531  0.66327955  0.88028483  1
  Mg  Mg11  1  0.84222898  0.17111499  0.36715474  1
  Mg  Mg12  1  0.84222898  0.17111499  0.88284526  1
  Mg  Mg13  1  0.84038534  0.67019317  0.37502291  1
  Mg  Mg14  1  0.84038534  0.67019317  0.87497709  1
  V  V15  1  0.16634586  0.33317243  0.12500000  1
