# generated using pymatgen
data_Li9Mn7O16
_symmetry_space_group_name_H-M   'P 1'
_cell_length_a   5.75303276
_cell_length_b   5.85229280
_cell_length_c   9.28540740
_cell_angle_alpha   90.53602902
_cell_angle_beta   71.95348725
_cell_angle_gamma   90.00000528
_symmetry_Int_Tables_number   1
_chemical_formula_structural   Li9Mn7O16
_chemical_formula_sum   'Li9 Mn7 O16'
_cell_volume   297.23123580
_cell_formula_units_Z   1
loop_
 _symmetry_equiv_pos_site_id
 _symmetry_equiv_pos_as_xyz
  1  'x, y, z'
loop_
 _atom_site_type_symbol
 _atom_site_label
 _atom_site_symmetry_multiplicity
 _atom_site_fract_x
 _atom_site_fract_y
 _atom_site_fract_z
 _atom_site_occupancy
  Li  Li0  1  0.62511839  0.24798954  0.24126349  1
  Li  Li1  1  0.37488161  0.75201046  0.75873651  1
  Li  Li2  1  0.25038043  0.99922826  0.49923915  1
  Li  Li3  1  0.00000000  0.50000000  -0.00000000  1
  Li  Li4  1  0.86638187  0.75201046  0.75873651  1
  Li  Li5  1  0.50000000  0.50000000  -0.00000000  1
  Li  Li6  1  0.13361813  0.24798954  0.24126349  1
  Li  Li7  1  0.74961957  0.00077174  0.50076085  1
  Li  Li8  1  0.50000000  0.00000000  -0.00000000  1
  Mn  Mn9  1  0.00000000  0.00000000  -0.00000000  1
  Mn  Mn10  1  0.62845901  0.75334820  0.24043966  1
  Mn  Mn11  1  0.75034451  0.50027427  0.49931098  1
  Mn  Mn12  1  0.24965549  0.49972573  0.50068902  1
  Mn  Mn13  1  0.37154099  0.24665180  0.75956034  1
  Mn  Mn14  1  0.13110133  0.75334820  0.24043966  1
  Mn  Mn15  1  0.86889867  0.24665180  0.75956034  1
  O  O16  1  0.76768265  0.23556280  0.98748856  1
  O  O17  1  0.50252104  0.72783835  0.49471467  1
  O  O18  1  0.37225395  0.97563468  0.25549210  1
  O  O19  1  0.12483882  0.47356545  0.75032235  1
  O  O20  1  0.00276429  0.72783835  0.49471467  1
  O  O21  1  0.62254421  0.48055017  0.75491157  1
  O  O22  1  0.24482879  0.23556280  0.98748856  1
  O  O23  1  0.87141919  0.98379031  0.25716161  1
  O  O24  1  0.49747896  0.27216165  0.50528533  1
  O  O25  1  0.23231735  0.76443720  0.01251144  1
  O  O26  1  0.12858081  0.01620969  0.74283839  1
  O  O27  1  0.87516118  0.52643455  0.24967765  1
  O  O28  1  0.75517121  0.76443720  0.01251144  1
  O  O29  1  0.37745579  0.51944983  0.24508843  1
  O  O30  1  0.99723571  0.27216165  0.50528533  1
  O  O31  1  0.62774605  0.02436532  0.74450790  1
