# generated using pymatgen
data_Y2PbS4
_symmetry_space_group_name_H-M   'P 1'
_cell_length_a   8.11873873
_cell_length_b   12.13913469
_cell_length_c   14.88706737
_cell_angle_alpha   90.00000000
_cell_angle_beta   105.84496158
_cell_angle_gamma   90.00000000
_symmetry_Int_Tables_number   1
_chemical_formula_structural   Y2PbS4
_chemical_formula_sum   'Y16 Pb8 S32'
_cell_volume   1411.43974122
_cell_formula_units_Z   8
loop_
 _symmetry_equiv_pos_site_id
 _symmetry_equiv_pos_as_xyz
  1  'x, y, z'
loop_
 _atom_site_type_symbol
 _atom_site_label
 _atom_site_symmetry_multiplicity
 _atom_site_fract_x
 _atom_site_fract_y
 _atom_site_fract_z
 _atom_site_occupancy
  Y  Y0  1  0.07204823  0.77497272  0.64155874  1
  Y  Y1  1  0.17304929  0.27020315  0.84728912  1
  Y  Y2  1  0.07129423  0.42056600  0.13695316  1
  Y  Y3  1  0.17942507  0.92420149  0.35872297  1
  Y  Y4  1  0.32452048  0.43342052  0.65261166  1
  Y  Y5  1  0.42869135  0.92944000  0.86419260  1
  Y  Y6  1  0.32507615  0.76973801  0.15361469  1
  Y  Y7  1  0.42606862  0.27615883  0.35803793  1
  Y  Y8  1  0.57393138  0.77615883  0.64196207  1
  Y  Y9  1  0.67492385  0.26973801  0.84638531  1
  Y  Y10  1  0.57130865  0.42944000  0.13580740  1
  Y  Y11  1  0.67547952  0.93342052  0.34738834  1
  Y  Y12  1  0.82057493  0.42420149  0.64127703  1
  Y  Y13  1  0.92870577  0.92056600  0.86304684  1
  Y  Y14  1  0.82695071  0.77020315  0.15271088  1
  Y  Y15  1  0.92795177  0.27497272  0.35844126  1
  Pb  Pb16  1  0.04692358  0.08610894  0.58603597  1
  Pb  Pb17  1  0.05331515  0.06426243  0.09757092  1
  Pb  Pb18  1  0.45276629  0.62665044  0.91657354  1
  Pb  Pb19  1  0.45890808  0.58348092  0.41709226  1
  Pb  Pb20  1  0.54109192  0.08348092  0.58290774  1
  Pb  Pb21  1  0.54723371  0.12665044  0.08342646  1
  Pb  Pb22  1  0.94668485  0.56426243  0.90242908  1
  Pb  Pb23  1  0.95307642  0.58610894  0.41396403  1
  S  S24  1  0.01885759  0.38354760  0.52651699  1
  S  S25  1  0.12788254  0.48077145  0.77036713  1
  S  S26  1  0.16711659  0.77350653  0.83040064  1
  S  S27  1  0.20537677  0.06285765  0.92360114  1
  S  S28  1  0.02011879  0.84204863  0.04134821  1
  S  S29  1  0.13807617  0.72122038  0.27822559  1
  S  S30  1  0.16108939  0.42949154  0.32481592  1
  S  S31  1  0.21099107  0.14079182  0.42385363  1
  S  S32  1  0.29214504  0.64409686  0.58006386  1
  S  S33  1  0.33675049  0.93231160  0.67389077  1
  S  S34  1  0.36175844  0.22638343  0.72419260  1
  S  S35  1  0.48472163  0.32169945  0.96660768  1
  S  S36  1  0.28761692  0.56265975  0.07734533  1
  S  S37  1  0.36008344  0.98004053  0.23035701  1
  S  S38  1  0.34136269  0.27454074  0.16968572  1
  S  S39  1  0.50481992  0.38422858  0.52677291  1
  S  S40  1  0.49518008  0.88422858  0.47322709  1
  S  S41  1  0.65863731  0.77454074  0.83031428  1
  S  S42  1  0.63991656  0.48004053  0.76964299  1
  S  S43  1  0.71238308  0.06265975  0.92265467  1
  S  S44  1  0.51527837  0.82169945  0.03339232  1
  S  S45  1  0.63824156  0.72638343  0.27580740  1
  S  S46  1  0.66324951  0.43231160  0.32610923  1
  S  S47  1  0.70785496  0.14409686  0.41993614  1
  S  S48  1  0.78900893  0.64079182  0.57614637  1
  S  S49  1  0.83891061  0.92949154  0.67518408  1
  S  S50  1  0.86192383  0.22122038  0.72177441  1
  S  S51  1  0.97988121  0.34204863  0.95865179  1
  S  S52  1  0.79462323  0.56285765  0.07639886  1
  S  S53  1  0.83288341  0.27350653  0.16959936  1
  S  S54  1  0.87211746  0.98077145  0.22963287  1
  S  S55  1  0.98114241  0.88354760  0.47348301  1
