# generated using pymatgen
data_Li9Mn7O16
_symmetry_space_group_name_H-M   'P 1'
_cell_length_a   5.75416986
_cell_length_b   8.83686903
_cell_length_c   6.51208114
_cell_angle_alpha   89.47108686
_cell_angle_beta   116.21925267
_cell_angle_gamma   90.00000108
_symmetry_Int_Tables_number   1
_chemical_formula_structural   Li9Mn7O16
_chemical_formula_sum   'Li9 Mn7 O16'
_cell_volume   297.04591629
_cell_formula_units_Z   1
loop_
 _symmetry_equiv_pos_site_id
 _symmetry_equiv_pos_as_xyz
  1  'x, y, z'
loop_
 _atom_site_type_symbol
 _atom_site_label
 _atom_site_symmetry_multiplicity
 _atom_site_fract_x
 _atom_site_fract_y
 _atom_site_fract_z
 _atom_site_occupancy
  Li  Li0  1  0.62190098  0.24229734  0.75183409  1
  Li  Li1  1  0.37809902  0.75770266  0.24816591  1
  Li  Li2  1  0.12993311  0.24229734  0.75183409  1
  Li  Li3  1  0.50000000  0.50000000  0.00000000  1
  Li  Li4  1  0.25252672  0.00101578  0.50505344  1
  Li  Li5  1  0.00000000  0.50000000  0.00000000  1
  Li  Li6  1  0.87006689  0.75770266  0.24816591  1
  Li  Li7  1  0.74747328  0.99898422  0.49494656  1
  Li  Li8  1  0.50000000  0.00000000  0.00000000  1
  Mn  Mn9  1  0.00000000  0.00000000  0.00000000  1
  Mn  Mn10  1  0.62512567  0.75961171  0.75323255  1
  Mn  Mn11  1  0.75010729  0.49993881  0.50021457  1
  Mn  Mn12  1  0.24989271  0.50006119  0.49978543  1
  Mn  Mn13  1  0.37487433  0.24038829  0.24676745  1
  Mn  Mn14  1  0.12810688  0.75961171  0.75323255  1
  Mn  Mn15  1  0.87189312  0.24038829  0.24676745  1
  O  O16  1  0.64351999  0.98802655  0.76330599  1
  O  O17  1  0.38608926  0.49547658  0.27182797  1
  O  O18  1  0.11978600  0.98802655  0.76330599  1
  O  O19  1  0.51164704  0.25529053  0.02329409  1
  O  O20  1  0.26110843  0.75274540  0.52221687  1
  O  O21  1  0.00885021  0.25657436  0.01770043  1
  O  O22  1  0.88573871  0.49547658  0.27182797  1
  O  O23  1  0.76163817  0.75107914  0.52327635  1
  O  O24  1  0.61391074  0.50452342  0.72817203  1
  O  O25  1  0.35648001  0.01197345  0.23669401  1
  O  O26  1  0.11426129  0.50452342  0.72817203  1
  O  O27  1  0.48835296  0.74470947  0.97670591  1
  O  O28  1  0.23836183  0.24892086  0.47672365  1
  O  O29  1  0.99114979  0.74342564  0.98229957  1
  O  O30  1  0.88021400  0.01197345  0.23669401  1
  O  O31  1  0.73889157  0.24725460  0.47778313  1
