# generated using pymatgen
data_Nd2(BiO2)7
_symmetry_space_group_name_H-M   'P 1'
_cell_length_a   10.68918208
_cell_length_b   3.97183197
_cell_length_c   10.73284412
_cell_angle_alpha   90.00000188
_cell_angle_beta   66.11708389
_cell_angle_gamma   79.29295288
_symmetry_Int_Tables_number   1
_chemical_formula_structural   Nd2(BiO2)7
_chemical_formula_sum   'Nd2 Bi7 O14'
_cell_volume   407.96161460
_cell_formula_units_Z   1
loop_
 _symmetry_equiv_pos_site_id
 _symmetry_equiv_pos_as_xyz
  1  'x, y, z'
loop_
 _atom_site_type_symbol
 _atom_site_label
 _atom_site_symmetry_multiplicity
 _atom_site_fract_x
 _atom_site_fract_y
 _atom_site_fract_z
 _atom_site_occupancy
  Nd  Nd0  1  0.00002789  -0.00001445  0.99684294  1
  Nd  Nd1  1  0.66244469  0.66877766  0.01411731  1
  Bi  Bi2  1  0.34364092  0.32818004  0.98323882  1
  Bi  Bi3  1  0.02524394  0.48737753  0.68602037  1
  Bi  Bi4  1  0.31308102  0.84345949  0.32193545  1
  Bi  Bi5  1  0.64518648  0.17740626  0.31208063  1
  Bi  Bi6  1  0.36255634  0.81872183  0.68786181  1
  Bi  Bi7  1  0.68938786  0.15530657  0.67270923  1
  Bi  Bi8  1  0.98263500  0.50868300  0.30793354  1
  O  O9  1  0.06815971  0.46591964  0.09140322  1
  O  O10  1  0.11187718  0.94406141  0.30863982  1
  O  O11  1  0.31166565  0.34416667  0.40770112  1
  O  O12  1  0.13301872  0.93349064  0.74058791  1
  O  O13  1  0.41330285  0.79334807  0.10304111  1
  O  O14  1  0.41720583  0.29139708  0.75027688  1
  O  O15  1  0.73857598  0.13071201  0.08920931  1
  O  O16  1  0.57832375  0.71083813  0.25882589  1
  O  O17  1  0.27114207  0.86442897  0.91168544  1
  O  O18  1  0.86892479  0.06553710  0.26768869  1
  O  O19  1  0.59469487  0.20265257  0.89738628  1
  O  O20  1  0.65035073  0.67482414  0.60436985  1
  O  O21  1  0.89537576  0.05231262  0.68358046  1
  O  O22  1  0.92317898  0.53841001  0.90286492  1
