# generated using pymatgen
data_Sn2(SO4)3
_symmetry_space_group_name_H-M   'P 1'
_cell_length_a   8.84881274
_cell_length_b   8.72120429
_cell_length_c   26.21943376
_cell_angle_alpha   90.00000000
_cell_angle_beta   90.00000000
_cell_angle_gamma   90.00000000
_symmetry_Int_Tables_number   1
_chemical_formula_structural   Sn2(SO4)3
_chemical_formula_sum   'Sn16 S24 O96'
_cell_volume   2023.41410312
_cell_formula_units_Z   8
loop_
 _symmetry_equiv_pos_site_id
 _symmetry_equiv_pos_as_xyz
  1  'x, y, z'
loop_
 _atom_site_type_symbol
 _atom_site_label
 _atom_site_symmetry_multiplicity
 _atom_site_fract_x
 _atom_site_fract_y
 _atom_site_fract_z
 _atom_site_occupancy
  Sn  Sn0  1  0.97207312  0.38018804  0.06406302  1
  Sn  Sn1  1  0.97207312  0.11981196  0.56406302  1
  Sn  Sn2  1  0.00438224  0.78713407  0.18027869  1
  Sn  Sn3  1  0.00438224  0.71286593  0.68027869  1
  Sn  Sn4  1  0.49561776  0.28713407  0.18027869  1
  Sn  Sn5  1  0.49561776  0.21286593  0.68027869  1
  Sn  Sn6  1  0.52792688  0.61981196  0.56406302  1
  Sn  Sn7  1  0.52792688  0.88018804  0.06406302  1
  Sn  Sn8  1  0.47207312  0.38018804  0.43593698  1
  Sn  Sn9  1  0.47207312  0.11981196  0.93593698  1
  Sn  Sn10  1  0.50438224  0.71286593  0.81972131  1
  Sn  Sn11  1  0.50438224  0.78713407  0.31972131  1
  Sn  Sn12  1  0.99561776  0.28713407  0.31972131  1
  Sn  Sn13  1  0.99561776  0.21286593  0.81972131  1
  Sn  Sn14  1  0.02792688  0.88018804  0.43593698  1
  Sn  Sn15  1  0.02792688  0.61981196  0.93593698  1
  S  S16  1  0.14574662  0.92512736  0.29482261  1
  S  S17  1  0.14574662  0.57487264  0.79482261  1
  S  S18  1  0.10444217  0.27501286  0.44059749  1
  S  S19  1  0.10444217  0.22498714  0.94059749  1
  S  S20  1  0.19647573  0.08270086  0.12863457  1
  S  S21  1  0.19647573  0.41729914  0.62863457  1
  S  S22  1  0.30352427  0.58270086  0.12863457  1
  S  S23  1  0.30352427  0.91729914  0.62863457  1
  S  S24  1  0.39555783  0.77501286  0.44059749  1
  S  S25  1  0.39555783  0.72498714  0.94059749  1
  S  S26  1  0.35425338  0.42512736  0.29482261  1
  S  S27  1  0.35425338  0.07487264  0.79482261  1
  S  S28  1  0.64574662  0.57487264  0.70517739  1
  S  S29  1  0.64574662  0.92512736  0.20517739  1
  S  S30  1  0.60444217  0.27501286  0.05940251  1
  S  S31  1  0.60444217  0.22498714  0.55940251  1
  S  S32  1  0.69647573  0.08270086  0.37136543  1
  S  S33  1  0.69647573  0.41729914  0.87136543  1
  S  S34  1  0.80352427  0.58270086  0.37136543  1
  S  S35  1  0.80352427  0.91729914  0.87136543  1
  S  S36  1  0.89555783  0.77501286  0.05940251  1
  S  S37  1  0.89555783  0.72498714  0.55940251  1
  S  S38  1  0.85425338  0.42512736  0.20517739  1
  S  S39  1  0.85425338  0.07487264  0.70517739  1
  O  O40  1  0.07610052  0.43695550  0.43815212  1
  O  O41  1  0.07610052  0.06304450  0.93815212  1
  O  O42  1  0.09768528  0.08690301  0.28284756  1
  O  O43  1  0.09768528  0.41309699  0.78284756  1
  O  O44  1  0.99660764  0.18557912  0.47227803  1
  O  O45  1  0.99660764  0.31442088  0.97227803  1
  O  O46  1  0.08602390  0.86758348  0.34243490  1
  O  O47  1  0.08602390  0.63241652  0.84243490  1
  O  O48  1  0.11761774  0.18182102  0.09267535  1
  O  O49  1  0.11761774  0.31817898  0.59267535  1
  O  O50  1  0.09335425  0.82112430  0.25257817  1
  O  O51  1  0.09335425  0.67887570  0.75257817  1
  O  O52  1  0.07919884  0.00635744  0.16295260  1
  O  O53  1  0.07919884  0.49364256  0.66295260  1
  O  O54  1  0.08701127  0.20237937  0.38464702  1
  O  O55  1  0.08701127  0.29762063  0.88464702  1
  O  O56  1  0.18377970  0.42379858  0.29373821  1
  O  O57  1  0.18377970  0.07620142  0.79373821  1
  O  O58  1  0.21268028  0.67744201  0.16702280  1
  O  O59  1  0.21268028  0.82255799  0.66702280  1
  O  O60  1  0.23979580  0.72984213  0.45475871  1
  O  O61  1  0.23979580  0.77015787  0.95475871  1
  O  O62  1  0.21150140  0.03099009  0.60323518  1
  O  O63  1  0.21150140  0.46900991  0.10323518  1
  O  O64  1  0.28849860  0.53099009  0.60323518  1
  O  O65  1  0.28849860  0.96900991  0.10323518  1
  O  O66  1  0.26020420  0.27015787  0.95475871  1
  O  O67  1  0.26020420  0.22984213  0.45475871  1
  O  O68  1  0.28731972  0.17744201  0.16702280  1
  O  O69  1  0.28731972  0.32255799  0.66702280  1
  O  O70  1  0.31622030  0.92379858  0.29373821  1
  O  O71  1  0.31622030  0.57620142  0.79373821  1
  O  O72  1  0.41298873  0.70237937  0.38464702  1
  O  O73  1  0.41298873  0.79762063  0.88464702  1
  O  O74  1  0.42080116  0.99364256  0.66295260  1
  O  O75  1  0.42080116  0.50635744  0.16295260  1
  O  O76  1  0.40664575  0.32112430  0.25257817  1
  O  O77  1  0.40664575  0.17887570  0.75257817  1
  O  O78  1  0.38238226  0.68182102  0.09267535  1
  O  O79  1  0.38238226  0.81817898  0.59267535  1
  O  O80  1  0.41397610  0.13241652  0.84243490  1
  O  O81  1  0.41397610  0.36758348  0.34243490  1
  O  O82  1  0.50339236  0.81442088  0.97227803  1
  O  O83  1  0.50339236  0.68557912  0.47227803  1
  O  O84  1  0.40231472  0.58690301  0.28284756  1
  O  O85  1  0.40231472  0.91309699  0.78284756  1
  O  O86  1  0.42389948  0.56304450  0.93815212  1
  O  O87  1  0.42389948  0.93695550  0.43815212  1
  O  O88  1  0.57610052  0.43695550  0.06184788  1
  O  O89  1  0.57610052  0.06304450  0.56184788  1
  O  O90  1  0.59768528  0.08690301  0.21715244  1
  O  O91  1  0.59768528  0.41309699  0.71715244  1
  O  O92  1  0.49660764  0.18557912  0.02772197  1
  O  O93  1  0.49660764  0.31442088  0.52772197  1
  O  O94  1  0.58602390  0.63241652  0.65756510  1
  O  O95  1  0.58602390  0.86758348  0.15756510  1
  O  O96  1  0.61761774  0.18182102  0.40732465  1
  O  O97  1  0.61761774  0.31817898  0.90732465  1
  O  O98  1  0.59335425  0.82112430  0.24742183  1
  O  O99  1  0.59335425  0.67887570  0.74742183  1
  O  O100  1  0.57919884  0.00635744  0.33704740  1
  O  O101  1  0.57919884  0.49364256  0.83704740  1
  O  O102  1  0.58701127  0.20237937  0.11535298  1
  O  O103  1  0.58701127  0.29762063  0.61535298  1
  O  O104  1  0.68377970  0.42379858  0.20626179  1
  O  O105  1  0.68377970  0.07620142  0.70626179  1
  O  O106  1  0.71268028  0.67744201  0.33297720  1
  O  O107  1  0.71268028  0.82255799  0.83297720  1
  O  O108  1  0.73979580  0.72984213  0.04524129  1
  O  O109  1  0.73979580  0.77015787  0.54524129  1
  O  O110  1  0.71150140  0.46900991  0.39676482  1
  O  O111  1  0.71150140  0.03099009  0.89676482  1
  O  O112  1  0.78849860  0.96900991  0.39676482  1
  O  O113  1  0.78849860  0.53099009  0.89676482  1
  O  O114  1  0.76020420  0.22984213  0.04524129  1
  O  O115  1  0.76020420  0.27015787  0.54524129  1
  O  O116  1  0.78731972  0.17744201  0.33297720  1
  O  O117  1  0.78731972  0.32255799  0.83297720  1
  O  O118  1  0.81622030  0.57620142  0.70626179  1
  O  O119  1  0.81622030  0.92379858  0.20626179  1
  O  O120  1  0.91298873  0.70237937  0.11535298  1
  O  O121  1  0.91298873  0.79762063  0.61535298  1
  O  O122  1  0.92080116  0.50635744  0.33704740  1
  O  O123  1  0.92080116  0.99364256  0.83704740  1
  O  O124  1  0.90664575  0.32112430  0.24742183  1
  O  O125  1  0.90664575  0.17887570  0.74742183  1
  O  O126  1  0.88238226  0.68182102  0.40732465  1
  O  O127  1  0.88238226  0.81817898  0.90732465  1
  O  O128  1  0.91397610  0.36758348  0.15756510  1
  O  O129  1  0.91397610  0.13241652  0.65756510  1
  O  O130  1  0.00339236  0.68557912  0.02772197  1
  O  O131  1  0.00339236  0.81442088  0.52772197  1
  O  O132  1  0.90231472  0.58690301  0.21715244  1
  O  O133  1  0.90231472  0.91309699  0.71715244  1
  O  O134  1  0.92389948  0.56304450  0.56184788  1
  O  O135  1  0.92389948  0.93695550  0.06184788  1
