# generated using pymatgen
data_TiFe11O16
_symmetry_space_group_name_H-M   'P 1'
_cell_length_a   6.07363569
_cell_length_b   12.13420257
_cell_length_c   8.61536980
_cell_angle_alpha   90.00000000
_cell_angle_beta   90.00000000
_cell_angle_gamma   90.00000000
_symmetry_Int_Tables_number   1
_chemical_formula_structural   TiFe11O16
_chemical_formula_sum   'Ti2 Fe22 O32'
_cell_volume   634.94177601
_cell_formula_units_Z   2
loop_
 _symmetry_equiv_pos_site_id
 _symmetry_equiv_pos_as_xyz
  1  'x, y, z'
loop_
 _atom_site_type_symbol
 _atom_site_label
 _atom_site_symmetry_multiplicity
 _atom_site_fract_x
 _atom_site_fract_y
 _atom_site_fract_z
 _atom_site_occupancy
  Ti  Ti0  1  0.25000000  0.87500000  0.25000000  1
  Ti  Ti1  1  0.75000000  0.37500000  0.75000000  1
  Fe  Fe2  1  0.50068975  0.74974110  0.99954834  1
  Fe  Fe3  1  0.99931025  0.74974110  0.99954834  1
  Fe  Fe4  1  0.49931025  0.24974110  0.00045166  1
  Fe  Fe5  1  0.00068975  0.24974110  0.00045166  1
  Fe  Fe6  1  0.75000000  0.00025564  0.11990085  1
  Fe  Fe7  1  0.75000000  0.50002805  0.12196254  1
  Fe  Fe8  1  0.25000000  0.61886245  0.25302173  1
  Fe  Fe9  1  0.25000000  0.13113755  0.24697827  1
  Fe  Fe10  1  0.25000000  0.37500000  0.25000000  1
  Fe  Fe11  1  0.75000000  0.74974436  0.38009915  1
  Fe  Fe12  1  0.75000000  0.24997195  0.37803746  1
  Fe  Fe13  1  0.99931025  0.00025890  0.50045166  1
  Fe  Fe14  1  0.50068975  0.00025890  0.50045166  1
  Fe  Fe15  1  0.00068975  0.50025890  0.49954834  1
  Fe  Fe16  1  0.49931025  0.50025890  0.49954834  1
  Fe  Fe17  1  0.25000000  0.74997195  0.62196254  1
  Fe  Fe18  1  0.25000000  0.24974436  0.61990085  1
  Fe  Fe19  1  0.75000000  0.87500000  0.75000000  1
  Fe  Fe20  1  0.75000000  0.63113755  0.75302173  1
  Fe  Fe21  1  0.75000000  0.11886245  0.74697827  1
  Fe  Fe22  1  0.25000000  0.50025564  0.88009915  1
  Fe  Fe23  1  0.25000000  0.00002805  0.87803746  1
  O  O24  1  0.25000000  0.62892937  0.01178378  1
  O  O25  1  0.25000000  0.87538377  0.01971535  1
  O  O26  1  0.25000000  0.12625052  0.01159348  1
  O  O27  1  0.25000000  0.37023752  0.00299688  1
  O  O28  1  0.02055868  0.75414750  0.25284524  1
  O  O29  1  0.47944132  0.75414750  0.25284524  1
  O  O30  1  0.00847593  0.24528272  0.24968232  1
  O  O31  1  0.49152407  0.24528272  0.24968232  1
  O  O32  1  0.00847593  0.50471728  0.25031768  1
  O  O33  1  0.47944132  0.99585250  0.24715476  1
  O  O34  1  0.02055868  0.99585250  0.24715476  1
  O  O35  1  0.49152407  0.50471728  0.25031768  1
  O  O36  1  0.25000000  0.87461623  0.48028465  1
  O  O37  1  0.25000000  0.62374948  0.48840652  1
  O  O38  1  0.25000000  0.12107063  0.48821622  1
  O  O39  1  0.25000000  0.37976248  0.49700312  1
  O  O40  1  0.75000000  0.62107063  0.51178378  1
  O  O41  1  0.75000000  0.12374948  0.51159348  1
  O  O42  1  0.75000000  0.87976248  0.50299688  1
  O  O43  1  0.75000000  0.37461623  0.51971535  1
  O  O44  1  0.99152407  0.00471728  0.74968232  1
  O  O45  1  0.50847593  0.00471728  0.74968232  1
  O  O46  1  0.97944132  0.49585250  0.75284524  1
  O  O47  1  0.52055868  0.49585250  0.75284524  1
  O  O48  1  0.99152407  0.74528272  0.75031768  1
  O  O49  1  0.50847593  0.74528272  0.75031768  1
  O  O50  1  0.52055868  0.25414750  0.74715476  1
  O  O51  1  0.97944132  0.25414750  0.74715476  1
  O  O52  1  0.75000000  0.37538377  0.98028465  1
  O  O53  1  0.75000000  0.62625052  0.98840652  1
  O  O54  1  0.75000000  0.87023752  0.99700312  1
  O  O55  1  0.75000000  0.12892937  0.98821622  1
