# generated using pymatgen
data_TiV5(PO4)6
_symmetry_space_group_name_H-M   'P 1'
_cell_length_a   8.60476337
_cell_length_b   8.63606377
_cell_length_c   8.63606413
_cell_angle_alpha   60.00000054
_cell_angle_beta   59.87959659
_cell_angle_gamma   59.87959480
_symmetry_Int_Tables_number   1
_chemical_formula_structural   TiV5(PO4)6
_chemical_formula_sum   'Ti1 V5 P6 O24'
_cell_volume   452.96313267
_cell_formula_units_Z   1
loop_
 _symmetry_equiv_pos_site_id
 _symmetry_equiv_pos_as_xyz
  1  'x, y, z'
loop_
 _atom_site_type_symbol
 _atom_site_label
 _atom_site_symmetry_multiplicity
 _atom_site_fract_x
 _atom_site_fract_y
 _atom_site_fract_z
 _atom_site_occupancy
  Ti  Ti0  1  0.56456431  0.14514556  0.14514556  1
  V  V1  1  0.99923049  0.00025650  0.00025650  1
  V  V2  1  0.06990717  0.64336394  0.64336394  1
  V  V3  1  0.50162838  0.49945721  0.49945721  1
  V  V4  1  0.43339783  0.85553406  0.85553406  1
  V  V5  1  0.92923323  0.35692259  0.35692259  1
  P  P6  1  0.24852366  0.25008491  0.54464876  1
  P  P7  1  0.24852366  0.95674268  0.25008491  1
  P  P8  1  0.24852366  0.54464876  0.95674268  1
  P  P9  1  0.75032252  0.45673393  0.04292207  1
  P  P10  1  0.75032252  0.04292207  0.75002148  1
  P  P11  1  0.75032252  0.75002148  0.45673393  1
  O  O12  1  0.06872676  0.11347402  0.31233369  1
  O  O13  1  0.06872676  0.50546553  0.11347402  1
  O  O14  1  0.06872676  0.31233369  0.50546553  1
  O  O15  1  0.23525892  0.08641648  0.73842974  1
  O  O16  1  0.42864824  0.18562964  0.38149968  1
  O  O17  1  0.27214978  0.41069907  0.55599794  1
  O  O18  1  0.23525892  0.93989386  0.08641648  1
  O  O19  1  0.27214978  0.76115320  0.41069907  1
  O  O20  1  0.56901492  0.61427436  0.00417280  1
  O  O21  1  0.27214978  0.55599794  0.76115320  1
  O  O22  1  0.76434231  0.26046386  0.06090824  1
  O  O23  1  0.56901492  0.00417280  0.81253793  1
  O  O24  1  0.42864824  0.00422245  0.18562964  1
  O  O25  1  0.23525892  0.73842974  0.93989386  1
  O  O26  1  0.73169917  0.43815985  0.24067818  1
  O  O27  1  0.42864824  0.38149968  0.00422245  1
  O  O28  1  0.73169917  0.24067818  0.58946279  1
  O  O29  1  0.76434231  0.06090824  0.91428559  1
  O  O30  1  0.73169917  0.58946279  0.43815985  1
  O  O31  1  0.56901492  0.81253793  0.61427436  1
  O  O32  1  0.76434231  0.91428559  0.26046386  1
  O  O33  1  0.93199258  0.68864703  0.49325687  1
  O  O34  1  0.93199258  0.49325687  0.88610353  1
  O  O35  1  0.93199258  0.88610353  0.68864703  1
