# generated using pymatgen
data_NaVO3
_symmetry_space_group_name_H-M   'P 1'
_cell_length_a   7.82392123
_cell_length_b   7.82392123
_cell_length_c   6.23824255
_cell_angle_alpha   66.34111384
_cell_angle_beta   113.65888616
_cell_angle_gamma   106.91597571
_symmetry_Int_Tables_number   1
_chemical_formula_structural   NaVO3
_chemical_formula_sum   'Na4 V4 O12'
_cell_volume   316.50708787
_cell_formula_units_Z   4
loop_
 _symmetry_equiv_pos_site_id
 _symmetry_equiv_pos_as_xyz
  1  'x, y, z'
loop_
 _atom_site_type_symbol
 _atom_site_label
 _atom_site_symmetry_multiplicity
 _atom_site_fract_x
 _atom_site_fract_y
 _atom_site_fract_z
 _atom_site_occupancy
  Na  Na0  1  0.69753086  0.71819188  0.74211791  1
  Na  Na1  1  0.28239751  0.29877621  0.74217779  1
  Na  Na2  1  0.28180812  0.30246914  0.24211791  1
  Na  Na3  1  0.70122379  0.71760249  0.24217779  1
  V  V4  1  0.12677275  0.70324505  0.71358560  1
  V  V5  1  0.29675495  0.87322725  0.21358560  1
  V  V6  1  0.68544242  0.14573998  0.77177977  1
  V  V7  1  0.85426002  0.31455758  0.27177977  1
  O  O8  1  0.16444455  0.84226433  0.91024746  1
  O  O9  1  0.15773567  0.83555545  0.41024746  1
  O  O10  1  0.59039528  0.91652790  0.83523940  1
  O  O11  1  0.25715247  0.52741436  0.86602380  1
  O  O12  1  0.08347210  0.40960472  0.33523940  1
  O  O13  1  0.47258564  0.74284753  0.36602380  1
  O  O14  1  0.51133619  0.27822802  0.61789574  1
  O  O15  1  0.89711358  0.61025258  0.64963485  1
  O  O16  1  0.72177198  0.48866381  0.11789574  1
  O  O17  1  0.38974742  0.10288642  0.14963485  1
  O  O18  1  0.82513245  0.18307775  0.57629768  1
  O  O19  1  0.81692225  0.17486755  0.07629768  1
