# generated using pymatgen
data_Ti3MnCu2(PO4)6
_symmetry_space_group_name_H-M   'P 1'
_cell_length_a   8.61797668
_cell_length_b   8.61797678
_cell_length_c   8.61797687
_cell_angle_alpha   59.97746377
_cell_angle_beta   59.97746226
_cell_angle_gamma   59.97746149
_symmetry_Int_Tables_number   1
_chemical_formula_structural   Ti3MnCu2(PO4)6
_chemical_formula_sum   'Ti3 Mn1 Cu2 P6 O24'
_cell_volume   452.35454271
_cell_formula_units_Z   1
loop_
 _symmetry_equiv_pos_site_id
 _symmetry_equiv_pos_as_xyz
  1  'x, y, z'
loop_
 _atom_site_type_symbol
 _atom_site_label
 _atom_site_symmetry_multiplicity
 _atom_site_fract_x
 _atom_site_fract_y
 _atom_site_fract_z
 _atom_site_occupancy
  Ti  Ti0  1  0.14304094  0.14304094  0.14304094  1
  Ti  Ti1  1  0.35647705  0.35647705  0.35647705  1
  Ti  Ti2  1  0.64382228  0.64382228  0.64382228  1
  Mn  Mn3  1  0.85645621  0.85645621  0.85645621  1
  Cu  Cu4  1  0.00037457  0.00037457  0.00037457  1
  Cu  Cu5  1  0.49991780  0.49991780  0.49991780  1
  P  P6  1  0.24907423  0.54296433  0.95843319  1
  P  P7  1  0.54296433  0.95843319  0.24907423  1
  P  P8  1  0.95843319  0.24907423  0.54296433  1
  P  P9  1  0.04271652  0.75056087  0.45756873  1
  P  P10  1  0.45756873  0.04271652  0.75056087  1
  P  P11  1  0.75056087  0.45756873  0.04271652  1
  O  O12  1  0.12123976  0.31121789  0.49408678  1
  O  O13  1  0.31121789  0.49408678  0.12123976  1
  O  O14  1  0.05651508  0.91525000  0.26279864  1
  O  O15  1  0.49408678  0.12123976  0.31121789  1
  O  O16  1  0.01394156  0.80720581  0.61222885  1
  O  O17  1  0.23360588  0.58320247  0.43516531  1
  O  O18  1  0.26279864  0.05651508  0.91525000  1
  O  O19  1  0.43516531  0.23360588  0.58320247  1
  O  O20  1  0.19070316  0.37811198  0.00215307  1
  O  O21  1  0.58320247  0.43516531  0.23360588  1
  O  O22  1  0.08697928  0.73487278  0.94866148  1
  O  O23  1  0.37811198  0.00215307  0.19070316  1
  O  O24  1  0.61222885  0.01394156  0.80720581  1
  O  O25  1  0.91525000  0.26279864  0.05651508  1
  O  O26  1  0.41626790  0.55510456  0.76689837  1
  O  O27  1  0.80720581  0.61222885  0.01394156  1
  O  O28  1  0.55510456  0.76689837  0.41626790  1
  O  O29  1  0.73487278  0.94866148  0.08697928  1
  O  O30  1  0.76689837  0.41626790  0.55510456  1
  O  O31  1  0.00215307  0.19070316  0.37811198  1
  O  O32  1  0.50267205  0.87650446  0.69320615  1
  O  O33  1  0.94866148  0.08697928  0.73487278  1
  O  O34  1  0.69320615  0.50267205  0.87650446  1
  O  O35  1  0.87650446  0.69320615  0.50267205  1
