# generated using pymatgen
data_Li3Bi(PO4)2
_symmetry_space_group_name_H-M   'P 1'
_cell_length_a   8.53282888
_cell_length_b   8.53512163
_cell_length_c   7.67537945
_cell_angle_alpha   90.02287599
_cell_angle_beta   89.99385922
_cell_angle_gamma   119.97211186
_symmetry_Int_Tables_number   1
_chemical_formula_structural   Li3Bi(PO4)2
_chemical_formula_sum   'Li9 Bi3 P6 O24'
_cell_volume   484.23388512
_cell_formula_units_Z   3
loop_
 _symmetry_equiv_pos_site_id
 _symmetry_equiv_pos_as_xyz
  1  'x, y, z'
loop_
 _atom_site_type_symbol
 _atom_site_label
 _atom_site_symmetry_multiplicity
 _atom_site_fract_x
 _atom_site_fract_y
 _atom_site_fract_z
 _atom_site_occupancy
  Li  Li0  1  0.02018563  0.67772601  0.36287050  1
  Li  Li1  1  0.98459858  0.32775987  0.62945582  1
  Li  Li2  1  0.66623420  0.33517710  0.50048159  1
  Li  Li3  1  0.67452978  0.65540197  0.63497595  1
  Li  Li4  1  0.00656011  0.00976946  0.48645155  1
  Li  Li5  1  0.33272188  0.66798911  0.49924550  1
  Li  Li6  1  0.32477465  0.34177723  0.36842658  1
  Li  Li7  1  0.65506568  0.98387548  0.36833281  1
  Li  Li8  1  0.34090535  0.01942390  0.63544623  1
  Bi  Bi9  1  0.66762547  0.33373829  0.95008557  1
  Bi  Bi10  1  0.33318953  0.66558239  0.05227648  1
  Bi  Bi11  1  0.96895110  0.98349647  0.99314404  1
  P  P12  1  0.66549150  0.97160567  0.74406662  1
  P  P13  1  0.33798037  0.02971856  0.25394185  1
  P  P14  1  0.69207923  0.66386504  0.25748617  1
  P  P15  1  0.02952781  0.69012155  0.74551010  1
  P  P16  1  0.97063273  0.30524308  0.25365250  1
  P  P17  1  0.30686720  0.33721711  0.74829653  1
  O  O18  1  0.58095184  0.83417145  0.59409845  1
  O  O19  1  0.86761828  0.24044898  0.07702370  1
  O  O20  1  0.87388066  0.08691021  0.72463147  1
  O  O21  1  0.12897886  0.91715328  0.26118153  1
  O  O22  1  0.13474313  0.74481409  0.91986888  1
  O  O23  1  0.16169025  0.74989765  0.58946891  1
  O  O24  1  0.09936021  0.51744290  0.25582393  1
  O  O25  1  0.41642073  0.89729804  0.26645372  1
  O  O26  1  0.08367587  0.21152457  0.27514717  1
  O  O27  1  0.25414928  0.41817523  0.59318257  1
  O  O28  1  0.89871465  0.48024143  0.73282671  1
  O  O29  1  0.21047388  0.12867574  0.73617482  1
  O  O30  1  0.25052672  0.38683903  0.92278659  1
  O  O31  1  0.48137631  0.57924799  0.26389116  1
  O  O32  1  0.63593716  0.87075483  0.92186675  1
  O  O33  1  0.39377485  0.13639233  0.08019370  1
  O  O34  1  0.51839532  0.41636963  0.73989203  1
  O  O35  1  0.41419717  0.16273842  0.41031913  1
  O  O36  1  0.78461264  0.87291293  0.27139912  1
  O  O37  1  0.75590069  0.62599892  0.08013999  1
  O  O38  1  0.74958473  0.58532901  0.40977888  1
  O  O39  1  0.91357442  0.78487831  0.74055821  1
  O  O40  1  0.57979075  0.09687865  0.74369041  1
  O  O41  1  0.83394977  0.25542107  0.40545579  1
