# generated using pymatgen
data_Li2FeP2O7
_symmetry_space_group_name_H-M   'P 1'
_cell_length_a   7.56810766
_cell_length_b   7.56810746
_cell_length_c   11.18564971
_cell_angle_alpha   89.21901358
_cell_angle_beta   90.78098641
_cell_angle_gamma   63.30711598
_symmetry_Int_Tables_number   1
_chemical_formula_structural   Li2FeP2O7
_chemical_formula_sum   'Li8 Fe4 P8 O28'
_cell_volume   572.20075872
_cell_formula_units_Z   4
loop_
 _symmetry_equiv_pos_site_id
 _symmetry_equiv_pos_as_xyz
  1  'x, y, z'
loop_
 _atom_site_type_symbol
 _atom_site_label
 _atom_site_symmetry_multiplicity
 _atom_site_fract_x
 _atom_site_fract_y
 _atom_site_fract_z
 _atom_site_occupancy
  Li  Li0  1  0.29447839  0.27356096  0.50232435  1
  Li  Li1  1  0.27356096  0.29447839  0.99767565  1
  Li  Li2  1  0.27973704  0.27973704  0.75000000  1
  Li  Li3  1  0.72026296  0.72026296  0.25000000  1
  Li  Li4  1  0.70552161  0.72643904  0.49767565  1
  Li  Li5  1  0.72643904  0.70552161  0.00232435  1
  Li  Li6  1  0.28977115  0.28977115  0.25000000  1
  Li  Li7  1  0.71022885  0.71022885  0.75000000  1
  Fe  Fe8  1  0.69453090  0.30867378  0.61689778  1
  Fe  Fe9  1  0.30546910  0.69132622  0.38310222  1
  Fe  Fe10  1  0.69132622  0.30546910  0.11689778  1
  Fe  Fe11  1  0.30867378  0.69453090  0.88310222  1
  P  P12  1  0.09185131  0.67633628  0.63237407  1
  P  P13  1  0.90814869  0.32366372  0.36762593  1
  P  P14  1  0.08451728  0.70459755  0.12825348  1
  P  P15  1  0.70459755  0.08451728  0.37174652  1
  P  P16  1  0.29540245  0.91548272  0.62825348  1
  P  P17  1  0.67633628  0.09185131  0.86762593  1
  P  P18  1  0.91548272  0.29540245  0.87174652  1
  P  P19  1  0.32366372  0.90814869  0.13237407  1
  O  O20  1  0.87921884  0.71464446  0.62510303  1
  O  O21  1  0.42335814  0.80473140  0.25231799  1
  O  O22  1  0.91011594  0.10612065  0.37355945  1
  O  O23  1  0.12078116  0.28535554  0.37489697  1
  O  O24  1  0.19722157  0.58906482  0.24273528  1
  O  O25  1  0.21922147  0.56315242  0.52542832  1
  O  O26  1  0.76534215  0.86597593  0.37382414  1
  O  O27  1  0.59038602  0.18753842  0.48471111  1
  O  O28  1  0.08988406  0.89387935  0.62644055  1
  O  O29  1  0.13402407  0.23465785  0.87382414  1
  O  O30  1  0.78077853  0.43684758  0.47457168  1
  O  O31  1  0.80473140  0.42335814  0.24768201  1
  O  O32  1  0.89387935  0.08988406  0.87355945  1
  O  O33  1  0.18753842  0.59038602  0.01528889  1
  O  O34  1  0.56315242  0.21922147  0.97457168  1
  O  O35  1  0.43684758  0.78077853  0.02542832  1
  O  O36  1  0.81246158  0.40961398  0.98471111  1
  O  O37  1  0.23465785  0.13402407  0.62617586  1
  O  O38  1  0.57664186  0.19526860  0.74768201  1
  O  O39  1  0.80277843  0.41093518  0.75726472  1
  O  O40  1  0.10612065  0.91011594  0.12644055  1
  O  O41  1  0.58906482  0.19722157  0.25726472  1
  O  O42  1  0.86597593  0.76534215  0.12617586  1
  O  O43  1  0.28535554  0.12078116  0.12510303  1
  O  O44  1  0.41093518  0.80277843  0.74273528  1
  O  O45  1  0.40961398  0.81246158  0.51528889  1
  O  O46  1  0.71464446  0.87921884  0.87489697  1
  O  O47  1  0.19526860  0.57664186  0.75231799  1
