# generated using pymatgen
data_NiH12(SO7)2
_symmetry_space_group_name_H-M   'P 1'
_cell_length_a   9.35957717
_cell_length_b   12.65685821
_cell_length_c   6.42933203
_cell_angle_alpha   90.00000000
_cell_angle_beta   105.46207985
_cell_angle_gamma   90.00000000
_symmetry_Int_Tables_number   1
_chemical_formula_structural   NiH12(SO7)2
_chemical_formula_sum   'Ni2 H24 S4 O28'
_cell_volume   734.07109685
_cell_formula_units_Z   2
loop_
 _symmetry_equiv_pos_site_id
 _symmetry_equiv_pos_as_xyz
  1  'x, y, z'
loop_
 _atom_site_type_symbol
 _atom_site_label
 _atom_site_symmetry_multiplicity
 _atom_site_fract_x
 _atom_site_fract_y
 _atom_site_fract_z
 _atom_site_occupancy
  Ni  Ni0  1  -0.00000000  -0.00000000  -0.00000000  1
  Ni  Ni1  1  0.50000000  0.50000000  -0.00000000  1
  H  H2  1  0.13600881  0.81491597  0.99015935  1
  H  H3  1  0.02817803  0.86161248  0.32988951  1
  H  H4  1  0.09626238  0.05622271  0.66228227  1
  H  H5  1  0.23865689  0.40036250  0.93951119  1
  H  H6  1  0.25396245  0.62400540  0.90797268  1
  H  H7  1  0.21457164  0.08875750  0.31148638  1
  H  H8  1  0.28542836  0.58875750  0.68851362  1
  H  H9  1  0.24603755  0.12400540  0.09202732  1
  H  H10  1  0.26134311  0.90036250  0.06048881  1
  H  H11  1  0.40373762  0.55622271  0.33771773  1
  H  H12  1  0.47182197  0.36161248  0.67011049  1
  H  H13  1  0.36399119  0.31491597  0.00984065  1
  H  H14  1  0.63600881  0.68508403  0.99015935  1
  H  H15  1  0.52817803  0.63838752  0.32988951  1
  H  H16  1  0.59626238  0.44377729  0.66228227  1
  H  H17  1  0.73865689  0.09963750  0.93951119  1
  H  H18  1  0.75396245  0.87599460  0.90797268  1
  H  H19  1  0.71457164  0.41124250  0.31148638  1
  H  H20  1  0.78542836  0.91124250  0.68851362  1
  H  H21  1  0.74603755  0.37599460  0.09202732  1
  H  H22  1  0.76134311  0.59963750  0.06048881  1
  H  H23  1  0.90373762  0.94377729  0.33771773  1
  H  H24  1  0.97182197  0.13838752  0.67011049  1
  H  H25  1  0.86399119  0.18508403  0.00984065  1
  S  S26  1  0.09569949  0.63399203  0.27031997  1
  S  S27  1  0.40430051  0.13399203  0.72968003  1
  S  S28  1  0.59569949  0.86600797  0.27031997  1
  S  S29  1  0.90430051  0.36600797  0.72968003  1
  O  O30  1  0.05147695  0.41880180  0.75272762  1
  O  O31  1  0.99596952  0.93486346  0.29366685  1
  O  O32  1  0.15887018  0.88962646  0.97309802  1
  O  O33  1  0.08005178  0.72499481  0.41415878  1
  O  O34  1  0.11275617  0.67117594  0.06133717  1
  O  O35  1  0.16708835  0.10378894  0.15870201  1
  O  O36  1  0.21772469  0.56483403  0.38482392  1
  O  O37  1  0.28227531  0.06483403  0.61517608  1
  O  O38  1  0.33291165  0.60378894  0.84129799  1
  O  O39  1  0.38724383  0.17117594  0.93866283  1
  O  O40  1  0.41994822  0.22499481  0.58584122  1
  O  O41  1  0.34112982  0.38962646  0.02690198  1
  O  O42  1  0.50403048  0.43486346  0.70633315  1
  O  O43  1  0.44852305  0.91880180  0.24727238  1
  O  O44  1  0.55147695  0.08119820  0.75272762  1
  O  O45  1  0.49596952  0.56513654  0.29366685  1
  O  O46  1  0.65887018  0.61037354  0.97309802  1
  O  O47  1  0.58005178  0.77500519  0.41415878  1
  O  O48  1  0.61275617  0.82882406  0.06133717  1
  O  O49  1  0.66708835  0.39621106  0.15870201  1
  O  O50  1  0.71772469  0.93516597  0.38482392  1
  O  O51  1  0.78227531  0.43516597  0.61517608  1
  O  O52  1  0.83291165  0.89621106  0.84129799  1
  O  O53  1  0.88724383  0.32882406  0.93866283  1
  O  O54  1  0.91994822  0.27500519  0.58584122  1
  O  O55  1  0.84112982  0.11037354  0.02690198  1
  O  O56  1  0.00403048  0.06513654  0.70633315  1
  O  O57  1  0.94852305  0.58119820  0.24727238  1
