# generated using pymatgen
data_Ag2S
_symmetry_space_group_name_H-M   'P 1'
_cell_length_a   4.55434828
_cell_length_b   7.02112360
_cell_length_c   8.30026823
_cell_angle_alpha   90.00000000
_cell_angle_beta   88.23122619
_cell_angle_gamma   90.00000000
_symmetry_Int_Tables_number   1
_chemical_formula_structural   Ag2S
_chemical_formula_sum   'Ag8 S4'
_cell_volume   265.28824548
_cell_formula_units_Z   4
loop_
 _symmetry_equiv_pos_site_id
 _symmetry_equiv_pos_as_xyz
  1  'x, y, z'
loop_
 _atom_site_type_symbol
 _atom_site_label
 _atom_site_symmetry_multiplicity
 _atom_site_fract_x
 _atom_site_fract_y
 _atom_site_fract_z
 _atom_site_occupancy
  Ag  Ag0  1  0.74426231  0.53973391  0.23120509  1
  Ag  Ag1  1  0.24426231  0.96026609  0.73120509  1
  Ag  Ag2  1  0.25573769  0.46026609  0.76879491  1
  Ag  Ag3  1  0.75573769  0.03973391  0.26879491  1
  Ag  Ag4  1  0.23166012  0.82372686  0.07126326  1
  Ag  Ag5  1  0.73166012  0.67627314  0.57126326  1
  Ag  Ag6  1  0.76833988  0.17627314  0.92873674  1
  Ag  Ag7  1  0.26833988  0.32372686  0.42873674  1
  S  S8  1  0.42355720  0.78408165  0.34507206  1
  S  S9  1  0.92355720  0.71591835  0.84507206  1
  S  S10  1  0.57644280  0.21591835  0.65492794  1
  S  S11  1  0.07644280  0.28408165  0.15492794  1
