# generated using pymatgen
data_BiH(SeO3)2
_symmetry_space_group_name_H-M   'P 1'
_cell_length_a   4.62244985
_cell_length_b   4.62244985
_cell_length_c   16.45450989
_cell_angle_alpha   89.87526731
_cell_angle_beta   89.87526731
_cell_angle_gamma   103.63947220
_symmetry_Int_Tables_number   1
_chemical_formula_structural   BiH(SeO3)2
_chemical_formula_sum   'Bi2 H2 Se4 O12'
_cell_volume   341.66698928
_cell_formula_units_Z   2
loop_
 _symmetry_equiv_pos_site_id
 _symmetry_equiv_pos_as_xyz
  1  'x, y, z'
loop_
 _atom_site_type_symbol
 _atom_site_label
 _atom_site_symmetry_multiplicity
 _atom_site_fract_x
 _atom_site_fract_y
 _atom_site_fract_z
 _atom_site_occupancy
  Bi  Bi0  1  0.44215530  0.99833518  0.08858861  1
  Bi  Bi1  1  0.99833518  0.44215530  0.58858861  1
  H  H2  1  0.25362580  0.17547130  0.87388868  1
  H  H3  1  0.17547130  0.25362580  0.37388868  1
  Se  Se4  1  0.99032674  0.47518315  0.93744641  1
  Se  Se5  1  0.47518315  0.99032674  0.43744641  1
  Se  Se6  1  0.85135615  0.61417764  0.20523492  1
  Se  Se7  1  0.61417764  0.85135615  0.70523492  1
  O  O8  1  0.85103574  0.15816089  0.99117742  1
  O  O9  1  0.15816089  0.85103574  0.49117742  1
  O  O10  1  0.31866522  0.62770674  0.98565812  1
  O  O11  1  0.62770674  0.31866522  0.48565812  1
  O  O12  1  0.14248479  0.31427118  0.85113362  1
  O  O13  1  0.31427118  0.14248479  0.35113362  1
  O  O14  1  0.73470760  0.23673390  0.19632651  1
  O  O15  1  0.23673390  0.73470760  0.69632651  1
  O  O16  1  0.76870858  0.72904550  0.10644843  1
  O  O17  1  0.72904550  0.76870858  0.60644843  1
  O  O18  1  0.23073114  0.66691747  0.18790728  1
  O  O19  1  0.66691747  0.23073114  0.68790728  1
