# generated using pymatgen
data_Np(Mo3Se4)2
_symmetry_space_group_name_H-M   'P 1'
_cell_length_a   6.78099760
_cell_length_b   6.78099759
_cell_length_c   6.78099735
_cell_angle_alpha   89.06421604
_cell_angle_beta   89.06421599
_cell_angle_gamma   89.06422016
_symmetry_Int_Tables_number   1
_chemical_formula_structural   Np(Mo3Se4)2
_chemical_formula_sum   'Np1 Mo6 Se8'
_cell_volume   311.67991915
_cell_formula_units_Z   1
loop_
 _symmetry_equiv_pos_site_id
 _symmetry_equiv_pos_as_xyz
  1  'x, y, z'
loop_
 _atom_site_type_symbol
 _atom_site_label
 _atom_site_symmetry_multiplicity
 _atom_site_fract_x
 _atom_site_fract_y
 _atom_site_fract_z
 _atom_site_occupancy
  Np  Np0  1  0.00000000  -0.00000000  0.00000000  1
  Mo  Mo1  1  0.57574570  0.76611748  0.43970310  1
  Mo  Mo2  1  0.76611748  0.43970310  0.57574570  1
  Mo  Mo3  1  0.43970310  0.57574570  0.76611748  1
  Mo  Mo4  1  0.42425430  0.23388252  0.56029690  1
  Mo  Mo5  1  0.23388252  0.56029690  0.42425430  1
  Mo  Mo6  1  0.56029690  0.42425430  0.23388252  1
  Se  Se7  1  0.76111009  0.76111009  0.76111009  1
  Se  Se8  1  0.23888991  0.23888991  0.23888991  1
  Se  Se9  1  0.63033828  0.24197467  0.87867976  1
  Se  Se10  1  0.24197466  0.87867976  0.63033828  1
  Se  Se11  1  0.87867976  0.63033828  0.24197466  1
  Se  Se12  1  0.36966172  0.75802533  0.12132024  1
  Se  Se13  1  0.75802534  0.12132024  0.36966172  1
  Se  Se14  1  0.12132024  0.36966172  0.75802534  1
