# generated using pymatgen
data_Li2FeGeS4
_symmetry_space_group_name_H-M   'P 1'
_cell_length_a   6.28348785
_cell_length_b   6.64930161
_cell_length_c   7.82049948
_cell_angle_alpha   90.00000000
_cell_angle_beta   90.11791689
_cell_angle_gamma   90.00000000
_symmetry_Int_Tables_number   1
_chemical_formula_structural   Li2FeGeS4
_chemical_formula_sum   'Li4 Fe2 Ge2 S8'
_cell_volume   326.74607886
_cell_formula_units_Z   2
loop_
 _symmetry_equiv_pos_site_id
 _symmetry_equiv_pos_as_xyz
  1  'x, y, z'
loop_
 _atom_site_type_symbol
 _atom_site_label
 _atom_site_symmetry_multiplicity
 _atom_site_fract_x
 _atom_site_fract_y
 _atom_site_fract_z
 _atom_site_occupancy
  Li  Li0  1  0.48222607  0.66797248  0.87379000  1
  Li  Li1  1  0.98222607  0.33202752  0.37379000  1
  Li  Li2  1  0.98448572  0.84272039  0.11036294  1
  Li  Li3  1  0.48448572  0.15727961  0.61036294  1
  Fe  Fe4  1  0.98429437  0.32404808  0.86260714  1
  Fe  Fe5  1  0.48429437  0.67595192  0.36260714  1
  Ge  Ge6  1  0.98725630  0.82036737  0.61490877  1
  Ge  Ge7  1  0.48725630  0.17963263  0.11490877  1
  S  S8  1  0.37486013  0.85532309  0.12779004  1
  S  S9  1  0.87486013  0.14467691  0.62779004  1
  S  S10  1  0.87397063  0.65515350  0.85149761  1
  S  S11  1  0.37397063  0.34484650  0.35149761  1
  S  S12  1  0.34841759  0.81023786  0.60698995  1
  S  S13  1  0.84841759  0.18976214  0.10698995  1
  S  S14  1  0.35148918  0.32117929  0.87605355  1
  S  S15  1  0.85148918  0.67882071  0.37605355  1
