# generated using pymatgen
data_LuWClO4
_symmetry_space_group_name_H-M   'P 1'
_cell_length_a   5.98628479
_cell_length_b   6.53533423
_cell_length_c   6.95966354
_cell_angle_alpha   73.44326001
_cell_angle_beta   77.16680832
_cell_angle_gamma   70.70705250
_symmetry_Int_Tables_number   1
_chemical_formula_structural   LuWClO4
_chemical_formula_sum   'Lu2 W2 Cl2 O8'
_cell_volume   243.85618845
_cell_formula_units_Z   2
loop_
 _symmetry_equiv_pos_site_id
 _symmetry_equiv_pos_as_xyz
  1  'x, y, z'
loop_
 _atom_site_type_symbol
 _atom_site_label
 _atom_site_symmetry_multiplicity
 _atom_site_fract_x
 _atom_site_fract_y
 _atom_site_fract_z
 _atom_site_occupancy
  Lu  Lu0  1  0.24136405  0.20198673  0.86746874  1
  Lu  Lu1  1  0.75863595  0.79801327  0.13253126  1
  W  W2  1  0.37811094  0.35617043  0.26515932  1
  W  W3  1  0.62188906  0.64382957  0.73484068  1
  Cl  Cl4  1  0.00409694  0.02722917  0.22417526  1
  Cl  Cl5  1  0.99590306  0.97277083  0.77582474  1
  O  O6  1  0.34777511  0.25562311  0.53503496  1
  O  O7  1  0.65222489  0.74437689  0.46496504  1
  O  O8  1  0.42329617  0.46937696  0.80873573  1
  O  O9  1  0.57670383  0.53062304  0.19126427  1
  O  O10  1  0.91143854  0.47981188  0.80730138  1
  O  O11  1  0.08856146  0.52018812  0.19269862  1
  O  O12  1  0.47735571  0.12436234  0.13225080  1
  O  O13  1  0.52264429  0.87563766  0.86774920  1
