# generated using pymatgen
data_Li(MoSe)3
_symmetry_space_group_name_H-M   'P 1'
_cell_length_a   4.52641258
_cell_length_b   8.98479166
_cell_length_c   8.98393213
_cell_angle_alpha   119.98270108
_cell_angle_beta   90.00000000
_cell_angle_gamma   90.00000000
_symmetry_Int_Tables_number   1
_chemical_formula_structural   Li(MoSe)3
_chemical_formula_sum   'Li2 Mo6 Se6'
_cell_volume   316.47172935
_cell_formula_units_Z   2
loop_
 _symmetry_equiv_pos_site_id
 _symmetry_equiv_pos_as_xyz
  1  'x, y, z'
loop_
 _atom_site_type_symbol
 _atom_site_label
 _atom_site_symmetry_multiplicity
 _atom_site_fract_x
 _atom_site_fract_y
 _atom_site_fract_z
 _atom_site_occupancy
  Li  Li0  1  0.75000000  0.66661602  0.33329996  1
  Li  Li1  1  0.25000000  0.33338398  0.66670004  1
  Mo  Mo2  1  0.75000000  0.03221783  0.84697280  1
  Mo  Mo3  1  0.75000000  0.15295122  0.18516339  1
  Mo  Mo4  1  0.75000000  0.81481640  0.96783950  1
  Mo  Mo5  1  0.25000000  0.96778217  0.15302720  1
  Mo  Mo6  1  0.25000000  0.84704878  0.81483661  1
  Mo  Mo7  1  0.25000000  0.18518360  0.03216050  1
  Se  Se8  1  0.75000000  0.69688143  0.63405948  1
  Se  Se9  1  0.75000000  0.36595515  0.06273652  1
  Se  Se10  1  0.75000000  0.93716266  0.30320632  1
  Se  Se11  1  0.25000000  0.30311857  0.36594052  1
  Se  Se12  1  0.25000000  0.63404485  0.93726348  1
  Se  Se13  1  0.25000000  0.06283734  0.69679368  1
