# generated using pymatgen
data_BaLa7Mg5Nb3O24
_symmetry_space_group_name_H-M   'P 1'
_cell_length_a   5.68972244
_cell_length_b   11.41233123
_cell_length_c   15.08539568
_cell_angle_alpha   41.01913547
_cell_angle_beta   55.54551127
_cell_angle_gamma   60.09527464
_symmetry_Int_Tables_number   1
_chemical_formula_structural   BaLa7Mg5Nb3O24
_chemical_formula_sum   'Ba1 La7 Mg5 Nb3 O24'
_cell_volume   525.43188248
_cell_formula_units_Z   1
loop_
 _symmetry_equiv_pos_site_id
 _symmetry_equiv_pos_as_xyz
  1  'x, y, z'
loop_
 _atom_site_type_symbol
 _atom_site_label
 _atom_site_symmetry_multiplicity
 _atom_site_fract_x
 _atom_site_fract_y
 _atom_site_fract_z
 _atom_site_occupancy
  Ba  Ba0  1  0.74641138  0.19218324  0.37427025  1
  La  La1  1  0.25928134  0.07721782  0.10900055  1
  La  La2  1  0.25765362  0.54618212  0.13077617  1
  La  La3  1  0.22254532  0.30552277  0.64795461  1
  La  La4  1  0.26985874  0.77033178  0.63987299  1
  La  La5  1  0.74734761  0.67177808  0.38724954  1
  La  La6  1  0.76141261  0.44858696  0.86000029  1
  La  La7  1  0.73948948  0.96486190  0.86376575  1
  Mg  Mg8  1  0.99741431  0.99637924  0.00413763  1
  Mg  Mg9  1  0.00224422  0.50136648  -0.00240713  1
  Mg  Mg10  1  0.50341422  0.36969584  0.75125996  1
  Mg  Mg11  1  -0.00298462  0.25111517  0.50124630  1
  Mg  Mg12  1  0.00305159  0.74930066  0.49843183  1
  Nb  Nb13  1  0.50206551  0.12232759  0.25040460  1
  Nb  Nb14  1  0.49556312  0.63179340  0.24842899  1
  Nb  Nb15  1  0.50152650  0.87469567  0.74918522  1
  O  O16  1  0.22125021  0.32800472  0.14209407  1
  O  O17  1  0.74446376  0.13754331  0.07866195  1
  O  O18  1  0.25892570  0.12072276  0.41356770  1
  O  O19  1  0.69645814  0.32800472  0.14209407  1
  O  O20  1  0.28133298  0.44903283  0.33996261  1
  O  O21  1  0.20287430  0.07202397  0.65507077  1
  O  O22  1  0.19667822  0.82819660  0.15454924  1
  O  O23  1  0.73945414  0.63742263  0.08208215  1
  O  O24  1  0.25533537  0.61416301  0.42033441  1
  O  O25  1  0.68786544  0.07202397  0.65507077  1
  O  O26  1  0.80071353  0.44903283  0.33996261  1
  O  O27  1  0.68328085  0.82819660  0.15454924  1
  O  O28  1  0.20273560  0.57302467  0.64835201  1
  O  O29  1  0.30470557  0.93146801  0.34438409  1
  O  O30  1  0.30329079  0.16538075  0.85427458  1
  O  O31  1  0.75208180  0.37750098  0.58027815  1
  O  O32  1  0.25112624  0.37488089  0.91599525  1
  O  O33  1  0.70615902  0.57302467  0.64835201  1
  O  O34  1  0.79920616  0.93146801  0.34438409  1
  O  O35  1  0.80312398  0.16538075  0.85427458  1
  O  O36  1  0.30189686  0.67895799  0.84691424  1
  O  O37  1  0.74185763  0.85894861  0.59946250  1
  O  O38  1  0.25944429  0.85330002  0.92483712  1
  O  O39  1  0.79944444  0.67895799  0.84691424  1
