# generated using pymatgen
data_TbCuTe2
_symmetry_space_group_name_H-M   'P 1'
_cell_length_a   4.36980799
_cell_length_b   4.36988379
_cell_length_c   6.89386819
_cell_angle_alpha   90.00013176
_cell_angle_beta   89.99846763
_cell_angle_gamma   120.00080864
_symmetry_Int_Tables_number   1
_chemical_formula_structural   TbCuTe2
_chemical_formula_sum   'Tb1 Cu1 Te2'
_cell_volume   114.00458304
_cell_formula_units_Z   1
loop_
 _symmetry_equiv_pos_site_id
 _symmetry_equiv_pos_as_xyz
  1  'x, y, z'
loop_
 _atom_site_type_symbol
 _atom_site_label
 _atom_site_symmetry_multiplicity
 _atom_site_fract_x
 _atom_site_fract_y
 _atom_site_fract_z
 _atom_site_occupancy
  Tb  Tb0  1  0.00000344  0.00000174  0.99159537  1
  Cu  Cu1  1  0.33336072  0.66668054  0.35940641  1
  Te  Te2  1  0.33337676  0.66668854  0.74206321  1
  Te  Te3  1  0.66665908  0.33332919  0.26493501  1
