# generated using pymatgen
data_Sr3LaTa2(CoO6)2
_symmetry_space_group_name_H-M   'P 1'
_cell_length_a   22.68985729
_cell_length_b   20.43544062
_cell_length_c   5.68882000
_cell_angle_alpha   56.16796126
_cell_angle_beta   59.90457376
_cell_angle_gamma   13.94336627
_symmetry_Int_Tables_number   1
_chemical_formula_structural   Sr3LaTa2(CoO6)2
_chemical_formula_sum   'Sr6 La2 Ta4 Co4 O24'
_cell_volume   517.90702833
_cell_formula_units_Z   2
loop_
 _symmetry_equiv_pos_site_id
 _symmetry_equiv_pos_as_xyz
  1  'x, y, z'
loop_
 _atom_site_type_symbol
 _atom_site_label
 _atom_site_symmetry_multiplicity
 _atom_site_fract_x
 _atom_site_fract_y
 _atom_site_fract_z
 _atom_site_occupancy
  Sr  Sr0  1  0.12479057  0.25041886  0.24958115  1
  Sr  Sr1  1  0.62652091  0.24695818  0.25304182  1
  Sr  Sr2  1  0.12936490  0.74127020  0.75872980  1
  Sr  Sr3  1  0.87407077  0.25185846  0.24814154  1
  Sr  Sr4  1  0.62291554  0.75416891  0.74583109  1
  Sr  Sr5  1  0.87543528  0.74912945  0.75087055  1
  La  La6  1  0.37115393  0.25769213  0.24230787  1
  La  La7  1  0.37627305  0.74745390  0.75254610  1
  Ta  Ta8  1  0.00330464  0.99339072  0.00660928  1
  Ta  Ta9  1  0.74945125  0.50109750  0.49890250  1
  Ta  Ta10  1  0.49635008  0.00729984  0.99270016  1
  Ta  Ta11  1  0.75019944  0.99960111  0.00039889  1
  Co  Co12  1  0.25051139  0.49897722  0.50102278  1
  Co  Co13  1  0.49572356  0.50855289  0.49144711  1
  Co  Co14  1  0.24898899  0.00202202  0.99797798  1
  Co  Co15  1  0.00294749  0.49410502  0.50589498  1
  O  O16  1  0.00139511  0.24579051  0.74672627  1
  O  O17  1  0.13473889  0.23052222  0.76947778  1
  O  O18  1  0.25712833  0.24315854  0.24889045  1
  O  O19  1  0.25712833  0.24315854  0.74996207  1
  O  O20  1  0.37628469  0.24743063  0.75256937  1
  O  O21  1  0.00689269  0.73828139  0.25119943  1
  O  O22  1  0.50275913  0.24241496  0.25119943  1
  O  O23  1  0.00689269  0.73828139  0.76810421  1
  O  O24  1  0.12301884  0.75396232  0.24603768  1
  O  O25  1  0.50275913  0.24241496  0.76810421  1
  O  O26  1  0.24376335  0.76325188  0.22688400  1
  O  O27  1  0.62705241  0.24589518  0.75410482  1
  O  O28  1  0.74220618  0.26480905  0.22688400  1
  O  O29  1  0.24376335  0.76325188  0.74505506  1
  O  O30  1  0.74220618  0.26480905  0.74505506  1
  O  O31  1  0.36490473  0.77019054  0.22980946  1
  O  O32  1  0.87400252  0.25199496  0.74800504  1
  O  O33  1  0.50423364  0.74295199  0.26453123  1
  O  O34  1  0.00139511  0.24579051  0.26453123  1
  O  O35  1  0.50423364  0.74295199  0.74672627  1
  O  O36  1  0.62545679  0.74908641  0.25091359  1
  O  O37  1  0.74229793  0.75798894  0.24889045  1
  O  O38  1  0.74229793  0.75798894  0.74996207  1
  O  O39  1  0.87518661  0.74962678  0.25037322  1
