# generated using pymatgen
data_Li3Mn2CoO6
_symmetry_space_group_name_H-M   'P 1'
_cell_length_a   3.07575462
_cell_length_b   7.64248278
_cell_length_c   5.13084125
_cell_angle_alpha   76.21344317
_cell_angle_beta   77.27291702
_cell_angle_gamma   82.17592565
_symmetry_Int_Tables_number   1
_chemical_formula_structural   Li3Mn2CoO6
_chemical_formula_sum   'Li3 Mn2 Co1 O6'
_cell_volume   113.80894157
_cell_formula_units_Z   1
loop_
 _symmetry_equiv_pos_site_id
 _symmetry_equiv_pos_as_xyz
  1  'x, y, z'
loop_
 _atom_site_type_symbol
 _atom_site_label
 _atom_site_symmetry_multiplicity
 _atom_site_fract_x
 _atom_site_fract_y
 _atom_site_fract_z
 _atom_site_occupancy
  Li  Li0  1  0.65019378  0.16599180  0.50909147  1
  Li  Li1  1  0.00000000  0.50000000  0.50000000  1
  Li  Li2  1  0.34980622  0.83400820  0.49090853  1
  Mn  Mn3  1  0.34556768  0.33133347  0.99797229  1
  Mn  Mn4  1  0.65443232  0.66866653  0.00202771  1
  Co  Co5  1  0.00000000  0.00000000  -0.00000000  1
  O  O6  1  0.37475098  0.08781453  0.22218767  1
  O  O7  1  0.64679795  0.42464976  0.23081084  1
  O  O8  1  0.96312261  0.76033502  0.23590436  1
  O  O9  1  0.03687739  0.23966498  0.76409564  1
  O  O10  1  0.35320205  0.57535024  0.76918916  1
  O  O11  1  0.62524902  0.91218547  0.77781233  1
