# generated using pymatgen
data_Li3Mn2CoO6
_symmetry_space_group_name_H-M   'P 1'
_cell_length_a   3.08241516
_cell_length_b   6.11145380
_cell_length_c   6.47553149
_cell_angle_alpha   77.07765696
_cell_angle_beta   76.68429803
_cell_angle_gamma   94.88432828
_symmetry_Int_Tables_number   1
_chemical_formula_structural   Li3Mn2CoO6
_chemical_formula_sum   'Li3 Mn2 Co1 O6'
_cell_volume   114.49332603
_cell_formula_units_Z   1
loop_
 _symmetry_equiv_pos_site_id
 _symmetry_equiv_pos_as_xyz
  1  'x, y, z'
loop_
 _atom_site_type_symbol
 _atom_site_label
 _atom_site_symmetry_multiplicity
 _atom_site_fract_x
 _atom_site_fract_y
 _atom_site_fract_z
 _atom_site_occupancy
  Li  Li0  1  -0.00000000  0.50000000  -0.00000000  1
  Li  Li1  1  0.33956149  0.16562446  0.32857410  1
  Li  Li2  1  0.66043851  0.83437554  0.67142590  1
  Mn  Mn3  1  0.32229168  0.67063367  0.33318289  1
  Mn  Mn4  1  0.67770832  0.32936633  0.66681711  1
  Co  Co5  1  -0.00000000  0.00000000  -0.00000000  1
  O  O6  1  0.53339275  0.23823940  0.98512459  1
  O  O7  1  0.80008854  0.91562324  0.31771524  1
  O  O8  1  0.14234250  0.57755981  0.65317277  1
  O  O9  1  0.46660725  0.76176060  0.01487541  1
  O  O10  1  0.85765750  0.42244019  0.34682723  1
  O  O11  1  0.19991146  0.08437676  0.68228476  1
