# generated using pymatgen
data_Nb9IrS20
_symmetry_space_group_name_H-M   'P 1'
_cell_length_a   6.81921654
_cell_length_b   17.03470854
_cell_length_c   9.40217267
_cell_angle_alpha   43.15990261
_cell_angle_beta   111.58947330
_cell_angle_gamma   120.40885249
_symmetry_Int_Tables_number   1
_chemical_formula_structural   Nb9IrS20
_chemical_formula_sum   'Nb9 Ir1 S20'
_cell_volume   644.32128061
_cell_formula_units_Z   1
loop_
 _symmetry_equiv_pos_site_id
 _symmetry_equiv_pos_as_xyz
  1  'x, y, z'
loop_
 _atom_site_type_symbol
 _atom_site_label
 _atom_site_symmetry_multiplicity
 _atom_site_fract_x
 _atom_site_fract_y
 _atom_site_fract_z
 _atom_site_occupancy
  Nb  Nb0  1  0.00000000  0.80000000  0.00000000  1
  Nb  Nb1  1  0.99405110  0.40303922  -0.00466967  1
  Nb  Nb2  1  0.49336638  0.57737154  0.00809702  1
  Nb  Nb3  1  0.00594890  0.19696078  0.00466967  1
  Nb  Nb4  1  0.48482206  0.38718980  0.00202535  1
  Nb  Nb5  1  0.96103075  0.98056031  0.00266007  1
  Nb  Nb6  1  0.03896925  0.61943969  -0.00266007  1
  Nb  Nb7  1  0.51517794  0.21281020  0.99797465  1
  Nb  Nb8  1  0.50663362  0.02262846  0.99190298  1
  Ir  Ir9  1  0.50000000  0.80000000  0.00000000  1
  S  S10  1  0.34226814  0.95872880  0.77891005  1
  S  S11  1  0.35499273  0.76255468  0.77048723  1
  S  S12  1  0.16743984  0.84178446  0.23375480  1
  S  S13  1  0.81545744  0.95925773  0.75349458  1
  S  S14  1  0.18454256  0.64074227  0.24650542  1
  S  S15  1  0.32919754  0.55969049  0.75524403  1
  S  S16  1  0.33000550  0.36533917  0.74881523  1
  S  S17  1  0.64500727  0.83744532  0.22951277  1
  S  S18  1  0.83256016  0.75821554  0.76624520  1
  S  S19  1  0.16835205  0.43762217  0.23872885  1
  S  S20  1  0.65773186  0.64127120  0.22108995  1
  S  S21  1  0.83776979  0.56109169  0.77219873  1
  S  S22  1  0.31976003  0.16402719  0.76153701  1
  S  S23  1  0.16441531  0.23575156  0.24179093  1
  S  S24  1  0.83558469  0.36424844  0.75820907  1
  S  S25  1  0.68023997  0.43597281  0.23846299  1
  S  S26  1  0.16223021  0.03890831  0.22780127  1
  S  S27  1  0.83164795  0.16237783  0.76127115  1
  S  S28  1  0.66999450  0.23466083  0.25118477  1
  S  S29  1  0.67080246  0.04030951  0.24475597  1
