# generated using pymatgen
data_Li3Mn2CoO6
_symmetry_space_group_name_H-M   'P 1'
_cell_length_a   3.07618229
_cell_length_b   7.65069942
_cell_length_c   5.09806766
_cell_angle_alpha   106.68763702
_cell_angle_beta   92.27544112
_cell_angle_gamma   81.95460842
_symmetry_Int_Tables_number   1
_chemical_formula_structural   Li3Mn2CoO6
_chemical_formula_sum   'Li3 Mn2 Co1 O6'
_cell_volume   113.79840157
_cell_formula_units_Z   1
loop_
 _symmetry_equiv_pos_site_id
 _symmetry_equiv_pos_as_xyz
  1  'x, y, z'
loop_
 _atom_site_type_symbol
 _atom_site_label
 _atom_site_symmetry_multiplicity
 _atom_site_fract_x
 _atom_site_fract_y
 _atom_site_fract_z
 _atom_site_occupancy
  Li  Li0  1  0.82824475  0.33467752  0.50254316  1
  Li  Li1  1  0.17175525  0.66532248  0.49745684  1
  Li  Li2  1  0.50000000  -0.00000000  0.50000000  1
  Mn  Mn3  1  0.34660071  0.33067610  0.99848499  1
  Mn  Mn4  1  0.65339929  0.66932390  0.00151501  1
  Co  Co5  1  0.00000000  -0.00000000  0.00000000  1
  O  O6  1  0.44555662  0.16219626  0.22375641  1
  O  O7  1  0.72027925  0.50239508  0.23339435  1
  O  O8  1  0.03785224  0.83782508  0.23404005  1
  O  O9  1  0.27972075  0.49760492  0.76660565  1
  O  O10  1  0.55444338  0.83780374  0.77624359  1
  O  O11  1  0.96214776  0.16217492  0.76595995  1
