# generated using pymatgen
data_Li5Mn2CoO8
_symmetry_space_group_name_H-M   'P 1'
_cell_length_a   4.97560380
_cell_length_b   5.06833359
_cell_length_c   5.84917647
_cell_angle_alpha   89.17565638
_cell_angle_beta   89.17515633
_cell_angle_gamma   108.68426318
_symmetry_Int_Tables_number   1
_chemical_formula_structural   Li5Mn2CoO8
_chemical_formula_sum   'Li5 Mn2 Co1 O8'
_cell_volume   139.68831579
_cell_formula_units_Z   1
loop_
 _symmetry_equiv_pos_site_id
 _symmetry_equiv_pos_as_xyz
  1  'x, y, z'
loop_
 _atom_site_type_symbol
 _atom_site_label
 _atom_site_symmetry_multiplicity
 _atom_site_fract_x
 _atom_site_fract_y
 _atom_site_fract_z
 _atom_site_occupancy
  Li  Li0  1  0.00038203  0.49770901  0.26170143  1
  Li  Li1  1  0.49758756  0.49974777  0.50107635  1
  Li  Li2  1  0.00130235  0.50332210  0.73766159  1
  Li  Li3  1  0.50332827  0.50089825  0.99858773  1
  Li  Li4  1  0.99906105  0.99710052  0.50096641  1
  Mn  Mn5  1  0.00010291  0.00316616  0.00040965  1
  Mn  Mn6  1  0.49898145  0.99886417  0.25757484  1
  Co  Co7  1  0.49283624  0.99771793  0.74346482  1
  O  O8  1  0.75951181  0.23218356  0.01598091  1
  O  O9  1  0.24817994  0.21933922  0.23240015  1
  O  O10  1  0.71225346  0.22327079  0.49394695  1
  O  O11  1  0.25399183  0.22685273  0.76357957  1
  O  O12  1  0.26757230  0.75612919  0.48517070  1
  O  O13  1  0.75682170  0.78556653  0.76878292  1
  O  O14  1  0.25961607  0.78289148  0.00286922  1
  O  O15  1  0.74847102  0.77524060  0.23582675  1
