# generated using pymatgen
data_Li7Mn5O12
_symmetry_space_group_name_H-M   'P 1'
_cell_length_a   2.99061257
_cell_length_b   15.11529283
_cell_length_c   5.10318660
_cell_angle_alpha   96.21632273
_cell_angle_beta   76.79705492
_cell_angle_gamma   86.50318725
_symmetry_Int_Tables_number   1
_chemical_formula_structural   Li7Mn5O12
_chemical_formula_sum   'Li7 Mn5 O12'
_cell_volume   222.38868386
_cell_formula_units_Z   1
loop_
 _symmetry_equiv_pos_site_id
 _symmetry_equiv_pos_as_xyz
  1  'x, y, z'
loop_
 _atom_site_type_symbol
 _atom_site_label
 _atom_site_symmetry_multiplicity
 _atom_site_fract_x
 _atom_site_fract_y
 _atom_site_fract_z
 _atom_site_occupancy
  Li  Li0  1  0.64842834  0.08308966  0.59750559  1
  Li  Li1  1  0.00240799  0.24975398  0.74791456  1
  Li  Li2  1  0.33092501  0.41691302  0.91875244  1
  Li  Li3  1  0.68490566  0.58357634  0.06916041  1
  Li  Li4  1  0.96058544  0.76103476  0.26301804  1
  Li  Li5  1  0.37274756  0.90563224  0.40364896  1
  Li  Li6  1  0.66666700  0.83333300  0.83333300  1
  Mn  Mn7  1  0.01097315  0.99292821  0.99864654  1
  Mn  Mn8  1  0.32235985  0.67373879  0.66802046  1
  Mn  Mn9  1  0.34871440  0.16509878  0.15882528  1
  Mn  Mn10  1  0.66666700  0.33333300  0.33333300  1
  Mn  Mn11  1  0.98461860  0.50156822  0.50784172  1
  O  O12  1  0.38382797  0.04114600  0.25288326  1
  O  O13  1  0.64744600  0.21114522  0.44243474  1
  O  O14  1  0.97041813  0.37921413  0.61383121  1
  O  O15  1  0.29976583  0.54736523  0.77977718  1
  O  O16  1  0.71477808  0.70332994  0.91439076  1
  O  O17  1  0.98997313  0.88536707  0.12904449  1
  O  O18  1  0.03356817  0.11930077  0.88688882  1
  O  O19  1  0.36291487  0.28745287  0.05283579  1
  O  O20  1  0.68588700  0.45552178  0.22423226  1
  O  O21  1  0.94950603  0.62552000  0.41378274  1
  O  O22  1  0.34335987  0.78129993  0.53762251  1
  O  O23  1  0.61855492  0.96333706  0.75227624  1
