# generated using pymatgen
data_Li6Mn3CoO10
_symmetry_space_group_name_H-M   'P 1'
_cell_length_a   5.19181880
_cell_length_b   7.60585759
_cell_length_c   5.20008038
_cell_angle_alpha   109.98944365
_cell_angle_beta   67.90107647
_cell_angle_gamma   97.38899884
_symmetry_Int_Tables_number   1
_chemical_formula_structural   Li6Mn3CoO10
_chemical_formula_sum   'Li6 Mn3 Co1 O10'
_cell_volume   178.79479064
_cell_formula_units_Z   1
loop_
 _symmetry_equiv_pos_site_id
 _symmetry_equiv_pos_as_xyz
  1  'x, y, z'
loop_
 _atom_site_type_symbol
 _atom_site_label
 _atom_site_symmetry_multiplicity
 _atom_site_fract_x
 _atom_site_fract_y
 _atom_site_fract_z
 _atom_site_occupancy
  Li  Li0  1  0.50000000  0.19636913  0.09818456  1
  Li  Li1  1  0.50000000  0.39793722  0.69896861  1
  Li  Li2  1  0.50000000  0.59711146  0.29855573  1
  Li  Li3  1  0.50000000  0.80113871  0.90056936  1
  Li  Li4  1  0.50000000  0.00728996  0.50364498  1
  Li  Li5  1  0.00000000  0.20166471  0.60083235  1
  Mn  Mn6  1  1.00000000  0.00005323  0.00002662  1
  Mn  Mn7  1  0.00000000  0.39969756  0.19984878  1
  Mn  Mn8  1  1.00000000  0.80202858  0.40101429  1
  Co  Co9  1  0.00000000  0.59655816  0.79827908  1
  O  O10  1  0.23508429  0.19976384  0.88052414  1
  O  O11  1  0.21133791  0.41332290  0.45313133  1
  O  O12  1  0.23405128  0.59437680  0.07102666  1
  O  O13  1  0.23148066  0.80167598  0.67701120  1
  O  O14  1  0.21554269  0.99093613  0.23626140  1
  O  O15  1  0.76491571  0.19976384  0.31923970  1
  O  O16  1  0.78866209  0.41332290  0.96019157  1
  O  O17  1  0.76594872  0.59437680  0.52335014  1
  O  O18  1  0.76851934  0.80167598  0.12466478  1
  O  O19  1  0.78445731  0.99093613  0.75467473  1
