# generated using pymatgen
data_Li4Mn3CoO8
_symmetry_space_group_name_H-M   'P 1'
_cell_length_a   5.08902956
_cell_length_b   5.85449771
_cell_length_c   6.02502263
_cell_angle_alpha   61.61997032
_cell_angle_beta   77.13094374
_cell_angle_gamma   73.71722216
_symmetry_Int_Tables_number   1
_chemical_formula_structural   Li4Mn3CoO8
_chemical_formula_sum   'Li4 Mn3 Co1 O8'
_cell_volume   150.74589312
_cell_formula_units_Z   1
loop_
 _symmetry_equiv_pos_site_id
 _symmetry_equiv_pos_as_xyz
  1  'x, y, z'
loop_
 _atom_site_type_symbol
 _atom_site_label
 _atom_site_symmetry_multiplicity
 _atom_site_fract_x
 _atom_site_fract_y
 _atom_site_fract_z
 _atom_site_occupancy
  Li  Li0  1  0.51723813  0.25971118  0.22715862  1
  Li  Li1  1  0.00000000  0.50000000  -0.00000000  1
  Li  Li2  1  0.00000000  0.00000000  0.50000000  1
  Li  Li3  1  0.48276187  0.74028882  0.77284138  1
  Mn  Mn4  1  0.49924009  0.24620610  0.75779346  1
  Mn  Mn5  1  0.00000000  0.50000000  0.50000000  1
  Mn  Mn6  1  0.50075991  0.75379390  0.24220654  1
  Co  Co7  1  0.00000000  0.00000000  -0.00000000  1
  O  O8  1  0.73783579  0.36834237  0.86951897  1
  O  O9  1  0.24823950  0.59743782  0.63033082  1
  O  O10  1  0.25375357  0.09783182  0.14128320  1
  O  O11  1  0.77464294  0.87116292  0.33368233  1
  O  O12  1  0.22535706  0.12883708  0.66631767  1
  O  O13  1  0.75176050  0.40256218  0.36966918  1
  O  O14  1  0.74624643  0.90216818  0.85871680  1
  O  O15  1  0.26216421  0.63165763  0.13048103  1
