# generated using pymatgen
data_Li7Mn4CoO12
_symmetry_space_group_name_H-M   'P 1'
_cell_length_a   5.25242945
_cell_length_b   7.72803689
_cell_length_c   5.73996136
_cell_angle_alpha   101.50358483
_cell_angle_beta   89.43591407
_cell_angle_gamma   106.43106910
_symmetry_Int_Tables_number   1
_chemical_formula_structural   Li7Mn4CoO12
_chemical_formula_sum   'Li7 Mn4 Co1 O12'
_cell_volume   218.71737706
_cell_formula_units_Z   1
loop_
 _symmetry_equiv_pos_site_id
 _symmetry_equiv_pos_as_xyz
  1  'x, y, z'
loop_
 _atom_site_type_symbol
 _atom_site_label
 _atom_site_symmetry_multiplicity
 _atom_site_fract_x
 _atom_site_fract_y
 _atom_site_fract_z
 _atom_site_occupancy
  Li  Li0  1  0.49470741  0.01797957  0.75537266  1
  Li  Li1  1  0.86076727  0.34164218  0.59013733  1
  Li  Li2  1  0.16416784  0.65745861  0.41821998  1
  Li  Li3  1  0.50249916  0.00920839  0.24844702  1
  Li  Li4  1  0.80589873  0.32502382  0.07652867  1
  Li  Li5  1  0.17195959  0.64868743  0.91129434  1
  Li  Li6  1  0.33333300  0.33333300  0.83333300  1
  Mn  Mn7  1  0.00977965  0.00933459  0.99831365  1
  Mn  Mn8  1  0.65688735  0.65733241  0.66835335  1
  Mn  Mn9  1  0.99769911  0.00514188  0.50073264  1
  Mn  Mn10  1  0.66896789  0.66152512  0.16593436  1
  Co  Co11  1  0.33333300  0.33333300  0.33333300  1
  O  O12  1  0.08762554  0.85985031  0.70845294  1
  O  O13  1  0.35775623  0.15500707  0.52272720  1
  O  O14  1  0.75915046  0.51864515  0.37869832  1
  O  O15  1  0.04554123  0.83520250  0.20870319  1
  O  O16  1  0.40844737  0.17788857  0.06091037  1
  O  O17  1  0.76203838  0.51767563  0.88482953  1
  O  O18  1  0.90462862  0.14899137  0.78183747  1
  O  O19  1  0.25821863  0.48877743  0.60575563  1
  O  O20  1  0.62112577  0.83146450  0.45796381  1
  O  O21  1  0.90751654  0.14802185  0.28796868  1
  O  O22  1  0.30890977  0.51165893  0.14393880  1
  O  O23  1  0.57904146  0.80681669  0.95821406  1
