# generated using pymatgen
data_Li4Mn3CoO8
_symmetry_space_group_name_H-M   'P 1'
_cell_length_a   5.09427382
_cell_length_b   6.04525711
_cell_length_c   5.79426926
_cell_angle_alpha   61.64372218
_cell_angle_beta   106.01339112
_cell_angle_gamma   103.12874050
_symmetry_Int_Tables_number   1
_chemical_formula_structural   Li4Mn3CoO8
_chemical_formula_sum   'Li4 Mn3 Co1 O8'
_cell_volume   149.95960997
_cell_formula_units_Z   1
loop_
 _symmetry_equiv_pos_site_id
 _symmetry_equiv_pos_as_xyz
  1  'x, y, z'
loop_
 _atom_site_type_symbol
 _atom_site_label
 _atom_site_symmetry_multiplicity
 _atom_site_fract_x
 _atom_site_fract_y
 _atom_site_fract_z
 _atom_site_occupancy
  Li  Li0  1  0.50310825  0.23706988  0.75839703  1
  Li  Li1  1  0.51386481  0.77983611  0.73940965  1
  Li  Li2  1  0.49689175  0.76293012  0.24160297  1
  Li  Li3  1  0.48613519  0.22016389  0.26059035  1
  Mn  Mn4  1  -0.00000000  0.50000000  -0.00000000  1
  Mn  Mn5  1  -0.00000000  0.50000000  0.50000000  1
  Mn  Mn6  1  -0.00000000  -0.00000000  0.50000000  1
  Co  Co7  1  -0.00000000  -0.00000000  -0.00000000  1
  O  O8  1  0.23449362  0.88618432  0.85700405  1
  O  O9  1  0.20692167  0.33971533  0.88204275  1
  O  O10  1  0.23049957  0.39937622  0.35593675  1
  O  O11  1  0.23530309  0.88164027  0.37849569  1
  O  O12  1  0.76950043  0.60062378  0.64406325  1
  O  O13  1  0.76469691  0.11835973  0.62150431  1
  O  O14  1  0.76550638  0.11381568  0.14299595  1
  O  O15  1  0.79307833  0.66028467  0.11795725  1
