# generated using pymatgen
data_LiTi(PO3)4
_symmetry_space_group_name_H-M   'P 1'
_cell_length_a   7.28409673
_cell_length_b   7.28409673
_cell_length_c   9.80579629
_cell_angle_alpha   80.79585584
_cell_angle_beta   70.68918766
_cell_angle_gamma   109.84624872
_symmetry_Int_Tables_number   1
_chemical_formula_structural   LiTi(PO3)4
_chemical_formula_sum   'Li2 Ti2 P8 O24'
_cell_volume   439.59021973
_cell_formula_units_Z   2
loop_
 _symmetry_equiv_pos_site_id
 _symmetry_equiv_pos_as_xyz
  1  'x, y, z'
loop_
 _atom_site_type_symbol
 _atom_site_label
 _atom_site_symmetry_multiplicity
 _atom_site_fract_x
 _atom_site_fract_y
 _atom_site_fract_z
 _atom_site_occupancy
  Li  Li0  1  0.00000000  0.50000000  0.00000000  1
  Li  Li1  1  0.00000000  -0.00000000  0.50000000  1
  Ti  Ti2  1  0.19541164  0.94541164  0.75000000  1
  Ti  Ti3  1  0.80458836  0.05458836  0.25000000  1
  P  P4  1  0.99030997  0.69117253  0.30071976  1
  P  P5  1  0.26901990  0.72685109  0.47799229  1
  P  P6  1  0.70484337  0.74701218  0.02200771  1
  P  P7  1  0.50810771  0.70897027  0.80071976  1
  P  P8  1  0.49189229  0.29102973  0.19928024  1
  P  P9  1  0.29515663  0.25298782  0.97799229  1
  P  P10  1  0.73098010  0.27314891  0.52200771  1
  P  P11  1  0.00969003  0.30882747  0.69928024  1
  O  O12  1  0.03637763  0.65067564  0.15332629  1
  O  O13  1  0.13980834  0.80861377  0.58723892  1
  O  O14  1  0.18519939  0.69890529  0.34799926  1
  O  O15  1  0.50758828  0.84463254  0.40212379  1
  O  O16  1  0.30195396  0.73048675  0.81923894  1
  O  O17  1  0.21890618  0.49755455  0.56200828  1
  O  O18  1  0.10414731  0.27295274  0.08723892  1
  O  O19  1  0.74675632  0.90971206  0.09787621  1
  O  O20  1  0.55956183  0.78091346  0.93799172  1
  O  O21  1  0.69599806  0.81029608  0.65332629  1
  O  O22  1  0.54690455  0.53319866  0.15200074  1
  O  O23  1  0.04972569  0.12119290  0.68076106  1
  O  O24  1  0.95027431  0.87880710  0.31923894  1
  O  O25  1  0.45309545  0.46680134  0.84799926  1
  O  O26  1  0.30400194  0.18970392  0.34667371  1
  O  O27  1  0.44043817  0.21908654  0.06200828  1
  O  O28  1  0.25324368  0.09028794  0.90212379  1
  O  O29  1  0.89585269  0.72704726  0.91276108  1
  O  O30  1  0.78109382  0.50244545  0.43799172  1
  O  O31  1  0.69804604  0.26951325  0.18076106  1
  O  O32  1  0.49241172  0.15536746  0.59787621  1
  O  O33  1  0.81480061  0.30109471  0.65200074  1
  O  O34  1  0.86019166  0.19138623  0.41276108  1
  O  O35  1  0.96362237  0.34932436  0.84667371  1
