# generated using pymatgen
data_Mn3OF5
_symmetry_space_group_name_H-M   'P 1'
_cell_length_a   7.59184333
_cell_length_b   5.88577473
_cell_length_c   5.88107363
_cell_angle_alpha   71.03543256
_cell_angle_beta   72.89562463
_cell_angle_gamma   73.48838633
_symmetry_Int_Tables_number   1
_chemical_formula_structural   Mn3OF5
_chemical_formula_sum   'Mn6 O2 F10'
_cell_volume   232.30306100
_cell_formula_units_Z   2
loop_
 _symmetry_equiv_pos_site_id
 _symmetry_equiv_pos_as_xyz
  1  'x, y, z'
loop_
 _atom_site_type_symbol
 _atom_site_label
 _atom_site_symmetry_multiplicity
 _atom_site_fract_x
 _atom_site_fract_y
 _atom_site_fract_z
 _atom_site_occupancy
  Mn  Mn0  1  0.83841753  0.64498041  0.66689944  1
  Mn  Mn1  1  0.66844281  0.31592495  0.32156006  1
  Mn  Mn2  1  0.33419728  0.66536774  0.67606421  1
  Mn  Mn3  1  0.15893868  0.32972561  0.35590137  1
  Mn  Mn4  1  0.51331956  0.00826180  0.00579879  1
  Mn  Mn5  1  0.98669343  0.02435348  0.98021085  1
  O  O6  1  0.71059332  0.11101181  0.09637987  1
  O  O7  1  0.99895517  0.29947181  0.69801597  1
  F  F8  1  0.66822115  0.01496217  0.63642851  1
  F  F9  1  0.32759697  0.36314976  0.98775255  1
  F  F10  1  0.28874932  0.91502381  0.90660870  1
  F  F11  1  0.63566827  0.54649387  0.55027080  1
  F  F12  1  0.96412243  0.23877346  0.23906822  1
  F  F13  1  0.03470648  0.76738465  0.76557844  1
  F  F14  1  0.37090976  0.43080551  0.43483706  1
  F  F15  1  0.33706334  0.96735109  0.36560077  1
  F  F16  1  0.66139044  0.63832435  0.03239974  1
  F  F17  1  0.00201606  0.71863369  0.28062667  1
