# generated using pymatgen
data_Li9V6(P8O29)2
_symmetry_space_group_name_H-M   'P 1'
_cell_length_a   9.77057399
_cell_length_b   9.80688219
_cell_length_c   14.10987775
_cell_angle_alpha   89.84722048
_cell_angle_beta   89.84941893
_cell_angle_gamma   60.10263215
_symmetry_Int_Tables_number   1
_chemical_formula_structural   Li9V6(P8O29)2
_chemical_formula_sum   'Li9 V6 P16 O58'
_cell_volume   1172.06339287
_cell_formula_units_Z   1
loop_
 _symmetry_equiv_pos_site_id
 _symmetry_equiv_pos_as_xyz
  1  'x, y, z'
loop_
 _atom_site_type_symbol
 _atom_site_label
 _atom_site_symmetry_multiplicity
 _atom_site_fract_x
 _atom_site_fract_y
 _atom_site_fract_z
 _atom_site_occupancy
  Li  Li0  1  0.91162255  0.76839979  0.05994287  1
  Li  Li1  1  0.77121184  0.90991461  0.56319492  1
  Li  Li2  1  0.90156893  0.33199224  0.56292496  1
  Li  Li3  1  0.66859272  0.66779418  0.88300344  1
  Li  Li4  1  0.76518548  0.32451765  0.05815813  1
  Li  Li5  1  0.32142269  0.91252403  0.05705131  1
  Li  Li6  1  0.32482792  0.76606653  0.56325103  1
  Li  Li7  1  0.22425902  0.08632574  0.44299303  1
  Li  Li8  1  0.99358577  0.99890597  0.98366983  1
  V  V9  1  0.56501783  0.43546312  0.25013894  1
  V  V10  1  0.42714267  0.56434936  0.75161386  1
  V  V11  1  0.56933727  0.00359475  0.75073880  1
  V  V12  1  0.43673297  0.99765034  0.24701038  1
  V  V13  1  0.00056036  0.56533461  0.24968954  1
  V  V14  1  0.00282084  0.43050670  0.75046473  1
  P  P15  1  0.91101593  0.77403150  0.84521682  1
  P  P16  1  0.76904600  0.91110851  0.34249268  1
  P  P17  1  0.91084225  0.31917782  0.34223313  1
  P  P18  1  0.66740659  0.66414258  0.12507928  1
  P  P19  1  0.66429979  0.66666568  0.62799891  1
  P  P20  1  0.77339221  0.31529509  0.84359420  1
  P  P21  1  0.68845155  0.22919807  0.65987790  1
  P  P22  1  0.31461358  0.90781087  0.84255938  1
  P  P23  1  0.69353778  0.08616684  0.16067561  1
  P  P24  1  0.31902080  0.76854784  0.34524551  1
  P  P25  1  0.22449627  0.69196801  0.16161151  1
  P  P26  1  0.33186573  0.33297874  0.36709063  1
  P  P27  1  0.33548912  0.32943926  0.87166531  1
  P  P28  1  0.08335087  0.68742461  0.66129993  1
  P  P29  1  0.23143725  0.08593667  0.66026007  1
  P  P30  1  0.08409094  0.22501914  0.15942760  1
  O  O31  1  0.99199713  0.77874155  0.57792845  1
  O  O32  1  0.91303425  0.74297248  0.32601179  1
  O  O33  1  0.80229682  0.99588819  0.08112504  1
  O  O34  1  0.74254922  0.91727893  0.83266922  1
  O  O35  1  0.89557324  0.62554953  0.83364866  1
  O  O36  1  0.81505257  0.67102729  0.16396233  1
  O  O37  1  0.90117488  0.48005886  0.32056246  1
  O  O38  1  0.99154400  0.21596565  0.07855736  1
  O  O39  1  0.91464448  0.34458248  0.83303290  1
  O  O40  1  0.67038596  0.81378139  0.66664197  1
  O  O41  1  0.61826913  0.90045429  0.31847991  1
  O  O42  1  0.81389573  0.51374696  0.66562129  1
  O  O43  1  0.67255271  0.65570446  0.01845434  1
  O  O44  1  0.65232268  0.66755869  0.52219695  1
  O  O45  1  0.67503233  0.51039834  0.16667515  1
  O  O46  1  0.47823638  0.89459522  0.83340131  1
  O  O47  1  0.51278210  0.80980625  0.16099387  1
  O  O48  1  0.74325804  0.34288242  0.33312848  1
  O  O49  1  0.78798003  0.20496145  0.75673453  1
  O  O50  1  0.77535567  0.23789702  0.57607789  1
  O  O51  1  0.78391794  0.23192650  0.93460935  1
  O  O52  1  0.62124502  0.47890267  0.83097467  1
  O  O53  1  0.51419552  0.66812669  0.67437039  1
  O  O54  1  0.66210146  0.25925135  0.16244618  1
  O  O55  1  0.48098130  0.61949255  0.31872271  1
  O  O56  1  0.33419691  0.91794105  0.33670986  1
  O  O57  1  0.78625078  0.01426450  0.26018001  1
  O  O58  1  0.76237542  0.97958242  0.43633301  1
  O  O59  1  0.24300103  0.99637106  0.57113734  1
  O  O60  1  0.66453652  0.08471813  0.65889277  1
  O  O61  1  0.52849797  0.38189276  0.67874386  1
  O  O62  1  0.33903311  0.73885472  0.83292106  1
  O  O63  1  0.47614858  0.33969248  0.31959689  1
  O  O64  1  0.38318977  0.53466892  0.17163708  1
  O  O65  1  0.21444931  0.79444033  0.08080346  1
  O  O66  1  0.25772638  0.75244393  0.43805099  1
  O  O67  1  0.20176052  0.78319768  0.26070717  1
  O  O68  1  0.25525982  0.66105977  0.66122842  1
  O  O69  1  0.48521906  0.18963336  0.82770922  1
  O  O70  1  0.53701508  0.08682214  0.16806517  1
  O  O71  1  0.33569673  0.48089546  0.82276710  1
  O  O72  1  0.33595692  0.34479232  0.97614172  1
  O  O73  1  0.32763604  0.34420441  0.47158883  1
  O  O74  1  0.18224220  0.47869159  0.31872305  1
  O  O75  1  0.38203800  0.09426828  0.67874791  1
  O  O76  1  0.33111427  0.18364707  0.32961478  1
  O  O77  1  0.08504140  0.65767733  0.15993910  1
  O  O78  1  0.01181597  0.78471157  0.75870632  1
  O  O79  1  0.98273094  0.78849017  0.93576150  1
  O  O80  1  0.09048985  0.52800488  0.67688188  1
  O  O81  1  0.19010081  0.33066335  0.82728183  1
  O  O82  1  0.08304712  0.38258362  0.17130134  1
  O  O83  1  0.25657996  0.08542091  0.16006081  1
  O  O84  1  0.22395184  0.98295332  0.93142753  1
  O  O85  1  0.20849340  0.99937124  0.75137090  1
  O  O86  1  0.08359963  0.25146870  0.65921694  1
  O  O87  1  0.99398638  0.25047960  0.43370409  1
  O  O88  1  0.01125316  0.20213285  0.25816361  1
