# generated using pymatgen
data_Na5Ni2P(CO4)4
_symmetry_space_group_name_H-M   'P 1'
_cell_length_a   9.90703402
_cell_length_b   9.84490391
_cell_length_c   9.89699809
_cell_angle_alpha   60.24130437
_cell_angle_beta   59.70484137
_cell_angle_gamma   60.13994576
_symmetry_Int_Tables_number   1
_chemical_formula_structural   Na5Ni2P(CO4)4
_chemical_formula_sum   'Na10 Ni4 P2 C8 O32'
_cell_volume   682.97473155
_cell_formula_units_Z   2
loop_
 _symmetry_equiv_pos_site_id
 _symmetry_equiv_pos_as_xyz
  1  'x, y, z'
loop_
 _atom_site_type_symbol
 _atom_site_label
 _atom_site_symmetry_multiplicity
 _atom_site_fract_x
 _atom_site_fract_y
 _atom_site_fract_z
 _atom_site_occupancy
  Na  Na0  1  0.65463639  0.08791898  0.09060222  1
  Na  Na1  1  0.90939778  0.33315860  0.34536361  1
  Na  Na2  1  0.08807674  0.66192326  0.08807674  1
  Na  Na3  1  0.09024734  0.08704068  0.65547574  1
  Na  Na4  1  0.65547574  0.66723624  0.09024734  1
  Na  Na5  1  0.91192326  0.33807674  0.91192326  1
  Na  Na6  1  0.34452426  0.33276376  0.90975266  1
  Na  Na7  1  0.90975266  0.91295932  0.34452426  1
  Na  Na8  1  0.09060222  0.66684140  0.65463639  1
  Na  Na9  1  0.34536361  0.91208102  0.90939778  1
  Ni  Ni10  1  0.50000000  0.50000000  -0.00000000  1
  Ni  Ni11  1  0.50000000  -0.00000000  0.50000000  1
  Ni  Ni12  1  0.50000000  0.50000000  0.50000000  1
  Ni  Ni13  1  0.00000000  0.50000000  0.50000000  1
  P  P14  1  0.12312077  0.12687923  0.12312077  1
  P  P15  1  0.87687923  0.87312077  0.87687923  1
  C  C16  1  0.28385562  0.28370252  0.28411178  1
  C  C17  1  0.65067048  0.28392198  0.28205564  1
  C  C18  1  0.28411178  0.64833009  0.28385562  1
  C  C19  1  0.28205564  0.28335190  0.65067048  1
  C  C20  1  0.71588822  0.35166991  0.71614438  1
  C  C21  1  0.71794436  0.71664810  0.34932952  1
  C  C22  1  0.34932952  0.71607802  0.71794436  1
  C  C23  1  0.71614438  0.71629748  0.71588822  1
  O  O24  1  0.31536714  0.06152387  0.05982309  1
  O  O25  1  0.06087844  0.05979493  0.06086365  1
  O  O26  1  0.06086365  0.31846299  0.06087844  1
  O  O27  1  0.05982309  0.06328590  0.31536714  1
  O  O28  1  0.65447742  0.14099685  0.30453444  1
  O  O29  1  0.39930991  0.30674150  0.14009187  1
  O  O30  1  0.65361882  0.40009289  0.13951827  1
  O  O31  1  0.30859807  0.14738029  0.40367797  1
  O  O32  1  0.13924080  0.39867685  0.30592051  1
  O  O33  1  0.65186977  0.30849909  0.39749935  1
  O  O34  1  0.30592051  0.65616184  0.13924080  1
  O  O35  1  0.39749935  0.14213179  0.65186977  1
  O  O36  1  0.85990813  0.34614328  0.60069009  1
  O  O37  1  0.69546556  0.60000870  0.34552258  1
  O  O38  1  0.40367797  0.64034367  0.30859807  1
  O  O39  1  0.13951827  0.30677002  0.65361882  1
  O  O40  1  0.86048173  0.69322998  0.34638118  1
  O  O41  1  0.59632203  0.35965633  0.69140193  1
  O  O42  1  0.30453444  0.39999130  0.65447742  1
  O  O43  1  0.14009187  0.65385672  0.39930991  1
  O  O44  1  0.69407949  0.34383816  0.86075920  1
  O  O45  1  0.60250065  0.85786821  0.34813023  1
  O  O46  1  0.34813023  0.69150091  0.60250065  1
  O  O47  1  0.86075920  0.60132315  0.69407949  1
  O  O48  1  0.69140193  0.85261971  0.59632203  1
  O  O49  1  0.34638118  0.59990711  0.86048173  1
  O  O50  1  0.34552258  0.85900315  0.69546556  1
  O  O51  1  0.60069009  0.69325850  0.85990813  1
  O  O52  1  0.94017691  0.93671410  0.68463286  1
  O  O53  1  0.93913635  0.68153701  0.93912156  1
  O  O54  1  0.93912156  0.94020507  0.93913635  1
  O  O55  1  0.68463286  0.93847613  0.94017691  1
