# generated using pymatgen
data_LiVCO4
_symmetry_space_group_name_H-M   'P 1'
_cell_length_a   3.17451980
_cell_length_b   9.33781888
_cell_length_c   9.37291965
_cell_angle_alpha   90.00000000
_cell_angle_beta   90.00000000
_cell_angle_gamma   88.43843933
_symmetry_Int_Tables_number   1
_chemical_formula_structural   LiVCO4
_chemical_formula_sum   'Li4 V4 C4 O16'
_cell_volume   277.73912511
_cell_formula_units_Z   4
loop_
 _symmetry_equiv_pos_site_id
 _symmetry_equiv_pos_as_xyz
  1  'x, y, z'
loop_
 _atom_site_type_symbol
 _atom_site_label
 _atom_site_symmetry_multiplicity
 _atom_site_fract_x
 _atom_site_fract_y
 _atom_site_fract_z
 _atom_site_occupancy
  Li  Li0  1  0.24993732  0.40269521  0.80641060  1
  Li  Li1  1  0.24993732  0.90269521  0.69358940  1
  Li  Li2  1  0.75006599  0.09730416  0.30641117  1
  Li  Li3  1  0.75006599  0.59730416  0.19358883  1
  V  V4  1  0.24117197  0.38079767  0.43707243  1
  V  V5  1  0.24117197  0.88079767  0.06292757  1
  V  V6  1  0.75884948  0.11919643  0.93706934  1
  V  V7  1  0.75884948  0.61919643  0.56293066  1
  C  C8  1  0.25539720  0.33681987  0.12808793  1
  C  C9  1  0.25539720  0.83681987  0.37191207  1
  C  C10  1  0.74459697  0.16318474  0.62808805  1
  C  C11  1  0.74459697  0.66318474  0.87191195  1
  O  O12  1  0.25078554  0.99652572  0.88704807  1
  O  O13  1  0.24325374  0.26107230  0.24644798  1
  O  O14  1  0.26265375  0.26315280  0.00468218  1
  O  O15  1  0.25078554  0.49652572  0.61295193  1
  O  O16  1  0.25577705  0.47072505  0.12767351  1
  O  O17  1  0.24325374  0.76107230  0.25355202  1
  O  O18  1  0.26265375  0.76315280  0.49531782  1
  O  O19  1  0.25577705  0.97072505  0.37232649  1
  O  O20  1  0.74422127  0.02927548  0.62767384  1
  O  O21  1  0.73733866  0.23684801  0.50468007  1
  O  O22  1  0.75674156  0.23893090  0.74644440  1
  O  O23  1  0.74422127  0.52927548  0.87232616  1
  O  O24  1  0.74921752  0.50347368  0.38704719  1
  O  O25  1  0.73733866  0.73684801  0.99531993  1
  O  O26  1  0.75674156  0.73893090  0.75355560  1
  O  O27  1  0.74921752  0.00347368  0.11295281  1
