# generated using pymatgen
data_LiV2F9
_symmetry_space_group_name_H-M   'P 1'
_cell_length_a   7.83605008
_cell_length_b   10.76211599
_cell_length_c   8.21277230
_cell_angle_alpha   90.00000000
_cell_angle_beta   90.00000000
_cell_angle_gamma   90.00000000
_symmetry_Int_Tables_number   1
_chemical_formula_structural   LiV2F9
_chemical_formula_sum   'Li4 V8 F36'
_cell_volume   692.60345462
_cell_formula_units_Z   4
loop_
 _symmetry_equiv_pos_site_id
 _symmetry_equiv_pos_as_xyz
  1  'x, y, z'
loop_
 _atom_site_type_symbol
 _atom_site_label
 _atom_site_symmetry_multiplicity
 _atom_site_fract_x
 _atom_site_fract_y
 _atom_site_fract_z
 _atom_site_occupancy
  Li  Li0  1  0.02108609  0.75000000  0.38089809  1
  Li  Li1  1  0.47891391  0.25000000  0.88089809  1
  Li  Li2  1  0.52108609  0.75000000  0.11910191  1
  Li  Li3  1  0.97891391  0.25000000  0.61910191  1
  V  V4  1  0.11113337  0.56896251  0.74831732  1
  V  V5  1  0.11113337  0.93103749  0.74831732  1
  V  V6  1  0.38886663  0.06896251  0.24831732  1
  V  V7  1  0.38886663  0.43103749  0.24831732  1
  V  V8  1  0.61113337  0.56896251  0.75168268  1
  V  V9  1  0.61113337  0.93103749  0.75168268  1
  V  V10  1  0.88886663  0.06896251  0.25168268  1
  V  V11  1  0.88886663  0.43103749  0.25168268  1
  F  F12  1  0.88700098  0.07829867  0.03699161  1
  F  F13  1  0.88700098  0.42170133  0.03699161  1
  F  F14  1  0.13739223  0.07305399  0.25999294  1
  F  F15  1  0.13739223  0.42694601  0.25999294  1
  F  F16  1  0.10051747  0.75000000  0.76822208  1
  F  F17  1  0.12265758  0.60859287  0.53154925  1
  F  F18  1  0.12265758  0.89140713  0.53154925  1
  F  F19  1  0.10884782  0.10209205  0.72005687  1
  F  F20  1  0.10884782  0.39790795  0.72005687  1
  F  F21  1  0.39115218  0.60209205  0.22005687  1
  F  F22  1  0.39115218  0.89790795  0.22005687  1
  F  F23  1  0.37734242  0.10859287  0.03154925  1
  F  F24  1  0.37734242  0.39140713  0.03154925  1
  F  F25  1  0.39948253  0.25000000  0.26822208  1
  F  F26  1  0.36260777  0.57305399  0.75999294  1
  F  F27  1  0.36260777  0.92694601  0.75999294  1
  F  F28  1  0.61299902  0.57829867  0.53699161  1
  F  F29  1  0.61299902  0.92170133  0.53699161  1
  F  F30  1  0.38700098  0.07829867  0.46300839  1
  F  F31  1  0.38700098  0.42170133  0.46300839  1
  F  F32  1  0.63739223  0.07305399  0.24000706  1
  F  F33  1  0.63739223  0.42694601  0.24000706  1
  F  F34  1  0.60051747  0.75000000  0.73177792  1
  F  F35  1  0.62265758  0.60859287  0.96845075  1
  F  F36  1  0.62265758  0.89140713  0.96845075  1
  F  F37  1  0.60884782  0.10209205  0.77994313  1
  F  F38  1  0.60884782  0.39790795  0.77994313  1
  F  F39  1  0.89115218  0.60209205  0.27994313  1
  F  F40  1  0.89115218  0.89790795  0.27994313  1
  F  F41  1  0.87734242  0.10859287  0.46845075  1
  F  F42  1  0.87734242  0.39140713  0.46845075  1
  F  F43  1  0.89948253  0.25000000  0.23177792  1
  F  F44  1  0.86260777  0.57305399  0.74000706  1
  F  F45  1  0.86260777  0.92694601  0.74000706  1
  F  F46  1  0.11299902  0.92170133  0.96300839  1
  F  F47  1  0.11299902  0.57829867  0.96300839  1
