# generated using pymatgen
data_Li6MnV3(PO4)6
_symmetry_space_group_name_H-M   'P 1'
_cell_length_a   8.72320285
_cell_length_b   8.67895923
_cell_length_c   8.78499486
_cell_angle_alpha   91.00541312
_cell_angle_beta   60.20807310
_cell_angle_gamma   61.31958945
_symmetry_Int_Tables_number   1
_chemical_formula_structural   Li6MnV3(PO4)6
_chemical_formula_sum   'Li6 Mn1 V3 P6 O24'
_cell_volume   476.89638501
_cell_formula_units_Z   1
loop_
 _symmetry_equiv_pos_site_id
 _symmetry_equiv_pos_as_xyz
  1  'x, y, z'
loop_
 _atom_site_type_symbol
 _atom_site_label
 _atom_site_symmetry_multiplicity
 _atom_site_fract_x
 _atom_site_fract_y
 _atom_site_fract_z
 _atom_site_occupancy
  Li  Li0  1  0.62814685  0.70887128  0.11031194  1
  Li  Li1  1  0.38883128  0.67650748  0.65017747  1
  Li  Li2  1  0.62863686  0.20690481  0.26208456  1
  Li  Li3  1  0.98171432  0.74795341  0.64007199  1
  Li  Li4  1  0.98155289  0.24999827  0.38069489  1
  Li  Li5  1  0.38510868  0.17659725  0.96258300  1
  Mn  Mn6  1  0.80318497  0.63845236  0.35062848  1
  V  V7  1  0.21009845  0.85813987  0.14674974  1
  V  V8  1  0.20901426  0.36078192  0.64382837  1
  V  V9  1  0.79557629  0.14189240  0.84733672  1
  P  P10  1  0.28176797  0.95504540  0.47109811  1
  P  P11  1  0.28174380  0.45549383  0.24919749  1
  P  P12  1  0.99907183  0.25670953  0.04823535  1
  P  P13  1  0.72036369  0.54105224  0.75176853  1
  P  P14  1  0.99652603  0.75500049  0.95261256  1
  P  P15  1  0.72314063  0.03803822  0.52475272  1
  O  O16  1  0.32135450  0.91950645  0.27711167  1
  O  O17  1  0.09363151  0.94454475  0.61979023  1
  O  O18  1  0.23435923  0.64759464  0.24729902  1
  O  O19  1  0.09814543  0.43825772  0.28342573  1
  O  O20  1  0.48146450  0.79380437  0.45300561  1
  O  O21  1  0.16662694  0.10334857  0.07508414  1
  O  O22  1  0.48417812  0.29319790  0.06426962  1
  O  O23  1  0.12234425  0.80737906  0.99126431  1
  O  O24  1  0.86935122  0.69605845  0.10290353  1
  O  O25  1  0.32386330  0.41680694  0.40107181  1
  O  O26  1  0.17248857  0.59792719  0.75493538  1
  O  O27  1  0.78452288  0.83547434  0.47725322  1
  O  O28  1  0.23507744  0.14869126  0.52221855  1
  O  O29  1  0.82372578  0.42602717  0.23699578  1
  O  O30  1  0.66552393  0.58218092  0.60909246  1
  O  O31  1  0.12597642  0.30518920  0.88516604  1
  O  O32  1  0.86934692  0.19774515  0.02346947  1
  O  O33  1  0.53102855  0.68472879  0.94889875  1
  O  O34  1  0.82932537  0.91929038  0.93476850  1
  O  O35  1  0.53566793  0.18024297  0.51848316  1
  O  O36  1  0.91001076  0.55336848  0.70628060  1
  O  O37  1  0.78461913  0.33906606  0.74006682  1
  O  O38  1  0.91425386  0.04773721  0.38058056  1
  O  O39  1  0.67063568  0.08330626  0.72343413  1
