# generated using pymatgen
data_LiV4OF11
_symmetry_space_group_name_H-M   'P 1'
_cell_length_a   5.20462271
_cell_length_b   5.50782374
_cell_length_c   17.27728647
_cell_angle_alpha   91.53158452
_cell_angle_beta   98.76995232
_cell_angle_gamma   61.93500355
_symmetry_Int_Tables_number   1
_chemical_formula_structural   LiV4OF11
_chemical_formula_sum   'Li2 V8 O2 F22'
_cell_volume   431.35111298
_cell_formula_units_Z   2
loop_
 _symmetry_equiv_pos_site_id
 _symmetry_equiv_pos_as_xyz
  1  'x, y, z'
loop_
 _atom_site_type_symbol
 _atom_site_label
 _atom_site_symmetry_multiplicity
 _atom_site_fract_x
 _atom_site_fract_y
 _atom_site_fract_z
 _atom_site_occupancy
  Li  Li0  1  0.13987002  0.41144431  0.68574437  1
  Li  Li1  1  0.90370282  0.49769261  0.31370403  1
  V  V2  1  0.25676438  0.37203317  0.87883029  1
  V  V3  1  0.46819835  0.25975318  0.24369503  1
  V  V4  1  0.24484794  0.87073723  0.37517891  1
  V  V5  1  0.01221032  0.99660068  0.00344761  1
  V  V6  1  0.50046181  0.75252714  0.75065043  1
  V  V7  1  0.76096438  0.13732338  0.61892663  1
  V  V8  1  0.99015855  0.49115731  0.50489327  1
  V  V9  1  0.76951226  0.61511434  0.12959944  1
  O  O10  1  0.06145263  0.47072798  0.21925309  1
  O  O11  1  0.93491356  0.34522889  0.59397936  1
  F  F12  1  0.07533231  0.15803275  0.90806520  1
  F  F13  1  0.99374790  0.19735318  0.43279122  1
  F  F14  1  0.01628646  0.69188352  0.93374123  1
  F  F15  1  0.48495761  0.06974598  0.80932792  1
  F  F16  1  0.05416566  0.64741898  0.40345995  1
  F  F17  1  0.57769371  0.20847450  0.96583242  1
  F  F18  1  0.06696143  0.97087613  0.71744515  1
  F  F19  1  0.41454725  0.09722652  0.34263843  1
  F  F20  1  0.43418073  0.27208284  0.53250376  1
  F  F21  1  0.44172583  0.58399093  0.84052339  1
  F  F22  1  0.48916715  0.44804080  0.68813253  1
  F  F23  1  0.50689498  0.56181112  0.31340955  1
  F  F24  1  0.57385091  0.39617793  0.15645678  1
  F  F25  1  0.55370237  0.71786954  0.46610561  1
  F  F26  1  0.57103239  0.91958720  0.66281165  1
  F  F27  1  0.92371659  0.04226233  0.28692548  1
  F  F28  1  0.43528365  0.78606479  0.03495255  1
  F  F29  1  0.94620385  0.52335927  0.77784792  1
  F  F30  1  0.50817928  0.92388373  0.19011505  1
  F  F31  1  0.99082756  0.31941853  0.05838073  1
  F  F32  1  0.00741335  0.80109945  0.56338812  1
  F  F33  1  0.93704499  0.84579876  0.09163895  1
