# generated using pymatgen
data_Mg11Cu2O13
_symmetry_space_group_name_H-M   'P 1'
_cell_length_a   3.02719744
_cell_length_b   19.64522909
_cell_length_c   4.25418402
_cell_angle_alpha   96.21665733
_cell_angle_beta   89.99903061
_cell_angle_gamma   85.52802124
_symmetry_Int_Tables_number   1
_chemical_formula_structural   Mg11Cu2O13
_chemical_formula_sum   'Mg11 Cu2 O13'
_cell_volume   250.73369847
_cell_formula_units_Z   1
loop_
 _symmetry_equiv_pos_site_id
 _symmetry_equiv_pos_as_xyz
  1  'x, y, z'
loop_
 _atom_site_type_symbol
 _atom_site_label
 _atom_site_symmetry_multiplicity
 _atom_site_fract_x
 _atom_site_fract_y
 _atom_site_fract_z
 _atom_site_occupancy
  Mg  Mg0  1  0.69292909  0.61535288  0.30760938  1
  Mg  Mg1  1  0.61542155  0.76918452  0.38455431  1
  Mg  Mg2  1  0.53886530  0.92242213  0.46126213  1
  Mg  Mg3  1  0.92344768  0.15317267  0.07654656  1
  Mg  Mg4  1  0.99974506  0.00066110  0.00037368  1
  Mg  Mg5  1  0.84560593  0.30756866  0.15381277  1
  Mg  Mg6  1  0.23133261  0.53769946  0.76879429  1
  Mg  Mg7  1  0.38398672  0.23161734  0.61586849  1
  Mg  Mg8  1  0.07686747  0.84627029  0.92318585  1
  Mg  Mg9  1  0.15417619  0.69212474  0.84602559  1
  Mg  Mg10  1  0.30696856  0.38545536  0.69275467  1
  Cu  Cu11  1  0.76918652  0.46154009  0.23078264  1
  Cu  Cu12  1  0.46149819  0.07694482  0.53845396  1
  O  O13  1  0.46161361  0.07692478  0.03839826  1
  O  O14  1  0.23109409  0.54123882  0.27054507  1
  O  O15  1  0.15401152  0.69242713  0.34617270  1
  O  O16  1  0.07683335  0.84605940  0.42307462  1
  O  O17  1  0.30727190  0.38179739  0.19091099  1
  O  O18  1  0.38465954  0.23044867  0.11523870  1
  O  O19  1  0.76908520  0.46154593  0.73080751  1
  O  O20  1  0.69298387  0.61523004  0.80754183  1
  O  O21  1  0.53833846  0.92326570  0.96171862  1
  O  O22  1  0.61544476  0.76921861  0.88459794  1
  O  O23  1  0.00060560  0.99888777  0.49949353  1
  O  O24  1  0.84559280  0.30793607  0.65400376  1
  O  O25  1  0.92243544  0.15500461  0.57747115  1
