# generated using pymatgen
data_Li4Fe5Sn3O16
_symmetry_space_group_name_H-M   'P 1'
_cell_length_a   6.12494150
_cell_length_b   6.12864864
_cell_length_c   9.68424140
_cell_angle_alpha   90.00170117
_cell_angle_beta   89.43117147
_cell_angle_gamma   120.02012986
_symmetry_Int_Tables_number   1
_chemical_formula_structural   Li4Fe5Sn3O16
_chemical_formula_sum   'Li4 Fe5 Sn3 O16'
_cell_volume   314.73592197
_cell_formula_units_Z   1
loop_
 _symmetry_equiv_pos_site_id
 _symmetry_equiv_pos_as_xyz
  1  'x, y, z'
loop_
 _atom_site_type_symbol
 _atom_site_label
 _atom_site_symmetry_multiplicity
 _atom_site_fract_x
 _atom_site_fract_y
 _atom_site_fract_z
 _atom_site_occupancy
  Li  Li0  1  0.33837980  0.66920809  0.88735548  1
  Li  Li1  1  0.98023627  0.99012349  0.99241181  1
  Li  Li2  1  0.98530347  0.99265869  0.50081365  1
  Li  Li3  1  0.66808299  0.33406167  0.39557657  1
  Fe  Fe4  1  0.34175070  0.67089336  0.49561610  1
  Fe  Fe5  1  0.66021186  0.83012099  0.21625274  1
  Fe  Fe6  1  0.67715106  0.33858304  0.98680870  1
  Fe  Fe7  1  0.83057956  0.66006666  0.71495101  1
  Fe  Fe8  1  0.83057792  0.17053681  0.71494899  1
  Sn  Sn9  1  0.16959864  0.83078174  0.21378083  1
  Sn  Sn10  1  0.16959765  0.33882915  0.21377603  1
  Sn  Sn11  1  0.34137088  0.17070008  0.71267128  1
  O  O12  1  0.16130984  0.83316333  0.59667188  1
  O  O13  1  0.03484720  0.51743035  0.34470381  1
  O  O14  1  0.34215510  0.67108555  0.09727428  1
  O  O15  1  0.99219689  0.99610459  0.31542473  1
  O  O16  1  0.99287706  0.99644440  0.80850975  1
  O  O17  1  0.16129381  0.32816141  0.59667376  1
  O  O18  1  0.48451376  0.96167493  0.34273336  1
  O  O19  1  0.48451416  0.52286170  0.34273582  1
  O  O20  1  0.32401353  0.16200898  0.09311813  1
  O  O21  1  0.66886587  0.83446664  0.60355652  1
  O  O22  1  0.52647916  0.48576929  0.84284491  1
  O  O23  1  0.52648183  0.04074338  0.84283957  1
  O  O24  1  0.67826247  0.33916174  0.60157127  1
  O  O25  1  0.83374243  0.67183952  0.09847732  1
  O  O26  1  0.96185368  0.48091190  0.83726696  1
  O  O27  1  0.83375141  0.16190853  0.09847573  1
