# generated using pymatgen
data_Li4FeCu3(PO4)4
_symmetry_space_group_name_H-M   'P 1'
_cell_length_a   4.76532362
_cell_length_b   10.07908813
_cell_length_c   6.10586054
_cell_angle_alpha   90.00000000
_cell_angle_beta   90.00000000
_cell_angle_gamma   89.41891203
_symmetry_Int_Tables_number   1
_chemical_formula_structural   Li4FeCu3(PO4)4
_chemical_formula_sum   'Li4 Fe1 Cu3 P4 O16'
_cell_volume   293.25011255
_cell_formula_units_Z   1
loop_
 _symmetry_equiv_pos_site_id
 _symmetry_equiv_pos_as_xyz
  1  'x, y, z'
loop_
 _atom_site_type_symbol
 _atom_site_label
 _atom_site_symmetry_multiplicity
 _atom_site_fract_x
 _atom_site_fract_y
 _atom_site_fract_z
 _atom_site_occupancy
  Li  Li0  1  0.99906922  0.99096853  0.99309249  1
  Li  Li1  1  0.99906922  0.99096853  0.50690751  1
  Li  Li2  1  0.50314912  0.50721336  0.50410151  1
  Li  Li3  1  0.50314912  0.50721336  0.99589849  1
  Fe  Fe4  1  0.98103753  0.28112237  0.25000000  1
  Cu  Cu5  1  0.04172309  0.71476814  0.75000000  1
  Cu  Cu6  1  0.44506704  0.21409086  0.75000000  1
  Cu  Cu7  1  0.55003675  0.78400292  0.25000000  1
  P  P8  1  0.08211500  0.59638598  0.25000000  1
  P  P9  1  0.41297743  0.09525685  0.25000000  1
  P  P10  1  0.57747071  0.90500234  0.75000000  1
  P  P11  1  0.92506005  0.40395560  0.75000000  1
  O  O12  1  0.19777325  0.44809116  0.25000000  1
  O  O13  1  0.21774414  0.66211823  0.04619455  1
  O  O14  1  0.21774414  0.66211823  0.45380545  1
  O  O15  1  0.24853381  0.39910317  0.75000000  1
  O  O16  1  0.25384051  0.90154321  0.75000000  1
  O  O17  1  0.26465897  0.16891233  0.05343246  1
  O  O18  1  0.26465897  0.16891233  0.44656754  1
  O  O19  1  0.30587504  0.95133337  0.25000000  1
  O  O20  1  0.68817645  0.05097176  0.75000000  1
  O  O21  1  0.71580617  0.83683148  0.54671068  1
  O  O22  1  0.71580617  0.83683148  0.95328932  1
  O  O23  1  0.73419959  0.10769965  0.25000000  1
  O  O24  1  0.75850564  0.59868788  0.25000000  1
  O  O25  1  0.79889151  0.33468572  0.54057182  1
  O  O26  1  0.79889151  0.33468572  0.95942818  1
  O  O27  1  0.79896983  0.54652544  0.75000000  1
