# generated using pymatgen
data_Li5V6O5F19
_symmetry_space_group_name_H-M   'P 1'
_cell_length_a   5.24531960
_cell_length_b   5.42972652
_cell_length_c   16.07235792
_cell_angle_alpha   99.33429545
_cell_angle_beta   89.90667423
_cell_angle_gamma   90.21679315
_symmetry_Int_Tables_number   1
_chemical_formula_structural   Li5V6O5F19
_chemical_formula_sum   'Li5 V6 O5 F19'
_cell_volume   451.68657227
_cell_formula_units_Z   1
loop_
 _symmetry_equiv_pos_site_id
 _symmetry_equiv_pos_as_xyz
  1  'x, y, z'
loop_
 _atom_site_type_symbol
 _atom_site_label
 _atom_site_symmetry_multiplicity
 _atom_site_fract_x
 _atom_site_fract_y
 _atom_site_fract_z
 _atom_site_occupancy
  Li  Li0  1  0.72125715  0.20047200  0.84819904  1
  Li  Li1  1  0.79646109  0.47897219  0.51034635  1
  Li  Li2  1  0.29966595  0.68708445  0.83019345  1
  Li  Li3  1  0.95608936  0.66968290  0.11825393  1
  Li  Li4  1  0.20359943  0.95977528  0.49477957  1
  V  V5  1  0.97209128  0.02724038  0.99828342  1
  V  V6  1  0.49944840  0.16047777  0.32632893  1
  V  V7  1  0.03103677  0.35574439  0.67103913  1
  V  V8  1  0.53259827  0.81132134  0.66380006  1
  V  V9  1  0.03168734  0.68205788  0.33053785  1
  V  V10  1  0.46626764  0.52144539  0.00428610  1
  O  O11  1  0.77893904  0.26068989  0.97780031  1
  O  O12  1  0.27584296  0.56622064  0.68960439  1
  O  O13  1  0.77566505  0.59951282  0.64157298  1
  O  O14  1  0.20767437  0.70772322  0.01657276  1
  O  O15  1  0.27640192  0.89477477  0.35527791  1
  F  F16  1  0.22725831  0.05485392  0.68151628  1
  F  F17  1  0.72734391  0.11030472  0.64843316  1
  F  F18  1  0.91686391  0.01237098  0.11314168  1
  F  F19  1  0.42929694  0.41902599  0.88144607  1
  F  F20  1  0.06680592  0.26675154  0.54743305  1
  F  F21  1  0.41675053  0.10741560  0.22032531  1
  F  F22  1  0.92253330  0.39019013  0.78429034  1
  F  F23  1  0.58195441  0.22835922  0.44049592  1
  F  F24  1  0.21027103  0.38379826  0.35405827  1
  F  F25  1  0.27842636  0.22898202  0.03248357  1
  F  F26  1  0.70974379  0.76256611  0.96967769  1
  F  F27  1  0.71661739  0.44563132  0.31594771  1
  F  F28  1  0.08383228  0.57862504  0.21755781  1
  F  F29  1  0.42749096  0.77222898  0.54714027  1
  F  F30  1  0.09234326  0.94130589  0.88391191  1
  F  F31  1  0.57242328  0.89765980  0.78347757  1
  F  F32  1  0.61409812  0.56967337  0.11234529  1
  F  F33  1  0.92727912  0.72741120  0.44869960  1
  F  F34  1  0.78658614  0.93612258  0.30537929  1
