# generated using pymatgen
data_Li5Fe8(BO3)8
_symmetry_space_group_name_H-M   'P 1'
_cell_length_a   5.21135370
_cell_length_b   5.25573936
_cell_length_c   20.26928191
_cell_angle_alpha   89.14571821
_cell_angle_beta   90.11342910
_cell_angle_gamma   60.39836071
_symmetry_Int_Tables_number   1
_chemical_formula_structural   Li5Fe8(BO3)8
_chemical_formula_sum   'Li5 Fe8 B8 O24'
_cell_volume   482.62449954
_cell_formula_units_Z   1
loop_
 _symmetry_equiv_pos_site_id
 _symmetry_equiv_pos_as_xyz
  1  'x, y, z'
loop_
 _atom_site_type_symbol
 _atom_site_label
 _atom_site_symmetry_multiplicity
 _atom_site_fract_x
 _atom_site_fract_y
 _atom_site_fract_z
 _atom_site_occupancy
  Li  Li0  1  0.32565468  0.65054412  0.66931709  1
  Li  Li1  1  0.35116877  0.67508183  0.91632356  1
  Li  Li2  1  0.32626079  0.65107565  0.17085641  1
  Li  Li3  1  0.65964559  0.34930921  0.54192247  1
  Li  Li4  1  0.66672783  0.34396589  0.04607394  1
  Fe  Fe5  1  0.99086255  0.67184026  0.80842260  1
  Fe  Fe6  1  0.00451260  0.67133626  0.30936457  1
  Fe  Fe7  1  0.68514014  0.00628768  0.93374304  1
  Fe  Fe8  1  0.67530240  0.99841733  0.43268818  1
  Fe  Fe9  1  0.32009212  0.00539250  0.55919290  1
  Fe  Fe10  1  0.32048362  0.00752784  0.06011983  1
  Fe  Fe11  1  0.99063434  0.32000593  0.68721076  1
  Fe  Fe12  1  0.99045936  0.31988073  0.18913901  1
  B  B13  1  0.00395299  0.33667319  0.93500899  1
  B  B14  1  0.00108185  0.33922155  0.43527685  1
  B  B15  1  0.33092054  0.00706848  0.81234934  1
  B  B16  1  0.33760670  0.00283082  0.31325744  1
  B  B17  1  0.65724408  -0.00058494  0.68665330  1
  B  B18  1  0.65601378  0.99910813  0.18734838  1
  B  B19  1  0.99666039  0.66510892  0.55979425  1
  B  B20  1  0.99584108  0.66879626  0.06147756  1
  O  O21  1  0.09854287  0.27176845  0.79053174  1
  O  O22  1  0.10548785  0.27227821  0.29319505  1
  O  O23  1  0.25774251  0.07339456  0.95004570  1
  O  O24  1  0.02741546  0.57898060  0.91250024  1
  O  O25  1  0.27347562  0.10511089  0.45387297  1
  O  O26  1  0.98918184  0.59889381  0.41374047  1
  O  O27  1  0.60078623  0.98650439  0.82835269  1
  O  O28  1  0.26258439  0.65773961  0.56866882  1
  O  O29  1  0.60422844  0.99100184  0.33292097  1
  O  O30  1  0.26745484  0.65499036  0.06787455  1
  O  O31  1  0.29908789  0.76379117  0.81955666  1
  O  O32  1  0.31290523  0.75772164  0.31333328  1
  O  O33  1  0.64460904  0.26365033  0.68378281  1
  O  O34  1  0.64567660  0.26253969  0.18446289  1
  O  O35  1  0.72842970  0.36332243  0.94338038  1
  O  O36  1  0.41448346  0.97158059  0.66814646  1
  O  O37  1  0.75061070  0.31725602  0.44207803  1
  O  O38  1  0.41239657  0.97309094  0.16905802  1
  O  O39  1  0.97134365  0.42107891  0.57642623  1
  O  O40  1  0.97529296  0.42061958  0.07773108  1
  O  O41  1  0.74774540  0.92043735  0.53561178  1
  O  O42  1  0.74773644  0.92609912  0.04004266  1
  O  O43  1  0.92288987  0.74505981  0.70726677  1
  O  O44  1  0.91929023  0.74473706  0.20890128  1
