# generated using pymatgen
data_Li4V3P8O29
_symmetry_space_group_name_H-M   'P 1'
_cell_length_a   9.73801119
_cell_length_b   9.74914866
_cell_length_c   14.30397219
_cell_angle_alpha   91.03195337
_cell_angle_beta   90.29114394
_cell_angle_gamma   60.39642730
_symmetry_Int_Tables_number   1
_chemical_formula_structural   Li4V3P8O29
_chemical_formula_sum   'Li8 V6 P16 O58'
_cell_volume   1180.51268881
_cell_formula_units_Z   2
loop_
 _symmetry_equiv_pos_site_id
 _symmetry_equiv_pos_as_xyz
  1  'x, y, z'
loop_
 _atom_site_type_symbol
 _atom_site_label
 _atom_site_symmetry_multiplicity
 _atom_site_fract_x
 _atom_site_fract_y
 _atom_site_fract_z
 _atom_site_occupancy
  Li  Li0  1  0.90508456  0.33406511  0.56396191  1
  Li  Li1  1  0.76314456  0.33978020  0.06063757  1
  Li  Li2  1  0.32321069  0.90904440  0.06280474  1
  Li  Li3  1  0.32582208  0.76511809  0.55683557  1
  Li  Li4  1  0.23093935  0.67489468  0.93948864  1
  Li  Li5  1  0.09527924  0.67067542  0.43605122  1
  Li  Li6  1  0.93968890  0.01552232  0.98781252  1
  Li  Li7  1  0.94426347  0.04164750  0.49895138  1
  V  V8  1  0.56726296  0.42822617  0.25300708  1
  V  V9  1  0.43727575  0.56448420  0.74814707  1
  V  V10  1  0.56589392  0.99799980  0.74814657  1
  V  V11  1  0.43913808  0.00171444  0.25028792  1
  V  V12  1  0.99560246  0.56721570  0.24553851  1
  V  V13  1  0.00454066  0.43487724  0.75377778  1
  P  P14  1  0.91572411  0.78591679  0.83196177  1
  P  P15  1  0.78174929  0.91856011  0.34103506  1
  P  P16  1  0.91389728  0.31465288  0.34646534  1
  P  P17  1  0.66498633  0.65972412  0.13142356  1
  P  P18  1  0.66980436  0.66332539  0.63222909  1
  P  P19  1  0.77304631  0.31842747  0.84616538  1
  P  P20  1  0.69502184  0.21816440  0.66679435  1
  P  P21  1  0.31375360  0.91398669  0.84622854  1
  P  P22  1  0.69803969  0.07984587  0.15714888  1
  P  P23  1  0.31705077  0.77518698  0.33747235  1
  P  P24  1  0.22863454  0.68005588  0.15901433  1
  P  P25  1  0.32493009  0.34241050  0.36569733  1
  P  P26  1  0.33486268  0.33406297  0.86676779  1
  P  P27  1  0.09058959  0.68124934  0.65118132  1
  P  P28  1  0.21874478  0.08120023  0.66533920  1
  P  P29  1  0.08467772  0.21637434  0.16571523  1
  O  O30  1  0.01918287  0.75394355  0.56012144  1
  O  O31  1  0.92115882  0.74205205  0.33189012  1
  O  O32  1  0.79027440  0.00281223  0.07144911  1
  O  O33  1  0.74199884  0.91945060  0.83114733  1
  O  O34  1  0.92165504  0.62295874  0.82569124  1
  O  O35  1  0.81072254  0.66442913  0.17995910  1
  O  O36  1  0.91578653  0.46999301  0.32992982  1
  O  O37  1  0.98570267  0.20941485  0.08820896  1
  O  O38  1  0.91526183  0.34758458  0.82928467  1
  O  O39  1  0.66989194  0.81196758  0.67837700  1
  O  O40  1  0.62410329  0.92091468  0.33088366  1
  O  O41  1  0.81690010  0.51452897  0.67416365  1
  O  O42  1  0.68026116  0.64007360  0.02796151  1
  O  O43  1  0.67368220  0.65798495  0.52819196  1
  O  O44  1  0.67031679  0.50880834  0.17388661  1
  O  O45  1  0.47116499  0.91188955  0.82633050  1
  O  O46  1  0.51315360  0.80937211  0.16650967  1
  O  O47  1  0.74333625  0.34298424  0.32921673  1
  O  O48  1  0.78933895  0.19652808  0.76361439  1
  O  O49  1  0.79978658  0.20825983  0.58799201  1
  O  O50  1  0.79111506  0.23798771  0.93706995  1
  O  O51  1  0.61945085  0.47239091  0.83188867  1
  O  O52  1  0.51386989  0.67336271  0.67022512  1
  O  O53  1  0.65796924  0.25693900  0.16360372  1
  O  O54  1  0.47488098  0.61921824  0.32218974  1
  O  O55  1  0.34679634  0.91530761  0.33200066  1
  O  O56  1  0.80242247  0.00067306  0.24846694  1
  O  O57  1  0.80906104  0.99344896  0.42460994  1
  O  O58  1  0.20471601  0.98798381  0.58573336  1
  O  O59  1  0.65725609  0.08153042  0.66575104  1
  O  O60  1  0.53863965  0.37699293  0.67481630  1
  O  O61  1  0.33887441  0.74381598  0.83417968  1
  O  O62  1  0.47878042  0.33867538  0.32269847  1
  O  O63  1  0.38344119  0.52437126  0.17434528  1
  O  O64  1  0.23015817  0.76165796  0.07103119  1
  O  O65  1  0.23451791  0.77294736  0.42548272  1
  O  O66  1  0.20612763  0.79293622  0.24862552  1
  O  O67  1  0.26054535  0.65583900  0.65950678  1
  O  O68  1  0.47845440  0.18688820  0.81913760  1
  O  O69  1  0.54118159  0.07664122  0.17118990  1
  O  O70  1  0.32654021  0.48698289  0.82934563  1
  O  O71  1  0.32743995  0.33203700  0.97015866  1
  O  O72  1  0.31563930  0.36646222  0.46867666  1
  O  O73  1  0.18239323  0.49286712  0.31983978  1
  O  O74  1  0.38044644  0.07619995  0.67361421  1
  O  O75  1  0.32652302  0.19615784  0.32262535  1
  O  O76  1  0.08470523  0.65324058  0.16261562  1
  O  O77  1  0.99129355  0.80187931  0.73559642  1
  O  O78  1  0.00540582  0.80378548  0.91216482  1
  O  O79  1  0.09014728  0.52607973  0.67294030  1
  O  O80  1  0.18585288  0.33242873  0.81948022  1
  O  O81  1  0.08120457  0.37808162  0.17568858  1
  O  O82  1  0.25671514  0.07988360  0.16111080  1
  O  O83  1  0.23987264  0.98121164  0.93897316  1
  O  O84  1  0.19531312  0.01499901  0.76375015  1
  O  O85  1  0.08254591  0.25551547  0.66338245  1
  O  O86  1  0.97171587  0.24097554  0.43928594  1
  O  O87  1  0.01904607  0.19344243  0.26509319  1
