# generated using pymatgen
data_Li5Mn2P2(CO7)2
_symmetry_space_group_name_H-M   'P 1'
_cell_length_a   8.53392691
_cell_length_b   8.21585590
_cell_length_c   8.18005465
_cell_angle_alpha   76.53531834
_cell_angle_beta   87.29323284
_cell_angle_gamma   92.19989606
_symmetry_Int_Tables_number   1
_chemical_formula_structural   Li5Mn2P2(CO7)2
_chemical_formula_sum   'Li10 Mn4 P4 C4 O28'
_cell_volume   556.42541916
_cell_formula_units_Z   2
loop_
 _symmetry_equiv_pos_site_id
 _symmetry_equiv_pos_as_xyz
  1  'x, y, z'
loop_
 _atom_site_type_symbol
 _atom_site_label
 _atom_site_symmetry_multiplicity
 _atom_site_fract_x
 _atom_site_fract_y
 _atom_site_fract_z
 _atom_site_occupancy
  Li  Li0  1  0.90200188  0.75630256  0.98894090  1
  Li  Li1  1  0.75024021  0.13852329  0.84723461  1
  Li  Li2  1  0.75581293  0.61017285  0.37669085  1
  Li  Li3  1  0.75073658  0.38280590  0.13860992  1
  Li  Li4  1  0.75208906  0.89313372  0.61677187  1
  Li  Li5  1  0.24926342  0.61719410  0.86139008  1
  Li  Li6  1  0.24791094  0.10686628  0.38322813  1
  Li  Li7  1  0.24418707  0.38982715  0.62330915  1
  Li  Li8  1  0.24975979  0.86147671  0.15276539  1
  Li  Li9  1  0.09799812  0.24369744  0.01105910  1
  Mn  Mn10  1  0.65447616  0.02127374  0.22926139  1
  Mn  Mn11  1  0.65612952  0.52260453  0.72855144  1
  Mn  Mn12  1  0.34387048  0.47739547  0.27144856  1
  Mn  Mn13  1  0.34552384  0.97872626  0.77073861  1
  P  P14  1  0.57918918  0.23667200  0.51050139  1
  P  P15  1  0.58778926  0.73968205  0.01451068  1
  P  P16  1  0.41221074  0.26031795  0.98548932  1
  P  P17  1  0.42081082  0.76332800  0.48949861  1
  C  C18  1  0.95263242  0.47089030  0.77441999  1
  C  C19  1  0.95625555  0.99555032  0.26125897  1
  C  C20  1  0.04374445  0.00444968  0.73874103  1
  C  C21  1  0.04736758  0.52910970  0.22558001  1
  O  O22  1  0.91566850  0.59245979  0.65716659  1
  O  O23  1  0.91866641  0.11400304  0.13695076  1
  O  O24  1  0.90267347  0.03920395  0.70760797  1
  O  O25  1  0.83892798  0.37336135  0.86814104  1
  O  O26  1  0.90197918  0.56121298  0.19023452  1
  O  O27  1  0.83688280  0.90685855  0.35565322  1
  O  O28  1  0.66854890  0.39243508  0.53971728  1
  O  O29  1  0.69127138  0.70571192  0.86684582  1
  O  O30  1  0.66970244  0.19658901  0.35485155  1
  O  O31  1  0.68872297  0.88196698  0.06475465  1
  O  O32  1  0.57823004  0.08560255  0.66769479  1
  O  O33  1  0.59466337  0.72985333  0.52900633  1
  O  O34  1  0.57797258  0.20209725  0.03587041  1
  O  O35  1  0.56912441  0.58154234  0.16187034  1
  O  O36  1  0.43087559  0.41845766  0.83812966  1
  O  O37  1  0.40533663  0.27014667  0.47099367  1
  O  O38  1  0.42202742  0.79790275  0.96412959  1
  O  O39  1  0.42176996  0.91439745  0.33230521  1
  O  O40  1  0.31127703  0.11803302  0.93524535  1
  O  O41  1  0.33029756  0.80341099  0.64514845  1
  O  O42  1  0.33145110  0.60756492  0.46028272  1
  O  O43  1  0.30872862  0.29428808  0.13315418  1
  O  O44  1  0.16311720  0.09314145  0.64434678  1
  O  O45  1  0.09802082  0.43878702  0.80976548  1
  O  O46  1  0.16107202  0.62663865  0.13185896  1
  O  O47  1  0.09732653  0.96079605  0.29239203  1
  O  O48  1  0.08433150  0.40754021  0.34283341  1
  O  O49  1  0.08133359  0.88599696  0.86304924  1
