# generated using pymatgen
data_Li6MnV3(PO4)6
_symmetry_space_group_name_H-M   'P 1'
_cell_length_a   8.68540201
_cell_length_b   8.69567821
_cell_length_c   15.15121223
_cell_angle_alpha   106.77901425
_cell_angle_beta   90.01516062
_cell_angle_gamma   61.62674555
_symmetry_Int_Tables_number   1
_chemical_formula_structural   Li6MnV3(PO4)6
_chemical_formula_sum   'Li12 Mn2 V6 P12 O48'
_cell_volume   951.15396104
_cell_formula_units_Z   2
loop_
 _symmetry_equiv_pos_site_id
 _symmetry_equiv_pos_as_xyz
  1  'x, y, z'
loop_
 _atom_site_type_symbol
 _atom_site_label
 _atom_site_symmetry_multiplicity
 _atom_site_fract_x
 _atom_site_fract_y
 _atom_site_fract_z
 _atom_site_occupancy
  Li  Li0  1  0.29747235  0.75722118  0.32182242  1
  Li  Li1  1  0.18389859  0.71418036  0.55372775  1
  Li  Li2  1  0.68204082  0.71866396  0.05070613  1
  Li  Li3  1  0.16660386  0.25477191  0.18850229  1
  Li  Li4  1  0.21269418  0.67732978  0.82766877  1
  Li  Li5  1  0.71331975  0.67856499  0.32850371  1
  Li  Li6  1  0.26831019  0.21264413  0.63261770  1
  Li  Li7  1  0.76593012  0.21688495  0.13273610  1
  Li  Li8  1  0.79952750  0.75098389  0.82123015  1
  Li  Li9  1  0.67482709  0.25127027  0.68838332  1
  Li  Li10  1  0.35996080  0.17697447  0.97809202  1
  Li  Li11  1  0.86237364  0.17985910  0.47989612  1
  Mn  Mn12  1  0.78636217  0.85507256  0.57383651  1
  Mn  Mn13  1  0.47763201  0.63740677  0.67596817  1
  V  V14  1  0.28604056  0.85713769  0.07340175  1
  V  V15  1  0.03181944  0.35508711  0.82081980  1
  V  V16  1  0.53379884  0.35993628  0.32004865  1
  V  V17  1  0.21659351  0.14536080  0.42455964  1
  V  V18  1  0.97234962  0.64033775  0.17924601  1
  V  V19  1  0.71596543  0.13834755  0.92358339  1
  P  P20  1  0.01306164  0.95234004  0.73553520  1
  P  P21  1  0.51666524  0.95602413  0.23667556  1
  P  P22  1  0.02272350  0.25045008  0.02300936  1
  P  P23  1  0.09830135  0.54195638  0.37542968  1
  P  P24  1  0.40389531  0.45518581  0.12404557  1
  P  P25  1  0.47694735  0.75646368  0.47640323  1
  P  P26  1  0.52179288  0.26260594  0.52412863  1
  P  P27  1  0.59709964  0.53831055  0.87575907  1
  P  P28  1  0.90685123  0.45053482  0.62617479  1
  P  P29  1  0.97466518  0.75145586  0.97701377  1
  P  P30  1  0.48675727  0.03354802  0.76090914  1
  P  P31  1  0.98722679  0.04082011  0.26251919  1
  O  O32  1  0.02237441  0.84118954  0.23840496  1
  O  O33  1  0.46506187  0.91825588  0.13746826  1
  O  O34  1  0.39923940  0.94582111  0.30930431  1
  O  O35  1  0.00708014  0.68529542  0.47375723  1
  O  O36  1  0.30104458  0.91884997  0.46666130  1
  O  O37  1  0.35725521  0.64676074  0.12281534  1
  O  O38  1  0.23529338  0.44398831  0.14566185  1
  O  O39  1  0.26504708  0.55465161  0.35237779  1
  O  O40  1  0.20336229  0.79350068  0.72638919  1
  O  O41  1  0.70709383  0.79584615  0.22973719  1
  O  O42  1  0.20602656  0.09737201  0.03480000  1
  O  O43  1  0.15222014  0.34263831  0.36999845  1
  O  O44  1  0.10859119  0.05024218  0.19091193  1
  O  O45  1  0.01344319  0.29269707  0.53269976  1
  O  O46  1  0.11836883  0.80786616  0.99532134  1
  O  O47  1  0.42413866  0.69930261  0.55297479  1
  O  O48  1  0.50884924  0.29397656  0.03168177  1
  O  O49  1  0.03056616  0.40678959  0.70089502  1
  O  O50  1  0.05229377  0.59373590  0.87962287  1
  O  O51  1  0.62548414  0.80746742  0.49450270  1
  O  O52  1  0.92611162  0.69214707  0.05473739  1
  O  O53  1  0.02969319  0.08806262  0.36314548  1
  O  O54  1  0.52682940  0.41555991  0.19932490  1
  O  O55  1  0.55273624  0.60066285  0.37831587  1
  O  O56  1  0.52423800  0.83248933  0.73772038  1
  O  O57  1  0.49729833  0.14793101  0.26353184  1
  O  O58  1  0.43503681  0.43246841  0.61779162  1
  O  O59  1  0.94485527  0.41341762  0.11714063  1
  O  O60  1  0.95717756  0.91848770  0.63600352  1
  O  O61  1  0.46859189  0.57985688  0.80438098  1
  O  O62  1  0.07034817  0.30240580  0.94183316  1
  O  O63  1  0.38159197  0.20058591  0.51100343  1
  O  O64  1  0.97092599  0.58451339  0.30281366  1
  O  O65  1  0.56668824  0.31428826  0.44229799  1
  O  O66  1  0.88262302  0.18817321  0.00778371  1
  O  O67  1  0.89680780  0.94020463  0.80804591  1
  O  O68  1  0.50743148  0.68290539  0.97404758  1
  O  O69  1  0.79606195  0.91078000  0.96723735  1
  O  O70  1  0.86024401  0.64178303  0.62670279  1
  O  O71  1  0.29605243  0.17382519  0.75779871  1
  O  O72  1  0.79712742  0.18268168  0.25789673  1
  O  O73  1  0.74007596  0.43441547  0.64565720  1
  O  O74  1  0.76445407  0.55085660  0.85231577  1
  O  O75  1  0.70204739  0.11540890  0.53899045  1
  O  O76  1  0.65398495  0.33883691  0.87169728  1
  O  O77  1  0.60491836  0.04661070  0.68895297  1
  O  O78  1  0.53183938  0.07914688  0.86121253  1
  O  O79  1  0.99087017  0.14534154  0.76168052  1
