# generated using pymatgen
data_Li4V3P8O29
_symmetry_space_group_name_H-M   'P 1'
_cell_length_a   9.75932755
_cell_length_b   9.72816724
_cell_length_c   14.29341181
_cell_angle_alpha   89.88639711
_cell_angle_beta   90.95847996
_cell_angle_gamma   60.28139998
_symmetry_Int_Tables_number   1
_chemical_formula_structural   Li4V3P8O29
_chemical_formula_sum   'Li8 V6 P16 O58'
_cell_volume   1178.28618061
_cell_formula_units_Z   2
loop_
 _symmetry_equiv_pos_site_id
 _symmetry_equiv_pos_as_xyz
  1  'x, y, z'
loop_
 _atom_site_type_symbol
 _atom_site_label
 _atom_site_symmetry_multiplicity
 _atom_site_fract_x
 _atom_site_fract_y
 _atom_site_fract_z
 _atom_site_occupancy
  Li  Li0  1  0.91154858  0.31601929  0.55393503  1
  Li  Li1  1  0.32961763  0.90539176  0.06663087  1
  Li  Li2  1  0.66998392  0.23138812  0.43534968  1
  Li  Li3  1  0.34315991  0.75900634  0.55888736  1
  Li  Li4  1  0.66272167  0.10041528  0.94018826  1
  Li  Li5  1  0.08559401  0.23102186  0.94619607  1
  Li  Li6  1  0.98330362  0.95347284  0.01767124  1
  Li  Li7  1  0.02133414  0.93397549  0.48294798  1
  V  V8  1  0.56385941  0.43787480  0.24436004  1
  V  V9  1  0.43151664  0.56538320  0.75953526  1
  V  V10  1  0.56825594  0.99738610  0.74230119  1
  V  V11  1  0.43471104  0.00267187  0.25359809  1
  V  V12  1  0.00083243  0.56711225  0.25205158  1
  V  V13  1  0.00053442  0.44049142  0.74751970  1
  P  P14  1  0.91589635  0.78079514  0.84149345  1
  P  P15  1  0.78598852  0.91713151  0.33531918  1
  P  P16  1  0.91383255  0.30938056  0.34009729  1
  P  P17  1  0.66484449  0.67003376  0.13267217  1
  P  P18  1  0.65716758  0.66581367  0.63446826  1
  P  P19  1  0.78249444  0.30266344  0.83573755  1
  P  P20  1  0.67631834  0.23635457  0.65457874  1
  P  P21  1  0.32034122  0.91383615  0.84534906  1
  P  P22  1  0.68226947  0.09003590  0.15433403  1
  P  P23  1  0.31958684  0.77062429  0.34592932  1
  P  P24  1  0.21314809  0.70140659  0.16577339  1
  P  P25  1  0.33665582  0.33414646  0.36605639  1
  P  P26  1  0.34136292  0.32185870  0.86696835  1
  P  P27  1  0.08360815  0.69892301  0.65976399  1
  P  P28  1  0.21758492  0.08316969  0.66302730  1
  P  P29  1  0.08482551  0.22604328  0.15963553  1
  O  O30  1  0.00703041  0.78887406  0.57297276  1
  O  O31  1  0.92074691  0.74202859  0.33268579  1
  O  O32  1  0.75995997  0.02514646  0.06294820  1
  O  O33  1  0.74045751  0.92128365  0.83001276  1
  O  O34  1  0.91891780  0.62274997  0.82911915  1
  O  O35  1  0.81221833  0.66747211  0.17986709  1
  O  O36  1  0.91581972  0.46651395  0.32702197  1
  O  O37  1  0.00566824  0.22295840  0.06969898  1
  O  O38  1  0.91943872  0.33995201  0.83577439  1
  O  O39  1  0.66702888  0.81245752  0.67557605  1
  O  O40  1  0.62542340  0.92697174  0.33295811  1
  O  O41  1  0.81000974  0.51333481  0.66796130  1
  O  O42  1  0.66557628  0.66067317  0.02909688  1
  O  O43  1  0.62880778  0.67531242  0.53145788  1
  O  O44  1  0.66522722  0.51996836  0.17981896  1
  O  O45  1  0.47693671  0.90985950  0.82457190  1
  O  O46  1  0.51246864  0.81519959  0.16940652  1
  O  O47  1  0.74075206  0.34030169  0.33438570  1
  O  O48  1  0.79954880  0.21360341  0.73735317  1
  O  O49  1  0.74884028  0.24262109  0.56403639  1
  O  O50  1  0.79334140  0.19736446  0.91430253  1
  O  O51  1  0.62183695  0.46084316  0.82781562  1
  O  O52  1  0.51145681  0.67220358  0.68474336  1
  O  O53  1  0.64952548  0.26315533  0.16655565  1
  O  O54  1  0.47162706  0.61319053  0.32829236  1
  O  O55  1  0.35317589  0.90867982  0.33318194  1
  O  O56  1  0.80505315  0.99117365  0.23711140  1
  O  O57  1  0.81408495  0.00498909  0.41288092  1
  O  O58  1  0.20996908  0.98472039  0.58575801  1
  O  O59  1  0.65144567  0.09104752  0.66143441  1
  O  O60  1  0.52120749  0.38872446  0.67638341  1
  O  O61  1  0.34524259  0.74331097  0.83835624  1
  O  O62  1  0.48499037  0.33276486  0.32079125  1
  O  O63  1  0.37587249  0.54654147  0.17144806  1
  O  O64  1  0.19472235  0.81079492  0.08654521  1
  O  O65  1  0.24291352  0.77946059  0.43721572  1
  O  O66  1  0.19634300  0.79181629  0.26311693  1
  O  O67  1  0.25909580  0.66011416  0.66909645  1
  O  O68  1  0.48855982  0.18342806  0.81734431  1
  O  O69  1  0.52902928  0.08653345  0.17000515  1
  O  O70  1  0.33399213  0.47828412  0.82551486  1
  O  O71  1  0.36868318  0.30523206  0.97006564  1
  O  O72  1  0.35109947  0.33667750  0.46969687  1
  O  O73  1  0.18669018  0.48521281  0.32243727  1
  O  O74  1  0.37798123  0.08164298  0.67257400  1
  O  O75  1  0.32586004  0.19439765  0.32270513  1
  O  O76  1  0.07979705  0.66034257  0.16554032  1
  O  O77  1  0.00075818  0.80186228  0.75024583  1
  O  O78  1  0.98940761  0.80421906  0.92679508  1
  O  O79  1  0.08093162  0.53976471  0.67349634  1
  O  O80  1  0.19046279  0.32281715  0.83089815  1
  O  O81  1  0.08461300  0.38348936  0.17642067  1
  O  O82  1  0.25462310  0.08287647  0.16389617  1
  O  O83  1  0.24806745  0.99199087  0.93593819  1
  O  O84  1  0.19792639  0.01340813  0.76237112  1
  O  O85  1  0.07952911  0.25569445  0.65989914  1
  O  O86  1  0.98832737  0.22523006  0.43028577  1
  O  O87  1  0.99776198  0.20337314  0.24973625  1
