# generated using pymatgen
data_Li5Mn2Fe(BO3)4
_symmetry_space_group_name_H-M   'P 1'
_cell_length_a   5.29730171
_cell_length_b   9.15901446
_cell_length_c   9.76669312
_cell_angle_alpha   90.00000000
_cell_angle_beta   91.75817102
_cell_angle_gamma   90.00000000
_symmetry_Int_Tables_number   1
_chemical_formula_structural   Li5Mn2Fe(BO3)4
_chemical_formula_sum   'Li10 Mn4 Fe2 B8 O24'
_cell_volume   473.63795019
_cell_formula_units_Z   2
loop_
 _symmetry_equiv_pos_site_id
 _symmetry_equiv_pos_as_xyz
  1  'x, y, z'
loop_
 _atom_site_type_symbol
 _atom_site_label
 _atom_site_symmetry_multiplicity
 _atom_site_fract_x
 _atom_site_fract_y
 _atom_site_fract_z
 _atom_site_occupancy
  Li  Li0  1  0.16214639  0.98531928  0.65136327  1
  Li  Li1  1  0.17114354  0.66870810  0.62935918  1
  Li  Li2  1  0.18382383  0.99533504  0.12079679  1
  Li  Li3  1  0.32726372  0.16862817  0.87293349  1
  Li  Li4  1  0.33854668  0.48372358  0.83878457  1
  Li  Li5  1  0.68382383  0.50466496  0.62079679  1
  Li  Li6  1  0.66214639  0.51468072  0.15136327  1
  Li  Li7  1  0.67114354  0.83129190  0.12935918  1
  Li  Li8  1  0.82726372  0.33137183  0.37293349  1
  Li  Li9  1  0.83854668  0.01627642  0.33878457  1
  Mn  Mn10  1  0.14744493  0.32100022  0.11952383  1
  Mn  Mn11  1  0.35155208  0.83063949  0.37677515  1
  Mn  Mn12  1  0.64744493  0.17899978  0.61952383  1
  Mn  Mn13  1  0.85155208  0.66936051  0.87677515  1
  Fe  Fe14  1  0.32161396  0.49499889  0.39004982  1
  Fe  Fe15  1  0.82161396  0.00500111  0.89004982  1
  B  B16  1  0.16504469  0.32476061  0.61803211  1
  B  B17  1  0.16599405  0.66482047  0.13514801  1
  B  B18  1  0.33331120  0.82467260  0.87893529  1
  B  B19  1  0.33276899  0.16034814  0.36842137  1
  B  B20  1  0.66599405  0.83517953  0.63514801  1
  B  B21  1  0.66504469  0.17523939  0.11803211  1
  B  B22  1  0.83276899  0.33965186  0.86842137  1
  B  B23  1  0.83331120  0.67532740  0.37893529  1
  O  O24  1  0.08779317  0.33548565  0.90896673  1
  O  O25  1  0.09052570  0.66672420  0.41485150  1
  O  O26  1  0.19617579  0.95315959  0.87565364  1
  O  O27  1  0.23174606  0.68922490  0.84664697  1
  O  O28  1  0.20526731  0.29131347  0.33360527  1
  O  O29  1  0.19815807  0.03297947  0.35698762  1
  O  O30  1  0.26589421  0.18908217  0.65370475  1
  O  O31  1  0.31976578  0.44871270  0.61068365  1
  O  O32  1  0.29201656  0.53344517  0.15677790  1
  O  O33  1  0.28838251  0.79595375  0.16899004  1
  O  O34  1  0.41487338  0.83425589  0.58518138  1
  O  O35  1  0.40874941  0.16119227  0.08782768  1
  O  O36  1  0.59052570  0.83327580  0.91485150  1
  O  O37  1  0.58779317  0.16451435  0.40896673  1
  O  O38  1  0.70526731  0.20868653  0.83360527  1
  O  O39  1  0.69815807  0.46702053  0.85698762  1
  O  O40  1  0.69617579  0.54684041  0.37565364  1
  O  O41  1  0.73174606  0.81077510  0.34664697  1
  O  O42  1  0.79201656  0.96655483  0.65677790  1
  O  O43  1  0.78838251  0.70404625  0.66899004  1
  O  O44  1  0.76589421  0.31091783  0.15370475  1
  O  O45  1  0.81976578  0.05128730  0.11068365  1
  O  O46  1  0.90874941  0.33880773  0.58782768  1
  O  O47  1  0.91487338  0.66574411  0.08518138  1
