# generated using pymatgen
data_Li3Mn4(BO3)4
_symmetry_space_group_name_H-M   'P 1'
_cell_length_a   7.86967681
_cell_length_b   7.95441297
_cell_length_c   9.11695885
_cell_angle_alpha   110.44170397
_cell_angle_beta   109.46715482
_cell_angle_gamma   83.43988494
_symmetry_Int_Tables_number   1
_chemical_formula_structural   Li3Mn4(BO3)4
_chemical_formula_sum   'Li6 Mn8 B8 O24'
_cell_volume   504.19781104
_cell_formula_units_Z   2
loop_
 _symmetry_equiv_pos_site_id
 _symmetry_equiv_pos_as_xyz
  1  'x, y, z'
loop_
 _atom_site_type_symbol
 _atom_site_label
 _atom_site_symmetry_multiplicity
 _atom_site_fract_x
 _atom_site_fract_y
 _atom_site_fract_z
 _atom_site_occupancy
  Li  Li0  1  0.67598197  0.01556664  0.72761514  1
  Li  Li1  1  0.16094507  0.50342980  0.73132977  1
  Li  Li2  1  0.42173427  0.25986131  0.22145167  1
  Li  Li3  1  0.57826573  0.74013869  0.77854833  1
  Li  Li4  1  0.83905493  0.49657020  0.26867023  1
  Li  Li5  1  0.32401803  0.98443336  0.27238486  1
  Mn  Mn6  1  0.03373520  0.21057551  0.43284986  1
  Mn  Mn7  1  0.46973314  0.28718221  0.58204454  1
  Mn  Mn8  1  0.78674839  0.46844921  0.92186081  1
  Mn  Mn9  1  0.27860078  0.97010930  0.91432738  1
  Mn  Mn10  1  0.72139922  0.02989070  0.08567262  1
  Mn  Mn11  1  0.21325161  0.53155079  0.07813919  1
  Mn  Mn12  1  0.53026686  0.71281779  0.41795546  1
  Mn  Mn13  1  0.96626480  0.78942449  0.56715014  1
  B  B14  1  0.46786055  0.29169965  0.91300779  1
  B  B15  1  0.05010004  0.22453915  0.10966778  1
  B  B16  1  0.70784375  0.04184020  0.41232398  1
  B  B17  1  0.20592567  0.52300365  0.40713041  1
  B  B18  1  0.79407433  0.47699635  0.59286959  1
  B  B19  1  0.29215625  0.95815980  0.58767602  1
  B  B20  1  0.94989996  0.77546085  0.89033222  1
  B  B21  1  0.53213945  0.70830035  0.08699221  1
  O  O22  1  0.02195794  0.33644073  0.01619984  1
  O  O23  1  0.26684032  0.05472152  0.48078865  1
  O  O24  1  0.32822687  0.40905381  0.88942720  1
  O  O25  1  0.19347563  0.10796359  0.12148863  1
  O  O26  1  0.59022067  0.26023749  0.82064234  1
  O  O27  1  0.06864795  0.75773713  0.80040294  1
  O  O28  1  0.22479135  0.42044485  0.51106934  1
  O  O29  1  0.55295259  0.14115760  0.37699948  1
  O  O30  1  0.06575215  0.63969170  0.38514681  1
  O  O31  1  0.83396902  0.02814663  0.33162689  1
  O  O32  1  0.33016798  0.49846480  0.32110152  1
  O  O33  1  0.48884151  0.19148256  0.01703061  1
  O  O34  1  0.51115849  0.80851744  0.98296939  1
  O  O35  1  0.66983202  0.50153520  0.67889848  1
  O  O36  1  0.16603098  0.97185337  0.66837311  1
  O  O37  1  0.93424785  0.36030830  0.61485319  1
  O  O38  1  0.44704741  0.85884240  0.62300052  1
  O  O39  1  0.77520865  0.57955515  0.48893066  1
  O  O40  1  0.93135205  0.24226287  0.19959706  1
  O  O41  1  0.40977933  0.73976251  0.17935766  1
  O  O42  1  0.80652437  0.89203641  0.87851137  1
  O  O43  1  0.67177313  0.59094619  0.11057280  1
  O  O44  1  0.73315968  0.94527848  0.51921135  1
  O  O45  1  0.97804206  0.66355927  0.98380016  1
