# generated using pymatgen
data_Li3Al(FeO3)2
_symmetry_space_group_name_H-M   'P 1'
_cell_length_a   5.39212198
_cell_length_b   5.88893139
_cell_length_c   7.96110395
_cell_angle_alpha   89.46179125
_cell_angle_beta   98.25087397
_cell_angle_gamma   89.61357907
_symmetry_Int_Tables_number   1
_chemical_formula_structural   Li3Al(FeO3)2
_chemical_formula_sum   'Li6 Al2 Fe4 O12'
_cell_volume   250.15955303
_cell_formula_units_Z   2
loop_
 _symmetry_equiv_pos_site_id
 _symmetry_equiv_pos_as_xyz
  1  'x, y, z'
loop_
 _atom_site_type_symbol
 _atom_site_label
 _atom_site_symmetry_multiplicity
 _atom_site_fract_x
 _atom_site_fract_y
 _atom_site_fract_z
 _atom_site_occupancy
  Li  Li0  1  0.17015984  0.84179221  0.09084879  1
  Li  Li1  1  0.34966330  0.66187995  0.42609166  1
  Li  Li2  1  0.50868040  0.83203718  0.74377215  1
  Li  Li3  1  0.49131960  0.16796282  0.25622785  1
  Li  Li4  1  0.65033670  0.33812005  0.57390834  1
  Li  Li5  1  0.82984016  0.15820779  0.90915121  1
  Al  Al6  1  0.99797702  0.66846142  0.75035162  1
  Al  Al7  1  0.00202298  0.33153858  0.24964838  1
  Fe  Fe8  1  0.17498865  0.17213646  0.58898296  1
  Fe  Fe9  1  0.65956400  0.67680186  0.07037359  1
  Fe  Fe10  1  0.34043600  0.32319814  0.92962641  1
  Fe  Fe11  1  0.82501135  0.82786354  0.41101704  1
  O  O12  1  0.98229140  0.64335962  0.25138079  1
  O  O13  1  0.15268656  0.18839594  0.09156572  1
  O  O14  1  0.14660311  0.83580545  0.59477737  1
  O  O15  1  0.30097793  0.33015037  0.41146198  1
  O  O16  1  0.51508920  0.83042667  0.24589064  1
  O  O17  1  0.32473838  0.65715138  0.91107113  1
  O  O18  1  0.67526162  0.34284862  0.08892887  1
  O  O19  1  0.48491080  0.16957333  0.75410936  1
  O  O20  1  0.69902207  0.66984963  0.58853802  1
  O  O21  1  0.85339689  0.16419455  0.40522263  1
  O  O22  1  0.84731344  0.81160406  0.90843428  1
  O  O23  1  0.01770860  0.35664038  0.74861921  1
