# generated using pymatgen
data_Li3V3P8O29
_symmetry_space_group_name_H-M   'P 1'
_cell_length_a   9.76136272
_cell_length_b   9.78830414
_cell_length_c   14.48860016
_cell_angle_alpha   90.38219470
_cell_angle_beta   89.99553461
_cell_angle_gamma   60.09463139
_symmetry_Int_Tables_number   1
_chemical_formula_structural   Li3V3P8O29
_chemical_formula_sum   'Li6 V6 P16 O58'
_cell_volume   1199.98355684
_cell_formula_units_Z   2
loop_
 _symmetry_equiv_pos_site_id
 _symmetry_equiv_pos_as_xyz
  1  'x, y, z'
loop_
 _atom_site_type_symbol
 _atom_site_label
 _atom_site_symmetry_multiplicity
 _atom_site_fract_x
 _atom_site_fract_y
 _atom_site_fract_z
 _atom_site_occupancy
  Li  Li0  1  0.76758956  0.31992133  0.05980626  1
  Li  Li1  1  0.32299416  0.77410293  0.55555649  1
  Li  Li2  1  0.08789524  0.67973604  0.44019413  1
  Li  Li3  1  0.09690704  0.22588044  0.94449518  1
  Li  Li4  1  0.01163589  0.91880883  0.00724803  1
  Li  Li5  1  0.92982070  0.08097403  0.49253603  1
  V  V6  1  0.56204278  0.43451002  0.25052810  1
  V  V7  1  0.43574931  0.56328244  0.75649273  1
  V  V8  1  0.56334968  0.00003385  0.75003145  1
  V  V9  1  0.44159190  0.99997262  0.25001369  1
  V  V10  1  0.99657217  0.56541794  0.24954759  1
  V  V11  1  0.99900161  0.43681493  0.74335915  1
  P  P12  1  0.91331060  0.77798654  0.83330819  1
  P  P13  1  0.78163512  0.91944845  0.34183285  1
  P  P14  1  0.91344722  0.30727647  0.33802887  1
  P  P15  1  0.66649627  0.66324975  0.13410048  1
  P  P16  1  0.66159305  0.66844253  0.63497054  1
  P  P17  1  0.77650644  0.31618775  0.84385601  1
  P  P18  1  0.69119419  0.22210743  0.66658295  1
  P  P19  1  0.30436316  0.91812191  0.84059605  1
  P  P20  1  0.70116922  0.08048831  0.15824935  1
  P  P21  1  0.31691694  0.77588572  0.33911308  1
  P  P22  1  0.22089466  0.69250790  0.16210437  1
  P  P23  1  0.32975542  0.33671525  0.36592048  1
  P  P24  1  0.32996681  0.33163505  0.86498265  1
  P  P25  1  0.09251087  0.68413185  0.65600661  1
  P  P26  1  0.22250553  0.08189471  0.65941156  1
  P  P27  1  0.09281208  0.22401593  0.16099165  1
  O  O28  1  0.02613467  0.75403869  0.56478625  1
  O  O29  1  0.91476387  0.74174907  0.33569166  1
  O  O30  1  0.79977616  0.00484177  0.07588780  1
  O  O31  1  0.73876034  0.91323806  0.82849512  1
  O  O32  1  0.91795343  0.61775771  0.82008356  1
  O  O33  1  0.81652491  0.65810844  0.18220625  1
  O  O34  1  0.92109523  0.46100268  0.32811112  1
  O  O35  1  0.01047339  0.22963334  0.07249027  1
  O  O36  1  0.91971894  0.34333206  0.83337090  1
  O  O37  1  0.66268993  0.81310465  0.68120946  1
  O  O38  1  0.61906996  0.92658325  0.32867157  1
  O  O39  1  0.81403224  0.52067577  0.67714409  1
  O  O40  1  0.67409397  0.66388554  0.03237090  1
  O  O41  1  0.65827460  0.67028335  0.53282892  1
  O  O42  1  0.66915308  0.51114684  0.17040120  1
  O  O43  1  0.45939829  0.92317400  0.82871581  1
  O  O44  1  0.52505623  0.81069479  0.18202928  1
  O  O45  1  0.73786150  0.34866568  0.32584238  1
  O  O46  1  0.79070804  0.20140859  0.76081233  1
  O  O47  1  0.78630246  0.21109319  0.58503883  1
  O  O48  1  0.77988195  0.24634195  0.93508720  1
  O  O49  1  0.61980937  0.47464462  0.82623432  1
  O  O50  1  0.51345695  0.66732108  0.67646723  1
  O  O51  1  0.65659730  0.25818069  0.16435486  1
  O  O52  1  0.47480399  0.61976176  0.32121992  1
  O  O53  1  0.34717787  0.91590605  0.33208220  1
  O  O54  1  0.80198533  0.00005449  0.25006902  1
  O  O55  1  0.80464868  0.99500896  0.42419019  1
  O  O56  1  0.20746053  0.99906454  0.57704789  1
  O  O57  1  0.65192120  0.08683455  0.67153446  1
  O  O58  1  0.53560241  0.38236100  0.67978604  1
  O  O59  1  0.34421118  0.74301497  0.83248695  1
  O  O60  1  0.47471957  0.34176157  0.31785143  1
  O  O61  1  0.38214432  0.53870801  0.17205252  1
  O  O62  1  0.19773472  0.78864722  0.07976255  1
  O  O63  1  0.24036681  0.77016414  0.42765716  1
  O  O64  1  0.20252763  0.79440352  0.25513486  1
  O  O65  1  0.26290963  0.65683278  0.66656823  1
  O  O66  1  0.47581451  0.18693537  0.81881357  1
  O  O67  1  0.54570595  0.07338872  0.17142568  1
  O  O68  1  0.33483772  0.47932293  0.82283033  1
  O  O69  1  0.32840043  0.32971726  0.96712267  1
  O  O70  1  0.33793386  0.33629559  0.46764540  1
  O  O71  1  0.18036072  0.48885489  0.32958449  1
  O  O72  1  0.38255697  0.07691041  0.67131281  1
  O  O73  1  0.33568822  0.18928231  0.31805141  1
  O  O74  1  0.08652027  0.65134146  0.17420368  1
  O  O75  1  0.99189744  0.79891207  0.73903887  1
  O  O76  1  0.99761090  0.78892550  0.91479075  1
  O  O77  1  0.09414282  0.52569251  0.67355554  1
  O  O78  1  0.18078021  0.33281109  0.82337657  1
  O  O79  1  0.09452619  0.38018765  0.17881733  1
  O  O80  1  0.26314580  0.08409139  0.16794639  1
  O  O81  1  0.20657447  0.00084234  0.92303589  1
  O  O82  1  0.20018111  0.00009145  0.75003779  1
  O  O83  1  0.08724321  0.25704603  0.66742936  1
  O  O84  1  0.98615498  0.21100570  0.42032794  1
  O  O85  1  0.99709197  0.20537200  0.24501226  1
