# generated using pymatgen
data_Li4Cr2(PO4)3
_symmetry_space_group_name_H-M   'P 1'
_cell_length_a   9.03826998
_cell_length_b   8.83259148
_cell_length_c   12.15386583
_cell_angle_alpha   90.01930356
_cell_angle_beta   90.76541723
_cell_angle_gamma   90.00691753
_symmetry_Int_Tables_number   1
_chemical_formula_structural   Li4Cr2(PO4)3
_chemical_formula_sum   'Li16 Cr8 P12 O48'
_cell_volume   970.17283394
_cell_formula_units_Z   4
loop_
 _symmetry_equiv_pos_site_id
 _symmetry_equiv_pos_as_xyz
  1  'x, y, z'
loop_
 _atom_site_type_symbol
 _atom_site_label
 _atom_site_symmetry_multiplicity
 _atom_site_fract_x
 _atom_site_fract_y
 _atom_site_fract_z
 _atom_site_occupancy
  Li  Li0  1  0.96132838  0.41404758  0.28388530  1
  Li  Li1  1  0.94849542  0.06520576  0.71194223  1
  Li  Li2  1  0.80131873  0.76306390  0.17819522  1
  Li  Li3  1  0.78507356  0.74159360  0.82399874  1
  Li  Li4  1  0.71508601  0.24174729  0.67591284  1
  Li  Li5  1  0.69821151  0.26344514  0.32198612  1
  Li  Li6  1  0.55149951  0.56525533  0.78798425  1
  Li  Li7  1  0.53869781  0.91504679  0.21614325  1
  Li  Li8  1  0.46120908  0.08574520  0.78377088  1
  Li  Li9  1  0.44827925  0.43415663  0.21192739  1
  Li  Li10  1  0.30205917  0.73634216  0.67816500  1
  Li  Li11  1  0.28553530  0.75865172  0.32393139  1
  Li  Li12  1  0.21443591  0.25859952  0.17607928  1
  Li  Li13  1  0.19789652  0.23657304  0.82191109  1
  Li  Li14  1  0.05193656  0.93476836  0.28792842  1
  Li  Li15  1  0.03885538  0.58575283  0.71623806  1
  Cr  Cr16  1  0.74921551  0.04955222  0.89024380  1
  Cr  Cr17  1  0.75263951  0.95396896  0.39137597  1
  Cr  Cr18  1  0.75097519  0.54973450  0.60956178  1
  Cr  Cr19  1  0.74738604  0.45381489  0.10853886  1
  Cr  Cr20  1  0.25228418  0.54616454  0.89152600  1
  Cr  Cr21  1  0.24936254  0.45064087  0.39022670  1
  Cr  Cr22  1  0.24768022  0.04597604  0.60853059  1
  Cr  Cr23  1  0.25072742  0.95054435  0.10975405  1
  P  P24  1  0.94895874  0.24395221  0.50050762  1
  P  P25  1  0.89813358  0.39759618  0.85179123  1
  P  P26  1  0.89387228  0.10962002  0.15357173  1
  P  P27  1  0.60557842  0.60950040  0.34644744  1
  P  P28  1  0.60207489  0.89753773  0.64815713  1
  P  P29  1  0.55153245  0.74359292  -0.00049871  1
  P  P30  1  0.44799136  0.25638883  0.00049457  1
  P  P31  1  0.39766185  0.10282640  0.35176786  1
  P  P32  1  0.39366309  0.39025486  0.65345145  1
  P  P33  1  0.10600508  0.89021550  0.84627405  1
  P  P34  1  0.10201292  0.60243591  0.14840669  1
  P  P35  1  0.05225852  0.75616759  0.49939473  1
  O  O36  1  0.95527718  0.86404503  0.42593527  1
  O  O37  1  0.96191746  0.66706944  0.58248290  1
  O  O38  1  0.93773043  0.89114404  0.82399786  1
  O  O39  1  0.93091961  0.58031112  0.16756472  1
  O  O40  1  0.85999982  0.34250016  0.58071713  1
  O  O41  1  0.85848746  0.23742720  0.80728352  1
  O  O42  1  0.85419921  0.41399418  0.97134906  1
  O  O43  1  0.83316752  0.26824361  0.19145993  1
  O  O44  1  0.83070892  0.15413952  0.43068305  1
  O  O45  1  0.84767052  0.07325264  0.03734272  1
  O  O46  1  0.83087992  0.98063561  0.23140438  1
  O  O47  1  0.82261397  0.52590457  0.78072388  1
  O  O48  1  0.67768118  0.02576301  0.71938842  1
  O  O49  1  0.66835286  0.48070507  0.26827393  1
  O  O50  1  0.65232363  0.57290041  0.46243807  1
  O  O51  1  0.64603491  0.91440835  0.52879225  1
  O  O52  1  0.67036058  0.65392215  0.06876674  1
  O  O53  1  0.66575616  0.76836104  0.30868312  1
  O  O54  1  0.64184602  0.73727201  0.69241634  1
  O  O55  1  0.64019387  0.84218316  0.91917638  1
  O  O56  1  0.56234521  0.39124278  0.67562740  1
  O  O57  1  0.56871953  0.08091085  0.33260170  1
  O  O58  1  0.53832384  0.16722829  0.91735302  1
  O  O59  1  0.54507347  0.36453033  0.07372673  1
  O  O60  1  0.45456363  0.63540534  0.92621971  1
  O  O61  1  0.46130384  0.83253165  0.08281212  1
  O  O62  1  0.43102702  0.91970512  0.66740711  1
  O  O63  1  0.43710600  0.60793267  0.32453460  1
  O  O64  1  0.35924073  0.15804154  0.08091775  1
  O  O65  1  0.35742432  0.26275545  0.30744029  1
  O  O66  1  0.33292665  0.23161102  0.69139821  1
  O  O67  1  0.32920779  0.34596692  0.93115595  1
  O  O68  1  0.35393973  0.08610961  0.47131289  1
  O  O69  1  0.34730917  0.42677678  0.53767129  1
  O  O70  1  0.33096005  0.51913973  0.73163962  1
  O  O71  1  0.32213424  0.97445741  0.28068476  1
  O  O72  1  0.17735798  0.47411721  0.21948757  1
  O  O73  1  0.16893275  0.01904468  0.76836541  1
  O  O74  1  0.15227195  0.92689062  0.96265893  1
  O  O75  1  0.17088969  0.84589331  0.56892750  1
  O  O76  1  0.16685557  0.73161943  0.80865223  1
  O  O77  1  0.14613597  0.58574985  0.02895510  1
  O  O78  1  0.14201244  0.76256227  0.19280164  1
  O  O79  1  0.14143761  0.65779580  0.41929965  1
  O  O80  1  0.06913064  0.41992874  0.83266491  1
  O  O81  1  0.06227691  0.10853294  0.17588099  1
  O  O82  1  0.03939258  0.33314964  0.41753347  1
  O  O83  1  0.04563153  0.13571894  0.57387078  1
