# generated using pymatgen
data_Li3P5(WO6)4
_symmetry_space_group_name_H-M   'P 1'
_cell_length_a   8.57309255
_cell_length_b   9.58762755
_cell_length_c   14.23397334
_cell_angle_alpha   92.86851165
_cell_angle_beta   107.52662366
_cell_angle_gamma   63.44277614
_symmetry_Int_Tables_number   1
_chemical_formula_structural   Li3P5(WO6)4
_chemical_formula_sum   'Li6 P10 W8 O48'
_cell_volume   993.02161789
_cell_formula_units_Z   2
loop_
 _symmetry_equiv_pos_site_id
 _symmetry_equiv_pos_as_xyz
  1  'x, y, z'
loop_
 _atom_site_type_symbol
 _atom_site_label
 _atom_site_symmetry_multiplicity
 _atom_site_fract_x
 _atom_site_fract_y
 _atom_site_fract_z
 _atom_site_occupancy
  Li  Li0  1  0.94225907  0.86385816  0.28153997  1
  Li  Li1  1  0.47542275  0.36385816  0.78153997  1
  Li  Li2  1  0.52801084  0.63556513  0.22143102  1
  Li  Li3  1  0.97369517  0.55580322  0.03073700  1
  Li  Li4  1  0.05785506  0.13556513  0.72143102  1
  Li  Li5  1  0.50123861  0.05580322  0.53073700  1
  P  P6  1  0.29152727  0.87703716  0.60658821  1
  P  P7  1  0.80934089  0.94100844  0.04502930  1
  P  P8  1  0.85420842  0.75067162  0.74993197  1
  P  P9  1  0.56319249  0.62255415  0.89721781  1
  P  P10  1  0.70856125  0.55672914  0.45789453  1
  P  P11  1  0.29467997  0.44100844  0.54502930  1
  P  P12  1  0.43802378  0.37703716  0.10658821  1
  P  P13  1  0.14505293  0.25067162  0.24993197  1
  P  P14  1  0.19260313  0.05672914  0.95789453  1
  P  P15  1  0.71147118  0.12255415  0.39721781  1
  W  W16  1  0.52434523  0.99376124  0.18036031  1
  W  W17  1  0.18899756  0.71737359  0.98071141  1
  W  W18  1  0.92695003  0.77966779  0.52116608  1
  W  W19  1  0.66225283  0.49376124  0.68036031  1
  W  W20  1  0.34327107  0.50577269  0.32177111  1
  W  W21  1  0.07434026  0.21737359  0.48071141  1
  W  W22  1  0.81454826  0.27966779  0.02116608  1
  W  W23  1  0.47272835  0.00577269  0.82177111  1
  O  O24  1  0.10948356  0.94109844  0.92679395  1
  O  O25  1  0.29443585  0.98754629  0.52937532  1
  O  O26  1  0.30492093  0.94857506  0.70801282  1
  O  O27  1  0.68523067  0.89125920  0.76552714  1
  O  O28  1  0.37083753  0.97886930  0.04465855  1
  O  O29  1  0.10699712  0.87202497  0.57794326  1
  O  O30  1  0.55277912  0.78442493  0.89066904  1
  O  O31  1  0.76141823  0.90745444  0.13558895  1
  O  O32  1  0.88699871  0.80514702  0.66017658  1
  O  O33  1  0.59343866  0.80352406  0.23183099  1
  O  O34  1  0.94963122  0.77084119  0.40207370  1
  O  O35  1  0.02368084  0.70274234  0.84303936  1
  O  O36  1  0.45135142  0.71583470  0.61507609  1
  O  O37  1  0.95061063  0.78007993  0.02301817  1
  O  O38  1  0.72140303  0.71047445  0.48369614  1
  O  O39  1  0.39791736  0.62534974  0.92045278  1
  O  O40  1  0.32044258  0.73007814  0.09947601  1
  O  O41  1  0.16476810  0.69372531  0.26950212  1
  O  O42  1  0.82038116  0.60570121  0.72906496  1
  O  O43  1  0.55705839  0.54998306  0.79702608  1
  O  O44  1  0.74884838  0.51663241  0.97975185  1
  O  O45  1  0.53421261  0.59467580  0.36749911  1
  O  O46  1  0.12264964  0.55282842  0.57340919  1
  O  O47  1  0.30330500  0.51723427  0.45622510  1
  O  O48  1  0.69495272  0.47886930  0.54465855  1
  O  O49  1  0.87621195  0.44109844  0.42679395  1
  O  O50  1  0.46671628  0.40745444  0.63558895  1
  O  O51  1  0.24739318  0.48754629  0.02937532  1
  O  O52  1  0.45451683  0.44857506  0.20801282  1
  O  O53  1  0.18903727  0.39125920  0.26552714  1
  O  O54  1  0.83486828  0.30352406  0.73183099  1
  O  O55  1  0.68160030  0.27084119  0.90207370  1
  O  O56  1  0.59892017  0.37202497  0.07794326  1
  O  O57  1  0.29232661  0.28007993  0.52301817  1
  O  O58  1  0.05181966  0.21047445  0.98369614  1
  O  O59  1  0.55346499  0.28442493  0.39066904  1
  O  O60  1  0.96803085  0.30514702  0.16017658  1
  O  O61  1  0.04895529  0.23007814  0.59947601  1
  O  O62  1  0.41100871  0.19372531  0.76950212  1
  O  O63  1  0.11661619  0.20274234  0.34303936  1
  O  O64  1  0.23861070  0.09467580  0.86749911  1
  O  O65  1  0.44789097  0.21583470  0.11507609  1
  O  O66  1  0.89718567  0.12534974  0.42045278  1
  O  O67  1  0.63568583  0.01723427  0.95622510  1
  O  O68  1  0.30298359  0.10570121  0.22906496  1
  O  O69  1  0.68998462  0.04998306  0.29702608  1
  O  O70  1  0.71427007  0.01663241  0.47975185  1
  O  O71  1  0.89793113  0.05282842  0.07340919  1
