# generated using pymatgen
data_Li3Fe2P2(CO7)2
_symmetry_space_group_name_H-M   'P 1'
_cell_length_a   9.41725405
_cell_length_b   10.20770966
_cell_length_c   6.46244322
_cell_angle_alpha   90.05213544
_cell_angle_beta   90.43498137
_cell_angle_gamma   62.07161837
_symmetry_Int_Tables_number   1
_chemical_formula_structural   Li3Fe2P2(CO7)2
_chemical_formula_sum   'Li6 Fe4 P4 C4 O28'
_cell_volume   548.85548318
_cell_formula_units_Z   2
loop_
 _symmetry_equiv_pos_site_id
 _symmetry_equiv_pos_as_xyz
  1  'x, y, z'
loop_
 _atom_site_type_symbol
 _atom_site_label
 _atom_site_symmetry_multiplicity
 _atom_site_fract_x
 _atom_site_fract_y
 _atom_site_fract_z
 _atom_site_occupancy
  Li  Li0  1  0.89439193  0.43631364  0.73838324  1
  Li  Li1  1  0.89825052  0.93279450  0.74687120  1
  Li  Li2  1  0.71863298  0.76579412  0.96628072  1
  Li  Li3  1  0.28136702  0.23420588  0.03371928  1
  Li  Li4  1  0.10174948  0.06720550  0.25312880  1
  Li  Li5  1  0.10560807  0.56368636  0.26161676  1
  Fe  Fe6  1  0.67085692  0.06917343  0.25241258  1
  Fe  Fe7  1  0.66628127  0.56330863  0.25582665  1
  Fe  Fe8  1  0.33371873  0.43669137  0.74417335  1
  Fe  Fe9  1  0.32914308  0.93082657  0.74758742  1
  P  P10  1  0.57956749  0.06885337  0.75624097  1
  P  P11  1  0.57902208  0.57410470  0.75208322  1
  P  P12  1  0.42097792  0.42589530  0.24791678  1
  P  P13  1  0.42043251  0.93114663  0.24375903  1
  C  C14  1  0.96133191  0.37460510  0.23768422  1
  C  C15  1  0.96052399  0.87033134  0.24784985  1
  C  C16  1  0.03947601  0.12966866  0.75215015  1
  C  C17  1  0.03866809  0.62539490  0.76231578  1
  O  O18  1  0.92678902  0.00961311  0.25705040  1
  O  O19  1  0.92578645  0.51460762  0.24445095  1
  O  O20  1  0.90153024  0.23783820  0.75215386  1
  O  O21  1  0.83917934  0.34834826  0.25187886  1
  O  O22  1  0.89731654  0.73177914  0.78120136  1
  O  O23  1  0.83388311  0.84798339  0.24065631  1
  O  O24  1  0.69825242  0.04710959  0.93749351  1
  O  O25  1  0.68218720  0.05107571  0.56248905  1
  O  O26  1  0.69180645  0.56549306  0.93607513  1
  O  O27  1  0.68773535  0.55484294  0.56283229  1
  O  O28  1  0.57778911  0.27865901  0.25074366  1
  O  O29  1  0.53220763  0.44807437  0.76133845  1
  O  O30  1  0.57740430  0.78325974  0.22989641  1
  O  O31  1  0.53476258  0.93941092  0.77112149  1
  O  O32  1  0.46523742  0.06058908  0.22887851  1
  O  O33  1  0.42259570  0.21674026  0.77010359  1
  O  O34  1  0.46779237  0.55192563  0.23866255  1
  O  O35  1  0.42221089  0.72134099  0.74925634  1
  O  O36  1  0.31226465  0.44515706  0.43716771  1
  O  O37  1  0.30819355  0.43450694  0.06392487  1
  O  O38  1  0.30174758  0.95289041  0.06250649  1
  O  O39  1  0.31781280  0.94892429  0.43751095  1
  O  O40  1  0.16611689  0.15201661  0.75934369  1
  O  O41  1  0.10268346  0.26822086  0.21879864  1
  O  O42  1  0.16082066  0.65165174  0.74812114  1
  O  O43  1  0.09846976  0.76216180  0.24784614  1
  O  O44  1  0.07421355  0.48539238  0.75554905  1
  O  O45  1  0.07321098  0.99038689  0.74294960  1
