# generated using pymatgen
data_Li4Fe(WO4)3
_symmetry_space_group_name_H-M   'P 1'
_cell_length_a   5.13107066
_cell_length_b   5.03296931
_cell_length_c   8.80313077
_cell_angle_alpha   90.00000000
_cell_angle_beta   90.00000000
_cell_angle_gamma   89.16728580
_symmetry_Int_Tables_number   1
_chemical_formula_structural   Li4Fe(WO4)3
_chemical_formula_sum   'Li4 Fe1 W3 O12'
_cell_volume   227.31262798
_cell_formula_units_Z   1
loop_
 _symmetry_equiv_pos_site_id
 _symmetry_equiv_pos_as_xyz
  1  'x, y, z'
loop_
 _atom_site_type_symbol
 _atom_site_label
 _atom_site_symmetry_multiplicity
 _atom_site_fract_x
 _atom_site_fract_y
 _atom_site_fract_z
 _atom_site_occupancy
  Li  Li0  1  -0.00000000  0.00000000  0.71164698  1
  Li  Li1  1  -0.00000000  0.50000000  0.82763357  1
  Li  Li2  1  0.50000000  0.00000000  0.32707949  1
  Li  Li3  1  0.50000000  0.50000000  0.20076965  1
  Fe  Fe4  1  -0.00000000  0.00000000  0.09930374  1
  W  W5  1  0.50000000  0.50000000  0.61448477  1
  W  W6  1  -0.00000000  0.50000000  0.39785822  1
  W  W7  1  0.50000000  0.00000000  0.93806972  1
  O  O8  1  0.15536300  0.26114915  0.26605576  1
  O  O9  1  0.18391291  0.30214610  0.58176524  1
  O  O10  1  0.18602047  0.19032790  0.90199734  1
  O  O11  1  0.31818445  0.70239193  0.43202057  1
  O  O12  1  0.34860159  0.77513044  0.07867489  1
  O  O13  1  0.35429841  0.74348060  0.75160462  1
  O  O14  1  0.64570159  0.25651940  0.75160462  1
  O  O15  1  0.65139841  0.22486956  0.07867489  1
  O  O16  1  0.68181555  0.29760807  0.43202057  1
  O  O17  1  0.81397953  0.80967210  0.90199734  1
  O  O18  1  0.81608709  0.69785390  0.58176524  1
  O  O19  1  0.84463700  0.73885085  0.26605576  1
