# generated using pymatgen
data_Li2U(WO5)2
_symmetry_space_group_name_H-M   'P 1'
_cell_length_a   7.88290765
_cell_length_b   13.07081781
_cell_length_c   7.61636328
_cell_angle_alpha   90.00000000
_cell_angle_beta   90.01577400
_cell_angle_gamma   90.00000000
_symmetry_Int_Tables_number   1
_chemical_formula_structural   Li2U(WO5)2
_chemical_formula_sum   'Li8 U4 W8 O40'
_cell_volume   784.75995587
_cell_formula_units_Z   4
loop_
 _symmetry_equiv_pos_site_id
 _symmetry_equiv_pos_as_xyz
  1  'x, y, z'
loop_
 _atom_site_type_symbol
 _atom_site_label
 _atom_site_symmetry_multiplicity
 _atom_site_fract_x
 _atom_site_fract_y
 _atom_site_fract_z
 _atom_site_occupancy
  Li  Li0  1  0.31371778  0.00684184  0.99869681  1
  Li  Li1  1  0.31371778  0.99315816  0.49869681  1
  Li  Li2  1  0.49989234  0.98669389  0.24996557  1
  Li  Li3  1  0.49989234  0.01330611  0.74996557  1
  Li  Li4  1  0.68619349  0.00748088  0.50117113  1
  Li  Li5  1  0.68619349  0.99251912  0.00117113  1
  Li  Li6  1  0.85717133  0.49526279  0.98695239  1
  Li  Li7  1  0.85717133  0.50473721  0.48695239  1
  U  U8  1  0.99987869  0.01837608  0.24995261  1
  U  U9  1  0.99987869  0.98162392  0.74995261  1
  U  U10  1  0.49239725  0.52087053  0.24757015  1
  U  U11  1  0.49239725  0.47912947  0.74757015  1
  W  W12  1  0.02514164  0.25593391  0.00038242  1
  W  W13  1  0.02514164  0.74406609  0.50038242  1
  W  W14  1  0.47616692  0.24328379  0.49898251  1
  W  W15  1  0.47616692  0.75671621  0.99898251  1
  W  W16  1  0.52396628  0.24338283  -0.00016548  1
  W  W17  1  0.52396628  0.75661717  0.49983452  1
  W  W18  1  0.97659455  0.25625583  0.49839139  1
  W  W19  1  0.97659455  0.74374417  0.99839139  1
  O  O20  1  0.00072065  0.20392913  0.24975980  1
  O  O21  1  0.00156298  0.26059948  0.74942540  1
  O  O22  1  0.00156298  0.73940052  0.24942540  1
  O  O23  1  0.00072065  0.79607087  0.74975980  1
  O  O24  1  0.00449915  0.09314867  0.97016995  1
  O  O25  1  0.00449915  0.90685133  0.47016995  1
  O  O26  1  0.99781396  0.38614329  0.04919805  1
  O  O27  1  0.99781396  0.61385671  0.54919805  1
  O  O28  1  0.24337021  0.01822940  0.24968415  1
  O  O29  1  0.24337021  0.98177060  0.74968415  1
  O  O30  1  0.24226920  0.24385848  0.49820668  1
  O  O31  1  0.24226920  0.75614152  0.99820668  1
  O  O32  1  0.25853879  0.24508820  0.00087388  1
  O  O33  1  0.25853879  0.75491180  0.50087388  1
  O  O34  1  0.26473634  0.52538071  0.24824812  1
  O  O35  1  0.26473634  0.47461929  0.74824812  1
  O  O36  1  0.49515896  0.10187334  0.54058336  1
  O  O37  1  0.49515896  0.89812666  0.04058336  1
  O  O38  1  0.49758298  0.39485263  0.46809810  1
  O  O39  1  0.49758298  0.60514737  0.96809810  1
  O  O40  1  0.50095799  0.22839269  0.24952033  1
  O  O41  1  0.49883932  0.71836741  0.24911916  1
  O  O42  1  0.50095799  0.77160731  0.74952033  1
  O  O43  1  0.49883932  0.28163259  0.74911916  1
  O  O44  1  0.50497104  0.39561268  0.02848714  1
  O  O45  1  0.50497104  0.60438732  0.52848714  1
  O  O46  1  0.50269871  0.10212011  0.95827376  1
  O  O47  1  0.50269871  0.89787989  0.45827376  1
  O  O48  1  0.72773850  0.47871013  0.74670193  1
  O  O49  1  0.72773850  0.52128987  0.24670193  1
  O  O50  1  0.74286730  0.24140585  0.50187939  1
  O  O51  1  0.74286730  0.75859415  0.00187939  1
  O  O52  1  0.75687002  0.24279209  0.99888473  1
  O  O53  1  0.75687002  0.75720791  0.49888473  1
  O  O54  1  0.75637682  0.01821382  0.25003311  1
  O  O55  1  0.75637682  0.98178618  0.75003311  1
  O  O56  1  0.98836936  0.38725857  0.44875991  1
  O  O57  1  0.98836936  0.61274143  0.94875991  1
  O  O58  1  0.99543545  0.09154523  0.52869254  1
  O  O59  1  0.99543545  0.90845477  0.02869254  1
