# generated using pymatgen
data_Li2V3CoO8
_symmetry_space_group_name_H-M   'P 1'
_cell_length_a   8.41062094
_cell_length_b   8.40960473
_cell_length_c   8.40914517
_cell_angle_alpha   89.98536427
_cell_angle_beta   90.04876863
_cell_angle_gamma   89.97836257
_symmetry_Int_Tables_number   1
_chemical_formula_structural   Li2V3CoO8
_chemical_formula_sum   'Li8 V12 Co4 O32'
_cell_volume   594.77854074
_cell_formula_units_Z   4
loop_
 _symmetry_equiv_pos_site_id
 _symmetry_equiv_pos_as_xyz
  1  'x, y, z'
loop_
 _atom_site_type_symbol
 _atom_site_label
 _atom_site_symmetry_multiplicity
 _atom_site_fract_x
 _atom_site_fract_y
 _atom_site_fract_z
 _atom_site_occupancy
  Li  Li0  1  0.12586793  0.87443281  0.37391365  1
  Li  Li1  1  0.24772495  0.74796518  0.75220584  1
  Li  Li2  1  0.25216085  0.25201751  0.25195416  1
  Li  Li3  1  0.37425838  0.12570778  0.87398100  1
  Li  Li4  1  0.62586428  0.62601414  0.62572548  1
  Li  Li5  1  0.74792660  0.75216011  0.24816000  1
  Li  Li6  1  0.75216090  0.24782602  0.74784160  1
  Li  Li7  1  0.87411661  0.37401720  0.12584069  1
  V  V8  1  0.11936041  0.62160627  0.12721538  1
  V  V9  1  0.12144374  0.37416924  0.88039476  1
  V  V10  1  0.12552144  0.12046439  0.62165215  1
  V  V11  1  0.37370760  0.87977889  0.12105429  1
  V  V12  1  0.37842116  0.62544334  0.37933299  1
  V  V13  1  0.37960394  0.37861230  0.62557454  1
  V  V14  1  0.62125396  0.87828386  0.87504660  1
  V  V15  1  0.62148374  0.12586753  0.12049279  1
  V  V16  1  0.62707710  0.38011498  0.37873418  1
  V  V17  1  0.87526410  0.62067064  0.87798399  1
  V  V18  1  0.87854860  0.87361586  0.62052888  1
  V  V19  1  0.87977935  0.12113695  0.37428257  1
  Co  Co20  1  0.00105768  0.49885895  0.50106757  1
  Co  Co21  1  0.49895664  0.50118262  0.00117918  1
  Co  Co22  1  0.50104224  0.00102684  0.49903304  1
  Co  Co23  1  0.99857913  0.99895756  0.99864239  1
  O  O24  1  0.10891268  0.13030801  0.39850966  1
  O  O25  1  0.10134110  0.89056388  0.62994165  1
  O  O26  1  0.11176822  0.61188714  0.88803853  1
  O  O27  1  0.13058198  0.39822493  0.10901634  1
  O  O28  1  0.12145001  0.14004180  0.85529159  1
  O  O29  1  0.13739934  0.36259801  0.63767973  1
  O  O30  1  0.14293353  0.62153827  0.35962170  1
  O  O31  1  0.13971943  0.85587967  0.12186060  1
  O  O32  1  0.35925964  0.14453015  0.62243391  1
  O  O33  1  0.35567300  0.37756641  0.85949880  1
  O  O34  1  0.36132856  0.63814598  0.13841062  1
  O  O35  1  0.37784260  0.85939043  0.35538904  1
  O  O36  1  0.36980688  0.60153655  0.60893177  1
  O  O37  1  0.38806237  0.38799106  0.38785402  1
  O  O38  1  0.39876822  0.10934688  0.12982940  1
  O  O39  1  0.39112863  0.86983868  0.89854502  1
  O  O40  1  0.60915680  0.36984079  0.60143647  1
  O  O41  1  0.60119758  0.60936473  0.36982607  1
  O  O42  1  0.61194232  0.88768621  0.11205158  1
  O  O43  1  0.62998920  0.10103488  0.89036339  1
  O  O44  1  0.62251642  0.35965062  0.14443662  1
  O  O45  1  0.63866703  0.13821637  0.36193517  1
  O  O46  1  0.64478974  0.87798523  0.64070495  1
  O  O47  1  0.64112001  0.64438483  0.87830109  1
  O  O48  1  0.85979226  0.35686158  0.37834090  1
  O  O49  1  0.85528977  0.12153155  0.14002218  1
  O  O50  1  0.86302354  0.86220092  0.86285102  1
  O  O51  1  0.87879573  0.64023524  0.64299319  1
  O  O52  1  0.86987345  0.89845763  0.39097682  1
  O  O53  1  0.88773060  0.11173815  0.61191788  1
  O  O54  1  0.89824496  0.39133845  0.86959566  1
  O  O55  1  0.89071307  0.63023296  0.10163890  1
