# generated using pymatgen
data_BaLaI5
_symmetry_space_group_name_H-M   'P 1'
_cell_length_a   6.48838398
_cell_length_b   11.70585994
_cell_length_c   8.04239508
_cell_angle_alpha   88.94185045
_cell_angle_beta   93.82069309
_cell_angle_gamma   106.08973752
_symmetry_Int_Tables_number   1
_chemical_formula_structural   BaLaI5
_chemical_formula_sum   'Ba2 La2 I10'
_cell_volume   585.60527382
_cell_formula_units_Z   2
loop_
 _symmetry_equiv_pos_site_id
 _symmetry_equiv_pos_as_xyz
  1  'x, y, z'
loop_
 _atom_site_type_symbol
 _atom_site_label
 _atom_site_symmetry_multiplicity
 _atom_site_fract_x
 _atom_site_fract_y
 _atom_site_fract_z
 _atom_site_occupancy
  Ba  Ba0  1  0.32658085  0.65316170  0.25000000  1
  Ba  Ba1  1  0.67341915  0.34683830  0.75000000  1
  La  La2  1  0.07856803  0.15713607  0.25000000  1
  La  La3  1  0.92143197  0.84286393  0.75000000  1
  I  I4  1  0.21416594  0.93094239  0.10107146  1
  I  I5  1  0.19727819  0.38536254  0.99281984  1
  I  I6  1  0.36907078  0.73814155  0.75000000  1
  I  I7  1  0.18808535  0.38536254  0.50718016  1
  I  I8  1  0.28322455  0.06905761  0.60107146  1
  I  I9  1  0.71677545  0.93094239  0.39892854  1
  I  I10  1  0.81191465  0.61463746  0.49281984  1
  I  I11  1  0.63092922  0.26185845  0.25000000  1
  I  I12  1  0.80272181  0.61463746  0.00718016  1
  I  I13  1  0.78583406  0.06905761  0.89892854  1
