# generated using pymatgen
data_Li2CrCo3O8
_symmetry_space_group_name_H-M   'P 1'
_cell_length_a   8.14808765
_cell_length_b   8.16646949
_cell_length_c   8.14868249
_cell_angle_alpha   89.71910581
_cell_angle_beta   90.21332510
_cell_angle_gamma   89.85123925
_symmetry_Int_Tables_number   1
_chemical_formula_structural   Li2CrCo3O8
_chemical_formula_sum   'Li8 Cr4 Co12 O32'
_cell_volume   542.21024357
_cell_formula_units_Z   4
loop_
 _symmetry_equiv_pos_site_id
 _symmetry_equiv_pos_as_xyz
  1  'x, y, z'
loop_
 _atom_site_type_symbol
 _atom_site_label
 _atom_site_symmetry_multiplicity
 _atom_site_fract_x
 _atom_site_fract_y
 _atom_site_fract_z
 _atom_site_occupancy
  Li  Li0  1  0.00025519  0.00110415  0.99918036  1
  Li  Li1  1  0.24670821  0.24991112  0.25172545  1
  Li  Li2  1  0.24990433  0.75081023  0.74919700  1
  Li  Li3  1  0.50027564  0.99920669  0.50085376  1
  Li  Li4  1  0.50190213  0.49849917  0.99646627  1
  Li  Li5  1  0.74920920  0.25119887  0.75158480  1
  Li  Li6  1  0.75141052  0.74943682  0.25318087  1
  Li  Li7  1  -0.00001218  0.49934001  0.49829895  1
  Cr  Cr8  1  0.12385490  0.87683194  0.37480804  1
  Cr  Cr9  1  0.37204899  0.12624901  0.87437145  1
  Cr  Cr10  1  0.62511502  0.62539642  0.62412248  1
  Cr  Cr11  1  0.87364103  0.37562837  0.12575026  1
  Co  Co12  1  0.12039936  0.12758966  0.62431244  1
  Co  Co13  1  0.12582111  0.37988566  0.87142000  1
  Co  Co14  1  0.13044064  0.62460984  0.12129420  1
  Co  Co15  1  0.37133718  0.37557957  0.62041557  1
  Co  Co16  1  0.37644386  0.61999690  0.36905771  1
  Co  Co17  1  0.37977341  0.87013598  0.12580507  1
  Co  Co18  1  0.62124350  0.37190194  0.37413906  1
  Co  Co19  1  0.62439819  0.12179356  0.12990610  1
  Co  Co20  1  0.62929426  0.87425558  0.87919971  1
  Co  Co21  1  0.86952682  0.12447705  0.38010692  1
  Co  Co22  1  0.87602174  0.87960926  0.62900545  1
  Co  Co23  1  0.87966354  0.62958101  0.87592167  1
  O  O24  1  0.10425530  0.11854810  0.39026090  1
  O  O25  1  0.10739920  0.89228603  0.61923768  1
  O  O26  1  0.11294494  0.61564528  0.88854048  1
  O  O27  1  0.14031145  0.14258105  0.86347738  1
  O  O28  1  0.11794926  0.39476123  0.10807093  1
  O  O29  1  0.14026981  0.36404241  0.63709729  1
  O  O30  1  0.14119672  0.62842132  0.34951280  1
  O  O31  1  0.14921055  0.85602558  0.12545018  1
  O  O32  1  0.36020618  0.14131152  0.63684219  1
  O  O33  1  0.36261241  0.36294467  0.85526966  1
  O  O34  1  0.36510774  0.63666605  0.13461767  1
  O  O35  1  0.37812543  0.60550637  0.60566559  1
  O  O36  1  0.37190712  0.85436856  0.35375189  1
  O  O37  1  0.38891790  0.38552080  0.38609431  1
  O  O38  1  0.39061315  0.10808727  0.11590601  1
  O  O39  1  0.39027225  0.88834448  0.89236354  1
  O  O40  1  0.60423739  0.37962301  0.60618620  1
  O  O41  1  0.61178907  0.60425762  0.38037676  1
  O  O42  1  0.61113143  0.88806743  0.11593864  1
  O  O43  1  0.62719402  0.35388032  0.14316963  1
  O  O44  1  0.61146660  0.11067789  0.89603651  1
  O  O45  1  0.63305807  0.13777866  0.36054711  1
  O  O46  1  0.64316501  0.87093152  0.64518286  1
  O  O47  1  0.64716382  0.64025648  0.86979229  1
  O  O48  1  0.85067246  0.36025938  0.37244778  1
  O  O49  1  0.85457482  0.12953076  0.14165165  1
  O  O50  1  0.86287236  0.86154806  0.86389255  1
  O  O51  1  0.88064094  0.89027133  0.39702350  1
  O  O52  1  0.87188359  0.64579210  0.64380623  1
  O  O53  1  0.88501363  0.11053562  0.61479392  1
  O  O54  1  0.89053136  0.39819228  0.87999432  1
  O  O55  1  0.89463042  0.62044399  0.10701699  1
