# generated using pymatgen
data_Li2Ni5O9
_symmetry_space_group_name_H-M   'P 1'
_cell_length_a   7.59951929
_cell_length_b   6.48162770
_cell_length_c   7.71692107
_cell_angle_alpha   87.33067006
_cell_angle_beta   65.02750586
_cell_angle_gamma   65.58844237
_symmetry_Int_Tables_number   1
_chemical_formula_structural   Li2Ni5O9
_chemical_formula_sum   'Li4 Ni10 O18'
_cell_volume   309.98258358
_cell_formula_units_Z   2
loop_
 _symmetry_equiv_pos_site_id
 _symmetry_equiv_pos_as_xyz
  1  'x, y, z'
loop_
 _atom_site_type_symbol
 _atom_site_label
 _atom_site_symmetry_multiplicity
 _atom_site_fract_x
 _atom_site_fract_y
 _atom_site_fract_z
 _atom_site_occupancy
  Li  Li0  1  0.29554545  0.54387800  0.04226361  1
  Li  Li1  1  0.16722860  0.32672265  0.83030884  1
  Li  Li2  1  0.48057806  0.98965200  0.48195358  1
  Li  Li3  1  0.72152808  0.45181969  0.94907839  1
  Ni  Ni4  1  0.10838073  0.22138185  0.22057924  1
  Ni  Ni5  1  0.22133462  0.45005607  0.44219856  1
  Ni  Ni6  1  0.55864222  0.11006816  0.10907649  1
  Ni  Ni7  1  0.33804000  0.66914749  0.66161064  1
  Ni  Ni8  1  0.66734583  0.33545417  0.33219361  1
  Ni  Ni9  1  0.99856319  0.98881284  0.00164004  1
  Ni  Ni10  1  0.44524831  0.89438729  0.88835339  1
  Ni  Ni11  1  0.77920975  0.54935399  0.56664231  1
  Ni  Ni12  1  0.94116170  0.89466170  0.39522839  1
  Ni  Ni13  1  0.88791903  0.78105104  0.77768224  1
  O  O14  1  0.02139499  0.55122873  0.33744782  1
  O  O15  1  0.30762859  0.14629986  0.33579208  1
  O  O16  1  0.17619656  0.88933048  0.12717780  1
  O  O17  1  0.12041425  0.76036460  0.54356404  1
  O  O18  1  0.49808688  0.41269275  0.19543699  1
  O  O19  1  0.09002125  0.68101459  0.88444874  1
  O  O20  1  0.41570940  0.36359857  0.55625182  1
  O  O21  1  0.33764065  0.21035218  0.99070727  1
  O  O22  1  0.63974006  0.80705892  0.00171754  1
  O  O23  1  0.27154706  0.97308640  0.75778479  1
  O  O24  1  0.59263417  0.63720093  0.44123817  1
  O  O25  1  0.91202829  0.30152165  0.10287952  1
  O  O26  1  0.53623319  0.58286228  0.79988575  1
  O  O27  1  0.86335515  0.23195928  0.44307619  1
  O  O28  1  0.81018214  0.08130697  0.88610397  1
  O  O29  1  0.73869904  0.02992738  0.26684612  1
  O  O30  1  0.71353209  0.87393438  0.65048584  1
  O  O31  1  0.95662169  0.47859313  0.69908820  1
