# generated using pymatgen
data_Zr4Ni2H9
_symmetry_space_group_name_H-M   'P 1'
_cell_length_a   6.83945813
_cell_length_b   8.87965690
_cell_length_c   8.92620253
_cell_angle_alpha   80.10029258
_cell_angle_beta   90.14936574
_cell_angle_gamma   90.25882553
_symmetry_Int_Tables_number   1
_chemical_formula_structural   Zr4Ni2H9
_chemical_formula_sum   'Zr16 Ni8 H36'
_cell_volume   534.02827729
_cell_formula_units_Z   4
loop_
 _symmetry_equiv_pos_site_id
 _symmetry_equiv_pos_as_xyz
  1  'x, y, z'
loop_
 _atom_site_type_symbol
 _atom_site_label
 _atom_site_symmetry_multiplicity
 _atom_site_fract_x
 _atom_site_fract_y
 _atom_site_fract_z
 _atom_site_occupancy
  Zr  Zr0  1  0.42636809  0.07987764  0.82413031  1
  Zr  Zr1  1  0.57363191  0.92012236  0.17586969  1
  Zr  Zr2  1  0.08952224  0.42070382  0.16378753  1
  Zr  Zr3  1  0.91047776  0.57929618  0.83621247  1
  Zr  Zr4  1  0.90235810  0.16670766  0.91925219  1
  Zr  Zr5  1  0.09764190  0.83329234  0.08074781  1
  Zr  Zr6  1  0.58459977  0.33835793  0.08127721  1
  Zr  Zr7  1  0.41540023  0.66164207  0.91872279  1
  Zr  Zr8  1  0.40236943  0.16635559  0.41870827  1
  Zr  Zr9  1  0.59763057  0.83364441  0.58129173  1
  Zr  Zr10  1  0.91469797  0.66153000  0.41849492  1
  Zr  Zr11  1  0.08530203  0.33847000  0.58150508  1
  Zr  Zr12  1  0.41017982  0.57952801  0.33614039  1
  Zr  Zr13  1  0.58982018  0.42047199  0.66385961  1
  Zr  Zr14  1  0.92734491  0.07999758  0.32474760  1
  Zr  Zr15  1  0.07265509  0.92000242  0.67525240  1
  Ni  Ni16  1  0.24996100  0.84874407  0.39895243  1
  Ni  Ni17  1  0.75003900  0.15125593  0.60104757  1
  Ni  Ni18  1  0.24891146  0.62777198  0.62287834  1
  Ni  Ni19  1  0.75108854  0.37222802  0.37712166  1
  Ni  Ni20  1  0.24967104  0.14983977  0.10013392  1
  Ni  Ni21  1  0.75032896  0.85016023  0.89986608  1
  Ni  Ni22  1  0.25091720  0.37316821  0.87707643  1
  Ni  Ni23  1  0.74908280  0.62683179  0.12292357  1
  H  H24  1  0.04859677  0.85648821  0.30028125  1
  H  H25  1  0.95140323  0.14351179  0.69971875  1
  H  H26  1  0.12263850  0.49863100  0.37513571  1
  H  H27  1  0.87736150  0.50136900  0.62486429  1
  H  H28  1  0.54919404  0.85769117  0.80123490  1
  H  H29  1  0.45080596  0.14230883  0.19876510  1
  H  H30  1  0.46794118  0.63565329  0.69602724  1
  H  H31  1  0.53205882  0.36434671  0.30397276  1
  H  H32  1  0.75561566  0.87700731  0.37292514  1
  H  H33  1  0.24438434  0.12299269  0.62707486  1
  H  H34  1  0.12714715  0.25148563  0.36752773  1
  H  H35  1  0.87285285  0.74851437  0.63247227  1
  H  H36  1  0.03270079  0.36436886  0.80368138  1
  H  H37  1  0.96729921  0.63563114  0.19631862  1
  H  H38  1  0.83400109  0.99732663  0.54480498  1
  H  H39  1  0.16599891  0.00267337  0.45519502  1
  H  H40  1  0.74354836  0.12312387  0.12913644  1
  H  H41  1  0.25645164  0.87687613  0.87086356  1
  H  H42  1  0.62531793  0.24970999  0.86664328  1
  H  H43  1  0.37468207  0.75029001  0.13335672  1
  H  H44  1  0.95915436  0.94213640  0.88818909  1
  H  H45  1  0.04084564  0.05786360  0.11181091  1
  H  H46  1  0.87554525  0.37904680  0.00327332  1
  H  H47  1  0.12445475  0.62095320  0.99672668  1
  H  H48  1  0.37511634  0.37973171  0.50330527  1
  H  H49  1  0.62488366  0.62026829  0.49669473  1
  H  H50  1  0.66528968  0.00369282  0.95605039  1
  H  H51  1  0.33471032  0.99630718  0.04394961  1
  H  H52  1  0.62363268  0.49823575  0.87558685  1
  H  H53  1  0.37636732  0.50176425  0.12441315  1
  H  H54  1  0.16167543  0.70152752  0.76159967  1
  H  H55  1  0.83832457  0.29847248  0.23840033  1
  H  H56  1  0.33805487  0.29947272  0.73843954  1
  H  H57  1  0.66194513  0.70052728  0.26156046  1
  H  H58  1  0.45842413  0.94191145  0.38904957  1
  H  H59  1  0.54157587  0.05808855  0.61095043  1
