# generated using pymatgen
data_Li2Mn3VO8
_symmetry_space_group_name_H-M   'P 1'
_cell_length_a   8.62005290
_cell_length_b   8.17501186
_cell_length_c   8.57567942
_cell_angle_alpha   89.99966325
_cell_angle_beta   90.00113797
_cell_angle_gamma   90.00151787
_symmetry_Int_Tables_number   1
_chemical_formula_structural   Li2Mn3VO8
_chemical_formula_sum   'Li8 Mn12 V4 O32'
_cell_volume   604.31985040
_cell_formula_units_Z   4
loop_
 _symmetry_equiv_pos_site_id
 _symmetry_equiv_pos_as_xyz
  1  'x, y, z'
loop_
 _atom_site_type_symbol
 _atom_site_label
 _atom_site_symmetry_multiplicity
 _atom_site_fract_x
 _atom_site_fract_y
 _atom_site_fract_z
 _atom_site_occupancy
  Li  Li0  1  0.00248824  0.99781182  0.99339552  1
  Li  Li1  1  0.24903208  0.25473806  0.24812717  1
  Li  Li2  1  0.25094689  0.74522834  0.74810901  1
  Li  Li3  1  0.49753507  0.00214618  0.49342835  1
  Li  Li4  1  0.50256606  0.50211820  0.00656982  1
  Li  Li5  1  0.74898647  0.24521322  0.75188854  1
  Li  Li6  1  0.75101513  0.75476690  0.25185748  1
  Li  Li7  1  0.99739579  0.49782159  0.50666012  1
  Mn  Mn8  1  0.13118658  0.12226538  0.62511645  1
  Mn  Mn9  1  0.11846233  0.37540967  0.86796511  1
  Mn  Mn10  1  0.12117495  0.62661733  0.12128989  1
  Mn  Mn11  1  0.37881459  0.37337518  0.62116359  1
  Mn  Mn12  1  0.38153558  0.62462920  0.36789405  1
  Mn  Mn13  1  0.36874784  0.87777091  0.12506957  1
  Mn  Mn14  1  0.63133894  0.37774896  0.37498798  1
  Mn  Mn15  1  0.61856621  0.12463925  0.13215170  1
  Mn  Mn16  1  0.62112507  0.87337321  0.87877880  1
  Mn  Mn17  1  0.87892020  0.12663438  0.37867016  1
  Mn  Mn18  1  0.88149116  0.87539907  0.63213282  1
  Mn  Mn19  1  0.86868975  0.62224386  0.87495570  1
  V  V20  1  0.12583697  0.86776264  0.37873039  1
  V  V21  1  0.37415511  0.13223678  0.87867285  1
  V  V22  1  0.62593196  0.63218721  0.62128333  1
  V  V23  1  0.87407791  0.36783414  0.12122832  1
  O  O24  1  0.11720860  0.11373244  0.39636806  1
  O  O25  1  0.13178834  0.88871441  0.60849146  1
  O  O26  1  0.09436769  0.61037532  0.87123453  1
  O  O27  1  0.14061806  0.13410899  0.85321415  1
  O  O28  1  0.10588060  0.39099797  0.10630212  1
  O  O29  1  0.14319063  0.36100576  0.63598229  1
  O  O30  1  0.12370796  0.64784612  0.37420328  1
  O  O31  1  0.13949679  0.86566696  0.13867684  1
  O  O32  1  0.36045360  0.13436328  0.63861460  1
  O  O33  1  0.37633988  0.35215808  0.87409010  1
  O  O34  1  0.35671440  0.63898518  0.13589467  1
  O  O35  1  0.39415038  0.60899247  0.60633527  1
  O  O36  1  0.35938310  0.86588853  0.35318578  1
  O  O37  1  0.40563640  0.38963597  0.37127204  1
  O  O38  1  0.36820910  0.11130171  0.10847254  1
  O  O39  1  0.38271598  0.88630342  0.89635367  1
  O  O40  1  0.61743232  0.38634606  0.60364134  1
  O  O41  1  0.63193722  0.61125805  0.39149267  1
  O  O42  1  0.59442279  0.88970150  0.12885310  1
  O  O43  1  0.64057037  0.36584372  0.14686420  1
  O  O44  1  0.60585855  0.10900695  0.89356737  1
  O  O45  1  0.64346300  0.13898742  0.36422464  1
  O  O46  1  0.62378043  0.85211546  0.62574346  1
  O  O47  1  0.63946751  0.63432187  0.86133363  1
  O  O48  1  0.86057002  0.36571639  0.36126028  1
  O  O49  1  0.87619661  0.14789927  0.12566541  1
  O  O50  1  0.85660433  0.86099665  0.86420939  1
  O  O51  1  0.89413252  0.89101170  0.39356634  1
  O  O52  1  0.85943381  0.63416119  0.64686635  1
  O  O53  1  0.90554379  0.11031020  0.62889407  1
  O  O54  1  0.86803091  0.38874663  0.89147663  1
  O  O55  1  0.88267241  0.61366981  0.10366101  1
