# generated using pymatgen
data_Gd3(BiO4)2
_symmetry_space_group_name_H-M   'P 1'
_cell_length_a   3.79790483
_cell_length_b   6.85613893
_cell_length_c   8.73840594
_cell_angle_alpha   75.23288900
_cell_angle_beta   77.44484087
_cell_angle_gamma   73.96439779
_symmetry_Int_Tables_number   1
_chemical_formula_structural   Gd3(BiO4)2
_chemical_formula_sum   'Gd3 Bi2 O8'
_cell_volume   208.80132002
_cell_formula_units_Z   1
loop_
 _symmetry_equiv_pos_site_id
 _symmetry_equiv_pos_as_xyz
  1  'x, y, z'
loop_
 _atom_site_type_symbol
 _atom_site_label
 _atom_site_symmetry_multiplicity
 _atom_site_fract_x
 _atom_site_fract_y
 _atom_site_fract_z
 _atom_site_occupancy
  Gd  Gd0  1  0.80740452  0.61657012  0.76872396  1
  Gd  Gd1  1  0.42168792  0.76679181  0.39070026  1
  Gd  Gd2  1  0.97670753  0.03207021  0.01412956  1
  Bi  Bi3  1  0.59525274  0.17698449  0.63147912  1
  Bi  Bi4  1  0.19998579  0.40212381  0.19808075  1
  O  O5  1  0.60282763  0.91573521  0.87713381  1
  O  O6  1  0.00352015  0.24122735  0.75032092  1
  O  O7  1  0.38882903  0.56567330  0.65677216  1
  O  O8  1  0.80141108  0.87825917  0.52045538  1
  O  O9  1  0.61441159  0.40379381  0.36691950  1
  O  O10  1  0.02334008  0.73433675  0.21931472  1
  O  O11  1  0.37627680  0.06688298  0.18050591  1
  O  O12  1  0.78834515  0.39955099  0.02546295  1
