# generated using pymatgen
data_Li2FeCo3O8
_symmetry_space_group_name_H-M   'P 1'
_cell_length_a   8.13441486
_cell_length_b   8.09851679
_cell_length_c   8.08414514
_cell_angle_alpha   89.86583511
_cell_angle_beta   89.89317729
_cell_angle_gamma   89.92586050
_symmetry_Int_Tables_number   1
_chemical_formula_structural   Li2FeCo3O8
_chemical_formula_sum   'Li8 Fe4 Co12 O32'
_cell_volume   532.55393778
_cell_formula_units_Z   4
loop_
 _symmetry_equiv_pos_site_id
 _symmetry_equiv_pos_as_xyz
  1  'x, y, z'
loop_
 _atom_site_type_symbol
 _atom_site_label
 _atom_site_symmetry_multiplicity
 _atom_site_fract_x
 _atom_site_fract_y
 _atom_site_fract_z
 _atom_site_occupancy
  Li  Li0  1  0.00014987  0.99883725  0.00156123  1
  Li  Li1  1  0.25034914  0.24818380  0.24835571  1
  Li  Li2  1  0.24847806  0.74928371  0.74695193  1
  Li  Li3  1  0.49838824  0.00120562  0.50274254  1
  Li  Li4  1  0.49858227  0.50177201  0.00339029  1
  Li  Li5  1  0.74993188  0.24786190  0.74771311  1
  Li  Li6  1  0.74994912  0.75019206  0.24591595  1
  Li  Li7  1  0.00191378  0.50241330  0.50374325  1
  Fe  Fe8  1  0.12599533  0.87533760  0.37504925  1
  Fe  Fe9  1  0.37484328  0.12425521  0.87485469  1
  Fe  Fe10  1  0.62758875  0.62600597  0.62733853  1
  Fe  Fe11  1  0.87513917  0.37581853  0.12498710  1
  Co  Co12  1  0.12432513  0.12650659  0.62482636  1
  Co  Co13  1  0.12526257  0.37686397  0.87257590  1
  Co  Co14  1  0.12622081  0.62360877  0.12463150  1
  Co  Co15  1  0.37223722  0.37299362  0.62250413  1
  Co  Co16  1  0.37319820  0.62238352  0.37241821  1
  Co  Co17  1  0.37580599  0.87437677  0.12532319  1
  Co  Co18  1  0.62154605  0.37181182  0.37488116  1
  Co  Co19  1  0.62462915  0.12401271  0.12586053  1
  Co  Co20  1  0.62769449  0.87548123  0.87780109  1
  Co  Co21  1  0.87405831  0.12433704  0.37803419  1
  Co  Co22  1  0.87614690  0.87804875  0.62630519  1
  Co  Co23  1  0.87771708  0.62739566  0.87615714  1
  O  O24  1  0.10839401  0.11197534  0.38694444  1
  O  O25  1  0.11271352  0.88929026  0.60683460  1
  O  O26  1  0.11326580  0.60994901  0.88707427  1
  O  O27  1  0.13668130  0.14165082  0.86399928  1
  O  O28  1  0.11218761  0.38511996  0.10787801  1
  O  O29  1  0.13771286  0.36323228  0.64003420  1
  O  O30  1  0.14176069  0.63832973  0.36350968  1
  O  O31  1  0.13826954  0.86155134  0.14250684  1
  O  O32  1  0.35922625  0.13672345  0.64002295  1
  O  O33  1  0.35919386  0.36318241  0.86131336  1
  O  O34  1  0.36162695  0.63892283  0.14052259  1
  O  O35  1  0.38097394  0.60957408  0.60310099  1
  O  O36  1  0.36156208  0.85927734  0.36338419  1
  O  O37  1  0.38672712  0.38529868  0.38604180  1
  O  O38  1  0.38978948  0.11185969  0.11024327  1
  O  O39  1  0.39037851  0.88700162  0.88739690  1
  O  O40  1  0.60791897  0.37767629  0.60380957  1
  O  O41  1  0.60515870  0.60346285  0.37299929  1
  O  O42  1  0.61064151  0.88842553  0.11074472  1
  O  O43  1  0.63806527  0.36215530  0.14134746  1
  O  O44  1  0.61302581  0.10980347  0.88815893  1
  O  O45  1  0.63874189  0.13901938  0.36327129  1
  O  O46  1  0.64121674  0.87376669  0.64562414  1
  O  O47  1  0.64127248  0.64473247  0.87517895  1
  O  O48  1  0.85931479  0.35996750  0.36615061  1
  O  O49  1  0.86196788  0.13849011  0.14211696  1
  O  O50  1  0.86329042  0.86308681  0.86253921  1
  O  O51  1  0.88849892  0.89236878  0.38432232  1
  O  O52  1  0.86855644  0.64227925  0.63915591  1
  O  O53  1  0.89015104  0.11629183  0.60836844  1
  O  O54  1  0.89089771  0.38791797  0.88713371  1
  O  O55  1  0.89066511  0.60876853  0.11449098  1
