# generated using pymatgen
data_KFePbOF6
_symmetry_space_group_name_H-M   'P 1'
_cell_length_a   6.21554277
_cell_length_b   6.24547713
_cell_length_c   8.86278769
_cell_angle_alpha   89.59946702
_cell_angle_beta   87.01171112
_cell_angle_gamma   87.68042379
_symmetry_Int_Tables_number   1
_chemical_formula_structural   KFePbOF6
_chemical_formula_sum   'K2 Fe2 Pb2 O2 F12'
_cell_volume   343.29137011
_cell_formula_units_Z   2
loop_
 _symmetry_equiv_pos_site_id
 _symmetry_equiv_pos_as_xyz
  1  'x, y, z'
loop_
 _atom_site_type_symbol
 _atom_site_label
 _atom_site_symmetry_multiplicity
 _atom_site_fract_x
 _atom_site_fract_y
 _atom_site_fract_z
 _atom_site_occupancy
  K  K0  1  0.23165464  0.74828078  0.00058836  1
  K  K1  1  0.76834536  0.25171922  0.99941164  1
  Fe  Fe2  1  0.72267663  0.74507819  0.22639317  1
  Fe  Fe3  1  0.27732337  0.25492181  0.77360683  1
  Pb  Pb4  1  0.74892605  0.73880488  0.72105283  1
  Pb  Pb5  1  0.25107395  0.26119512  0.27894717  1
  O  O6  1  0.93582415  0.07774959  0.50517108  1
  O  O7  1  0.06417585  0.92225041  0.49482892  1
  F  F8  1  0.33324416  0.25203071  0.55872591  1
  F  F9  1  0.66675584  0.74796929  0.44127409  1
  F  F10  1  0.06628997  0.03176746  0.79693109  1
  F  F11  1  0.93371003  0.96823254  0.20306891  1
  F  F12  1  0.23969738  0.28511506  0.00116021  1
  F  F13  1  0.76030262  0.71488494  0.99883979  1
  F  F14  1  0.50895643  0.03689837  0.80752085  1
  F  F15  1  0.49104357  0.96310163  0.19247915  1
  F  F16  1  0.50907664  0.51438679  0.20784940  1
  F  F17  1  0.49092336  0.48561321  0.79215060  1
  F  F18  1  0.04336185  0.47411733  0.76330673  1
  F  F19  1  0.95663815  0.52588267  0.23669327  1
