# generated using pymatgen
data_Cu2H3ClO3
_symmetry_space_group_name_H-M   'P 1'
_cell_length_a   6.12838722
_cell_length_b   6.12838722
_cell_length_c   6.16099798
_cell_angle_alpha   68.85408900
_cell_angle_beta   68.85408900
_cell_angle_gamma   68.64567274
_symmetry_Int_Tables_number   1
_chemical_formula_structural   Cu2H3ClO3
_chemical_formula_sum   'Cu4 H6 Cl2 O6'
_cell_volume   193.85786156
_cell_formula_units_Z   2
loop_
 _symmetry_equiv_pos_site_id
 _symmetry_equiv_pos_as_xyz
  1  'x, y, z'
loop_
 _atom_site_type_symbol
 _atom_site_label
 _atom_site_symmetry_multiplicity
 _atom_site_fract_x
 _atom_site_fract_y
 _atom_site_fract_z
 _atom_site_occupancy
  Cu  Cu0  1  0.00000000  0.00000000  0.50000000  1
  Cu  Cu1  1  0.00000000  0.00000000  -0.00000000  1
  Cu  Cu2  1  0.50000000  0.00000000  0.50000000  1
  Cu  Cu3  1  0.00000000  0.50000000  0.50000000  1
  H  H4  1  0.72372266  0.32629459  0.22597474  1
  H  H5  1  0.32629459  0.72372266  0.22597474  1
  H  H6  1  0.27627734  0.67370541  0.77402526  1
  H  H7  1  0.67370541  0.27627734  0.77402526  1
  H  H8  1  0.26376823  0.26376823  0.17483213  1
  H  H9  1  0.73623177  0.73623177  0.82516787  1
  Cl  Cl10  1  0.68624350  0.68624350  0.18735049  1
  Cl  Cl11  1  0.31375650  0.31375650  0.81264951  1
  O  O12  1  0.76449732  0.14622728  0.26619457  1
  O  O13  1  0.14622728  0.76449732  0.26619457  1
  O  O14  1  0.23550268  0.85377272  0.73380543  1
  O  O15  1  0.85377272  0.23550268  0.73380543  1
  O  O16  1  0.22106767  0.22106767  0.35447182  1
  O  O17  1  0.77893233  0.77893233  0.64552818  1
