# generated using pymatgen
data_Ca(H8O5)2
_symmetry_space_group_name_H-M   'P 1'
_cell_length_a   5.95416885
_cell_length_b   6.43510644
_cell_length_c   12.25802165
_cell_angle_alpha   97.42322868
_cell_angle_beta   100.16966347
_cell_angle_gamma   85.62619446
_symmetry_Int_Tables_number   1
_chemical_formula_structural   Ca(H8O5)2
_chemical_formula_sum   'Ca2 H32 O20'
_cell_volume   457.73335660
_cell_formula_units_Z   2
loop_
 _symmetry_equiv_pos_site_id
 _symmetry_equiv_pos_as_xyz
  1  'x, y, z'
loop_
 _atom_site_type_symbol
 _atom_site_label
 _atom_site_symmetry_multiplicity
 _atom_site_fract_x
 _atom_site_fract_y
 _atom_site_fract_z
 _atom_site_occupancy
  Ca  Ca0  1  0.02608867  0.04564256  0.47693629  1
  Ca  Ca1  1  0.94927865  0.97663478  0.01457869  1
  H  H2  1  0.07403195  0.31385321  0.30297517  1
  H  H3  1  0.28199794  0.39998026  0.40039715  1
  H  H4  1  0.96649353  0.60666236  0.38487995  1
  H  H5  1  0.71918425  0.65492901  0.40886933  1
  H  H6  1  0.55224892  0.06065845  0.37447437  1
  H  H7  1  0.62272916  0.29949620  0.38948679  1
  H  H8  1  0.27255869  0.83147466  0.28590576  1
  H  H9  1  0.38714650  0.73774632  0.39867256  1
  H  H10  1  0.98448774  0.26276481  0.86526947  1
  H  H11  1  0.73188934  0.34881072  0.90189368  1
  H  H12  1  0.06177990  0.72019454  0.81255691  1
  H  H13  1  0.27637843  0.66082396  0.90610318  1
  H  H14  1  0.31547281  0.05516446  0.86000507  1
  H  H15  1  0.36784521  0.30224718  0.88484915  1
  H  H16  1  0.66320178  0.81036408  0.80663758  1
  H  H17  1  0.59504731  0.69446820  0.90456986  1
  H  H18  1  0.79243094  0.62012961  0.61928731  1
  H  H19  1  0.04274895  0.73906872  0.64435161  1
  H  H20  1  0.20420489  0.23045097  0.70716812  1
  H  H21  1  0.07581539  0.41952858  0.64749683  1
  H  H22  1  0.40271061  0.70013921  0.58564690  1
  H  H23  1  0.41175402  0.94897717  0.62056333  1
  H  H24  1  0.72802078  0.15169809  0.69225911  1
  H  H25  1  0.60771458  0.27377415  0.59277421  1
  H  H26  1  0.30808830  0.63784849  0.10618366  1
  H  H27  1  0.07466008  0.63495869  0.15639833  1
  H  H28  1  0.77741255  0.39517350  0.11524715  1
  H  H29  1  0.05462708  0.32342478  0.12091057  1
  H  H30  1  0.62574071  0.73648487  0.11056790  1
  H  H31  1  0.71809648  0.91023336  0.21389868  1
  H  H32  1  0.39687371  0.29776836  0.07470241  1
  H  H33  1  0.43934917  0.06927792  0.11125195  1
  O  O34  1  0.52216348  0.52374575  0.43450671  1
  O  O35  1  0.50744124  0.49958779  0.94230773  1
  O  O36  1  0.56578126  0.52943451  0.55874332  1
  O  O37  1  0.52881757  0.51292254  0.06635824  1
  O  O38  1  0.12440376  0.33867713  0.38411854  1
  O  O39  1  0.85325151  0.72606204  0.38968197  1
  O  O40  1  0.67644334  0.14769968  0.36567438  1
  O  O41  1  0.31276050  0.87172299  0.36700869  1
  O  O42  1  0.83744639  0.22460800  0.88286489  1
  O  O43  1  0.14397711  0.76544719  0.88890397  1
  O  O44  1  0.26029422  0.19498933  0.83978029  1
  O  O45  1  0.64583795  0.83185441  0.88481859  1
  O  O46  1  0.94136766  0.65890982  0.67651262  1
  O  O47  1  0.14949295  0.27695985  0.63188567  1
  O  O48  1  0.29845298  0.83953110  0.60316779  1
  O  O49  1  0.66060107  0.12772027  0.61322266  1
  O  O50  1  0.17713958  0.72924559  0.13639000  1
  O  O51  1  0.91431699  0.30668289  0.15013757  1
  O  O52  1  0.68468318  0.88504748  0.13214125  1
  O  O53  1  0.31433125  0.17110543  0.08432408  1
