# generated using pymatgen
data_Cu2H3ClO3
_symmetry_space_group_name_H-M   'P 1'
_cell_length_a   6.17992111
_cell_length_b   6.84354081
_cell_length_c   9.19137945
_cell_angle_alpha   90.00000000
_cell_angle_beta   99.97193945
_cell_angle_gamma   90.00000000
_symmetry_Int_Tables_number   1
_chemical_formula_structural   Cu2H3ClO3
_chemical_formula_sum   'Cu8 H12 Cl4 O12'
_cell_volume   382.85418344
_cell_formula_units_Z   4
loop_
 _symmetry_equiv_pos_site_id
 _symmetry_equiv_pos_as_xyz
  1  'x, y, z'
loop_
 _atom_site_type_symbol
 _atom_site_label
 _atom_site_symmetry_multiplicity
 _atom_site_fract_x
 _atom_site_fract_y
 _atom_site_fract_z
 _atom_site_occupancy
  Cu  Cu0  1  0.25956327  0.26537040  0.24872737  1
  Cu  Cu1  1  0.75956327  0.23462960  0.74872737  1
  Cu  Cu2  1  0.74043673  0.73462960  0.75127263  1
  Cu  Cu3  1  0.24043673  0.76537040  0.25127263  1
  Cu  Cu4  1  -0.00000000  0.50000000  0.50000000  1
  Cu  Cu5  1  0.50000000  0.00000000  0.00000000  1
  Cu  Cu6  1  0.50000000  0.50000000  0.50000000  1
  Cu  Cu7  1  -0.00000000  0.00000000  0.00000000  1
  H  H8  1  0.77827404  0.18410519  0.47737360  1
  H  H9  1  0.27827404  0.31589481  0.97737360  1
  H  H10  1  0.22172596  0.81589481  0.52262640  1
  H  H11  1  0.72172596  0.68410519  0.02262640  1
  H  H12  1  0.73745254  0.79230483  0.47135319  1
  H  H13  1  0.23745254  0.70769517  0.97135319  1
  H  H14  1  0.26254746  0.20769517  0.52864681  1
  H  H15  1  0.76254746  0.29230483  0.02864681  1
  H  H16  1  0.94433754  0.02087678  0.26915491  1
  H  H17  1  0.44433754  0.47912322  0.76915491  1
  H  H18  1  0.05566246  0.97912322  0.73084509  1
  H  H19  1  0.55566246  0.52087678  0.23084509  1
  Cl  Cl20  1  0.87593853  0.49482556  0.18718261  1
  Cl  Cl21  1  0.37593853  0.00517444  0.68718261  1
  Cl  Cl22  1  0.12406147  0.50517444  0.81281739  1
  Cl  Cl23  1  0.62406147  0.99482556  0.31281739  1
  O  O24  1  0.42132989  0.51923339  0.27668320  1
  O  O25  1  0.92132989  0.98076661  0.77668320  1
  O  O26  1  0.57867011  0.48076661  0.72331680  1
  O  O27  1  0.07867011  0.01923339  0.22331680  1
  O  O28  1  0.23889752  0.32193929  0.46027485  1
  O  O29  1  0.73889752  0.17806071  0.96027485  1
  O  O30  1  0.76110248  0.67806071  0.53972515  1
  O  O31  1  0.26110248  0.82193929  0.03972515  1
  O  O32  1  0.18890376  0.70853847  0.45023414  1
  O  O33  1  0.68890376  0.79146153  0.95023414  1
  O  O34  1  0.81109624  0.29146153  0.54976586  1
  O  O35  1  0.31109624  0.20853847  0.04976586  1
