# generated using pymatgen
data_Dy5Mg
_symmetry_space_group_name_H-M   'P 1'
_cell_length_a   6.13198484
_cell_length_b   6.13198712
_cell_length_c   6.59788841
_cell_angle_alpha   117.69034308
_cell_angle_beta   62.30965969
_cell_angle_gamma   119.99998796
_symmetry_Int_Tables_number   1
_chemical_formula_structural   Dy5Mg
_chemical_formula_sum   'Dy5 Mg1'
_cell_volume   181.30199737
_cell_formula_units_Z   1
loop_
 _symmetry_equiv_pos_site_id
 _symmetry_equiv_pos_as_xyz
  1  'x, y, z'
loop_
 _atom_site_type_symbol
 _atom_site_label
 _atom_site_symmetry_multiplicity
 _atom_site_fract_x
 _atom_site_fract_y
 _atom_site_fract_z
 _atom_site_occupancy
  Dy  Dy0  1  0.67296740  0.33963340  0.00000000  1
  Dy  Dy1  1  0.99369860  0.99999900  0.00000000  1
  Dy  Dy2  1  0.33333400  0.66036560  1.00000000  1
  Dy  Dy3  1  0.50134242  0.83199258  0.49597673  1
  Dy  Dy4  1  0.16532558  0.16800842  0.50402327  1
  Mg  Mg5  1  0.83333200  0.50000000  0.50000100  1
