# generated using pymatgen
data_Ho5Mg
_symmetry_space_group_name_H-M   'P 1'
_cell_length_a   3.54640728
_cell_length_b   9.27736312
_cell_length_c   5.58321165
_cell_angle_alpha   90.00000000
_cell_angle_beta   90.00000000
_cell_angle_gamma   78.98112577
_symmetry_Int_Tables_number   1
_chemical_formula_structural   Ho5Mg
_chemical_formula_sum   'Ho5 Mg1'
_cell_volume   180.30841664
_cell_formula_units_Z   1
loop_
 _symmetry_equiv_pos_site_id
 _symmetry_equiv_pos_as_xyz
  1  'x, y, z'
loop_
 _atom_site_type_symbol
 _atom_site_label
 _atom_site_symmetry_multiplicity
 _atom_site_fract_x
 _atom_site_fract_y
 _atom_site_fract_z
 _atom_site_occupancy
  Ho  Ho0  1  0.99907018  0.00185765  -0.00000000  1
  Ho  Ho1  1  0.32899666  0.34200468  0.00000000  1
  Ho  Ho2  1  0.66687994  0.66623911  0.00000000  1
  Ho  Ho3  1  0.44670944  0.10658113  0.49999900  1
  Ho  Ho4  1  0.11374555  0.77250689  0.49999900  1
  Mg  Mg5  1  0.77792723  0.44414354  0.49999900  1
