# generated using pymatgen
data_Ho5Mg
_symmetry_space_group_name_H-M   'P 1'
_cell_length_a   6.10625504
_cell_length_b   6.10625860
_cell_length_c   6.56370593
_cell_angle_alpha   117.72011452
_cell_angle_beta   62.27989161
_cell_angle_gamma   119.99998890
_symmetry_Int_Tables_number   1
_chemical_formula_structural   Ho5Mg
_chemical_formula_sum   'Ho5 Mg1'
_cell_volume   178.78067544
_cell_formula_units_Z   1
loop_
 _symmetry_equiv_pos_site_id
 _symmetry_equiv_pos_as_xyz
  1  'x, y, z'
loop_
 _atom_site_type_symbol
 _atom_site_label
 _atom_site_symmetry_multiplicity
 _atom_site_fract_x
 _atom_site_fract_y
 _atom_site_fract_z
 _atom_site_occupancy
  Ho  Ho0  1  0.67127669  0.33794369  1.00000000  1
  Ho  Ho1  1  0.99539031  0.99999900  0.00000000  1
  Ho  Ho2  1  0.33333300  0.66205531  1.00000000  1
  Ho  Ho3  1  0.50127632  0.83205568  0.49616904  1
  Ho  Ho4  1  0.16538868  0.16794332  0.50383196  1
  Mg  Mg5  1  0.83333400  0.50000000  0.50000100  1
