# generated using pymatgen
data_Mg17Al11Rh
_symmetry_space_group_name_H-M   'P 1'
_cell_length_a   9.07500724
_cell_length_b   8.92796471
_cell_length_c   9.09226089
_cell_angle_alpha   109.21572053
_cell_angle_beta   109.85001926
_cell_angle_gamma   108.96434603
_symmetry_Int_Tables_number   1
_chemical_formula_structural   Mg17Al11Rh
_chemical_formula_sum   'Mg17 Al11 Rh1'
_cell_volume   569.72816376
_cell_formula_units_Z   1
loop_
 _symmetry_equiv_pos_site_id
 _symmetry_equiv_pos_as_xyz
  1  'x, y, z'
loop_
 _atom_site_type_symbol
 _atom_site_label
 _atom_site_symmetry_multiplicity
 _atom_site_fract_x
 _atom_site_fract_y
 _atom_site_fract_z
 _atom_site_occupancy
  Mg  Mg0  1  0.61189547  0.32813504  0.99999333  1
  Mg  Mg1  1  0.99724094  0.35149833  0.99997257  1
  Mg  Mg2  1  0.31612291  0.60794131  0.00000246  1
  Mg  Mg3  1  0.34873009  0.00354487  0.00000158  1
  Mg  Mg4  1  0.99650903  0.99179386  0.00002314  1
  Mg  Mg5  1  0.68394406  0.68202197  0.27655241  1
  Mg  Mg6  1  0.99331078  0.60466667  0.30919311  1
  Mg  Mg7  1  0.59969170  0.99994528  0.31671152  1
  Mg  Mg8  1  0.99568224  0.98911016  0.33518627  1
  Mg  Mg9  1  0.71462001  0.39876590  0.39720695  1
  Mg  Mg10  1  0.40089685  0.71532406  0.39991815  1
  Mg  Mg11  1  0.00096839  0.31533516  0.60009866  1
  Mg  Mg12  1  0.31739433  0.00157613  0.60276677  1
  Mg  Mg13  1  0.66051630  0.65390578  0.66482335  1
  Mg  Mg14  1  0.28297051  0.68323771  0.68331795  1
  Mg  Mg15  1  0.68411812  0.29544552  0.69080965  1
  Mg  Mg16  1  0.40735184  0.40541694  0.72344634  1
  Al  Al17  1  0.64032611  0.80242052  0.00005104  1
  Al  Al18  1  0.36390517  0.36646485  0.17914115  1
  Al  Al19  1  0.17267841  0.81196281  0.18050031  1
  Al  Al20  1  0.81594037  0.18166375  0.18444511  1
  Al  Al21  1  0.17950064  0.36453455  0.36492019  1
  Al  Al22  1  0.36808889  0.17824555  0.36618623  1
  Al  Al23  1  0.00185987  0.81204991  0.63385351  1
  Al  Al24  1  0.81450923  0.99963245  0.63501099  1
  Al  Al25  1  0.63150330  0.99724566  0.81550398  1
  Al  Al26  1  0.99220112  0.63150404  0.81955631  1
  Al  Al27  1  0.18479350  0.18738315  0.82084260  1
  Rh  Rh28  1  0.82273082  0.63922808  0.99996639  1
