# generated using pymatgen
data_Mg16Al12Pb
_symmetry_space_group_name_H-M   'P 1'
_cell_length_a   9.21747369
_cell_length_b   9.17810644
_cell_length_c   9.17810621
_cell_angle_alpha   109.38416816
_cell_angle_beta   109.55815083
_cell_angle_gamma   109.55812706
_symmetry_Int_Tables_number   1
_chemical_formula_structural   Mg16Al12Pb
_chemical_formula_sum   'Mg16 Al12 Pb1'
_cell_volume   597.07538567
_cell_formula_units_Z   1
loop_
 _symmetry_equiv_pos_site_id
 _symmetry_equiv_pos_as_xyz
  1  'x, y, z'
loop_
 _atom_site_type_symbol
 _atom_site_label
 _atom_site_symmetry_multiplicity
 _atom_site_fract_x
 _atom_site_fract_y
 _atom_site_fract_z
 _atom_site_occupancy
  Mg  Mg0  1  0.00079561  0.34547451  0.99999900  1
  Mg  Mg1  1  0.60602323  0.31553539  -0.00000000  1
  Mg  Mg2  1  0.31479501  0.60211198  1.00000000  1
  Mg  Mg3  1  0.99700888  0.00000000  0.99999900  1
  Mg  Mg4  1  0.68196214  0.68202004  0.28141538  1
  Mg  Mg5  1  0.60602423  0.99999900  0.31553539  1
  Mg  Mg6  1  -0.00005790  0.59939535  0.31797996  1
  Mg  Mg7  1  0.00079661  0.99999900  0.34547451  1
  Mg  Mg8  1  0.71268303  0.39788902  0.39788802  1
  Mg  Mg9  1  0.40054775  0.71858562  0.40060565  1
  Mg  Mg10  1  -0.00005790  0.31797996  0.59939535  1
  Mg  Mg11  1  0.31479501  0.00000000  0.60211298  1
  Mg  Mg12  1  0.65531910  0.65452249  0.65452349  1
  Mg  Mg13  1  0.68196214  0.28141538  0.68202004  1
  Mg  Mg14  1  0.29048884  0.68446361  0.68446361  1
  Mg  Mg15  1  0.40054775  0.40060565  0.71858662  1
  Al  Al16  1  0.81678859  0.63308935  0.99999900  1
  Al  Al17  1  0.63750055  0.81316956  0.00000100  1
  Al  Al18  1  0.36621803  0.37415306  0.18413330  1
  Al  Al19  1  0.82432999  0.18683044  0.18683044  1
  Al  Al20  1  0.18208373  0.81586670  0.19001976  1
  Al  Al21  1  0.18369923  0.36691165  0.36691065  1
  Al  Al22  1  0.36621803  0.18413330  0.37415306  1
  Al  Al23  1  0.99206497  0.80998024  0.62584694  1
  Al  Al24  1  0.81678959  0.99999900  0.63308935  1
  Al  Al25  1  0.99206397  0.62584794  0.80997924  1
  Al  Al26  1  0.63750055  0.00000000  0.81316956  1
  Al  Al27  1  0.18208473  0.19001876  0.81586670  1
  Pb  Pb28  1  0.33902149  0.00000100  1.00000000  1
