# generated using pymatgen
data_Mg5Hg
_symmetry_space_group_name_H-M   'P 1'
_cell_length_a   5.23503198
_cell_length_b   5.39832793
_cell_length_c   5.39832864
_cell_angle_alpha   60.00000238
_cell_angle_beta   90.00000000
_cell_angle_gamma   90.00000000
_symmetry_Int_Tables_number   1
_chemical_formula_structural   Mg5Hg
_chemical_formula_sum   'Mg5 Hg1'
_cell_volume   132.11999981
_cell_formula_units_Z   1
loop_
 _symmetry_equiv_pos_site_id
 _symmetry_equiv_pos_as_xyz
  1  'x, y, z'
loop_
 _atom_site_type_symbol
 _atom_site_label
 _atom_site_symmetry_multiplicity
 _atom_site_fract_x
 _atom_site_fract_y
 _atom_site_fract_z
 _atom_site_occupancy
  Mg  Mg0  1  -0.00000000  0.99452822  0.00547078  1
  Mg  Mg1  1  -0.00000000  0.33880478  0.33333400  1
  Mg  Mg2  1  0.00000000  0.66666700  0.66119622  1
  Mg  Mg3  1  0.49999900  0.00000000  0.66666600  1
  Mg  Mg4  1  0.49999900  0.33333300  0.99999900  1
  Hg  Hg5  1  0.49999900  0.66666700  0.33333300  1
