# generated using pymatgen
data_Mg16Al12Sn
_symmetry_space_group_name_H-M   'P 1'
_cell_length_a   9.16877783
_cell_length_b   9.15112116
_cell_length_c   9.15112261
_cell_angle_alpha   109.43210296
_cell_angle_beta   109.51030494
_cell_angle_gamma   109.51031255
_symmetry_Int_Tables_number   1
_chemical_formula_structural   Mg16Al12Sn
_chemical_formula_sum   'Mg16 Al12 Sn1'
_cell_volume   590.78371386
_cell_formula_units_Z   1
loop_
 _symmetry_equiv_pos_site_id
 _symmetry_equiv_pos_as_xyz
  1  'x, y, z'
loop_
 _atom_site_type_symbol
 _atom_site_label
 _atom_site_symmetry_multiplicity
 _atom_site_fract_x
 _atom_site_fract_y
 _atom_site_fract_z
 _atom_site_occupancy
  Mg  Mg0  1  0.31596986  0.60165465  0.99999900  1
  Mg  Mg1  1  0.60161060  0.31196382  1.00000000  1
  Mg  Mg2  1  0.99786530  -0.00000000  0.00000000  1
  Mg  Mg3  1  0.00050077  0.34643488  1.00000000  1
  Mg  Mg4  1  0.68269271  0.68358404  0.28171837  1
  Mg  Mg5  1  0.60160960  0.99999900  0.31196482  1
  Mg  Mg6  1  0.99910766  0.59813333  0.31641596  1
  Mg  Mg7  1  0.00050077  0.00000000  0.34643488  1
  Mg  Mg8  1  0.71431621  0.39834535  0.39834535  1
  Mg  Mg9  1  0.40097533  0.71828263  0.40186667  1
  Mg  Mg10  1  0.99910666  0.31641596  0.59813433  1
  Mg  Mg11  1  0.31596986  0.99999900  0.60165465  1
  Mg  Mg12  1  0.65406489  0.65356412  0.65356412  1
  Mg  Mg13  1  0.68269271  0.28171837  0.68358404  1
  Mg  Mg14  1  0.28964478  0.68803518  0.68803518  1
  Mg  Mg15  1  0.40097533  0.40186667  0.71828263  1
  Al  Al16  1  0.63743172  0.81310582  0.00000000  1
  Al  Al17  1  0.81579398  0.63132893  0.00000000  1
  Al  Al18  1  0.36809013  0.37281066  0.18481089  1
  Al  Al19  1  0.82432490  0.18689318  0.18689218  1
  Al  Al20  1  0.18327824  0.81518911  0.18799977  1
  Al  Al21  1  0.18446405  0.36867207  0.36867307  1
  Al  Al22  1  0.36809013  0.18481089  0.37281166  1
  Al  Al23  1  0.99527847  0.81200023  0.62719034  1
  Al  Al24  1  0.81579398  1.00000000  0.63132893  1
  Al  Al25  1  0.99527847  0.62718934  0.81200123  1
  Al  Al26  1  0.63743172  0.99999900  0.81310582  1
  Al  Al27  1  0.18327824  0.18799877  0.81518911  1
  Sn  Sn28  1  0.33386194  0.99999900  0.00000000  1
