# generated using pymatgen
data_MgIn2
_symmetry_space_group_name_H-M   'P 1'
_cell_length_a   3.54550416
_cell_length_b   8.31608703
_cell_length_c   5.36993233
_cell_angle_alpha   90.00000000
_cell_angle_beta   90.00000000
_cell_angle_gamma   77.69172940
_symmetry_Int_Tables_number   1
_chemical_formula_structural   MgIn2
_chemical_formula_sum   'Mg2 In4'
_cell_volume   154.69169084
_cell_formula_units_Z   2
loop_
 _symmetry_equiv_pos_site_id
 _symmetry_equiv_pos_as_xyz
  1  'x, y, z'
loop_
 _atom_site_type_symbol
 _atom_site_label
 _atom_site_symmetry_multiplicity
 _atom_site_fract_x
 _atom_site_fract_y
 _atom_site_fract_z
 _atom_site_occupancy
  Mg  Mg0  1  0.78016062  0.43968175  0.50000000  1
  Mg  Mg1  1  0.10938512  0.78123075  0.50000000  1
  In  In2  1  -0.00134483  0.00269166  -0.00000000  1
  In  In3  1  0.33308650  0.33382901  -0.00000000  1
  In  In4  1  0.66679738  0.66640823  -0.00000000  1
  In  In5  1  0.44525520  0.10949159  0.50000000  1
