# generated using pymatgen
data_MgHg2
_symmetry_space_group_name_H-M   'P 1'
_cell_length_a   3.50417859
_cell_length_b   8.04030811
_cell_length_c   5.04632786
_cell_angle_alpha   90.00000000
_cell_angle_beta   90.00000000
_cell_angle_gamma   77.41350105
_symmetry_Int_Tables_number   1
_chemical_formula_structural   MgHg2
_chemical_formula_sum   'Mg2 Hg4'
_cell_volume   138.76183240
_cell_formula_units_Z   2
loop_
 _symmetry_equiv_pos_site_id
 _symmetry_equiv_pos_as_xyz
  1  'x, y, z'
loop_
 _atom_site_type_symbol
 _atom_site_label
 _atom_site_symmetry_multiplicity
 _atom_site_fract_x
 _atom_site_fract_y
 _atom_site_fract_z
 _atom_site_occupancy
  Mg  Mg0  1  0.33069039  0.33862022  -0.00000000  1
  Mg  Mg1  1  0.11375461  0.77249078  0.50000000  1
  Hg  Hg2  1  0.99438284  0.01123532  0.00000000  1
  Hg  Hg3  1  0.66513550  0.66972999  -0.00000000  1
  Hg  Hg4  1  0.45006216  0.09987668  0.50000000  1
  Hg  Hg5  1  0.77931050  0.44138001  0.50000000  1
