# generated using pymatgen
data_Mg16ScAl12
_symmetry_space_group_name_H-M   'P 1'
_cell_length_a   8.93190755
_cell_length_b   9.16939508
_cell_length_c   9.16939426
_cell_angle_alpha   109.98991811
_cell_angle_beta   108.94740662
_cell_angle_gamma   108.94740393
_symmetry_Int_Tables_number   1
_chemical_formula_structural   Mg16ScAl12
_chemical_formula_sum   'Mg16 Sc1 Al12'
_cell_volume   581.79561726
_cell_formula_units_Z   1
loop_
 _symmetry_equiv_pos_site_id
 _symmetry_equiv_pos_as_xyz
  1  'x, y, z'
loop_
 _atom_site_type_symbol
 _atom_site_label
 _atom_site_symmetry_multiplicity
 _atom_site_fract_x
 _atom_site_fract_y
 _atom_site_fract_z
 _atom_site_occupancy
  Mg  Mg0  1  0.60488299  0.32514751  0.99999900  1
  Mg  Mg1  1  0.00199058  0.00000000  0.99999900  1
  Mg  Mg2  1  0.31524003  0.59751105  0.00000000  1
  Mg  Mg3  1  0.99605960  0.33998407  -0.00000000  1
  Mg  Mg4  1  0.68822298  0.68723525  0.29324649  1
  Mg  Mg5  1  0.00098573  0.60601124  0.31276375  1
  Mg  Mg6  1  0.60488299  0.00000000  0.32514651  1
  Mg  Mg7  1  0.99606060  -0.00000000  0.33998307  1
  Mg  Mg8  1  0.39497650  0.70675451  0.39399076  1
  Mg  Mg9  1  0.71773098  0.40249095  0.40248995  1
  Mg  Mg10  1  0.31524003  0.00000000  0.59751105  1
  Mg  Mg11  1  0.00098573  0.31276375  0.60601024  1
  Mg  Mg12  1  0.65607553  0.66001493  0.66001493  1
  Mg  Mg13  1  0.27973648  0.67485249  0.67485249  1
  Mg  Mg14  1  0.68822198  0.29324649  0.68723625  1
  Mg  Mg15  1  0.39497750  0.39399076  0.70675451  1
  Sc  Sc16  1  0.37128458  0.00000100  1.00000000  1
  Al  Al17  1  0.81019514  0.63563409  0.00000000  1
  Al  Al18  1  0.62665119  0.81766789  -0.00000000  1
  Al  Al19  1  0.36540082  0.36066148  0.17794037  1
  Al  Al20  1  0.18745944  0.82205763  0.18272011  1
  Al  Al21  1  0.80898330  0.18233211  0.18233211  1
  Al  Al22  1  0.36540082  0.17794037  0.36066148  1
  Al  Al23  1  0.17456305  0.36436691  0.36436791  1
  Al  Al24  1  0.81019514  -0.00000000  0.63563309  1
  Al  Al25  1  0.00474034  0.81727989  0.63933852  1
  Al  Al26  1  0.62665119  1.00000000  0.81766789  1
  Al  Al27  1  0.00474034  0.63933952  0.81727989  1
  Al  Al28  1  0.18745944  0.18272011  0.82205763  1
