# generated using pymatgen
data_Mg16Al12Tl
_symmetry_space_group_name_H-M   'P 1'
_cell_length_a   9.16747806
_cell_length_b   9.16747777
_cell_length_c   9.16747806
_cell_angle_alpha   109.47121809
_cell_angle_beta   109.47122110
_cell_angle_gamma   109.47121809
_symmetry_Int_Tables_number   1
_chemical_formula_structural   Mg16Al12Tl
_chemical_formula_sum   'Mg16 Al12 Tl1'
_cell_volume   593.09977315
_cell_formula_units_Z   1
loop_
 _symmetry_equiv_pos_site_id
 _symmetry_equiv_pos_as_xyz
  1  'x, y, z'
loop_
 _atom_site_type_symbol
 _atom_site_label
 _atom_site_symmetry_multiplicity
 _atom_site_fract_x
 _atom_site_fract_y
 _atom_site_fract_z
 _atom_site_occupancy
  Mg  Mg0  1  0.34621620  0.00000100  0.00000100  1
  Mg  Mg1  1  0.31496324  0.60028143  1.00000000  1
  Mg  Mg2  1  0.00000000  0.34621520  0.00000000  1
  Mg  Mg3  1  0.60028043  0.31496324  1.00000000  1
  Mg  Mg4  1  0.68503676  0.68503676  0.28531719  1
  Mg  Mg5  1  0.60028143  1.00000000  0.31496324  1
  Mg  Mg6  1  1.00000000  0.60028143  0.31496324  1
  Mg  Mg7  1  0.00000100  0.00000100  0.34621620  1
  Mg  Mg8  1  0.71468281  0.39971957  0.39971957  1
  Mg  Mg9  1  0.39971957  0.71468281  0.39971957  1
  Mg  Mg10  1  1.00000000  0.31496324  0.60028043  1
  Mg  Mg11  1  0.31496324  1.00000000  0.60028143  1
  Mg  Mg12  1  0.65378380  0.65378380  0.65378380  1
  Mg  Mg13  1  0.68503676  0.28531819  0.68503676  1
  Mg  Mg14  1  0.28531719  0.68503676  0.68503676  1
  Mg  Mg15  1  0.39971957  0.39971957  0.71468281  1
  Al  Al16  1  0.62807074  0.81234980  1.00000000  1
  Al  Al17  1  0.81235080  0.62806974  1.00000000  1
  Al  Al18  1  0.37193126  0.37193126  0.18428107  1
  Al  Al19  1  0.81571893  0.18764920  0.18765020  1
  Al  Al20  1  0.18765020  0.81571793  0.18765020  1
  Al  Al21  1  0.37193126  0.18428107  0.37193126  1
  Al  Al22  1  0.18428107  0.37193126  0.37193126  1
  Al  Al23  1  0.81234980  0.00000100  0.62806974  1
  Al  Al24  1  1.00000000  0.81234980  0.62807074  1
  Al  Al25  1  0.62806974  0.00000100  0.81234980  1
  Al  Al26  1  1.00000000  0.62806974  0.81235080  1
  Al  Al27  1  0.18765020  0.18764920  0.81571893  1
  Tl  Tl28  1  0.00000000  0.00000000  0.00000000  1
