# generated using pymatgen
data_Na(Mg4Al3)4
_symmetry_space_group_name_H-M   'P 1'
_cell_length_a   9.09682640
_cell_length_b   9.20203239
_cell_length_c   9.20203270
_cell_angle_alpha   109.70166170
_cell_angle_beta   109.23978347
_cell_angle_gamma   109.23978970
_symmetry_Int_Tables_number   1
_chemical_formula_structural   Na(Mg4Al3)4
_chemical_formula_sum   'Na1 Mg16 Al12'
_cell_volume   594.65901379
_cell_formula_units_Z   1
loop_
 _symmetry_equiv_pos_site_id
 _symmetry_equiv_pos_as_xyz
  1  'x, y, z'
loop_
 _atom_site_type_symbol
 _atom_site_label
 _atom_site_symmetry_multiplicity
 _atom_site_fract_x
 _atom_site_fract_y
 _atom_site_fract_z
 _atom_site_occupancy
  Na  Na0  1  0.36106701  0.00000000  1.00000000  1
  Mg  Mg1  1  0.99817645  0.34193368  0.00000000  1
  Mg  Mg2  1  0.00159069  0.00000000  1.00000000  1
  Mg  Mg3  1  0.31447823  0.60111910  1.00000000  1
  Mg  Mg4  1  0.60631184  0.32100546  1.00000000  1
  Mg  Mg5  1  0.68448782  0.68436601  0.28749111  1
  Mg  Mg6  1  0.00012181  0.60312510  0.31563399  1
  Mg  Mg7  1  0.60631184  1.00000000  0.32100546  1
  Mg  Mg8  1  0.99817645  0.00000100  0.34193368  1
  Mg  Mg9  1  0.39699671  0.71250989  0.39687490  1
  Mg  Mg10  1  0.71336013  0.39888190  0.39888190  1
  Mg  Mg11  1  0.31447923  0.00000000  0.60112010  1
  Mg  Mg12  1  0.00012181  0.31563399  0.60312510  1
  Mg  Mg13  1  0.65624177  0.65806632  0.65806532  1
  Mg  Mg14  1  0.28530638  0.67899454  0.67899454  1
  Mg  Mg15  1  0.68448782  0.28749111  0.68436601  1
  Mg  Mg16  1  0.39699671  0.39687590  0.71250989  1
  Al  Al17  1  0.63422714  0.81508317  1.00000000  1
  Al  Al18  1  0.81345203  0.63392889  1.00000000  1
  Al  Al19  1  0.36439306  0.36799500  0.18155025  1
  Al  Al20  1  0.81914198  0.18491683  0.18491683  1
  Al  Al21  1  0.18284181  0.81844875  0.18644374  1
  Al  Al22  1  0.17952313  0.36607211  0.36607211  1
  Al  Al23  1  0.36439306  0.18155025  0.36799400  1
  Al  Al24  1  0.99639906  0.81355726  0.63200700  1
  Al  Al25  1  0.81345203  1.00000000  0.63392889  1
  Al  Al26  1  0.99640006  0.63200600  0.81355726  1
  Al  Al27  1  0.63422714  0.99999900  0.81508417  1
  Al  Al28  1  0.18284181  0.18644374  0.81844875  1
