# generated using pymatgen
data_SrCa3
_symmetry_space_group_name_H-M   'P 1'
_cell_length_a   7.97294121
_cell_length_b   7.97294079
_cell_length_c   6.57878985
_cell_angle_alpha   90.00000000
_cell_angle_beta   90.00000000
_cell_angle_gamma   120.00000179
_symmetry_Int_Tables_number   1
_chemical_formula_structural   SrCa3
_chemical_formula_sum   'Sr2 Ca6'
_cell_volume   362.17105486
_cell_formula_units_Z   2
loop_
 _symmetry_equiv_pos_site_id
 _symmetry_equiv_pos_as_xyz
  1  'x, y, z'
loop_
 _atom_site_type_symbol
 _atom_site_label
 _atom_site_symmetry_multiplicity
 _atom_site_fract_x
 _atom_site_fract_y
 _atom_site_fract_z
 _atom_site_occupancy
  Sr  Sr0  1  0.33333400  0.66666800  0.75000000  1
  Sr  Sr1  1  0.66666700  0.33333200  0.25000000  1
  Ca  Ca2  1  0.16427408  0.32854816  0.25000000  1
  Ca  Ca3  1  0.67145084  0.83572592  0.25000000  1
  Ca  Ca4  1  0.16427508  0.83572592  0.25000000  1
  Ca  Ca5  1  0.83572492  0.67144984  0.75000000  1
  Ca  Ca6  1  0.32855016  0.16427608  0.75000000  1
  Ca  Ca7  1  0.83572492  0.16427608  0.75000000  1
