# generated using pymatgen
data_Na(Mg4Al3)4
_symmetry_space_group_name_H-M   'P 1'
_cell_length_a   9.16034191
_cell_length_b   9.16034138
_cell_length_c   9.16034191
_cell_angle_alpha   109.47122311
_cell_angle_beta   109.47122910
_cell_angle_gamma   109.47122311
_symmetry_Int_Tables_number   1
_chemical_formula_structural   Na(Mg4Al3)4
_chemical_formula_sum   'Na1 Mg16 Al12'
_cell_volume   591.71566120
_cell_formula_units_Z   1
loop_
 _symmetry_equiv_pos_site_id
 _symmetry_equiv_pos_as_xyz
  1  'x, y, z'
loop_
 _atom_site_type_symbol
 _atom_site_label
 _atom_site_symmetry_multiplicity
 _atom_site_fract_x
 _atom_site_fract_y
 _atom_site_fract_z
 _atom_site_occupancy
  Na  Na0  1  -0.00000000  -0.00000000  -0.00000000  1
  Mg  Mg1  1  0.34658376  0.99999900  0.99999900  1
  Mg  Mg2  1  0.99999900  0.34658376  0.99999900  1
  Mg  Mg3  1  0.60200629  0.31657953  -0.00000000  1
  Mg  Mg4  1  0.31657853  0.60200529  0.00000000  1
  Mg  Mg5  1  0.68342147  0.68342147  0.28542776  1
  Mg  Mg6  1  0.60200629  0.00000000  0.31657853  1
  Mg  Mg7  1  0.00000000  0.60200529  0.31657853  1
  Mg  Mg8  1  0.99999900  0.99999900  0.34658376  1
  Mg  Mg9  1  0.39799471  0.71457424  0.39799471  1
  Mg  Mg10  1  0.71457324  0.39799471  0.39799471  1
  Mg  Mg11  1  0.31657853  0.00000000  0.60200629  1
  Mg  Mg12  1  -0.00000000  0.31657953  0.60200629  1
  Mg  Mg13  1  0.65341524  0.65341524  0.65341524  1
  Mg  Mg14  1  0.68342147  0.28542776  0.68342147  1
  Mg  Mg15  1  0.28542776  0.68342147  0.68342147  1
  Mg  Mg16  1  0.39799471  0.39799471  0.71457324  1
  Al  Al17  1  0.63101209  0.81287351  0.00000000  1
  Al  Al18  1  0.81287351  0.63101109  0.00000000  1
  Al  Al19  1  0.36898991  0.36898991  0.18186242  1
  Al  Al20  1  0.81813758  0.18712749  0.18712749  1
  Al  Al21  1  0.18712749  0.81813758  0.18712749  1
  Al  Al22  1  0.18186242  0.36898991  0.36898991  1
  Al  Al23  1  0.36898991  0.18186242  0.36898991  1
  Al  Al24  1  0.81287451  0.00000000  0.63101109  1
  Al  Al25  1  0.00000000  0.81287351  0.63101209  1
  Al  Al26  1  0.00000000  0.63101109  0.81287351  1
  Al  Al27  1  0.63101109  0.00000000  0.81287451  1
  Al  Al28  1  0.18712749  0.18712749  0.81813758  1
