# generated using pymatgen
data_Rb
_symmetry_space_group_name_H-M   'P 1'
_cell_length_a   12.29908368
_cell_length_b   12.29908368
_cell_length_c   12.29908368
_cell_angle_alpha   90.00000000
_cell_angle_beta   90.00000000
_cell_angle_gamma   90.00000000
_symmetry_Int_Tables_number   1
_chemical_formula_structural   Rb
_chemical_formula_sum   Rb20
_cell_volume   1860.45114082
_cell_formula_units_Z   20
loop_
 _symmetry_equiv_pos_site_id
 _symmetry_equiv_pos_as_xyz
  1  'x, y, z'
loop_
 _atom_site_type_symbol
 _atom_site_label
 _atom_site_symmetry_multiplicity
 _atom_site_fract_x
 _atom_site_fract_y
 _atom_site_fract_z
 _atom_site_occupancy
  Rb  Rb0  1  0.87500000  0.70278278  0.04721622  1
  Rb  Rb1  1  0.06276755  0.06276755  0.06276755  1
  Rb  Rb2  1  0.20278378  0.45278378  0.12500000  1
  Rb  Rb3  1  0.81276755  0.31276755  0.18723245  1
  Rb  Rb4  1  0.45278378  0.12500000  0.20278378  1
  Rb  Rb5  1  0.54721722  0.62500000  0.29721622  1
  Rb  Rb6  1  0.18723245  0.81276755  0.31276755  1
  Rb  Rb7  1  0.79721622  0.95278378  0.37500000  1
  Rb  Rb8  1  0.93723245  0.56276755  0.43723245  1
  Rb  Rb9  1  0.12500000  0.20278378  0.45278378  1
  Rb  Rb10  1  0.62500000  0.29721622  0.54721722  1
  Rb  Rb11  1  0.43723245  0.93723245  0.56276755  1
  Rb  Rb12  1  0.29721622  0.54721722  0.62500000  1
  Rb  Rb13  1  0.68723245  0.68723245  0.68723245  1
  Rb  Rb14  1  0.04721622  0.87500000  0.70278278  1
  Rb  Rb15  1  0.95278378  0.37500000  0.79721622  1
  Rb  Rb16  1  0.31276755  0.18723245  0.81276755  1
  Rb  Rb17  1  0.70278278  0.04721622  0.87500000  1
  Rb  Rb18  1  0.56276755  0.43723245  0.93723245  1
  Rb  Rb19  1  0.37500000  0.79721622  0.95278378  1
