# generated using pymatgen
data_NaCu3Te2
_symmetry_space_group_name_H-M   'P 1'
_cell_length_a   8.29058875
_cell_length_b   8.29058875
_cell_length_c   8.29058879
_cell_angle_alpha   29.89585747
_cell_angle_beta   29.89585747
_cell_angle_gamma   29.89585599
_symmetry_Int_Tables_number   1
_chemical_formula_structural   NaCu3Te2
_chemical_formula_sum   'Na1 Cu3 Te2'
_cell_volume   125.37638520
_cell_formula_units_Z   1
loop_
 _symmetry_equiv_pos_site_id
 _symmetry_equiv_pos_as_xyz
  1  'x, y, z'
loop_
 _atom_site_type_symbol
 _atom_site_label
 _atom_site_symmetry_multiplicity
 _atom_site_fract_x
 _atom_site_fract_y
 _atom_site_fract_z
 _atom_site_occupancy
  Na  Na0  1  0.00859362  0.00859362  0.00859362  1
  Cu  Cu1  1  0.50878261  0.50878261  0.50878261  1
  Cu  Cu2  1  0.14131287  0.14131287  0.14131287  1
  Cu  Cu3  1  0.87569460  0.87569460  0.87569460  1
  Te  Te4  1  0.76195633  0.76195633  0.76195633  1
  Te  Te5  1  0.25515996  0.25515996  0.25515996  1
