# generated using pymatgen
data_TmMg5
_symmetry_space_group_name_H-M   'P 1'
_cell_length_a   3.22347783
_cell_length_b   8.64847917
_cell_length_c   5.37069019
_cell_angle_alpha   90.00000000
_cell_angle_beta   90.00000000
_cell_angle_gamma   79.25951006
_symmetry_Int_Tables_number   1
_chemical_formula_structural   TmMg5
_chemical_formula_sum   'Tm1 Mg5'
_cell_volume   147.10209049
_cell_formula_units_Z   1
loop_
 _symmetry_equiv_pos_site_id
 _symmetry_equiv_pos_as_xyz
  1  'x, y, z'
loop_
 _atom_site_type_symbol
 _atom_site_label
 _atom_site_symmetry_multiplicity
 _atom_site_fract_x
 _atom_site_fract_y
 _atom_site_fract_z
 _atom_site_occupancy
  Tm  Tm0  1  0.77948839  0.44102121  0.50000100  1
  Mg  Mg1  1  0.99849815  0.00300269  0.00000000  1
  Mg  Mg2  1  0.33569285  0.32861731  0.00000000  1
  Mg  Mg3  1  0.66387669  0.67224663  0.00000000  1
  Mg  Mg4  1  0.44788722  0.10422757  0.50000100  1
  Mg  Mg5  1  0.10789270  0.78421759  0.50000100  1
