# generated using pymatgen
data_TmGa3
_symmetry_space_group_name_H-M   'P 1'
_cell_length_a   6.18042233
_cell_length_b   6.18042343
_cell_length_c   4.60770033
_cell_angle_alpha   90.00000000
_cell_angle_beta   90.00000000
_cell_angle_gamma   120.00000005
_symmetry_Int_Tables_number   1
_chemical_formula_structural   TmGa3
_chemical_formula_sum   'Tm2 Ga6'
_cell_volume   152.42325811
_cell_formula_units_Z   2
loop_
 _symmetry_equiv_pos_site_id
 _symmetry_equiv_pos_as_xyz
  1  'x, y, z'
loop_
 _atom_site_type_symbol
 _atom_site_label
 _atom_site_symmetry_multiplicity
 _atom_site_fract_x
 _atom_site_fract_y
 _atom_site_fract_z
 _atom_site_occupancy
  Tm  Tm0  1  0.33333400  0.66666800  0.75000416  1
  Tm  Tm1  1  0.66666800  0.33333400  0.24999484  1
  Ga  Ga2  1  0.15150542  0.30301183  0.24999818  1
  Ga  Ga3  1  0.69698817  0.84849458  0.24999818  1
  Ga  Ga4  1  0.15150642  0.84849458  0.24999818  1
  Ga  Ga5  1  0.84849358  0.69698817  0.75000082  1
  Ga  Ga6  1  0.30301283  0.15150642  0.75000082  1
  Ga  Ga7  1  0.84849358  0.15150642  0.75000082  1
