# generated using pymatgen
data_Tm5Mg
_symmetry_space_group_name_H-M   'P 1'
_cell_length_a   3.50830718
_cell_length_b   9.25522942
_cell_length_c   5.50359879
_cell_angle_alpha   90.00000000
_cell_angle_beta   90.00000000
_cell_angle_gamma   79.07458040
_symmetry_Int_Tables_number   1
_chemical_formula_structural   Tm5Mg
_chemical_formula_sum   'Tm5 Mg1'
_cell_volume   175.46384706
_cell_formula_units_Z   1
loop_
 _symmetry_equiv_pos_site_id
 _symmetry_equiv_pos_as_xyz
  1  'x, y, z'
loop_
 _atom_site_type_symbol
 _atom_site_label
 _atom_site_symmetry_multiplicity
 _atom_site_fract_x
 _atom_site_fract_y
 _atom_site_fract_z
 _atom_site_occupancy
  Tm  Tm0  1  0.99980456  0.00039187  0.00000000  1
  Tm  Tm1  1  0.33017412  0.33965277  -0.00000000  1
  Tm  Tm2  1  0.66693610  0.66612781  0.00000000  1
  Tm  Tm3  1  0.44651611  0.10696878  0.50000000  1
  Tm  Tm4  1  0.11282548  0.77435005  0.50000000  1
  Mg  Mg5  1  0.77707864  0.44584273  0.50000000  1
