# generated using pymatgen
data_ZrHg3
_symmetry_space_group_name_H-M   'P 1'
_cell_length_a   6.45443005
_cell_length_b   6.45442944
_cell_length_c   4.88033404
_cell_angle_alpha   90.00000000
_cell_angle_beta   90.00000000
_cell_angle_gamma   120.00000307
_symmetry_Int_Tables_number   1
_chemical_formula_structural   ZrHg3
_chemical_formula_sum   'Zr2 Hg6'
_cell_volume   176.07428077
_cell_formula_units_Z   2
loop_
 _symmetry_equiv_pos_site_id
 _symmetry_equiv_pos_as_xyz
  1  'x, y, z'
loop_
 _atom_site_type_symbol
 _atom_site_label
 _atom_site_symmetry_multiplicity
 _atom_site_fract_x
 _atom_site_fract_y
 _atom_site_fract_z
 _atom_site_occupancy
  Zr  Zr0  1  0.33333300  0.66666700  0.74999800  1
  Zr  Zr1  1  0.66666600  0.33333200  0.24999900  1
  Hg  Hg2  1  0.16908603  0.33817307  0.24999900  1
  Hg  Hg3  1  0.66182693  0.83091497  0.24999900  1
  Hg  Hg4  1  0.16908603  0.83091497  0.24999900  1
  Hg  Hg5  1  0.83091297  0.66182593  0.74999800  1
  Hg  Hg6  1  0.33817307  0.16908603  0.74999800  1
  Hg  Hg7  1  0.83091297  0.16908603  0.74999800  1
