# generated using pymatgen
data_Hf2Os
_symmetry_space_group_name_H-M   'P 1'
_cell_length_a   8.73601812
_cell_length_b   8.73601812
_cell_length_c   8.73601812
_cell_angle_alpha   60.00000000
_cell_angle_beta   60.00000000
_cell_angle_gamma   60.00000000
_symmetry_Int_Tables_number   1
_chemical_formula_structural   Hf2Os
_chemical_formula_sum   'Hf16 Os8'
_cell_volume   471.43907935
_cell_formula_units_Z   8
loop_
 _symmetry_equiv_pos_site_id
 _symmetry_equiv_pos_as_xyz
  1  'x, y, z'
loop_
 _atom_site_type_symbol
 _atom_site_label
 _atom_site_symmetry_multiplicity
 _atom_site_fract_x
 _atom_site_fract_y
 _atom_site_fract_z
 _atom_site_occupancy
  Hf  Hf0  1  0.00000000  0.00000000  0.50000000  1
  Hf  Hf1  1  -0.00000000  0.50000000  0.00000000  1
  Hf  Hf2  1  0.50000000  0.00000000  -0.00000000  1
  Hf  Hf3  1  -0.00000000  0.00000000  -0.00000000  1
  Hf  Hf4  1  0.43607434  0.81392566  0.81392566  1
  Hf  Hf5  1  0.81392566  0.43607434  0.43607434  1
  Hf  Hf6  1  0.81392566  0.43607434  0.81392566  1
  Hf  Hf7  1  0.43607434  0.81392566  0.43607434  1
  Hf  Hf8  1  0.81392566  0.81392566  0.43607434  1
  Hf  Hf9  1  0.43607434  0.43607434  0.81392566  1
  Hf  Hf10  1  0.56392566  0.18607434  0.18607434  1
  Hf  Hf11  1  0.18607434  0.56392566  0.56392566  1
  Hf  Hf12  1  0.18607434  0.56392566  0.18607434  1
  Hf  Hf13  1  0.56392566  0.18607434  0.56392566  1
  Hf  Hf14  1  0.18607434  0.18607434  0.56392566  1
  Hf  Hf15  1  0.56392566  0.56392566  0.18607434  1
  Os  Os16  1  0.21465064  0.21465064  0.85604807  1
  Os  Os17  1  0.21465064  0.85604807  0.21465064  1
  Os  Os18  1  0.85604807  0.21465064  0.21465064  1
  Os  Os19  1  0.21465064  0.21465064  0.21465064  1
  Os  Os20  1  0.78534936  0.78534936  0.14395193  1
  Os  Os21  1  0.78534936  0.14395193  0.78534936  1
  Os  Os22  1  0.14395193  0.78534936  0.78534936  1
  Os  Os23  1  0.78534936  0.78534936  0.78534936  1
