# generated using pymatgen
data_Pu5Pb3
_symmetry_space_group_name_H-M   'P 1'
_cell_length_a   5.95541769
_cell_length_b   9.26699532
_cell_length_c   9.26699532
_cell_angle_alpha   84.07369679
_cell_angle_beta   71.25698077
_cell_angle_gamma   71.25698077
_symmetry_Int_Tables_number   1
_chemical_formula_structural   Pu5Pb3
_chemical_formula_sum   'Pu10 Pb6'
_cell_volume   458.62940937
_cell_formula_units_Z   2
loop_
 _symmetry_equiv_pos_site_id
 _symmetry_equiv_pos_as_xyz
  1  'x, y, z'
loop_
 _atom_site_type_symbol
 _atom_site_label
 _atom_site_symmetry_multiplicity
 _atom_site_fract_x
 _atom_site_fract_y
 _atom_site_fract_z
 _atom_site_occupancy
  Pu  Pu0  1  0.72715731  0.85129074  0.69439465  1
  Pu  Pu1  1  0.27284269  0.14870926  0.30560535  1
  Pu  Pu2  1  0.77284269  0.30560535  0.14870926  1
  Pu  Pu3  1  0.22715731  0.69439465  0.85129074  1
  Pu  Pu4  1  0.57844805  0.69439465  0.14870926  1
  Pu  Pu5  1  0.42155195  0.30560535  0.85129074  1
  Pu  Pu6  1  0.07844805  0.14870926  0.69439465  1
  Pu  Pu7  1  0.92155195  0.85129074  0.30560535  1
  Pu  Pu8  1  0.75000000  0.50000000  0.50000000  1
  Pu  Pu9  1  0.25000000  0.50000000  0.50000000  1
  Pb  Pb10  1  0.16469082  0.50000000  0.17061836  1
  Pb  Pb11  1  0.83530918  0.50000000  0.82938164  1
  Pb  Pb12  1  0.33530918  0.82938164  0.50000000  1
  Pb  Pb13  1  0.66469082  0.17061836  0.50000000  1
  Pb  Pb14  1  0.25000000  -0.00000000  0.00000000  1
  Pb  Pb15  1  0.75000000  -0.00000000  0.00000000  1
