# generated using pymatgen
data_Yb2Ni7
_symmetry_space_group_name_H-M   'P 1'
_cell_length_a   4.87913338
_cell_length_b   4.87913338
_cell_length_c   12.15204754
_cell_angle_alpha   78.41897175
_cell_angle_beta   78.41897175
_cell_angle_gamma   59.99999837
_symmetry_Int_Tables_number   1
_chemical_formula_structural   Yb2Ni7
_chemical_formula_sum   'Yb4 Ni14'
_cell_volume   243.70903375
_cell_formula_units_Z   2
loop_
 _symmetry_equiv_pos_site_id
 _symmetry_equiv_pos_as_xyz
  1  'x, y, z'
loop_
 _atom_site_type_symbol
 _atom_site_label
 _atom_site_symmetry_multiplicity
 _atom_site_fract_x
 _atom_site_fract_y
 _atom_site_fract_z
 _atom_site_occupancy
  Yb  Yb0  1  0.05154545  0.05154545  0.84536365  1
  Yb  Yb1  1  0.94845455  0.94845455  0.15463635  1
  Yb  Yb2  1  0.14729254  0.14729254  0.55812238  1
  Yb  Yb3  1  0.85270746  0.85270746  0.44187762  1
  Ni  Ni4  1  0.50000000  0.50000000  0.50000000  1
  Ni  Ni5  1  0.27751957  0.27751957  0.16744130  1
  Ni  Ni6  1  0.72248043  0.72248043  0.83255870  1
  Ni  Ni7  1  0.38862995  0.38862995  0.83411016  1
  Ni  Ni8  1  0.61137005  0.61137005  0.16588984  1
  Ni  Ni9  1  0.50000000  0.50000000  -0.00000000  1
  Ni  Ni10  1  0.50000000  -0.00000000  -0.00000000  1
  Ni  Ni11  1  -0.00000000  0.50000000  -0.00000000  1
  Ni  Ni12  1  0.10863552  0.61154240  0.66827968  1
  Ni  Ni13  1  0.61154240  0.61154240  0.66827968  1
  Ni  Ni14  1  0.61154240  0.10863552  0.66827968  1
  Ni  Ni15  1  0.89136448  0.38845760  0.33172032  1
  Ni  Ni16  1  0.38845760  0.38845760  0.33172032  1
  Ni  Ni17  1  0.38845760  0.89136448  0.33172032  1
