# generated using pymatgen
data_Cs3LiBr4
_symmetry_space_group_name_H-M   'P 1'
_cell_length_a   8.34970396
_cell_length_b   9.19210576
_cell_length_c   9.19210576
_cell_angle_alpha   100.83335648
_cell_angle_beta   90.00000000
_cell_angle_gamma   90.00000000
_symmetry_Int_Tables_number   1
_chemical_formula_structural   Cs3LiBr4
_chemical_formula_sum   'Cs6 Li2 Br8'
_cell_volume   692.93309180
_cell_formula_units_Z   2
loop_
 _symmetry_equiv_pos_site_id
 _symmetry_equiv_pos_as_xyz
  1  'x, y, z'
loop_
 _atom_site_type_symbol
 _atom_site_label
 _atom_site_symmetry_multiplicity
 _atom_site_fract_x
 _atom_site_fract_y
 _atom_site_fract_z
 _atom_site_occupancy
  Cs  Cs0  1  0.75000000  0.71370359  0.28629641  1
  Cs  Cs1  1  0.25000000  0.28629641  0.71370359  1
  Cs  Cs2  1  0.26785927  0.34683194  0.19966390  1
  Cs  Cs3  1  0.73214073  0.19966390  0.34683194  1
  Cs  Cs4  1  0.76785927  0.65316806  0.80033610  1
  Cs  Cs5  1  0.23214073  0.80033610  0.65316806  1
  Li  Li6  1  0.75000000  0.10485176  0.89514824  1
  Li  Li7  1  0.25000000  0.89514824  0.10485176  1
  Br  Br8  1  0.35280525  0.99884412  0.36773109  1
  Br  Br9  1  0.64719475  0.36773109  0.99884412  1
  Br  Br10  1  0.85280525  0.00115588  0.63226891  1
  Br  Br11  1  0.14719475  0.63226891  0.00115588  1
  Br  Br12  1  0.50000000  0.51034090  0.51034090  1
  Br  Br13  1  0.00000000  0.48965910  0.48965910  1
  Br  Br14  1  0.50000000  0.95190804  0.95190804  1
  Br  Br15  1  0.00000000  0.04809196  0.04809196  1
