# generated using pymatgen
data_Nd3AlCoS7
_symmetry_space_group_name_H-M   'P 1'
_cell_length_a   6.02208805
_cell_length_b   9.98203024
_cell_length_c   9.98200409
_cell_angle_alpha   120.00794323
_cell_angle_beta   90.00000000
_cell_angle_gamma   90.00000000
_symmetry_Int_Tables_number   1
_chemical_formula_structural   Nd3AlCoS7
_chemical_formula_sum   'Nd6 Al2 Co2 S14'
_cell_volume   519.61250034
_cell_formula_units_Z   2
loop_
 _symmetry_equiv_pos_site_id
 _symmetry_equiv_pos_as_xyz
  1  'x, y, z'
loop_
 _atom_site_type_symbol
 _atom_site_label
 _atom_site_symmetry_multiplicity
 _atom_site_fract_x
 _atom_site_fract_y
 _atom_site_fract_z
 _atom_site_occupancy
  Nd  Nd0  1  0.25912558  0.22969190  0.37126254  1
  Nd  Nd1  1  0.25913030  0.62871272  0.85840288  1
  Nd  Nd2  1  0.25911121  0.14164773  0.77030275  1
  Nd  Nd3  1  0.75912558  0.77030810  0.62873746  1
  Nd  Nd4  1  0.75913030  0.37128728  0.14159712  1
  Nd  Nd5  1  0.75911121  0.85835227  0.22969725  1
  Al  Al6  1  0.83523265  0.33337777  0.66667491  1
  Al  Al7  1  0.33523265  0.66662223  0.33332509  1
  Co  Co8  1  0.47229089  0.00002025  0.99995071  1
  Co  Co9  1  0.97229089  0.99997975  0.00004929  1
  S  S10  1  0.71243459  0.13484929  0.21927311  1
  S  S11  1  0.71242516  0.78053935  0.91555011  1
  S  S12  1  0.71243273  0.08459519  0.86490527  1
  S  S13  1  0.21243459  0.86515071  0.78072689  1
  S  S14  1  0.21242516  0.21946065  0.08444989  1
  S  S15  1  0.21243273  0.91540481  0.13509473  1
  S  S16  1  0.98249962  0.09655585  0.51705313  1
  S  S17  1  0.98240279  0.48288650  0.57939415  1
  S  S18  1  0.98248652  0.42068639  0.90354534  1
  S  S19  1  0.48249962  0.90344415  0.48294687  1
  S  S20  1  0.48240279  0.51711350  0.42060585  1
  S  S21  1  0.48248652  0.57931361  0.09645466  1
  S  S22  1  0.46642796  0.33332180  0.66661831  1
  S  S23  1  0.96642796  0.66667820  0.33338169  1
