# generated using pymatgen
data_InHO2
_symmetry_space_group_name_H-M   'P 1'
_cell_length_a   5.41350369
_cell_length_b   5.41350369
_cell_length_c   5.41350369
_cell_angle_alpha   90.00000000
_cell_angle_beta   90.00000000
_cell_angle_gamma   90.00000000
_symmetry_Int_Tables_number   1
_chemical_formula_structural   InHO2
_chemical_formula_sum   'In4 H4 O8'
_cell_volume   158.64825933
_cell_formula_units_Z   4
loop_
 _symmetry_equiv_pos_site_id
 _symmetry_equiv_pos_as_xyz
  1  'x, y, z'
loop_
 _atom_site_type_symbol
 _atom_site_label
 _atom_site_symmetry_multiplicity
 _atom_site_fract_x
 _atom_site_fract_y
 _atom_site_fract_z
 _atom_site_occupancy
  In  In0  1  0.49037162  0.99037162  0.50962838  1
  In  In1  1  0.99037162  0.50962838  0.49037162  1
  In  In2  1  0.50962838  0.49037162  0.99037162  1
  In  In3  1  0.00962838  0.00962838  0.00962838  1
  H  H4  1  0.02239435  0.52239435  0.97760565  1
  H  H5  1  0.52239435  0.97760565  0.02239435  1
  H  H6  1  0.97760565  0.02239435  0.52239435  1
  H  H7  1  0.47760565  0.47760565  0.47760565  1
  O  O8  1  0.13535611  0.63535611  0.86464389  1
  O  O9  1  0.63535611  0.86464389  0.13535611  1
  O  O10  1  0.86464389  0.13535611  0.63535611  1
  O  O11  1  0.36464389  0.36464389  0.36464389  1
  O  O12  1  0.86708629  0.36708629  0.13291371  1
  O  O13  1  0.36708629  0.13291371  0.86708629  1
  O  O14  1  0.13291371  0.86708629  0.36708629  1
  O  O15  1  0.63291371  0.63291371  0.63291371  1
