# generated using pymatgen
data_Na3NpO6
_symmetry_space_group_name_H-M   'P 1'
_cell_length_a   5.75822166
_cell_length_b   6.03039175
_cell_length_c   10.67373770
_cell_angle_alpha   82.60079458
_cell_angle_beta   74.35133467
_cell_angle_gamma   61.48209127
_symmetry_Int_Tables_number   1
_chemical_formula_structural   Na3NpO6
_chemical_formula_sum   'Na6 Np2 O12'
_cell_volume   313.59681211
_cell_formula_units_Z   2
loop_
 _symmetry_equiv_pos_site_id
 _symmetry_equiv_pos_as_xyz
  1  'x, y, z'
loop_
 _atom_site_type_symbol
 _atom_site_label
 _atom_site_symmetry_multiplicity
 _atom_site_fract_x
 _atom_site_fract_y
 _atom_site_fract_z
 _atom_site_occupancy
  Na  Na0  1  0.91200666  0.17598668  0.50000000  1
  Na  Na1  1  0.66200666  0.67598668  -0.00000000  1
  Na  Na2  1  0.48614802  0.88666884  0.68258546  1
  Na  Na3  1  0.62718314  0.88666884  0.31741454  1
  Na  Na4  1  0.19459768  0.38666884  0.18258546  1
  Na  Na5  1  0.41873348  0.38666884  0.81741454  1
  Np  Np6  1  0.23643465  0.52713069  0.50000000  1
  Np  Np7  1  0.98643465  0.02713069  -0.00000000  1
  O  O8  1  0.91161430  0.52132474  0.61325391  1
  O  O9  1  0.56706096  0.52132474  0.38674609  1
  O  O10  1  0.20380705  0.02132474  0.11325391  1
  O  O11  1  0.77486821  0.02132474  0.88674609  1
  O  O12  1  0.20435832  0.79094967  0.60400481  1
  O  O13  1  0.00469201  0.79094967  0.39599519  1
  O  O14  1  0.65068720  0.29094967  0.10400481  1
  O  O15  1  0.05836313  0.29094967  0.89599519  1
  O  O16  1  0.47172535  0.26549807  0.60774022  1
  O  O17  1  0.26277658  0.26549807  0.39225978  1
  O  O18  1  0.90503636  0.76549807  0.10774022  1
  O  O19  1  0.32946557  0.76549807  0.89225978  1
