# generated using pymatgen
data_UVS3
_symmetry_space_group_name_H-M   'P 1'
_cell_length_a   6.08649828
_cell_length_b   6.98295037
_cell_length_c   8.96812151
_cell_angle_alpha   90.00000000
_cell_angle_beta   90.00000000
_cell_angle_gamma   90.00000000
_symmetry_Int_Tables_number   1
_chemical_formula_structural   UVS3
_chemical_formula_sum   'U4 V4 S12'
_cell_volume   381.16054824
_cell_formula_units_Z   4
loop_
 _symmetry_equiv_pos_site_id
 _symmetry_equiv_pos_as_xyz
  1  'x, y, z'
loop_
 _atom_site_type_symbol
 _atom_site_label
 _atom_site_symmetry_multiplicity
 _atom_site_fract_x
 _atom_site_fract_y
 _atom_site_fract_z
 _atom_site_occupancy
  U  U0  1  0.55501486  0.38641537  0.99135625  1
  U  U1  1  0.44498514  0.61358463  0.49135625  1
  U  U2  1  0.05501486  0.11358463  0.49135625  1
  U  U3  1  0.94498514  0.88641537  0.99135625  1
  V  V4  1  0.00116263  0.49916011  0.24038862  1
  V  V5  1  0.99883737  0.50083989  0.74038862  1
  V  V6  1  0.50116263  0.00083989  0.74038862  1
  V  V7  1  0.49883737  0.99916011  0.24038862  1
  S  S8  1  0.83645162  0.18494289  0.80251246  1
  S  S9  1  0.16354838  0.81505711  0.30251246  1
  S  S10  1  0.33645162  0.31505711  0.30251246  1
  S  S11  1  0.66354838  0.68494289  0.80251246  1
  S  S12  1  0.83610737  0.18336389  0.18011311  1
  S  S13  1  0.16389263  0.81663611  0.68011311  1
  S  S14  1  0.33610737  0.31663611  0.68011311  1
  S  S15  1  0.66389263  0.68336389  0.18011311  1
  S  S16  1  0.85390234  0.45634340  0.49062955  1
  S  S17  1  0.14609766  0.54365660  0.99062955  1
  S  S18  1  0.35390234  0.04365660  0.99062955  1
  S  S19  1  0.64609766  0.95634340  0.49062955  1
