# generated using pymatgen
data_KNO3
_symmetry_space_group_name_H-M   'P 1'
_cell_length_a   5.16349494
_cell_length_b   9.51241183
_cell_length_c   7.16673818
_cell_angle_alpha   90.00000000
_cell_angle_beta   90.00000000
_cell_angle_gamma   90.00000000
_symmetry_Int_Tables_number   1
_chemical_formula_structural   KNO3
_chemical_formula_sum   'K4 N4 O12'
_cell_volume   352.01076006
_cell_formula_units_Z   4
loop_
 _symmetry_equiv_pos_site_id
 _symmetry_equiv_pos_as_xyz
  1  'x, y, z'
loop_
 _atom_site_type_symbol
 _atom_site_label
 _atom_site_symmetry_multiplicity
 _atom_site_fract_x
 _atom_site_fract_y
 _atom_site_fract_z
 _atom_site_occupancy
  K  K0  1  0.75000000  0.74669887  0.41713402  1
  K  K1  1  0.75000000  0.24669887  0.08286598  1
  K  K2  1  0.25000000  0.25330113  0.58286598  1
  K  K3  1  0.25000000  0.75330113  0.91713402  1
  N  N4  1  0.75000000  0.47824128  0.70630372  1
  N  N5  1  0.75000000  0.97824128  0.79369628  1
  N  N6  1  0.25000000  0.52175872  0.29369628  1
  N  N7  1  0.25000000  0.02175872  0.20630372  1
  O  O8  1  0.75000000  0.34422220  0.69655024  1
  O  O9  1  0.75000000  0.84422220  0.80344976  1
  O  O10  1  0.25000000  0.65577780  0.30344976  1
  O  O11  1  0.25000000  0.15577780  0.19655024  1
  O  O12  1  0.46321117  0.95690124  0.21074914  1
  O  O13  1  0.03678883  0.45690124  0.28925086  1
  O  O14  1  0.96321117  0.04309876  0.78925086  1
  O  O15  1  0.53678883  0.54309876  0.71074914  1
  O  O16  1  0.53678883  0.04309876  0.78925086  1
  O  O17  1  0.96321117  0.54309876  0.71074914  1
  O  O18  1  0.03678883  0.95690124  0.21074914  1
  O  O19  1  0.46321117  0.45690124  0.28925086  1
