# generated using pymatgen
data_Dy4Zn5Ge6
_symmetry_space_group_name_H-M   'P 1'
_cell_length_a   4.32651347
_cell_length_b   9.50215893
_cell_length_c   15.19275370
_cell_angle_alpha   90.00000000
_cell_angle_beta   90.00000000
_cell_angle_gamma   103.15931856
_symmetry_Int_Tables_number   1
_chemical_formula_structural   Dy4Zn5Ge6
_chemical_formula_sum   'Dy8 Zn10 Ge12'
_cell_volume   608.19131127
_cell_formula_units_Z   2
loop_
 _symmetry_equiv_pos_site_id
 _symmetry_equiv_pos_as_xyz
  1  'x, y, z'
loop_
 _atom_site_type_symbol
 _atom_site_label
 _atom_site_symmetry_multiplicity
 _atom_site_fract_x
 _atom_site_fract_y
 _atom_site_fract_z
 _atom_site_occupancy
  Dy  Dy0  1  0.98058822  0.96117644  0.76299320  1
  Dy  Dy1  1  0.01941178  0.03882356  0.26299320  1
  Dy  Dy2  1  0.82441048  0.64882097  0.31874267  1
  Dy  Dy3  1  0.17558952  0.35117903  0.81874267  1
  Dy  Dy4  1  0.83252536  0.66505072  0.95945351  1
  Dy  Dy5  1  0.16747464  0.33494928  0.45945351  1
  Dy  Dy6  1  0.96726690  0.93453379  0.50047569  1
  Dy  Dy7  1  0.03273310  0.06546621  0.00047569  1
  Zn  Zn8  1  0.65389883  0.30779767  0.98930284  1
  Zn  Zn9  1  0.34610117  0.69220233  0.48930284  1
  Zn  Zn10  1  0.69979973  0.39959946  0.63876848  1
  Zn  Zn11  1  0.30020027  0.60040054  0.13876848  1
  Zn  Zn12  1  0.35138269  0.70276538  0.78273423  1
  Zn  Zn13  1  0.64861731  0.29723462  0.28273423  1
  Zn  Zn14  1  0.84924448  0.69848895  0.63602308  1
  Zn  Zn15  1  0.15075552  0.30151105  0.13602308  1
  Zn  Zn16  1  0.56522588  0.13045176  0.57735856  1
  Zn  Zn17  1  0.43477412  0.86954824  0.07735856  1
  Ge  Ge18  1  0.77054702  0.54109403  0.49723871  1
  Ge  Ge19  1  0.22945298  0.45890597  0.99723871  1
  Ge  Ge20  1  0.56924521  0.13849042  0.85608955  1
  Ge  Ge21  1  0.43075479  0.86150958  0.35608955  1
  Ge  Ge22  1  0.77554587  0.55109175  0.77807343  1
  Ge  Ge23  1  0.22445413  0.44890825  0.27807343  1
  Ge  Ge24  1  0.44055986  0.88111973  0.90886707  1
  Ge  Ge25  1  0.55944014  0.11888027  0.40886707  1
  Ge  Ge26  1  0.43298330  0.86596661  0.63419576  1
  Ge  Ge27  1  0.56701670  0.13403339  0.13419576  1
  Ge  Ge28  1  0.88895070  0.77790140  0.14585622  1
  Ge  Ge29  1  0.11104930  0.22209860  0.64585622  1
