# generated using pymatgen
data_SrCuO3
_symmetry_space_group_name_H-M   'P 1'
_cell_length_a   3.83582186
_cell_length_b   8.52122030
_cell_length_c   10.81616776
_cell_angle_alpha   90.00000000
_cell_angle_beta   90.00000000
_cell_angle_gamma   90.05676821
_symmetry_Int_Tables_number   1
_chemical_formula_structural   SrCuO3
_chemical_formula_sum   'Sr6 Cu6 O18'
_cell_volume   353.53582155
_cell_formula_units_Z   6
loop_
 _symmetry_equiv_pos_site_id
 _symmetry_equiv_pos_as_xyz
  1  'x, y, z'
loop_
 _atom_site_type_symbol
 _atom_site_label
 _atom_site_symmetry_multiplicity
 _atom_site_fract_x
 _atom_site_fract_y
 _atom_site_fract_z
 _atom_site_occupancy
  Sr  Sr0  1  -0.00002212  0.00465163  -0.00000000  1
  Sr  Sr1  1  0.99979889  0.01590259  0.50000000  1
  Sr  Sr2  1  0.00141070  0.31322643  0.24808492  1
  Sr  Sr3  1  0.00141070  0.31322643  0.75191508  1
  Sr  Sr4  1  0.99859572  0.70584332  0.25275392  1
  Sr  Sr5  1  0.99859572  0.70584332  0.74724608  1
  Cu  Cu6  1  0.50114532  0.33926345  -0.00000000  1
  Cu  Cu7  1  0.49959368  0.67113186  -0.00000000  1
  Cu  Cu8  1  0.50039895  0.34930796  0.50000000  1
  Cu  Cu9  1  0.49919707  0.68114163  0.50000000  1
  Cu  Cu10  1  0.50000763  0.00988521  0.25013607  1
  Cu  Cu11  1  0.50000763  0.00988521  0.74986393  1
  O  O12  1  0.50090071  0.17424166  0.12549504  1
  O  O13  1  0.50090071  0.17424166  0.87450496  1
  O  O14  1  0.50056865  0.50445080  0.12331206  1
  O  O15  1  0.50056865  0.50445080  0.87668794  1
  O  O16  1  0.49920801  0.83363949  0.12597323  1
  O  O17  1  0.49920801  0.83363949  0.87402677  1
  O  O18  1  0.50074280  0.18528872  0.37449558  1
  O  O19  1  0.50074280  0.18528872  0.62550442  1
  O  O20  1  0.49945600  0.51603729  0.37657490  1
  O  O21  1  0.49945600  0.51603729  0.62342510  1
  O  O22  1  0.49911844  0.84561536  0.37413112  1
  O  O23  1  0.49911844  0.84561536  0.62586888  1
  O  O24  1  0.99959234  0.70108967  -0.00000000  1
  O  O25  1  0.00091602  0.30988060  -0.00000000  1
  O  O26  1  0.00036048  0.32170789  0.50000000  1
  O  O27  1  0.99907700  0.71028417  0.50000000  1
  O  O28  1  0.99996252  0.00959099  0.25012273  1
  O  O29  1  0.99996252  0.00959099  0.74987727  1
