# generated using pymatgen
data_Ce5(MgGe)8
_symmetry_space_group_name_H-M   'P 1'
_cell_length_a   4.58936177
_cell_length_b   8.50459682
_cell_length_c   13.19953195
_cell_angle_alpha   92.63909075
_cell_angle_beta   90.00000000
_cell_angle_gamma   105.65335023
_symmetry_Int_Tables_number   1
_chemical_formula_structural   Ce5(MgGe)8
_chemical_formula_sum   'Ce5 Mg8 Ge8'
_cell_volume   495.51174229
_cell_formula_units_Z   1
loop_
 _symmetry_equiv_pos_site_id
 _symmetry_equiv_pos_as_xyz
  1  'x, y, z'
loop_
 _atom_site_type_symbol
 _atom_site_label
 _atom_site_symmetry_multiplicity
 _atom_site_fract_x
 _atom_site_fract_y
 _atom_site_fract_z
 _atom_site_occupancy
  Ce  Ce0  1  0.10429094  0.20858189  0.74644249  1
  Ce  Ce1  1  0.89570906  0.79141811  0.25355751  1
  Ce  Ce2  1  0.09539233  0.19078465  0.43659985  1
  Ce  Ce3  1  0.90460767  0.80921535  0.56340015  1
  Ce  Ce4  1  0.50000000  0.00000000  0.00000000  1
  Mg  Mg5  1  0.17909839  0.35819678  0.00277163  1
  Mg  Mg6  1  0.82090161  0.64180322  0.99722837  1
  Mg  Mg7  1  0.21525283  0.43050566  0.23017093  1
  Mg  Mg8  1  0.78474717  0.56949434  0.76982907  1
  Mg  Mg9  1  0.29993610  0.59987219  0.43184631  1
  Mg  Mg10  1  0.70006390  0.40012781  0.56815369  1
  Mg  Mg11  1  0.57202256  0.14404512  0.25132597  1
  Mg  Mg12  1  0.42797744  0.85595488  0.74867403  1
  Ge  Ge13  1  0.05760852  0.11521704  0.14737462  1
  Ge  Ge14  1  0.94239148  0.88478296  0.85262538  1
  Ge  Ge15  1  0.27669613  0.55339227  0.63711241  1
  Ge  Ge16  1  0.72330387  0.44660773  0.36288759  1
  Ge  Ge17  1  0.34166564  0.68333128  0.11172947  1
  Ge  Ge18  1  0.65833436  0.31666872  0.88827053  1
  Ge  Ge19  1  0.46407005  0.92814010  0.41068812  1
  Ge  Ge20  1  0.53592995  0.07185990  0.58931188  1
