# generated using pymatgen
data_Sm3GaFeS7
_symmetry_space_group_name_H-M   'P 1'
_cell_length_a   6.14846545
_cell_length_b   9.82549508
_cell_length_c   9.81454000
_cell_angle_alpha   119.58874026
_cell_angle_beta   90.00000000
_cell_angle_gamma   90.00000000
_symmetry_Int_Tables_number   1
_chemical_formula_structural   Sm3GaFeS7
_chemical_formula_sum   'Sm6 Ga2 Fe2 S14'
_cell_volume   515.59257655
_cell_formula_units_Z   2
loop_
 _symmetry_equiv_pos_site_id
 _symmetry_equiv_pos_as_xyz
  1  'x, y, z'
loop_
 _atom_site_type_symbol
 _atom_site_label
 _atom_site_symmetry_multiplicity
 _atom_site_fract_x
 _atom_site_fract_y
 _atom_site_fract_z
 _atom_site_occupancy
  Sm  Sm0  1  0.17966578  0.84983321  0.22418671  1
  Sm  Sm1  1  0.17861683  0.77439224  0.62275137  1
  Sm  Sm2  1  0.17926354  0.37548087  0.15180240  1
  Sm  Sm3  1  0.67966578  0.15016679  0.77581329  1
  Sm  Sm4  1  0.67861683  0.22560776  0.37724863  1
  Sm  Sm5  1  0.67926354  0.62451913  0.84819760  1
  Ga  Ga6  1  0.10442116  0.33325288  0.66679519  1
  Ga  Ga7  1  0.60442116  0.66674712  0.33320481  1
  Fe  Fe8  1  0.49001856  0.99904489  0.99617272  1
  Fe  Fe9  1  0.99001856  0.00095511  0.00382728  1
  S  S10  1  0.45009284  0.57208636  0.09117709  1
  S  S11  1  0.44979807  0.90915569  0.48066082  1
  S  S12  1  0.44999110  0.51913929  0.42850128  1
  S  S13  1  0.95009284  0.42791364  0.90882291  1
  S  S14  1  0.94979807  0.09084431  0.51933918  1
  S  S15  1  0.94999110  0.48086071  0.57149872  1
  S  S16  1  0.47084972  0.33344123  0.66697412  1
  S  S17  1  0.97084972  0.66655877  0.33302588  1
  S  S18  1  0.25619540  0.13621479  0.23313317  1
  S  S19  1  0.25609630  0.76654283  0.90349188  1
  S  S20  1  0.25571070  0.09804279  0.86357858  1
  S  S21  1  0.75619540  0.86378521  0.76686683  1
  S  S22  1  0.75609630  0.23345717  0.09650812  1
  S  S23  1  0.75571070  0.90195721  0.13642142  1
