# generated using pymatgen
data_CsSeO4
_symmetry_space_group_name_H-M   'P 1'
_cell_length_a   7.56978210
_cell_length_b   8.14525993
_cell_length_c   8.75601410
_cell_angle_alpha   90.00000000
_cell_angle_beta   90.00000000
_cell_angle_gamma   107.65915233
_symmetry_Int_Tables_number   1
_chemical_formula_structural   CsSeO4
_chemical_formula_sum   'Cs4 Se4 O16'
_cell_volume   514.43685540
_cell_formula_units_Z   4
loop_
 _symmetry_equiv_pos_site_id
 _symmetry_equiv_pos_as_xyz
  1  'x, y, z'
loop_
 _atom_site_type_symbol
 _atom_site_label
 _atom_site_symmetry_multiplicity
 _atom_site_fract_x
 _atom_site_fract_y
 _atom_site_fract_z
 _atom_site_occupancy
  Cs  Cs0  1  0.70544037  0.21203086  0.37341075  1
  Cs  Cs1  1  0.79455963  0.78796914  0.87341075  1
  Cs  Cs2  1  0.29455963  0.78796914  0.62658925  1
  Cs  Cs3  1  0.20544037  0.21203086  0.12658925  1
  Se  Se4  1  0.78182726  0.74127898  0.36273617  1
  Se  Se5  1  0.71817274  0.25872102  0.86273617  1
  Se  Se6  1  0.21817274  0.25872102  0.63726383  1
  Se  Se7  1  0.28182726  0.74127898  0.13726383  1
  O  O8  1  0.62008397  0.57146858  0.28070396  1
  O  O9  1  0.87991603  0.42853142  0.78070396  1
  O  O10  1  0.37991603  0.42853142  0.71929604  1
  O  O11  1  0.12008397  0.57146858  0.21929604  1
  O  O12  1  0.86703919  0.89794976  0.23946374  1
  O  O13  1  0.63296081  0.10205024  0.73946374  1
  O  O14  1  0.13296081  0.10205024  0.76053626  1
  O  O15  1  0.36703919  0.89794976  0.26053626  1
  O  O16  1  0.94731211  0.65303031  0.42688853  1
  O  O17  1  0.55268789  0.34696969  0.92688853  1
  O  O18  1  0.05268789  0.34696969  0.57311147  1
  O  O19  1  0.44731211  0.65303031  0.07311147  1
  O  O20  1  0.70111494  0.80865837  0.52014246  1
  O  O21  1  0.79888506  0.19134163  0.02014246  1
  O  O22  1  0.29888506  0.19134163  0.47985754  1
  O  O23  1  0.20111494  0.80865837  0.97985754  1
