# generated using pymatgen
data_Dy3BeCrS7
_symmetry_space_group_name_H-M   'P 1'
_cell_length_a   6.01622843
_cell_length_b   9.58412164
_cell_length_c   9.58392960
_cell_angle_alpha   119.99991678
_cell_angle_beta   90.00000000
_cell_angle_gamma   90.00000000
_symmetry_Int_Tables_number   1
_chemical_formula_structural   Dy3BeCrS7
_chemical_formula_sum   'Dy6 Be2 Cr2 S14'
_cell_volume   478.57636398
_cell_formula_units_Z   2
loop_
 _symmetry_equiv_pos_site_id
 _symmetry_equiv_pos_as_xyz
  1  'x, y, z'
loop_
 _atom_site_type_symbol
 _atom_site_label
 _atom_site_symmetry_multiplicity
 _atom_site_fract_x
 _atom_site_fract_y
 _atom_site_fract_z
 _atom_site_occupancy
  Dy  Dy0  1  0.26612906  0.24388837  0.39273887  1
  Dy  Dy1  1  0.26616338  0.60726250  0.85115727  1
  Dy  Dy2  1  0.26619256  0.14884626  0.75611361  1
  Dy  Dy3  1  0.76612906  0.75611163  0.60726113  1
  Dy  Dy4  1  0.76616338  0.39273750  0.14884273  1
  Dy  Dy5  1  0.76619256  0.85115374  0.24388639  1
  Be  Be6  1  0.85015234  0.33333257  0.66667237  1
  Be  Be7  1  0.35015234  0.66666743  0.33332763  1
  Cr  Cr8  1  0.45932665  0.00002035  0.00012439  1
  Cr  Cr9  1  0.95932665  -0.00002035  -0.00012439  1
  S  S10  1  0.70033561  0.13797739  0.22743306  1
  S  S11  1  0.70034198  0.77256212  0.91053997  1
  S  S12  1  0.70031144  0.08945522  0.86201623  1
  S  S13  1  0.20033561  0.86202261  0.77256694  1
  S  S14  1  0.20034198  0.22743788  0.08946003  1
  S  S15  1  0.20031144  0.91054478  0.13798377  1
  S  S16  1  0.98633503  0.10209285  0.52061721  1
  S  S17  1  0.98632944  0.47939947  0.58149542  1
  S  S18  1  0.98634057  0.41850658  0.89791700  1
  S  S19  1  0.48633503  0.89790715  0.47938279  1
  S  S20  1  0.48632944  0.52060053  0.41850458  1
  S  S21  1  0.48634057  0.58149342  0.10208300  1
  S  S22  1  0.50004193  0.33333150  0.66665476  1
  S  S23  1  0.00004193  0.66666850  0.33334524  1
