# generated using pymatgen
data_Eu(SbSe2)2
_symmetry_space_group_name_H-M   'P 1'
_cell_length_a   4.15365490
_cell_length_b   12.27889347
_cell_length_c   15.26268434
_cell_angle_alpha   90.00000000
_cell_angle_beta   90.00000000
_cell_angle_gamma   90.00000000
_symmetry_Int_Tables_number   1
_chemical_formula_structural   Eu(SbSe2)2
_chemical_formula_sum   'Eu4 Sb8 Se16'
_cell_volume   778.43179227
_cell_formula_units_Z   4
loop_
 _symmetry_equiv_pos_site_id
 _symmetry_equiv_pos_as_xyz
  1  'x, y, z'
loop_
 _atom_site_type_symbol
 _atom_site_label
 _atom_site_symmetry_multiplicity
 _atom_site_fract_x
 _atom_site_fract_y
 _atom_site_fract_z
 _atom_site_occupancy
  Eu  Eu0  1  0.75000000  0.24833380  0.15772316  1
  Eu  Eu1  1  0.75000000  0.74833380  0.34227684  1
  Eu  Eu2  1  0.25000000  0.75166620  0.84227684  1
  Eu  Eu3  1  0.25000000  0.25166620  0.65772316  1
  Sb  Sb4  1  0.75000000  0.43592955  0.89633716  1
  Sb  Sb5  1  0.75000000  0.93592955  0.60366284  1
  Sb  Sb6  1  0.25000000  0.56407045  0.10366284  1
  Sb  Sb7  1  0.25000000  0.06407045  0.39633716  1
  Sb  Sb8  1  0.75000000  0.40965322  0.39346432  1
  Sb  Sb9  1  0.75000000  0.90965322  0.10653568  1
  Sb  Sb10  1  0.25000000  0.59034678  0.60653568  1
  Sb  Sb11  1  0.25000000  0.09034678  0.89346432  1
  Se  Se12  1  0.75000000  0.14919775  0.52417538  1
  Se  Se13  1  0.75000000  0.64919775  0.97582462  1
  Se  Se14  1  0.25000000  0.85080225  0.47582462  1
  Se  Se15  1  0.25000000  0.35080225  0.02417538  1
  Se  Se16  1  0.75000000  0.22730856  0.81407118  1
  Se  Se17  1  0.75000000  0.72730856  0.68592882  1
  Se  Se18  1  0.25000000  0.77269144  0.18592882  1
  Se  Se19  1  0.25000000  0.27269144  0.31407118  1
  Se  Se20  1  0.75000000  0.42682722  0.58704644  1
  Se  Se21  1  0.75000000  0.92682722  0.91295356  1
  Se  Se22  1  0.25000000  0.57317278  0.41295356  1
  Se  Se23  1  0.25000000  0.07317278  0.08704644  1
  Se  Se24  1  0.75000000  0.49637327  0.21491096  1
  Se  Se25  1  0.75000000  0.99637327  0.28508904  1
  Se  Se26  1  0.25000000  0.50362673  0.78508904  1
  Se  Se27  1  0.25000000  0.00362673  0.71491096  1
