# generated using pymatgen
data_La3GaCoS7
_symmetry_space_group_name_H-M   'P 1'
_cell_length_a   5.97839991
_cell_length_b   10.16520205
_cell_length_c   10.16505413
_cell_angle_alpha   119.99636308
_cell_angle_beta   90.00000000
_cell_angle_gamma   90.00000000
_symmetry_Int_Tables_number   1
_chemical_formula_structural   La3GaCoS7
_chemical_formula_sum   'La6 Ga2 Co2 S14'
_cell_volume   535.00423522
_cell_formula_units_Z   2
loop_
 _symmetry_equiv_pos_site_id
 _symmetry_equiv_pos_as_xyz
  1  'x, y, z'
loop_
 _atom_site_type_symbol
 _atom_site_label
 _atom_site_symmetry_multiplicity
 _atom_site_fract_x
 _atom_site_fract_y
 _atom_site_fract_z
 _atom_site_occupancy
  La  La0  1  0.28076666  0.85954685  0.22996920  1
  La  La1  1  0.28061691  0.77021964  0.62966592  1
  La  La2  1  0.28037772  0.36993743  0.14029365  1
  La  La3  1  0.78076666  0.14045315  0.77003080  1
  La  La4  1  0.78061691  0.22978036  0.37033408  1
  La  La5  1  0.78037772  0.63006257  0.85970635  1
  Ga  Ga6  1  0.36106230  0.33333862  0.66673371  1
  Ga  Ga7  1  0.86106230  0.66666138  0.33326629  1
  Co  Co8  1  0.49819542  0.99992730  0.99995344  1
  Co  Co9  1  0.99819542  0.00007270  0.00004656  1
  S  S10  1  0.24063575  0.13654788  0.22166859  1
  S  S11  1  0.24070046  0.77902496  0.91523781  1
  S  S12  1  0.24060913  0.08506909  0.86323263  1
  S  S13  1  0.74063575  0.86345212  0.77833141  1
  S  S14  1  0.74070046  0.22097504  0.08476219  1
  S  S15  1  0.74060913  0.91493091  0.13676737  1
  S  S16  1  0.00790609  0.57864508  0.09530178  1
  S  S17  1  0.00802521  0.90475919  0.48340256  1
  S  S18  1  0.00784659  0.51652874  0.42112283  1
  S  S19  1  0.50790609  0.42135492  0.90469822  1
  S  S20  1  0.50802521  0.09524081  0.51659744  1
  S  S21  1  0.50784659  0.48347126  0.57887717  1
  S  S22  1  0.98624776  0.33346568  0.66665027  1
  S  S23  1  0.48624776  0.66653432  0.33334973  1
