# generated using pymatgen
data_NaLiB2(H5N)2
_symmetry_space_group_name_H-M   'P 1'
_cell_length_a   5.43082105
_cell_length_b   7.29333890
_cell_length_c   14.80956863
_cell_angle_alpha   90.00000000
_cell_angle_beta   90.00000000
_cell_angle_gamma   90.00000000
_symmetry_Int_Tables_number   1
_chemical_formula_structural   NaLiB2(H5N)2
_chemical_formula_sum   'Na4 Li4 B8 H40 N8'
_cell_volume   586.58951479
_cell_formula_units_Z   4
loop_
 _symmetry_equiv_pos_site_id
 _symmetry_equiv_pos_as_xyz
  1  'x, y, z'
loop_
 _atom_site_type_symbol
 _atom_site_label
 _atom_site_symmetry_multiplicity
 _atom_site_fract_x
 _atom_site_fract_y
 _atom_site_fract_z
 _atom_site_occupancy
  Na  Na0  1  0.43335084  0.69783639  0.83175437  1
  Na  Na1  1  0.93335084  0.30216361  0.16824563  1
  Na  Na2  1  0.93335084  0.69783639  0.66824563  1
  Na  Na3  1  0.43335084  0.30216361  0.33175437  1
  Li  Li4  1  0.06416488  0.18237233  0.82257880  1
  Li  Li5  1  0.56416488  0.81762767  0.17742120  1
  Li  Li6  1  0.56416488  0.18237233  0.67742120  1
  Li  Li7  1  0.06416488  0.81762767  0.32257880  1
  B  B8  1  0.03571069  0.31367045  0.66083313  1
  B  B9  1  0.53571069  0.68632955  0.33916687  1
  B  B10  1  0.53571069  0.31367045  0.83916687  1
  B  B11  1  0.03571069  0.68632955  0.16083313  1
  B  B12  1  0.94974344  0.84122559  0.85844699  1
  B  B13  1  0.44974344  0.15877441  0.14155301  1
  B  B14  1  0.44974344  0.84122559  0.64155301  1
  B  B15  1  0.94974344  0.15877441  0.35844699  1
  H  H16  1  0.24986975  0.23122967  0.54432378  1
  H  H17  1  0.74986975  0.76877033  0.45567622  1
  H  H18  1  0.74986975  0.23122967  0.95567622  1
  H  H19  1  0.24986975  0.76877033  0.04432378  1
  H  H20  1  0.33912314  0.42463241  0.58658203  1
  H  H21  1  0.83912314  0.57536759  0.41341797  1
  H  H22  1  0.83912314  0.42463241  0.91341797  1
  H  H23  1  0.33912314  0.57536759  0.08658203  1
  H  H24  1  0.07586128  0.40830112  0.72834613  1
  H  H25  1  0.57586128  0.59169888  0.27165387  1
  H  H26  1  0.57586128  0.40830112  0.77165387  1
  H  H27  1  0.07586128  0.59169888  0.22834613  1
  H  H28  1  0.96671831  0.16051980  0.68698562  1
  H  H29  1  0.46671831  0.83948020  0.31301438  1
  H  H30  1  0.46671831  0.16051980  0.81301438  1
  H  H31  1  0.96671831  0.83948020  0.18698562  1
  H  H32  1  0.85584598  0.38287029  0.62079232  1
  H  H33  1  0.35584598  0.61712971  0.37920768  1
  H  H34  1  0.35584598  0.38287029  0.87920768  1
  H  H35  1  0.85584598  0.61712971  0.12079232  1
  H  H36  1  0.80477469  0.73646656  0.98495335  1
  H  H37  1  0.30477469  0.26353344  0.01504665  1
  H  H38  1  0.30477469  0.73646656  0.51504665  1
  H  H39  1  0.80477469  0.26353344  0.48495335  1
  H  H40  1  0.68086338  0.92998274  0.95656505  1
  H  H41  1  0.18086338  0.07001726  0.04343495  1
  H  H42  1  0.18086338  0.92998274  0.54343495  1
  H  H43  1  0.68086338  0.07001726  0.45656505  1
  H  H44  1  0.86496415  0.92732039  0.79358040  1
  H  H45  1  0.36496415  0.07267961  0.20641960  1
  H  H46  1  0.36496415  0.92732039  0.70641960  1
  H  H47  1  0.86496415  0.07267961  0.29358040  1
  H  H48  1  0.01787094  0.68994587  0.82951849  1
  H  H49  1  0.51787094  0.31005413  0.17048151  1
  H  H50  1  0.51787094  0.68994587  0.67048151  1
  H  H51  1  0.01787094  0.31005413  0.32951849  1
  H  H52  1  0.13767330  0.92562391  0.88423320  1
  H  H53  1  0.63767330  0.07437609  0.11576680  1
  H  H54  1  0.63767330  0.92562391  0.61576680  1
  H  H55  1  0.13767330  0.07437609  0.38423320  1
  N  N56  1  0.27703349  0.29742125  0.60450456  1
  N  N57  1  0.77703349  0.70257875  0.39549544  1
  N  N58  1  0.77703349  0.29742125  0.89549544  1
  N  N59  1  0.27703349  0.70257875  0.10450456  1
  N  N60  1  0.74642175  0.81041757  0.93030520  1
  N  N61  1  0.24642175  0.18958243  0.06969480  1
  N  N62  1  0.24642175  0.81041757  0.56969480  1
  N  N63  1  0.74642175  0.18958243  0.43030520  1
