# generated using pymatgen
data_CdCuAsHO5
_symmetry_space_group_name_H-M   'P 1'
_cell_length_a   6.04523332
_cell_length_b   7.43469233
_cell_length_c   9.27221587
_cell_angle_alpha   90.00000000
_cell_angle_beta   90.00000000
_cell_angle_gamma   90.00000000
_symmetry_Int_Tables_number   1
_chemical_formula_structural   CdCuAsHO5
_chemical_formula_sum   'Cd4 Cu4 As4 H4 O20'
_cell_volume   416.73464068
_cell_formula_units_Z   4
loop_
 _symmetry_equiv_pos_site_id
 _symmetry_equiv_pos_as_xyz
  1  'x, y, z'
loop_
 _atom_site_type_symbol
 _atom_site_label
 _atom_site_symmetry_multiplicity
 _atom_site_fract_x
 _atom_site_fract_y
 _atom_site_fract_z
 _atom_site_occupancy
  Cd  Cd0  1  0.25000000  0.62090433  0.31613310  1
  Cd  Cd1  1  0.25000000  0.12090433  0.18386690  1
  Cd  Cd2  1  0.75000000  0.37909567  0.68386690  1
  Cd  Cd3  1  0.75000000  0.87909567  0.81613310  1
  Cu  Cu4  1  0.50000000  0.50000000  -0.00000000  1
  Cu  Cu5  1  -0.00000000  0.00000000  0.50000000  1
  Cu  Cu6  1  0.00000000  0.50000000  0.00000000  1
  Cu  Cu7  1  0.50000000  -0.00000000  0.50000000  1
  As  As8  1  0.25000000  0.63026061  0.65907184  1
  As  As9  1  0.25000000  0.13026061  0.84092816  1
  As  As10  1  0.75000000  0.36973939  0.34092816  1
  As  As11  1  0.75000000  0.86973939  0.15907184  1
  H  H12  1  0.25000000  0.75918251  0.03021406  1
  H  H13  1  0.25000000  0.25918251  0.46978594  1
  H  H14  1  0.75000000  0.24081749  0.96978594  1
  H  H15  1  0.75000000  0.74081749  0.53021406  1
  O  O16  1  0.51179701  0.37441005  0.23869813  1
  O  O17  1  0.98820299  0.87441005  0.26130187  1
  O  O18  1  0.01179701  0.62558995  0.76130187  1
  O  O19  1  0.48820299  0.12558995  0.73869813  1
  O  O20  1  0.48820299  0.62558995  0.76130187  1
  O  O21  1  0.01179701  0.12558995  0.73869813  1
  O  O22  1  0.98820299  0.37441005  0.23869813  1
  O  O23  1  0.51179701  0.87441005  0.26130187  1
  O  O24  1  0.25000000  0.46423305  0.53034841  1
  O  O25  1  0.25000000  0.96423305  0.96965159  1
  O  O26  1  0.75000000  0.53576695  0.46965159  1
  O  O27  1  0.75000000  0.03576695  0.03034841  1
  O  O28  1  0.25000000  0.82580616  0.54720698  1
  O  O29  1  0.25000000  0.32580616  0.95279302  1
  O  O30  1  0.75000000  0.17419384  0.45279302  1
  O  O31  1  0.75000000  0.67419384  0.04720698  1
  O  O32  1  0.25000000  0.63325286  0.06865388  1
  O  O33  1  0.25000000  0.13325286  0.43134612  1
  O  O34  1  0.75000000  0.36674714  0.93134612  1
  O  O35  1  0.75000000  0.86674714  0.56865388  1
