# generated using pymatgen
data_CoH12C2(I2N)2
_symmetry_space_group_name_H-M   'P 1'
_cell_length_a   11.52231820
_cell_length_b   12.28664917
_cell_length_c   21.38525530
_cell_angle_alpha   90.00000000
_cell_angle_beta   90.00000000
_cell_angle_gamma   90.00000000
_symmetry_Int_Tables_number   1
_chemical_formula_structural   CoH12C2(I2N)2
_chemical_formula_sum   'Co8 H96 C16 I32 N16'
_cell_volume   3027.52516363
_cell_formula_units_Z   8
loop_
 _symmetry_equiv_pos_site_id
 _symmetry_equiv_pos_as_xyz
  1  'x, y, z'
loop_
 _atom_site_type_symbol
 _atom_site_label
 _atom_site_symmetry_multiplicity
 _atom_site_fract_x
 _atom_site_fract_y
 _atom_site_fract_z
 _atom_site_occupancy
  Co  Co0  1  0.94373054  0.11618800  0.36248720  1
  Co  Co1  1  0.44373054  0.38381200  0.63751280  1
  Co  Co2  1  0.05626946  0.61618800  0.13751280  1
  Co  Co3  1  0.55626946  0.88381200  0.86248720  1
  Co  Co4  1  0.05626946  0.88381200  0.63751280  1
  Co  Co5  1  0.55626946  0.61618800  0.36248720  1
  Co  Co6  1  0.94373054  0.38381200  0.86248720  1
  Co  Co7  1  0.44373054  0.11618800  0.13751280  1
  H  H8  1  0.17651847  0.10988207  0.47211450  1
  H  H9  1  0.67651847  0.39011793  0.52788550  1
  H  H10  1  0.82348153  0.60988207  0.02788550  1
  H  H11  1  0.32348153  0.89011793  0.97211450  1
  H  H12  1  0.82348153  0.89011793  0.52788550  1
  H  H13  1  0.32348153  0.60988207  0.47211450  1
  H  H14  1  0.17651847  0.39011793  0.97211450  1
  H  H15  1  0.67651847  0.10988207  0.02788550  1
  H  H16  1  0.25535757  0.04686931  0.52682894  1
  H  H17  1  0.75535757  0.45313069  0.47317106  1
  H  H18  1  0.74464243  0.54686931  0.97317106  1
  H  H19  1  0.24464243  0.95313069  0.02682894  1
  H  H20  1  0.74464243  0.95313069  0.47317106  1
  H  H21  1  0.24464243  0.54686931  0.52682894  1
  H  H22  1  0.25535757  0.45313069  0.02682894  1
  H  H23  1  0.75535757  0.04686931  0.97317106  1
  H  H24  1  0.25502215  0.18384936  0.52190097  1
  H  H25  1  0.75502215  0.31615064  0.47809903  1
  H  H26  1  0.74497785  0.68384936  0.97809903  1
  H  H27  1  0.24497785  0.81615064  0.02190097  1
  H  H28  1  0.74497785  0.81615064  0.47809903  1
  H  H29  1  0.24497785  0.68384936  0.52190097  1
  H  H30  1  0.25502215  0.31615064  0.02190097  1
  H  H31  1  0.75502215  0.18384936  0.97809903  1
  H  H32  1  0.16614484  0.30256654  0.27922829  1
  H  H33  1  0.66614484  0.19743346  0.72077171  1
  H  H34  1  0.83385516  0.80256654  0.22077171  1
  H  H35  1  0.33385516  0.69743346  0.77922829  1
  H  H36  1  0.83385516  0.69743346  0.72077171  1
  H  H37  1  0.33385516  0.80256654  0.27922829  1
  H  H38  1  0.16614484  0.19743346  0.77922829  1
  H  H39  1  0.66614484  0.30256654  0.22077171  1
  H  H40  1  0.11241373  0.36828271  0.21750857  1
  H  H41  1  0.61241373  0.13171729  0.78249143  1
  H  H42  1  0.88758627  0.86828271  0.28249143  1
  H  H43  1  0.38758627  0.63171729  0.71750857  1
  H  H44  1  0.88758627  0.63171729  0.78249143  1
  H  H45  1  0.38758627  0.86828271  0.21750857  1
  H  H46  1  0.11241373  0.13171729  0.71750857  1
  H  H47  1  0.61241373  0.36828271  0.28249143  1
  H  H48  1  0.18681474  0.25355133  0.20693270  1
  H  H49  1  0.68681474  0.24644867  0.79306730  1
  H  H50  1  0.81318526  0.75355133  0.29306730  1
  H  H51  1  0.31318526  0.74644867  0.70693270  1
  H  H52  1  0.81318526  0.74644867  0.79306730  1
  H  H53  1  0.31318526  0.75355133  0.20693270  1
  H  H54  1  0.18681474  0.24644867  0.70693270  1
  H  H55  1  0.68681474  0.25355133  0.29306730  1
  H  H56  1  0.39824636  0.18607120  0.44990805  1
  H  H57  1  0.89824636  0.31392880  0.55009195  1
  H  H58  1  0.60175364  0.68607120  0.05009195  1
  H  H59  1  0.10175364  0.81392880  0.94990805  1
  H  H60  1  0.60175364  0.81392880  0.55009195  1
  H  H61  1  0.10175364  0.68607120  0.44990805  1
  H  H62  1  0.39824636  0.31392880  0.94990805  1
  H  H63  1  0.89824636  0.18607120  0.05009195  1
  H  H64  1  0.41458895  0.04334692  0.46606277  1
  H  H65  1  0.91458895  0.45665308  0.53393723  1
  H  H66  1  0.58541105  0.54334692  0.03393723  1
  H  H67  1  0.08541105  0.95665308  0.96606277  1
  H  H68  1  0.58541105  0.95665308  0.53393723  1
  H  H69  1  0.08541105  0.54334692  0.46606277  1
  H  H70  1  0.41458895  0.45665308  0.96606277  1
  H  H71  1  0.91458895  0.04334692  0.03393723  1
  H  H72  1  0.32146177  0.08747184  0.40437787  1
  H  H73  1  0.82146177  0.41252816  0.59562213  1
  H  H74  1  0.67853823  0.58747184  0.09562213  1
  H  H75  1  0.17853823  0.91252816  0.90437787  1
  H  H76  1  0.67853823  0.91252816  0.59562213  1
  H  H77  1  0.17853823  0.58747184  0.40437787  1
  H  H78  1  0.32146177  0.41252816  0.90437787  1
  H  H79  1  0.82146177  0.08747184  0.09562213  1
  H  H80  1  0.64390003  0.84168382  0.29960675  1
  H  H81  1  0.14390003  0.65831618  0.70039325  1
  H  H82  1  0.35609997  0.34168382  0.20039325  1
  H  H83  1  0.85609997  0.15831618  0.79960675  1
  H  H84  1  0.35609997  0.15831618  0.70039325  1
  H  H85  1  0.85609997  0.34168382  0.29960675  1
  H  H86  1  0.64390003  0.65831618  0.79960675  1
  H  H87  1  0.14390003  0.84168382  0.20039325  1
  H  H88  1  0.72795917  0.96475982  0.29935037  1
  H  H89  1  0.22795917  0.53524018  0.70064963  1
  H  H90  1  0.27204083  0.46475982  0.20064963  1
  H  H91  1  0.77204083  0.03524018  0.79935037  1
  H  H92  1  0.27204083  0.03524018  0.70064963  1
  H  H93  1  0.77204083  0.46475982  0.29935037  1
  H  H94  1  0.72795917  0.53524018  0.79935037  1
  H  H95  1  0.22795917  0.96475982  0.20064963  1
  H  H96  1  0.67377014  0.91069301  0.22751897  1
  H  H97  1  0.17377014  0.58930699  0.77248103  1
  H  H98  1  0.32622986  0.41069301  0.27248103  1
  H  H99  1  0.82622986  0.08930699  0.72751897  1
  H  H100  1  0.32622986  0.08930699  0.77248103  1
  H  H101  1  0.82622986  0.41069301  0.22751897  1
  H  H102  1  0.67377014  0.58930699  0.72751897  1
  H  H103  1  0.17377014  0.91069301  0.27248103  1
  C  C104  1  0.35480434  0.10714347  0.45100122  1
  C  C105  1  0.85480434  0.39285653  0.54899878  1
  C  C106  1  0.64519566  0.60714347  0.04899878  1
  C  C107  1  0.14519566  0.89285653  0.95100122  1
  C  C108  1  0.64519566  0.89285653  0.54899878  1
  C  C109  1  0.14519566  0.60714347  0.45100122  1
  C  C110  1  0.35480434  0.39285653  0.95100122  1
  C  C111  1  0.85480434  0.10714347  0.04899878  1
  C  C112  1  0.70734593  0.89003945  0.27380907  1
  C  C113  1  0.20734593  0.60996055  0.72619093  1
  C  C114  1  0.29265407  0.39003945  0.22619093  1
  C  C115  1  0.79265407  0.10996055  0.77380907  1
  C  C116  1  0.29265407  0.10996055  0.72619093  1
  C  C117  1  0.79265407  0.39003945  0.27380907  1
  C  C118  1  0.70734593  0.60996055  0.77380907  1
  C  C119  1  0.20734593  0.89003945  0.22619093  1
  I  I120  1  0.93798527  0.10975643  0.24215837  1
  I  I121  1  0.43798527  0.39024357  0.75784163  1
  I  I122  1  0.06201473  0.60975643  0.25784163  1
  I  I123  1  0.56201473  0.89024357  0.74215837  1
  I  I124  1  0.06201473  0.89024357  0.75784163  1
  I  I125  1  0.56201473  0.60975643  0.24215837  1
  I  I126  1  0.93798527  0.39024357  0.74215837  1
  I  I127  1  0.43798527  0.10975643  0.25784163  1
  I  I128  1  0.73469432  0.14082931  0.40944924  1
  I  I129  1  0.23469432  0.35917069  0.59055076  1
  I  I130  1  0.26530568  0.64082931  0.09055076  1
  I  I131  1  0.76530568  0.85917069  0.90944924  1
  I  I132  1  0.26530568  0.85917069  0.59055076  1
  I  I133  1  0.76530568  0.64082931  0.40944924  1
  I  I134  1  0.73469432  0.35917069  0.90944924  1
  I  I135  1  0.23469432  0.14082931  0.09055076  1
  I  I136  1  0.07332385  0.27998239  0.39396024  1
  I  I137  1  0.57332385  0.22001761  0.60603976  1
  I  I138  1  0.92667615  0.77998239  0.10603976  1
  I  I139  1  0.42667615  0.72001761  0.89396024  1
  I  I140  1  0.92667615  0.72001761  0.60603976  1
  I  I141  1  0.42667615  0.77998239  0.39396024  1
  I  I142  1  0.07332385  0.22001761  0.89396024  1
  I  I143  1  0.57332385  0.27998239  0.10603976  1
  I  I144  1  0.03053811  0.93567719  0.40057536  1
  I  I145  1  0.53053811  0.56432281  0.59942464  1
  I  I146  1  0.96946189  0.43567719  0.09942464  1
  I  I147  1  0.46946189  0.06432281  0.90057536  1
  I  I148  1  0.96946189  0.06432281  0.59942464  1
  I  I149  1  0.46946189  0.43567719  0.40057536  1
  I  I150  1  0.03053811  0.56432281  0.90057536  1
  I  I151  1  0.53053811  0.93567719  0.09942464  1
  N  N152  1  0.25454978  0.11214760  0.49588462  1
  N  N153  1  0.75454978  0.38785240  0.50411538  1
  N  N154  1  0.74545022  0.61214760  0.00411538  1
  N  N155  1  0.24545022  0.88785240  0.99588462  1
  N  N156  1  0.74545022  0.88785240  0.50411538  1
  N  N157  1  0.24545022  0.61214760  0.49588462  1
  N  N158  1  0.25454978  0.38785240  0.99588462  1
  N  N159  1  0.75454978  0.11214760  0.00411538  1
  N  N160  1  0.18287945  0.32417129  0.23310240  1
  N  N161  1  0.68287945  0.17582871  0.76689760  1
  N  N162  1  0.81712055  0.82417129  0.26689760  1
  N  N163  1  0.31712055  0.67582871  0.73310240  1
  N  N164  1  0.81712055  0.67582871  0.76689760  1
  N  N165  1  0.31712055  0.82417129  0.23310240  1
  N  N166  1  0.18287945  0.17582871  0.73310240  1
  N  N167  1  0.68287945  0.32417129  0.26689760  1
