# generated using pymatgen
data_Ba2V2CuClO8
_symmetry_space_group_name_H-M   'P 1'
_cell_length_a   6.16339653
_cell_length_b   9.69581919
_cell_length_c   15.20983791
_cell_angle_alpha   90.00000000
_cell_angle_beta   90.00000000
_cell_angle_gamma   90.00000000
_symmetry_Int_Tables_number   1
_chemical_formula_structural   Ba2V2CuClO8
_chemical_formula_sum   'Ba8 V8 Cu4 Cl4 O32'
_cell_volume   908.92741636
_cell_formula_units_Z   4
loop_
 _symmetry_equiv_pos_site_id
 _symmetry_equiv_pos_as_xyz
  1  'x, y, z'
loop_
 _atom_site_type_symbol
 _atom_site_label
 _atom_site_symmetry_multiplicity
 _atom_site_fract_x
 _atom_site_fract_y
 _atom_site_fract_z
 _atom_site_occupancy
  Ba  Ba0  1  0.75000000  0.13761539  0.53671456  1
  Ba  Ba1  1  0.75000000  0.36238461  0.03671456  1
  Ba  Ba2  1  0.25000000  0.86238461  0.46328544  1
  Ba  Ba3  1  0.25000000  0.63761539  0.96328544  1
  Ba  Ba4  1  0.75000000  0.45382812  0.75362278  1
  Ba  Ba5  1  0.75000000  0.04617188  0.25362278  1
  Ba  Ba6  1  0.25000000  0.54617188  0.24637722  1
  Ba  Ba7  1  0.25000000  0.95382812  0.74637722  1
  V  V8  1  0.25000000  0.28559093  0.63413840  1
  V  V9  1  0.25000000  0.21440907  0.13413840  1
  V  V10  1  0.75000000  0.71440907  0.36586160  1
  V  V11  1  0.75000000  0.78559093  0.86586160  1
  V  V12  1  0.25000000  0.28720896  0.87025597  1
  V  V13  1  0.25000000  0.21279104  0.37025597  1
  V  V14  1  0.75000000  0.71279104  0.12974403  1
  V  V15  1  0.75000000  0.78720896  0.62974403  1
  Cu  Cu16  1  -0.00000000  0.50000000  0.50000000  1
  Cu  Cu17  1  0.50000000  -0.00000000  0.00000000  1
  Cu  Cu18  1  0.50000000  0.50000000  0.50000000  1
  Cu  Cu19  1  0.00000000  -0.00000000  0.00000000  1
  Cl  Cl20  1  0.25000000  0.61623605  0.75620277  1
  Cl  Cl21  1  0.25000000  0.88376395  0.25620277  1
  Cl  Cl22  1  0.75000000  0.38376395  0.24379723  1
  Cl  Cl23  1  0.75000000  0.11623605  0.74379723  1
  O  O24  1  0.25000000  0.12622423  0.58943878  1
  O  O25  1  0.25000000  0.37377577  0.08943878  1
  O  O26  1  0.75000000  0.87377577  0.41056122  1
  O  O27  1  0.75000000  0.62622423  0.91056122  1
  O  O28  1  0.01232968  0.36869955  0.60195250  1
  O  O29  1  0.48767032  0.13130045  0.10195250  1
  O  O30  1  0.51232968  0.63130045  0.39804750  1
  O  O31  1  0.98767032  0.86869955  0.89804750  1
  O  O32  1  0.98767032  0.63130045  0.39804750  1
  O  O33  1  0.51232968  0.86869955  0.89804750  1
  O  O34  1  0.48767032  0.36869955  0.60195250  1
  O  O35  1  0.01232968  0.13130045  0.10195250  1
  O  O36  1  0.47582398  0.38011693  0.89875699  1
  O  O37  1  0.02417602  0.11988307  0.39875699  1
  O  O38  1  0.97582398  0.61988307  0.10124301  1
  O  O39  1  0.52417602  0.88011693  0.60124301  1
  O  O40  1  0.52417602  0.61988307  0.10124301  1
  O  O41  1  0.97582398  0.88011693  0.60124301  1
  O  O42  1  0.02417602  0.38011693  0.89875699  1
  O  O43  1  0.47582398  0.11988307  0.39875699  1
  O  O44  1  0.25000000  0.25404162  0.75081111  1
  O  O45  1  0.25000000  0.24595838  0.25081111  1
  O  O46  1  0.75000000  0.74595838  0.24918889  1
  O  O47  1  0.75000000  0.75404162  0.74918889  1
  O  O48  1  0.75000000  0.62787206  0.58211035  1
  O  O49  1  0.75000000  0.87212794  0.08211035  1
  O  O50  1  0.25000000  0.37212794  0.41788965  1
  O  O51  1  0.25000000  0.12787206  0.91788965  1
  O  O52  1  0.25000000  0.58560209  0.53371456  1
  O  O53  1  0.25000000  0.91439791  0.03371456  1
  O  O54  1  0.75000000  0.41439791  0.46628544  1
  O  O55  1  0.75000000  0.08560209  0.96628544  1
