# generated using pymatgen
data_Mg10Si3(O7F2)2
_symmetry_space_group_name_H-M   'P 1'
_cell_length_a   5.09981102
_cell_length_b   8.74149118
_cell_length_c   14.10028638
_cell_angle_alpha   90.00000000
_cell_angle_beta   90.00000000
_cell_angle_gamma   90.00000000
_symmetry_Int_Tables_number   1
_chemical_formula_structural   Mg10Si3(O7F2)2
_chemical_formula_sum   'Mg20 Si6 O28 F8'
_cell_volume   628.59010483
_cell_formula_units_Z   2
loop_
 _symmetry_equiv_pos_site_id
 _symmetry_equiv_pos_as_xyz
  1  'x, y, z'
loop_
 _atom_site_type_symbol
 _atom_site_label
 _atom_site_symmetry_multiplicity
 _atom_site_fract_x
 _atom_site_fract_y
 _atom_site_fract_z
 _atom_site_occupancy
  Mg  Mg0  1  0.33386302  0.50000000  0.67116469  1
  Mg  Mg1  1  0.66613698  0.50000000  0.32883531  1
  Mg  Mg2  1  0.83386302  -0.00000000  0.82883531  1
  Mg  Mg3  1  0.16613698  -0.00000000  0.17116469  1
  Mg  Mg4  1  0.34749479  0.17970235  0.82435823  1
  Mg  Mg5  1  0.65250521  0.17970235  0.17564177  1
  Mg  Mg6  1  0.84749479  0.32029765  0.67564177  1
  Mg  Mg7  1  0.15250521  0.32029765  0.32435823  1
  Mg  Mg8  1  0.65250521  0.82029765  0.17564177  1
  Mg  Mg9  1  0.34749479  0.82029765  0.82435823  1
  Mg  Mg10  1  0.15250521  0.67970235  0.32435823  1
  Mg  Mg11  1  0.84749479  0.67970235  0.67564177  1
  Mg  Mg12  1  0.00000000  0.18299458  -0.00000000  1
  Mg  Mg13  1  0.50000000  0.31700542  0.50000000  1
  Mg  Mg14  1  0.00000000  0.81700542  -0.00000000  1
  Mg  Mg15  1  0.50000000  0.68299458  0.50000000  1
  Mg  Mg16  1  0.00000000  0.15345012  0.50000000  1
  Mg  Mg17  1  0.50000000  0.34654988  -0.00000000  1
  Mg  Mg18  1  0.00000000  0.84654988  0.50000000  1
  Mg  Mg19  1  0.50000000  0.65345012  -0.00000000  1
  Si  Si20  1  0.00000000  0.50000000  0.50000000  1
  Si  Si21  1  0.50000000  -0.00000000  -0.00000000  1
  Si  Si22  1  0.00883297  0.50000000  0.87607182  1
  Si  Si23  1  0.99116703  0.50000000  0.12392818  1
  Si  Si24  1  0.50883297  -0.00000000  0.62392818  1
  Si  Si25  1  0.49116703  -0.00000000  0.37607182  1
  O  O26  1  0.17092017  0.34162956  0.90980704  1
  O  O27  1  0.82907983  0.34162956  0.09019296  1
  O  O28  1  0.67092017  0.15837044  0.59019296  1
  O  O29  1  0.32907983  0.15837044  0.40980704  1
  O  O30  1  0.82907983  0.65837044  0.09019296  1
  O  O31  1  0.17092017  0.65837044  0.90980704  1
  O  O32  1  0.32907983  0.84162956  0.40980704  1
  O  O33  1  0.67092017  0.84162956  0.59019296  1
  O  O34  1  0.00810668  0.50000000  0.75671312  1
  O  O35  1  0.99189332  0.50000000  0.24328688  1
  O  O36  1  0.50810668  -0.00000000  0.74328688  1
  O  O37  1  0.49189332  -0.00000000  0.25671312  1
  O  O38  1  0.71356363  0.50000000  0.92048632  1
  O  O39  1  0.28643637  0.50000000  0.07951368  1
  O  O40  1  0.21356363  -0.00000000  0.57951368  1
  O  O41  1  0.78643637  -0.00000000  0.42048632  1
  O  O42  1  0.14519981  0.35451039  0.57326383  1
  O  O43  1  0.85480019  0.35451039  0.42673617  1
  O  O44  1  0.64519981  0.14548961  0.92673617  1
  O  O45  1  0.35480019  0.14548961  0.07326383  1
  O  O46  1  0.85480019  0.64548961  0.42673617  1
  O  O47  1  0.14519981  0.64548961  0.57326383  1
  O  O48  1  0.35480019  0.85451039  0.07326383  1
  O  O49  1  0.64519981  0.85451039  0.92673617  1
  O  O50  1  0.30816624  0.50000000  0.41929120  1
  O  O51  1  0.69183376  0.50000000  0.58070880  1
  O  O52  1  0.80816624  -0.00000000  0.08070880  1
  O  O53  1  0.19183376  -0.00000000  0.91929120  1
  F  F54  1  0.50852642  0.33597278  0.74316097  1
  F  F55  1  0.49147358  0.33597278  0.25683903  1
  F  F56  1  0.00852642  0.16402722  0.75683903  1
  F  F57  1  0.99147358  0.16402722  0.24316097  1
  F  F58  1  0.49147358  0.66402722  0.25683903  1
  F  F59  1  0.50852642  0.66402722  0.74316097  1
  F  F60  1  0.99147358  0.83597278  0.24316097  1
  F  F61  1  0.00852642  0.83597278  0.75683903  1
