# generated using pymatgen
data_In2O3
_symmetry_space_group_name_H-M   'P 1'
_cell_length_a   5.58977067
_cell_length_b   5.77553144
_cell_length_c   16.13529129
_cell_angle_alpha   90.00000000
_cell_angle_beta   90.00000000
_cell_angle_gamma   90.00000000
_symmetry_Int_Tables_number   1
_chemical_formula_structural   In2O3
_chemical_formula_sum   'In16 O24'
_cell_volume   520.91006992
_cell_formula_units_Z   8
loop_
 _symmetry_equiv_pos_site_id
 _symmetry_equiv_pos_as_xyz
  1  'x, y, z'
loop_
 _atom_site_type_symbol
 _atom_site_label
 _atom_site_symmetry_multiplicity
 _atom_site_fract_x
 _atom_site_fract_y
 _atom_site_fract_z
 _atom_site_occupancy
  In  In0  1  0.50140919  0.79261728  0.57009949  1
  In  In1  1  0.00140919  0.70738272  0.42990051  1
  In  In2  1  0.49859081  0.29261728  0.92990051  1
  In  In3  1  0.99859081  0.20738272  0.07009949  1
  In  In4  1  0.49859081  0.20738272  0.42990051  1
  In  In5  1  0.99859081  0.29261728  0.57009949  1
  In  In6  1  0.50140919  0.70738272  0.07009949  1
  In  In7  1  0.00140919  0.79261728  0.92990051  1
  In  In8  1  0.49891485  0.73828202  0.81851221  1
  In  In9  1  0.99891485  0.76171798  0.18148779  1
  In  In10  1  0.50108515  0.23828202  0.68148779  1
  In  In11  1  0.00108515  0.26171798  0.31851221  1
  In  In12  1  0.50108515  0.26171798  0.18148779  1
  In  In13  1  0.00108515  0.23828202  0.81851221  1
  In  In14  1  0.49891485  0.76171798  0.31851221  1
  In  In15  1  0.99891485  0.73828202  0.68148779  1
  O  O16  1  0.86105518  0.87252329  0.79807909  1
  O  O17  1  0.36105518  0.62747671  0.20192091  1
  O  O18  1  0.13894482  0.37252329  0.70192091  1
  O  O19  1  0.63894482  0.12747671  0.29807909  1
  O  O20  1  0.13894482  0.12747671  0.20192091  1
  O  O21  1  0.63894482  0.37252329  0.79807909  1
  O  O22  1  0.86105518  0.62747671  0.29807909  1
  O  O23  1  0.36105518  0.87252329  0.70192091  1
  O  O24  1  0.70600167  0.51818725  0.62368531  1
  O  O25  1  0.20600167  0.98181275  0.37631469  1
  O  O26  1  0.29399833  0.01818725  0.87631469  1
  O  O27  1  0.79399833  0.48181275  0.12368531  1
  O  O28  1  0.29399833  0.48181275  0.37631469  1
  O  O29  1  0.79399833  0.01818725  0.62368531  1
  O  O30  1  0.70600167  0.98181275  0.12368531  1
  O  O31  1  0.20600167  0.51818725  0.87631469  1
  O  O32  1  0.64876334  0.65410146  0.94742775  1
  O  O33  1  0.14876334  0.84589854  0.05257225  1
  O  O34  1  0.35123666  0.15410146  0.55257225  1
  O  O35  1  0.85123666  0.34589854  0.44742775  1
  O  O36  1  0.35123666  0.34589854  0.05257225  1
  O  O37  1  0.85123666  0.15410146  0.94742775  1
  O  O38  1  0.64876334  0.84589854  0.44742775  1
  O  O39  1  0.14876334  0.65410146  0.55257225  1
