# generated using pymatgen
data_Cu7Te6(O9F)2
_symmetry_space_group_name_H-M   'P 1'
_cell_length_a   5.05712565
_cell_length_b   9.64518980
_cell_length_c   10.03004245
_cell_angle_alpha   82.47523859
_cell_angle_beta   76.69169240
_cell_angle_gamma   80.48458769
_symmetry_Int_Tables_number   1
_chemical_formula_structural   Cu7Te6(O9F)2
_chemical_formula_sum   'Cu7 Te6 O18 F2'
_cell_volume   467.34116026
_cell_formula_units_Z   1
loop_
 _symmetry_equiv_pos_site_id
 _symmetry_equiv_pos_as_xyz
  1  'x, y, z'
loop_
 _atom_site_type_symbol
 _atom_site_label
 _atom_site_symmetry_multiplicity
 _atom_site_fract_x
 _atom_site_fract_y
 _atom_site_fract_z
 _atom_site_occupancy
  Cu  Cu0  1  0.00000000  -0.00000000  0.00000000  1
  Cu  Cu1  1  0.56302455  0.18082507  0.78885662  1
  Cu  Cu2  1  0.43697545  0.81917493  0.21114338  1
  Cu  Cu3  1  0.81834685  0.43569550  0.92774168  1
  Cu  Cu4  1  0.18165315  0.56430450  0.07225832  1
  Cu  Cu5  1  0.88101144  0.65373628  0.43056720  1
  Cu  Cu6  1  0.11898856  0.34626372  0.56943280  1
  Te  Te7  1  0.66142306  0.77703445  0.90890521  1
  Te  Te8  1  0.33857694  0.22296555  0.09109479  1
  Te  Te9  1  0.40077737  0.57085229  0.67566496  1
  Te  Te10  1  0.59922263  0.42914771  0.32433504  1
  Te  Te11  1  0.16957651  0.01787258  0.64174152  1
  Te  Te12  1  0.83042349  0.98212742  0.35825848  1
  O  O13  1  0.64455474  0.26876835  0.93776230  1
  O  O14  1  0.35544526  0.73123165  0.06223770  1
  O  O15  1  0.06590283  0.92134431  0.82216558  1
  O  O16  1  0.93409717  0.07865569  0.17783442  1
  O  O17  1  0.28036694  0.12078713  0.94576122  1
  O  O18  1  0.71963306  0.87921287  0.05423878  1
  O  O19  1  0.93707941  0.19546879  0.67979143  1
  O  O20  1  0.06292059  0.80453121  0.32020857  1
  O  O21  1  0.55357305  0.56543115  0.83577808  1
  O  O22  1  0.44642695  0.43456885  0.16422192  1
  O  O23  1  0.73275182  0.49583742  0.55333830  1
  O  O24  1  0.26724818  0.50416258  0.44666170  1
  O  O25  1  0.94341937  0.62182384  0.93695321  1
  O  O26  1  0.05658063  0.37817616  0.06304679  1
  O  O27  1  0.25247973  0.39782090  0.72673450  1
  O  O28  1  0.74752027  0.60217910  0.27326550  1
  O  O29  1  0.50284013  0.07228440  0.65335437  1
  O  O30  1  0.49715987  0.92771560  0.34664563  1
  F  F31  1  0.75964792  0.77723493  0.58400877  1
  F  F32  1  0.24035208  0.22276507  0.41599123  1
