# generated using pymatgen
data_K2RuCl5O
_symmetry_space_group_name_H-M   'P 1'
_cell_length_a   7.16975852
_cell_length_b   9.64388888
_cell_length_c   13.58680717
_cell_angle_alpha   90.00000000
_cell_angle_beta   90.00000000
_cell_angle_gamma   90.00000000
_symmetry_Int_Tables_number   1
_chemical_formula_structural   K2RuCl5O
_chemical_formula_sum   'K8 Ru4 Cl20 O4'
_cell_volume   939.45101099
_cell_formula_units_Z   4
loop_
 _symmetry_equiv_pos_site_id
 _symmetry_equiv_pos_as_xyz
  1  'x, y, z'
loop_
 _atom_site_type_symbol
 _atom_site_label
 _atom_site_symmetry_multiplicity
 _atom_site_fract_x
 _atom_site_fract_y
 _atom_site_fract_z
 _atom_site_occupancy
  K  K0  1  0.14888666  0.00053134  0.35305501  1
  K  K1  1  0.35111334  0.49946866  0.85305501  1
  K  K2  1  0.85111334  0.50053134  0.64694499  1
  K  K3  1  0.64888666  0.99946866  0.14694499  1
  K  K4  1  0.85111334  0.99946866  0.64694499  1
  K  K5  1  0.64888666  0.50053134  0.14694499  1
  K  K6  1  0.14888666  0.49946866  0.35305501  1
  K  K7  1  0.35111334  0.00053134  0.85305501  1
  Ru  Ru8  1  0.67293913  0.75000000  0.40457240  1
  Ru  Ru9  1  0.82706087  0.75000000  0.90457240  1
  Ru  Ru10  1  0.32706087  0.25000000  0.59542760  1
  Ru  Ru11  1  0.17293913  0.25000000  0.09542760  1
  Cl  Cl12  1  0.95761790  0.75000000  0.49861106  1
  Cl  Cl13  1  0.54238210  0.75000000  0.99861106  1
  Cl  Cl14  1  0.04238210  0.25000000  0.50138894  1
  Cl  Cl15  1  0.45761790  0.25000000  0.00138894  1
  Cl  Cl16  1  0.88353084  0.75000000  0.25687302  1
  Cl  Cl17  1  0.61646916  0.75000000  0.75687302  1
  Cl  Cl18  1  0.11646916  0.25000000  0.74312698  1
  Cl  Cl19  1  0.38353084  0.25000000  0.24312698  1
  Cl  Cl20  1  0.42107905  0.75000000  0.28876736  1
  Cl  Cl21  1  0.07892095  0.75000000  0.78876736  1
  Cl  Cl22  1  0.57892095  0.25000000  0.71123264  1
  Cl  Cl23  1  0.92107905  0.25000000  0.21123264  1
  Cl  Cl24  1  0.68754213  0.99425846  0.39314302  1
  Cl  Cl25  1  0.81245787  0.50574154  0.89314302  1
  Cl  Cl26  1  0.31245787  0.49425846  0.60685698  1
  Cl  Cl27  1  0.18754213  0.00574154  0.10685698  1
  Cl  Cl28  1  0.31245787  0.00574154  0.60685698  1
  Cl  Cl29  1  0.18754213  0.49425846  0.10685698  1
  Cl  Cl30  1  0.68754213  0.50574154  0.39314302  1
  Cl  Cl31  1  0.81245787  0.99425846  0.89314302  1
  O  O32  1  0.53373945  0.75000000  0.50774965  1
  O  O33  1  0.96626055  0.75000000  0.00774965  1
  O  O34  1  0.46626055  0.25000000  0.49225035  1
  O  O35  1  0.03373945  0.25000000  0.99225035  1
