# generated using pymatgen
data_Cs3CoI4NO3
_symmetry_space_group_name_H-M   'P 1'
_cell_length_a   10.31135972
_cell_length_b   11.83815481
_cell_length_c   14.48080994
_cell_angle_alpha   90.00000000
_cell_angle_beta   90.00000000
_cell_angle_gamma   90.00000000
_symmetry_Int_Tables_number   1
_chemical_formula_structural   Cs3CoI4NO3
_chemical_formula_sum   'Cs12 Co4 I16 N4 O12'
_cell_volume   1767.63587155
_cell_formula_units_Z   4
loop_
 _symmetry_equiv_pos_site_id
 _symmetry_equiv_pos_as_xyz
  1  'x, y, z'
loop_
 _atom_site_type_symbol
 _atom_site_label
 _atom_site_symmetry_multiplicity
 _atom_site_fract_x
 _atom_site_fract_y
 _atom_site_fract_z
 _atom_site_occupancy
  Cs  Cs0  1  0.07734399  0.25000000  0.55137618  1
  Cs  Cs1  1  0.57734399  0.25000000  0.94862382  1
  Cs  Cs2  1  0.92265601  0.75000000  0.44862382  1
  Cs  Cs3  1  0.42265601  0.75000000  0.05137618  1
  Cs  Cs4  1  0.40158376  0.98820443  0.31939081  1
  Cs  Cs5  1  0.90158376  0.51179557  0.18060919  1
  Cs  Cs6  1  0.59841624  0.48820443  0.68060919  1
  Cs  Cs7  1  0.09841624  0.01179557  0.81939081  1
  Cs  Cs8  1  0.59841624  0.01179557  0.68060919  1
  Cs  Cs9  1  0.09841624  0.48820443  0.81939081  1
  Cs  Cs10  1  0.40158376  0.51179557  0.31939081  1
  Cs  Cs11  1  0.90158376  0.98820443  0.18060919  1
  Co  Co12  1  0.67600669  0.25000000  0.40170384  1
  Co  Co13  1  0.17600669  0.25000000  0.09829616  1
  Co  Co14  1  0.32399331  0.75000000  0.59829616  1
  Co  Co15  1  0.82399331  0.75000000  0.90170384  1
  I  I16  1  0.80004217  0.06205534  0.44301844  1
  I  I17  1  0.30004217  0.43794466  0.05698156  1
  I  I18  1  0.19995783  0.56205534  0.55698156  1
  I  I19  1  0.69995783  0.93794466  0.94301844  1
  I  I20  1  0.19995783  0.93794466  0.55698156  1
  I  I21  1  0.69995783  0.56205534  0.94301844  1
  I  I22  1  0.80004217  0.43794466  0.44301844  1
  I  I23  1  0.30004217  0.06205534  0.05698156  1
  I  I24  1  0.46011287  0.25000000  0.50118502  1
  I  I25  1  0.96011287  0.25000000  0.99881498  1
  I  I26  1  0.53988713  0.75000000  0.49881498  1
  I  I27  1  0.03988713  0.75000000  0.00118502  1
  I  I28  1  0.62683037  0.25000000  0.22353760  1
  I  I29  1  0.12683037  0.25000000  0.27646240  1
  I  I30  1  0.37316963  0.75000000  0.77646240  1
  I  I31  1  0.87316963  0.75000000  0.72353760  1
  N  N32  1  0.17447642  0.75000000  0.27266989  1
  N  N33  1  0.67447642  0.75000000  0.22733011  1
  N  N34  1  0.82552358  0.25000000  0.72733011  1
  N  N35  1  0.32552358  0.25000000  0.77266989  1
  O  O36  1  0.29247115  0.75000000  0.24691779  1
  O  O37  1  0.79247115  0.75000000  0.25308221  1
  O  O38  1  0.70752885  0.25000000  0.75308221  1
  O  O39  1  0.20752885  0.25000000  0.74691779  1
  O  O40  1  0.11614060  0.65673546  0.28643144  1
  O  O41  1  0.61614060  0.84326454  0.21356856  1
  O  O42  1  0.88385940  0.15673546  0.71356856  1
  O  O43  1  0.38385940  0.34326454  0.78643144  1
  O  O44  1  0.88385940  0.34326454  0.71356856  1
  O  O45  1  0.38385940  0.15673546  0.78643144  1
  O  O46  1  0.11614060  0.84326454  0.28643144  1
  O  O47  1  0.61614060  0.65673546  0.21356856  1
