# generated using pymatgen
data_UVH3O7
_symmetry_space_group_name_H-M   'P 1'
_cell_length_a   6.96615236
_cell_length_b   8.29642176
_cell_length_c   10.58814774
_cell_angle_alpha   90.00000000
_cell_angle_beta   109.43324614
_cell_angle_gamma   90.00000000
_symmetry_Int_Tables_number   1
_chemical_formula_structural   UVH3O7
_chemical_formula_sum   'U4 V4 H12 O28'
_cell_volume   577.07091016
_cell_formula_units_Z   4
loop_
 _symmetry_equiv_pos_site_id
 _symmetry_equiv_pos_as_xyz
  1  'x, y, z'
loop_
 _atom_site_type_symbol
 _atom_site_label
 _atom_site_symmetry_multiplicity
 _atom_site_fract_x
 _atom_site_fract_y
 _atom_site_fract_z
 _atom_site_occupancy
  U  U0  1  0.51572404  0.48255552  0.82355740  1
  U  U1  1  0.48427596  0.98255552  0.67644260  1
  U  U2  1  0.48427596  0.51744448  0.17644260  1
  U  U3  1  0.51572404  0.01744448  0.32355740  1
  V  V4  1  0.63103762  0.64275876  0.56170852  1
  V  V5  1  0.36896238  0.14275876  0.93829148  1
  V  V6  1  0.36896238  0.35724124  0.43829148  1
  V  V7  1  0.63103762  0.85724124  0.06170852  1
  H  H8  1  0.86691754  0.73689533  0.81501425  1
  H  H9  1  0.13308246  0.23689533  0.68498575  1
  H  H10  1  0.13308246  0.26310467  0.18498575  1
  H  H11  1  0.86691754  0.76310467  0.31501425  1
  H  H12  1  0.10136572  0.68746338  0.81020113  1
  H  H13  1  0.89863428  0.18746338  0.68979887  1
  H  H14  1  0.89863428  0.31253662  0.18979887  1
  H  H15  1  0.10136572  0.81253662  0.31020113  1
  H  H16  1  0.07317500  0.70399242  0.95585299  1
  H  H17  1  0.92682500  0.20399242  0.54414701  1
  H  H18  1  0.92682500  0.29600758  0.04414701  1
  H  H19  1  0.07317500  0.79600758  0.45585299  1
  O  O20  1  0.52744216  0.44449328  0.61078042  1
  O  O21  1  0.47255784  0.94449328  0.88921958  1
  O  O22  1  0.47255784  0.55550672  0.38921958  1
  O  O23  1  0.52744216  0.05550672  0.11078042  1
  O  O24  1  0.77592377  0.40354351  0.89793567  1
  O  O25  1  0.22407623  0.90354351  0.60206433  1
  O  O26  1  0.22407623  0.59645649  0.10206433  1
  O  O27  1  0.77592377  0.09645649  0.39793567  1
  O  O28  1  0.86579524  0.62392572  0.57081270  1
  O  O29  1  0.13420476  0.12392572  0.92918730  1
  O  O30  1  0.13420476  0.37607428  0.42918730  1
  O  O31  1  0.86579524  0.87607428  0.07081270  1
  O  O32  1  0.55678441  0.84841259  0.50344114  1
  O  O33  1  0.44321559  0.34841259  0.99655886  1
  O  O34  1  0.44321559  0.15158741  0.49655886  1
  O  O35  1  0.55678441  0.65158741  0.00344114  1
  O  O36  1  0.64315163  0.71275470  0.73678643  1
  O  O37  1  0.35684837  0.21275470  0.76321357  1
  O  O38  1  0.35684837  0.28724530  0.26321357  1
  O  O39  1  0.64315163  0.78724530  0.23678643  1
  O  O40  1  0.25790673  0.56574266  0.76055311  1
  O  O41  1  0.74209327  0.06574266  0.73944689  1
  O  O42  1  0.74209327  0.43425734  0.23944689  1
  O  O43  1  0.25790673  0.93425734  0.26055311  1
  O  O44  1  0.02612816  0.74798706  0.86228730  1
  O  O45  1  0.97387184  0.24798706  0.63771270  1
  O  O46  1  0.97387184  0.25201294  0.13771270  1
  O  O47  1  0.02612816  0.75201294  0.36228730  1
