# generated using pymatgen
data_CaH12S2O9
_symmetry_space_group_name_H-M   'P 1'
_cell_length_a   5.84071085
_cell_length_b   7.52304420
_cell_length_c   11.33965684
_cell_angle_alpha   72.60180786
_cell_angle_beta   82.11533391
_cell_angle_gamma   86.88904787
_symmetry_Int_Tables_number   1
_chemical_formula_structural   CaH12S2O9
_chemical_formula_sum   'Ca2 H24 S4 O18'
_cell_volume   470.92674011
_cell_formula_units_Z   2
loop_
 _symmetry_equiv_pos_site_id
 _symmetry_equiv_pos_as_xyz
  1  'x, y, z'
loop_
 _atom_site_type_symbol
 _atom_site_label
 _atom_site_symmetry_multiplicity
 _atom_site_fract_x
 _atom_site_fract_y
 _atom_site_fract_z
 _atom_site_occupancy
  Ca  Ca0  1  0.41623795  0.11024199  0.73236849  1
  Ca  Ca1  1  0.58376205  0.88975801  0.26763151  1
  H  H2  1  0.41623926  0.16956103  0.45281360  1
  H  H3  1  0.58376074  0.83043897  0.54718640  1
  H  H4  1  0.66404091  0.21995449  0.47316044  1
  H  H5  1  0.33595909  0.78004551  0.52683956  1
  H  H6  1  0.68252075  0.15545966  0.93572153  1
  H  H7  1  0.31747925  0.84454034  0.06427847  1
  H  H8  1  0.86045758  0.14966870  0.81922938  1
  H  H9  1  0.13954242  0.85033130  0.18077062  1
  H  H10  1  0.06277388  0.43576434  0.64527419  1
  H  H11  1  0.93722612  0.56423566  0.35472581  1
  H  H12  1  0.03601472  0.27780284  0.58488568  1
  H  H13  1  0.96398528  0.72219716  0.41511432  1
  H  H14  1  0.64303897  0.46488257  0.74026811  1
  H  H15  1  0.35696103  0.53511743  0.25973189  1
  H  H16  1  0.53078336  0.53075953  0.61586470  1
  H  H17  1  0.46921664  0.46924047  0.38413530  1
  H  H18  1  0.24856161  0.73084012  0.89232290  1
  H  H19  1  0.75143839  0.26915988  0.10767710  1
  H  H20  1  0.51922045  0.72937100  0.89509601  1
  H  H21  1  0.48077955  0.27062900  0.10490399  1
  H  H22  1  0.14439016  0.31550926  0.89723031  1
  H  H23  1  0.85560984  0.68449074  0.10276969  1
  H  H24  1  0.20518890  0.12395738  0.99472544  1
  H  H25  1  0.79481110  0.87604262  0.00527456  1
  S  S26  1  0.88385914  0.60775879  0.85107544  1
  S  S27  1  0.11614086  0.39224121  0.14892456  1
  S  S28  1  0.94922099  0.80114006  0.68194675  1
  S  S29  1  0.05077901  0.19885994  0.31805325  1
  O  O30  1  0.13685763  0.92265860  0.68490735  1
  O  O31  1  0.86314237  0.07734140  0.31509265  1
  O  O32  1  0.02280405  0.70172449  0.58637429  1
  O  O33  1  0.97719595  0.29827551  0.41362571  1
  O  O34  1  0.73239436  0.91027163  0.65331045  1
  O  O35  1  0.26760564  0.08972837  0.34668955  1
  O  O36  1  0.49709916  0.23196429  0.50033238  1
  O  O37  1  0.50290084  0.76803571  0.49966762  1
  O  O38  1  0.71780083  0.09257842  0.86987272  1
  O  O39  1  0.28219917  0.90742158  0.13012728  1
  O  O40  1  0.07110750  0.29950679  0.66156714  1
  O  O41  1  0.92889250  0.70049321  0.33843286  1
  O  O42  1  0.54154546  0.42457135  0.69096144  1
  O  O43  1  0.45845454  0.57542865  0.30903856  1
  O  O44  1  0.37399737  0.79974296  0.90810983  1
  O  O45  1  0.62600263  0.20025704  0.09189017  1
  O  O46  1  0.19637313  0.18657529  0.90591762  1
  O  O47  1  0.80362687  0.81342471  0.09408238  1
