# generated using pymatgen
data_GaH8N2OF5
_symmetry_space_group_name_H-M   'P 1'
_cell_length_a   9.32056815
_cell_length_b   11.24444866
_cell_length_c   11.50398950
_cell_angle_alpha   90.00000000
_cell_angle_beta   90.00000000
_cell_angle_gamma   90.00000000
_symmetry_Int_Tables_number   1
_chemical_formula_structural   GaH8N2OF5
_chemical_formula_sum   'Ga8 H64 N16 O8 F40'
_cell_volume   1205.67159367
_cell_formula_units_Z   8
loop_
 _symmetry_equiv_pos_site_id
 _symmetry_equiv_pos_as_xyz
  1  'x, y, z'
loop_
 _atom_site_type_symbol
 _atom_site_label
 _atom_site_symmetry_multiplicity
 _atom_site_fract_x
 _atom_site_fract_y
 _atom_site_fract_z
 _atom_site_occupancy
  Ga  Ga0  1  0.71941091  0.11185627  0.93914050  1
  Ga  Ga1  1  0.21941091  0.38814373  0.06085950  1
  Ga  Ga2  1  0.28058909  0.61185627  0.56085950  1
  Ga  Ga3  1  0.78058909  0.88814373  0.43914050  1
  Ga  Ga4  1  0.28058909  0.88814373  0.06085950  1
  Ga  Ga5  1  0.78058909  0.61185627  0.93914050  1
  Ga  Ga6  1  0.71941091  0.38814373  0.43914050  1
  Ga  Ga7  1  0.21941091  0.11185627  0.56085950  1
  H  H8  1  0.50060727  0.24096484  0.80316417  1
  H  H9  1  0.00060727  0.25903516  0.19683583  1
  H  H10  1  0.49939273  0.74096484  0.69683583  1
  H  H11  1  0.99939273  0.75903516  0.30316417  1
  H  H12  1  0.49939273  0.75903516  0.19683583  1
  H  H13  1  0.99939273  0.74096484  0.80316417  1
  H  H14  1  0.50060727  0.25903516  0.30316417  1
  H  H15  1  0.00060727  0.24096484  0.69683583  1
  H  H16  1  0.55115199  0.31640960  0.67812021  1
  H  H17  1  0.05115199  0.18359040  0.32187979  1
  H  H18  1  0.44884801  0.81640960  0.82187979  1
  H  H19  1  0.94884801  0.68359040  0.17812021  1
  H  H20  1  0.44884801  0.68359040  0.32187979  1
  H  H21  1  0.94884801  0.81640960  0.67812021  1
  H  H22  1  0.55115199  0.18359040  0.17812021  1
  H  H23  1  0.05115199  0.31640960  0.82187979  1
  H  H24  1  0.37140441  0.29374698  0.70900047  1
  H  H25  1  0.87140441  0.20625302  0.29099953  1
  H  H26  1  0.62859559  0.79374698  0.79099953  1
  H  H27  1  0.12859559  0.70625302  0.20900047  1
  H  H28  1  0.62859559  0.70625302  0.29099953  1
  H  H29  1  0.12859559  0.79374698  0.70900047  1
  H  H30  1  0.37140441  0.20625302  0.20900047  1
  H  H31  1  0.87140441  0.29374698  0.79099953  1
  H  H32  1  0.38876283  0.47552423  0.77466388  1
  H  H33  1  0.88876283  0.02447577  0.22533612  1
  H  H34  1  0.61123717  0.97552423  0.72533612  1
  H  H35  1  0.11123717  0.52447577  0.27466388  1
  H  H36  1  0.61123717  0.52447577  0.22533612  1
  H  H37  1  0.11123717  0.97552423  0.77466388  1
  H  H38  1  0.38876283  0.02447577  0.27466388  1
  H  H39  1  0.88876283  0.47552423  0.72533612  1
  H  H40  1  0.57007027  0.46442837  0.80369543  1
  H  H41  1  0.07007027  0.03557163  0.19630457  1
  H  H42  1  0.42992973  0.96442837  0.69630457  1
  H  H43  1  0.92992973  0.53557163  0.30369543  1
  H  H44  1  0.42992973  0.53557163  0.19630457  1
  H  H45  1  0.92992973  0.96442837  0.80369543  1
  H  H46  1  0.57007027  0.03557163  0.30369543  1
  H  H47  1  0.07007027  0.46442837  0.69630457  1
  H  H48  1  0.44680033  0.40433322  0.90103706  1
  H  H49  1  0.94680033  0.09566678  0.09896294  1
  H  H50  1  0.55319967  0.90433322  0.59896294  1
  H  H51  1  0.05319967  0.59566678  0.40103706  1
  H  H52  1  0.55319967  0.59566678  0.09896294  1
  H  H53  1  0.05319967  0.90433322  0.90103706  1
  H  H54  1  0.44680033  0.09566678  0.40103706  1
  H  H55  1  0.94680033  0.40433322  0.59896294  1
  H  H56  1  0.73979441  0.88248127  0.96580607  1
  H  H57  1  0.23979441  0.61751873  0.03419393  1
  H  H58  1  0.26020559  0.38248127  0.53419393  1
  H  H59  1  0.76020559  0.11751873  0.46580607  1
  H  H60  1  0.26020559  0.11751873  0.03419393  1
  H  H61  1  0.76020559  0.38248127  0.96580607  1
  H  H62  1  0.73979441  0.61751873  0.46580607  1
  H  H63  1  0.23979441  0.88248127  0.53419393  1
  H  H64  1  0.62249628  0.92878649  0.05845179  1
  H  H65  1  0.12249628  0.57121351  0.94154821  1
  H  H66  1  0.37750372  0.42878649  0.44154821  1
  H  H67  1  0.87750372  0.07121351  0.55845179  1
  H  H68  1  0.37750372  0.07121351  0.94154821  1
  H  H69  1  0.87750372  0.42878649  0.05845179  1
  H  H70  1  0.62249628  0.57121351  0.55845179  1
  H  H71  1  0.12249628  0.92878649  0.44154821  1
  N  N72  1  0.47317998  0.31083052  0.74647066  1
  N  N73  1  0.97317998  0.18916948  0.25352934  1
  N  N74  1  0.52682002  0.81083052  0.75352934  1
  N  N75  1  0.02682002  0.68916948  0.24647066  1
  N  N76  1  0.52682002  0.68916948  0.25352934  1
  N  N77  1  0.02682002  0.81083052  0.74647066  1
  N  N78  1  0.47317998  0.18916948  0.24647066  1
  N  N79  1  0.97317998  0.31083052  0.75352934  1
  N  N80  1  0.46968741  0.42172955  0.81063868  1
  N  N81  1  0.96968741  0.07827045  0.18936132  1
  N  N82  1  0.53031259  0.92172955  0.68936132  1
  N  N83  1  0.03031259  0.57827045  0.31063868  1
  N  N84  1  0.53031259  0.57827045  0.18936132  1
  N  N85  1  0.03031259  0.92172955  0.81063868  1
  N  N86  1  0.46968741  0.07827045  0.31063868  1
  N  N87  1  0.96968741  0.42172955  0.68936132  1
  O  O88  1  0.71169501  0.95120206  0.01531408  1
  O  O89  1  0.21169501  0.54879794  0.98468592  1
  O  O90  1  0.28830499  0.45120206  0.48468592  1
  O  O91  1  0.78830499  0.04879794  0.51531408  1
  O  O92  1  0.28830499  0.04879794  0.98468592  1
  O  O93  1  0.78830499  0.45120206  0.01531408  1
  O  O94  1  0.71169501  0.54879794  0.51531408  1
  O  O95  1  0.21169501  0.95120206  0.48468592  1
  F  F96  1  0.73190905  0.27113819  0.87165175  1
  F  F97  1  0.23190905  0.22886181  0.12834825  1
  F  F98  1  0.26809095  0.77113819  0.62834825  1
  F  F99  1  0.76809095  0.72886181  0.37165175  1
  F  F100  1  0.26809095  0.72886181  0.12834825  1
  F  F101  1  0.76809095  0.77113819  0.87165175  1
  F  F102  1  0.73190905  0.22886181  0.37165175  1
  F  F103  1  0.23190905  0.27113819  0.62834825  1
  F  F104  1  0.52285148  0.11309594  0.88278966  1
  F  F105  1  0.02285148  0.38690406  0.11721034  1
  F  F106  1  0.47714852  0.61309594  0.61721034  1
  F  F107  1  0.97714852  0.88690406  0.38278966  1
  F  F108  1  0.47714852  0.88690406  0.11721034  1
  F  F109  1  0.97714852  0.61309594  0.88278966  1
  F  F110  1  0.52285148  0.38690406  0.38278966  1
  F  F111  1  0.02285148  0.11309594  0.61721034  1
  F  F112  1  0.76551340  0.02938877  0.79616072  1
  F  F113  1  0.26551340  0.47061123  0.20383928  1
  F  F114  1  0.23448660  0.52938877  0.70383928  1
  F  F115  1  0.73448660  0.97061123  0.29616072  1
  F  F116  1  0.23448660  0.97061123  0.20383928  1
  F  F117  1  0.73448660  0.52938877  0.79616072  1
  F  F118  1  0.76551340  0.47061123  0.29616072  1
  F  F119  1  0.26551340  0.02938877  0.70383928  1
  F  F120  1  0.91912468  0.12352362  0.97211597  1
  F  F121  1  0.41912468  0.37647638  0.02788403  1
  F  F122  1  0.08087532  0.62352362  0.52788403  1
  F  F123  1  0.58087532  0.87647638  0.47211597  1
  F  F124  1  0.08087532  0.87647638  0.02788403  1
  F  F125  1  0.58087532  0.62352362  0.97211597  1
  F  F126  1  0.91912468  0.37647638  0.47211597  1
  F  F127  1  0.41912468  0.12352362  0.52788403  1
  F  F128  1  0.66909988  0.17379953  0.08692535  1
  F  F129  1  0.16909988  0.32620047  0.91307465  1
  F  F130  1  0.33090012  0.67379953  0.41307465  1
  F  F131  1  0.83090012  0.82620047  0.58692535  1
  F  F132  1  0.33090012  0.82620047  0.91307465  1
  F  F133  1  0.83090012  0.67379953  0.08692535  1
  F  F134  1  0.66909988  0.32620047  0.58692535  1
  F  F135  1  0.16909988  0.17379953  0.41307465  1
