# generated using pymatgen
data_Mn16Bi16O45
_symmetry_space_group_name_H-M   'P 1'
_cell_length_a   13.96924824
_cell_length_b   13.96924824
_cell_length_c   13.96924824
_cell_angle_alpha   109.47122063
_cell_angle_beta   109.47122063
_cell_angle_gamma   109.47122063
_symmetry_Int_Tables_number   1
_chemical_formula_structural   Mn16Bi16O45
_chemical_formula_sum   'Mn32 Bi32 O90'
_cell_volume   2098.44317925
_cell_formula_units_Z   2
loop_
 _symmetry_equiv_pos_site_id
 _symmetry_equiv_pos_as_xyz
  1  'x, y, z'
loop_
 _atom_site_type_symbol
 _atom_site_label
 _atom_site_symmetry_multiplicity
 _atom_site_fract_x
 _atom_site_fract_y
 _atom_site_fract_z
 _atom_site_occupancy
  Mn  Mn0  1  0.49919522  0.00000000  0.50000000  1
  Mn  Mn1  1  -0.00000000  0.50000000  0.49919522  1
  Mn  Mn2  1  0.50000000  0.49919522  0.00000000  1
  Mn  Mn3  1  0.00080478  0.00080478  0.00080478  1
  Mn  Mn4  1  -0.00000000  0.50000000  0.99919522  1
  Mn  Mn5  1  0.99919522  0.00000000  0.50000000  1
  Mn  Mn6  1  0.50000000  0.99919522  0.00000000  1
  Mn  Mn7  1  0.50080478  0.50080478  0.50080478  1
  Mn  Mn8  1  0.24935556  0.75000000  0.49935556  1
  Mn  Mn9  1  0.25064444  0.25000000  0.00064444  1
  Mn  Mn10  1  0.99935556  0.25000000  0.74935556  1
  Mn  Mn11  1  0.50064444  0.75000000  0.75064444  1
  Mn  Mn12  1  0.75000000  0.49935556  0.24935556  1
  Mn  Mn13  1  0.25000000  0.00064444  0.25064444  1
  Mn  Mn14  1  0.25000000  0.74935556  0.99935556  1
  Mn  Mn15  1  0.75000000  0.75064444  0.50064444  1
  Mn  Mn16  1  0.49935556  0.24935556  0.75000000  1
  Mn  Mn17  1  0.00064444  0.25064444  0.25000000  1
  Mn  Mn18  1  0.74935556  0.99935556  0.25000000  1
  Mn  Mn19  1  0.75064444  0.50064444  0.75000000  1
  Mn  Mn20  1  -0.00014511  0.75000000  0.24985489  1
  Mn  Mn21  1  0.50014511  0.25000000  0.25014511  1
  Mn  Mn22  1  0.74985489  0.25000000  0.49985489  1
  Mn  Mn23  1  0.75014511  0.75000000  0.00014511  1
  Mn  Mn24  1  0.75000000  0.24985489  -0.00014511  1
  Mn  Mn25  1  0.25000000  0.25014511  0.50014511  1
  Mn  Mn26  1  0.25000000  0.49985489  0.74985489  1
  Mn  Mn27  1  0.75000000  0.00014511  0.75014511  1
  Mn  Mn28  1  0.24985489  -0.00014511  0.75000000  1
  Mn  Mn29  1  0.25014511  0.50014511  0.25000000  1
  Mn  Mn30  1  0.49985489  0.74985489  0.25000000  1
  Mn  Mn31  1  0.00014511  0.75014511  0.75000000  1
  Bi  Bi32  1  0.72360177  0.00000000  0.50000000  1
  Bi  Bi33  1  0.00000000  0.50000000  0.72360177  1
  Bi  Bi34  1  0.50000000  0.72360177  0.00000000  1
  Bi  Bi35  1  0.77639823  0.77639823  0.77639823  1
  Bi  Bi36  1  0.00000000  0.50000000  0.22360177  1
  Bi  Bi37  1  0.22360177  -0.00000000  0.50000000  1
  Bi  Bi38  1  0.50000000  0.22360177  -0.00000000  1
  Bi  Bi39  1  0.27639823  0.27639823  0.27639823  1
  Bi  Bi40  1  0.50033485  0.48761871  0.75302043  1
  Bi  Bi41  1  0.76540172  0.01238129  0.01271614  1
  Bi  Bi42  1  0.73459828  0.24731442  0.74697957  1
  Bi  Bi43  1  0.99966515  0.25268558  0.48728386  1
  Bi  Bi44  1  0.25302043  0.98761871  0.00033485  1
  Bi  Bi45  1  0.51271614  0.51238129  0.26540172  1
  Bi  Bi46  1  0.24697957  0.74731442  0.23459828  1
  Bi  Bi47  1  0.98728386  0.75268558  0.49966515  1
  Bi  Bi48  1  0.48761871  0.75302043  0.50033485  1
  Bi  Bi49  1  0.01238129  0.01271614  0.76540172  1
  Bi  Bi50  1  0.24731442  0.74697957  0.73459828  1
  Bi  Bi51  1  0.25268558  0.48728386  0.99966515  1
  Bi  Bi52  1  0.98761871  0.00033485  0.25302043  1
  Bi  Bi53  1  0.51238129  0.26540172  0.51271614  1
  Bi  Bi54  1  0.74731442  0.23459828  0.24697957  1
  Bi  Bi55  1  0.75268558  0.49966515  0.98728386  1
  Bi  Bi56  1  0.75302043  0.50033485  0.48761871  1
  Bi  Bi57  1  0.01271614  0.76540172  0.01238129  1
  Bi  Bi58  1  0.74697957  0.73459828  0.24731442  1
  Bi  Bi59  1  0.48728386  0.99966515  0.25268558  1
  Bi  Bi60  1  0.00033485  0.25302043  0.98761871  1
  Bi  Bi61  1  0.26540172  0.51271614  0.51238129  1
  Bi  Bi62  1  0.23459828  0.24697957  0.74731442  1
  Bi  Bi63  1  0.49966515  0.98728386  0.75268558  1
  O  O64  1  0.62697262  0.75000000  0.87697262  1
  O  O65  1  0.87302738  0.25000000  0.62302738  1
  O  O66  1  0.37697262  0.25000000  0.12697262  1
  O  O67  1  0.12302738  0.75000000  0.37302738  1
  O  O68  1  0.75000000  0.87697262  0.62697262  1
  O  O69  1  0.25000000  0.62302738  0.87302738  1
  O  O70  1  0.25000000  0.12697262  0.37697262  1
  O  O71  1  0.75000000  0.37302738  0.12302738  1
  O  O72  1  0.87697262  0.62697262  0.75000000  1
  O  O73  1  0.62302738  0.87302738  0.25000000  1
  O  O74  1  0.12697262  0.37697262  0.25000000  1
  O  O75  1  0.37302738  0.12302738  0.75000000  1
  O  O76  1  0.87500000  0.75000000  0.12500000  1
  O  O77  1  0.62500000  0.25000000  0.37500000  1
  O  O78  1  0.75000000  0.12500000  0.87500000  1
  O  O79  1  0.25000000  0.37500000  0.62500000  1
  O  O80  1  0.12500000  0.87500000  0.75000000  1
  O  O81  1  0.37500000  0.62500000  0.25000000  1
  O  O82  1  0.83526893  0.20687236  0.13651841  1
  O  O83  1  0.42964605  0.29312764  0.62839657  1
  O  O84  1  0.07035395  0.19875052  0.36348159  1
  O  O85  1  0.66473107  0.30124948  0.87160343  1
  O  O86  1  0.63651841  0.70687236  0.33526893  1
  O  O87  1  0.12839657  0.79312764  0.92964605  1
  O  O88  1  0.86348159  0.69875052  0.57035395  1
  O  O89  1  0.37160343  0.80124948  0.16473107  1
  O  O90  1  0.20687236  0.13651841  0.83526893  1
  O  O91  1  0.29312764  0.62839657  0.42964605  1
  O  O92  1  0.19875052  0.36348159  0.07035395  1
  O  O93  1  0.30124948  0.87160343  0.66473107  1
  O  O94  1  0.70687236  0.33526893  0.63651841  1
  O  O95  1  0.79312764  0.92964605  0.12839657  1
  O  O96  1  0.69875052  0.57035395  0.86348159  1
  O  O97  1  0.80124948  0.16473107  0.37160343  1
  O  O98  1  0.13651841  0.83526893  0.20687236  1
  O  O99  1  0.62839657  0.42964605  0.29312764  1
  O  O100  1  0.36348159  0.07035395  0.19875052  1
  O  O101  1  0.87160343  0.66473107  0.30124948  1
  O  O102  1  0.33526893  0.63651841  0.70687236  1
  O  O103  1  0.92964605  0.12839657  0.79312764  1
  O  O104  1  0.57035395  0.86348159  0.69875052  1
  O  O105  1  0.16473107  0.37160343  0.80124948  1
  O  O106  1  0.13217962  0.95821809  0.59363601  1
  O  O107  1  0.13541792  0.54178191  0.17396153  1
  O  O108  1  0.36458208  0.03854362  0.90636399  1
  O  O109  1  0.36782038  0.46145638  0.32603847  1
  O  O110  1  0.09363601  0.45821809  0.63217962  1
  O  O111  1  0.67396153  0.04178191  0.63541792  1
  O  O112  1  0.40636399  0.53854362  0.86458208  1
  O  O113  1  0.82603847  0.96145638  0.86782038  1
  O  O114  1  0.95821809  0.59363601  0.13217962  1
  O  O115  1  0.54178191  0.17396153  0.13541792  1
  O  O116  1  0.03854362  0.90636399  0.36458208  1
  O  O117  1  0.46145638  0.32603847  0.36782038  1
  O  O118  1  0.45821809  0.63217962  0.09363601  1
  O  O119  1  0.04178191  0.63541792  0.67396153  1
  O  O120  1  0.53854362  0.86458208  0.40636399  1
  O  O121  1  0.96145638  0.86782038  0.82603847  1
  O  O122  1  0.59363601  0.13217962  0.95821809  1
  O  O123  1  0.17396153  0.13541792  0.54178191  1
  O  O124  1  0.90636399  0.36458208  0.03854362  1
  O  O125  1  0.32603847  0.36782038  0.46145638  1
  O  O126  1  0.63217962  0.09363601  0.45821809  1
  O  O127  1  0.63541792  0.67396153  0.04178191  1
  O  O128  1  0.86458208  0.40636399  0.53854362  1
  O  O129  1  0.86782038  0.82603847  0.96145638  1
  O  O130  1  0.10139567  0.11746947  0.96400998  1
  O  O131  1  0.34654051  0.38253053  0.98392620  1
  O  O132  1  0.15345949  0.63738569  0.53599002  1
  O  O133  1  0.39860433  0.86261431  0.51607380  1
  O  O134  1  0.46400998  0.61746947  0.60139567  1
  O  O135  1  0.48392620  0.88253053  0.84654051  1
  O  O136  1  0.03599002  0.13738569  0.65345949  1
  O  O137  1  0.01607380  0.36261431  0.89860433  1
  O  O138  1  0.11746947  0.96400998  0.10139567  1
  O  O139  1  0.38253053  0.98392620  0.34654051  1
  O  O140  1  0.63738569  0.53599002  0.15345949  1
  O  O141  1  0.86261431  0.51607380  0.39860433  1
  O  O142  1  0.61746947  0.60139567  0.46400998  1
  O  O143  1  0.88253053  0.84654051  0.48392620  1
  O  O144  1  0.13738569  0.65345949  0.03599002  1
  O  O145  1  0.36261431  0.89860433  0.01607380  1
  O  O146  1  0.96400998  0.10139567  0.11746947  1
  O  O147  1  0.98392620  0.34654051  0.38253053  1
  O  O148  1  0.53599002  0.15345949  0.63738569  1
  O  O149  1  0.51607380  0.39860433  0.86261431  1
  O  O150  1  0.60139567  0.46400998  0.61746947  1
  O  O151  1  0.84654051  0.48392620  0.88253053  1
  O  O152  1  0.65345949  0.03599002  0.13738569  1
  O  O153  1  0.89860433  0.01607380  0.36261431  1
