# generated using pymatgen
data_Cu7PS6
_symmetry_space_group_name_H-M   'P 1'
_cell_length_a   9.63741030
_cell_length_b   9.63741030
_cell_length_c   9.63741030
_cell_angle_alpha   90.00000000
_cell_angle_beta   90.00000000
_cell_angle_gamma   90.00000000
_symmetry_Int_Tables_number   1
_chemical_formula_structural   Cu7PS6
_chemical_formula_sum   'Cu28 P4 S24'
_cell_volume   895.11955858
_cell_formula_units_Z   4
loop_
 _symmetry_equiv_pos_site_id
 _symmetry_equiv_pos_as_xyz
  1  'x, y, z'
loop_
 _atom_site_type_symbol
 _atom_site_label
 _atom_site_symmetry_multiplicity
 _atom_site_fract_x
 _atom_site_fract_y
 _atom_site_fract_z
 _atom_site_occupancy
  Cu  Cu0  1  0.23459424  0.92599952  0.90573524  1
  Cu  Cu1  1  0.09426476  0.73459424  0.57400048  1
  Cu  Cu2  1  0.42599952  0.59426476  0.76540576  1
  Cu  Cu3  1  0.73459424  0.57400048  0.09426476  1
  Cu  Cu4  1  0.59426476  0.76540576  0.42599952  1
  Cu  Cu5  1  0.92599952  0.90573524  0.23459424  1
  Cu  Cu6  1  0.76540576  0.42599952  0.59426476  1
  Cu  Cu7  1  0.90573524  0.23459424  0.92599952  1
  Cu  Cu8  1  0.57400048  0.09426476  0.73459424  1
  Cu  Cu9  1  0.26540576  0.07400048  0.40573524  1
  Cu  Cu10  1  0.40573524  0.26540576  0.07400048  1
  Cu  Cu11  1  0.07400048  0.40573524  0.26540576  1
  Cu  Cu12  1  0.01338936  0.77728404  0.99502503  1
  Cu  Cu13  1  0.00497497  0.51338936  0.72271596  1
  Cu  Cu14  1  0.27728404  0.50497497  0.98661064  1
  Cu  Cu15  1  0.51338936  0.72271596  0.00497497  1
  Cu  Cu16  1  0.50497497  0.98661064  0.27728404  1
  Cu  Cu17  1  0.77728404  0.99502503  0.01338936  1
  Cu  Cu18  1  0.98661064  0.27728404  0.50497497  1
  Cu  Cu19  1  0.99502503  0.01338936  0.77728404  1
  Cu  Cu20  1  0.72271596  0.00497497  0.51338936  1
  Cu  Cu21  1  0.48661064  0.22271596  0.49502503  1
  Cu  Cu22  1  0.49502503  0.48661064  0.22271596  1
  Cu  Cu23  1  0.22271596  0.49502503  0.48661064  1
  Cu  Cu24  1  0.35640103  0.85640103  0.64359897  1
  Cu  Cu25  1  0.85640103  0.64359897  0.35640103  1
  Cu  Cu26  1  0.64359897  0.35640103  0.85640103  1
  Cu  Cu27  1  0.14359897  0.14359897  0.14359897  1
  P  P28  1  0.74724008  0.24724008  0.25275992  1
  P  P29  1  0.24724008  0.25275992  0.74724008  1
  P  P30  1  0.25275992  0.74724008  0.24724008  1
  P  P31  1  0.75275992  0.75275992  0.75275992  1
  S  S32  1  0.87168924  0.37168924  0.12831076  1
  S  S33  1  0.37168924  0.12831076  0.87168924  1
  S  S34  1  0.12831076  0.87168924  0.37168924  1
  S  S35  1  0.62831076  0.62831076  0.62831076  1
  S  S36  1  0.36952463  0.87096063  0.11659204  1
  S  S37  1  0.88340796  0.86952463  0.62903937  1
  S  S38  1  0.37096063  0.38340796  0.63047537  1
  S  S39  1  0.86952463  0.62903937  0.88340796  1
  S  S40  1  0.38340796  0.63047537  0.37096063  1
  S  S41  1  0.87096063  0.11659204  0.36952463  1
  S  S42  1  0.63047537  0.37096063  0.38340796  1
  S  S43  1  0.11659204  0.36952463  0.87096063  1
  S  S44  1  0.62903937  0.88340796  0.86952463  1
  S  S45  1  0.13047537  0.12903937  0.61659204  1
  S  S46  1  0.61659204  0.13047537  0.12903937  1
  S  S47  1  0.12903937  0.61659204  0.13047537  1
  S  S48  1  0.22752046  0.72752046  0.77247954  1
  S  S49  1  0.72752046  0.77247954  0.22752046  1
  S  S50  1  0.77247954  0.22752046  0.72752046  1
  S  S51  1  0.27247954  0.27247954  0.27247954  1
  S  S52  1  0.48732876  0.98732876  0.51267124  1
  S  S53  1  0.98732876  0.51267124  0.48732876  1
  S  S54  1  0.51267124  0.48732876  0.98732876  1
  S  S55  1  0.01267124  0.01267124  0.01267124  1
