# generated using pymatgen
data_K2CoH12(C2O7)2
_symmetry_space_group_name_H-M   'P 1'
_cell_length_a   6.87706953
_cell_length_b   8.73684815
_cell_length_c   12.48502032
_cell_angle_alpha   102.21355999
_cell_angle_beta   90.00000000
_cell_angle_gamma   90.00000000
_symmetry_Int_Tables_number   1
_chemical_formula_structural   K2CoH12(C2O7)2
_chemical_formula_sum   'K4 Co2 H24 C8 O28'
_cell_volume   733.16988574
_cell_formula_units_Z   2
loop_
 _symmetry_equiv_pos_site_id
 _symmetry_equiv_pos_as_xyz
  1  'x, y, z'
loop_
 _atom_site_type_symbol
 _atom_site_label
 _atom_site_symmetry_multiplicity
 _atom_site_fract_x
 _atom_site_fract_y
 _atom_site_fract_z
 _atom_site_occupancy
  K  K0  1  0.65133587  0.56279324  0.88709657  1
  K  K1  1  0.84866413  0.06279324  0.38709657  1
  K  K2  1  0.34866413  0.43720676  0.11290343  1
  K  K3  1  0.15133587  0.93720676  0.61290343  1
  Co  Co4  1  -0.00000000  0.00000000  -0.00000000  1
  Co  Co5  1  0.50000000  0.50000000  0.50000000  1
  H  H6  1  0.58062279  0.90166198  0.84083516  1
  H  H7  1  0.91937721  0.40166198  0.34083516  1
  H  H8  1  0.41937721  0.09833802  0.15916484  1
  H  H9  1  0.08062279  0.59833802  0.65916484  1
  H  H10  1  0.51327807  0.78907595  0.73117668  1
  H  H11  1  0.98672193  0.28907595  0.23117668  1
  H  H12  1  0.48672193  0.21092405  0.26882332  1
  H  H13  1  0.01327807  0.71092405  0.76882332  1
  H  H14  1  0.98855861  0.67909684  0.26423137  1
  H  H15  1  0.51144139  0.17909684  0.76423137  1
  H  H16  1  0.01144139  0.32090316  0.73576863  1
  H  H17  1  0.48855861  0.82090316  0.23576863  1
  H  H18  1  0.91556832  0.57632162  0.15058162  1
  H  H19  1  0.58443168  0.07632162  0.65058162  1
  H  H20  1  0.08443168  0.42367838  0.84941838  1
  H  H21  1  0.41556832  0.92367838  0.34941838  1
  H  H22  1  0.28505494  0.07017111  0.87584736  1
  H  H23  1  0.21494506  0.57017111  0.37584736  1
  H  H24  1  0.71494506  0.92982889  0.12415264  1
  H  H25  1  0.78505494  0.42982889  0.62415264  1
  H  H26  1  0.10129658  0.16617781  0.84936960  1
  H  H27  1  0.39870342  0.66617781  0.34936960  1
  H  H28  1  0.89870342  0.83382219  0.15063040  1
  H  H29  1  0.60129658  0.33382219  0.65063040  1
  C  C30  1  0.31598149  0.81501325  0.04345437  1
  C  C31  1  0.18401851  0.31501325  0.54345437  1
  C  C32  1  0.68401851  0.18498675  0.95654563  1
  C  C33  1  0.81598149  0.68498675  0.45654563  1
  C  C34  1  0.18354544  0.70328774  0.95953876  1
  C  C35  1  0.31645456  0.20328774  0.45953876  1
  C  C36  1  0.81645456  0.29671226  0.04046124  1
  C  C37  1  0.68354544  0.79671226  0.54046124  1
  O  O38  1  0.26233082  0.95846232  0.06845972  1
  O  O39  1  0.23766918  0.45846232  0.56845972  1
  O  O40  1  0.73766918  0.04153768  0.93154028  1
  O  O41  1  0.76233082  0.54153768  0.43154028  1
  O  O42  1  0.02886435  0.76413894  0.92885440  1
  O  O43  1  0.47113565  0.26413894  0.42885440  1
  O  O44  1  0.97113565  0.23586106  0.07114560  1
  O  O45  1  0.52886435  0.73586106  0.57114560  1
  O  O46  1  0.46327144  0.75933361  0.08123833  1
  O  O47  1  0.03672856  0.25933361  0.58123833  1
  O  O48  1  0.53672856  0.24066639  0.91876167  1
  O  O49  1  0.96327144  0.74066639  0.41876167  1
  O  O50  1  0.23434084  0.56290805  0.92897885  1
  O  O51  1  0.26565916  0.06290805  0.42897885  1
  O  O52  1  0.76565916  0.43709195  0.07102115  1
  O  O53  1  0.73434084  0.93709195  0.57102115  1
  O  O54  1  0.49225913  0.81397779  0.81071384  1
  O  O55  1  0.00774087  0.31397779  0.31071384  1
  O  O56  1  0.50774087  0.18602221  0.18928616  1
  O  O57  1  0.99225913  0.68602221  0.68928616  1
  O  O58  1  0.00224970  0.66553687  0.18405520  1
  O  O59  1  0.49775030  0.16553687  0.68405520  1
  O  O60  1  0.99775030  0.33446313  0.81594480  1
  O  O61  1  0.50224970  0.83446313  0.31594480  1
  O  O62  1  0.14533945  0.06108359  0.86023316  1
  O  O63  1  0.35466055  0.56108359  0.36023316  1
  O  O64  1  0.85466055  0.93891641  0.13976684  1
  O  O65  1  0.64533945  0.43891641  0.63976684  1
