# generated using pymatgen
data_Tb4In5S13
_symmetry_space_group_name_H-M   'P 1'
_cell_length_a   3.88805265
_cell_length_b   11.89861103
_cell_length_c   21.48763852
_cell_angle_alpha   90.00000000
_cell_angle_beta   90.00000000
_cell_angle_gamma   90.00000000
_symmetry_Int_Tables_number   1
_chemical_formula_structural   Tb4In5S13
_chemical_formula_sum   'Tb8 In10 S26'
_cell_volume   994.07029009
_cell_formula_units_Z   2
loop_
 _symmetry_equiv_pos_site_id
 _symmetry_equiv_pos_as_xyz
  1  'x, y, z'
loop_
 _atom_site_type_symbol
 _atom_site_label
 _atom_site_symmetry_multiplicity
 _atom_site_fract_x
 _atom_site_fract_y
 _atom_site_fract_z
 _atom_site_occupancy
  Tb  Tb0  1  -0.00000000  0.67053390  0.34050708  1
  Tb  Tb1  1  -0.00000000  0.32946610  0.65949292  1
  Tb  Tb2  1  0.00000000  0.82946610  0.84050708  1
  Tb  Tb3  1  -0.00000000  0.17053390  0.15949292  1
  Tb  Tb4  1  0.00000000  0.51493227  0.17080060  1
  Tb  Tb5  1  0.00000000  0.48506773  0.82919940  1
  Tb  Tb6  1  0.00000000  0.98506773  0.67080060  1
  Tb  Tb7  1  0.00000000  0.01493227  0.32919940  1
  In  In8  1  -0.00000000  0.50000000  0.50000000  1
  In  In9  1  -0.00000000  0.00000000  -0.00000000  1
  In  In10  1  0.50000000  0.84471533  0.49298185  1
  In  In11  1  0.50000000  0.15528467  0.50701815  1
  In  In12  1  0.50000000  0.65528467  0.99298185  1
  In  In13  1  0.50000000  0.34471533  0.00701815  1
  In  In14  1  0.50000000  0.84429089  0.17078801  1
  In  In15  1  0.50000000  0.15570911  0.82921199  1
  In  In16  1  0.50000000  0.65570911  0.67078801  1
  In  In17  1  0.50000000  0.34429089  0.32921199  1
  S  S18  1  0.50000000  0.84789213  0.36613070  1
  S  S19  1  0.50000000  0.15210787  0.63386930  1
  S  S20  1  0.50000000  0.65210787  0.86613070  1
  S  S21  1  0.50000000  0.34789213  0.13386930  1
  S  S22  1  0.50000000  0.57923720  0.26048873  1
  S  S23  1  0.50000000  0.42076280  0.73951127  1
  S  S24  1  0.50000000  0.92076280  0.76048873  1
  S  S25  1  0.50000000  0.07923720  0.23951127  1
  S  S26  1  0.50000000  0.50512747  0.40555896  1
  S  S27  1  0.50000000  0.49487253  0.59444104  1
  S  S28  1  0.50000000  0.99487253  0.90555896  1
  S  S29  1  0.50000000  0.00512747  0.09444104  1
  S  S30  1  -0.00000000  0.70317851  0.47388160  1
  S  S31  1  -0.00000000  0.29682149  0.52611840  1
  S  S32  1  -0.00000000  0.79682149  0.97388160  1
  S  S33  1  -0.00000000  0.20317851  0.02611840  1
  S  S34  1  0.00000000  0.83226112  0.24240514  1
  S  S35  1  -0.00000000  0.16773888  0.75759486  1
  S  S36  1  -0.00000000  0.66773888  0.74240514  1
  S  S37  1  0.00000000  0.33226112  0.25759486  1
  S  S38  1  0.50000000  0.65660291  0.11469599  1
  S  S39  1  0.50000000  0.34339709  0.88530401  1
  S  S40  1  0.50000000  0.84339709  0.61469599  1
  S  S41  1  0.50000000  0.15660291  0.38530401  1
  S  S42  1  -0.00000000  0.00000000  0.50000000  1
  S  S43  1  -0.00000000  0.50000000  0.00000000  1
