# generated using pymatgen
data_VCu2HO5
_symmetry_space_group_name_H-M   'P 1'
_cell_length_a   6.18473462
_cell_length_b   8.59510954
_cell_length_c   15.20992810
_cell_angle_alpha   90.00000000
_cell_angle_beta   90.00000000
_cell_angle_gamma   90.00000000
_symmetry_Int_Tables_number   1
_chemical_formula_structural   VCu2HO5
_chemical_formula_sum   'V8 Cu16 H8 O40'
_cell_volume   808.53652995
_cell_formula_units_Z   8
loop_
 _symmetry_equiv_pos_site_id
 _symmetry_equiv_pos_as_xyz
  1  'x, y, z'
loop_
 _atom_site_type_symbol
 _atom_site_label
 _atom_site_symmetry_multiplicity
 _atom_site_fract_x
 _atom_site_fract_y
 _atom_site_fract_z
 _atom_site_occupancy
  V  V0  1  0.77674668  0.77782979  0.65234791  1
  V  V1  1  0.72325332  0.22217021  0.15234791  1
  V  V2  1  0.27674668  0.72217021  0.34765209  1
  V  V3  1  0.22325332  0.27782979  0.84765209  1
  V  V4  1  0.28728105  0.43569592  0.58165280  1
  V  V5  1  0.21271895  0.56430408  0.08165280  1
  V  V6  1  0.78728105  0.06430408  0.41834720  1
  V  V7  1  0.71271895  0.93569592  0.91834720  1
  Cu  Cu8  1  0.28621643  0.83393135  0.57574732  1
  Cu  Cu9  1  0.21378357  0.16606865  0.07574732  1
  Cu  Cu10  1  0.78621643  0.66606865  0.42425268  1
  Cu  Cu11  1  0.71378357  0.33393135  0.92425268  1
  Cu  Cu12  1  0.02393529  0.11698548  0.64081222  1
  Cu  Cu13  1  0.47606471  0.88301452  0.14081222  1
  Cu  Cu14  1  0.52393529  0.38301452  0.35918778  1
  Cu  Cu15  1  0.97606471  0.61698548  0.85918778  1
  Cu  Cu16  1  0.76633738  0.39843464  0.71402658  1
  Cu  Cu17  1  0.73366262  0.60156536  0.21402658  1
  Cu  Cu18  1  0.26633738  0.10156536  0.28597342  1
  Cu  Cu19  1  0.23366262  0.89843464  0.78597342  1
  Cu  Cu20  1  0.53693104  0.12025140  0.63413407  1
  Cu  Cu21  1  0.96306896  0.87974860  0.13413407  1
  Cu  Cu22  1  0.03693104  0.37974860  0.36586593  1
  Cu  Cu23  1  0.46306896  0.62025140  0.86586593  1
  H  H24  1  0.26048245  0.10415670  0.50490849  1
  H  H25  1  0.23951755  0.89584330  0.00490849  1
  H  H26  1  0.76048245  0.39584330  0.49509151  1
  H  H27  1  0.73951755  0.60415670  0.99509151  1
  H  H28  1  0.75966459  0.13630421  0.77701274  1
  H  H29  1  0.74033541  0.86369579  0.27701274  1
  H  H30  1  0.25966459  0.36369579  0.22298726  1
  H  H31  1  0.24033541  0.63630421  0.72298726  1
  O  O32  1  0.78715925  0.70882274  0.54802991  1
  O  O33  1  0.71284075  0.29117726  0.04802991  1
  O  O34  1  0.28715925  0.79117726  0.45197009  1
  O  O35  1  0.21284075  0.20882274  0.95197009  1
  O  O36  1  0.75687658  0.62043642  0.72374959  1
  O  O37  1  0.74312342  0.37956358  0.22374959  1
  O  O38  1  0.25687658  0.87956358  0.27625041  1
  O  O39  1  0.24312342  0.12043642  0.77625041  1
  O  O40  1  0.01867680  0.89361894  0.67698882  1
  O  O41  1  0.48132320  0.10638106  0.17698882  1
  O  O42  1  0.51867680  0.60638106  0.32301118  1
  O  O43  1  0.98132320  0.39361894  0.82301118  1
  O  O44  1  0.54021993  0.89497822  0.66535150  1
  O  O45  1  0.95978007  0.10502178  0.16535150  1
  O  O46  1  0.04021993  0.60502178  0.33464850  1
  O  O47  1  0.45978007  0.39497822  0.83464850  1
  O  O48  1  0.27637850  0.06244517  0.56494615  1
  O  O49  1  0.22362150  0.93755483  0.06494615  1
  O  O50  1  0.77637850  0.43755483  0.43505385  1
  O  O51  1  0.72362150  0.56244517  0.93505385  1
  O  O52  1  0.77237441  0.17187423  0.71386282  1
  O  O53  1  0.72762559  0.82812577  0.21386282  1
  O  O54  1  0.27237441  0.32812577  0.28613718  1
  O  O55  1  0.22762559  0.67187423  0.78613718  1
  O  O56  1  0.53381435  0.35033766  0.62147625  1
  O  O57  1  0.96618565  0.64966234  0.12147625  1
  O  O58  1  0.03381435  0.14966234  0.37852375  1
  O  O59  1  0.46618565  0.85033766  0.87852375  1
  O  O60  1  0.27261859  0.62808847  0.61823315  1
  O  O61  1  0.22738141  0.37191153  0.11823315  1
  O  O62  1  0.77261859  0.87191153  0.38176685  1
  O  O63  1  0.72738141  0.12808847  0.88176685  1
  O  O64  1  0.06166252  0.33942031  0.62367323  1
  O  O65  1  0.43833748  0.66057969  0.12367323  1
  O  O66  1  0.56166252  0.16057969  0.37632677  1
  O  O67  1  0.93833748  0.83942031  0.87632677  1
  O  O68  1  0.28773570  0.42106775  0.47024623  1
  O  O69  1  0.21226430  0.57893225  0.97024623  1
  O  O70  1  0.78773570  0.07893225  0.52975377  1
  O  O71  1  0.71226430  0.92106775  0.02975377  1
