# generated using pymatgen
data_BH6C2N5F4
_symmetry_space_group_name_H-M   'P 1'
_cell_length_a   5.47931639
_cell_length_b   7.67823614
_cell_length_c   9.87639255
_cell_angle_alpha   72.89669937
_cell_angle_beta   90.05690636
_cell_angle_gamma   86.95460056
_symmetry_Int_Tables_number   1
_chemical_formula_structural   BH6C2N5F4
_chemical_formula_sum   'B2 H12 C4 N10 F8'
_cell_volume   396.51784606
_cell_formula_units_Z   2
loop_
 _symmetry_equiv_pos_site_id
 _symmetry_equiv_pos_as_xyz
  1  'x, y, z'
loop_
 _atom_site_type_symbol
 _atom_site_label
 _atom_site_symmetry_multiplicity
 _atom_site_fract_x
 _atom_site_fract_y
 _atom_site_fract_z
 _atom_site_occupancy
  B  B0  1  0.13657955  0.13165252  0.68239201  1
  B  B1  1  0.86342045  0.86834748  0.31760799  1
  H  H2  1  0.92724538  0.30502271  0.05552759  1
  H  H3  1  0.07275462  0.69497729  0.94447241  1
  H  H4  1  0.71539660  0.16834989  0.01029174  1
  H  H5  1  0.28460340  0.83165011  0.98970826  1
  H  H6  1  0.33215876  0.78504976  0.52431597  1
  H  H7  1  0.66784124  0.21495024  0.47568403  1
  H  H8  1  0.21488130  0.56902106  0.57047284  1
  H  H9  1  0.78511870  0.43097894  0.42952716  1
  H  H10  1  0.42369839  0.32203814  0.79194695  1
  H  H11  1  0.57630161  0.67796186  0.20805305  1
  H  H12  1  0.70577793  0.82991430  0.68200105  1
  H  H13  1  0.29422207  0.17008570  0.31799895  1
  C  C14  1  0.70966425  0.43576579  0.88452464  1
  C  C15  1  0.29033575  0.56423421  0.11547536  1
  C  C16  1  0.50041539  0.60024116  0.69353062  1
  C  C17  1  0.49958461  0.39975884  0.30646938  1
  N  N18  1  0.80296258  0.59844634  0.85000809  1
  N  N19  1  0.19703742  0.40155366  0.14999191  1
  N  N20  1  0.77547531  0.29446163  0.99799991  1
  N  N21  1  0.22452469  0.70553837  0.00200009  1
  N  N22  1  0.34487786  0.65251424  0.58368823  1
  N  N23  1  0.65512214  0.34748576  0.41631177  1
  N  N24  1  0.52362205  0.43192180  0.79037173  1
  N  N25  1  0.47637795  0.56807820  0.20962827  1
  N  N26  1  0.66869628  0.69821091  0.73057315  1
  N  N27  1  0.33130372  0.30178909  0.26942685  1
  F  F28  1  0.08109205  0.32157886  0.61760578  1
  F  F29  1  0.91890795  0.67842114  0.38239422  1
  F  F30  1  0.91799371  0.04063561  0.71590821  1
  F  F31  1  0.08200629  0.95936439  0.28409179  1
  F  F32  1  0.27784267  0.05891632  0.59006276  1
  F  F33  1  0.72215733  0.94108368  0.40993724  1
  F  F34  1  0.27692722  0.11296924  0.80926685  1
  F  F35  1  0.72307278  0.88703076  0.19073315  1
