# generated using pymatgen
data_Mg14MnNbO16
_symmetry_space_group_name_H-M   'P 1'
_cell_length_a   8.61848025
_cell_length_b   8.63984268
_cell_length_c   4.32965525
_cell_angle_alpha   90.00000000
_cell_angle_beta   90.00000000
_cell_angle_gamma   90.00000000
_symmetry_Int_Tables_number   1
_chemical_formula_structural   Mg14MnNbO16
_chemical_formula_sum   'Mg14 Mn1 Nb1 O16'
_cell_volume   322.39614658
_cell_formula_units_Z   1
loop_
 _symmetry_equiv_pos_site_id
 _symmetry_equiv_pos_as_xyz
  1  'x, y, z'
loop_
 _atom_site_type_symbol
 _atom_site_label
 _atom_site_symmetry_multiplicity
 _atom_site_fract_x
 _atom_site_fract_y
 _atom_site_fract_z
 _atom_site_occupancy
  Mg  Mg0  1  0.50000000  -0.00000000  0.00000000  1
  Mg  Mg1  1  0.50000000  0.50000000  0.00000000  1
  Mg  Mg2  1  -0.00000000  0.24745016  0.50000000  1
  Mg  Mg3  1  -0.00000000  0.75254984  0.50000000  1
  Mg  Mg4  1  0.50000000  0.24990587  0.50000000  1
  Mg  Mg5  1  0.50000000  0.75009413  0.50000000  1
  Mg  Mg6  1  0.25151123  0.00000000  0.50000000  1
  Mg  Mg7  1  0.25381258  0.50000000  0.50000000  1
  Mg  Mg8  1  0.74848877  0.00000000  0.50000000  1
  Mg  Mg9  1  0.74618742  0.50000000  0.50000000  1
  Mg  Mg10  1  0.25262469  0.24882376  0.00000000  1
  Mg  Mg11  1  0.25262469  0.75117624  -0.00000000  1
  Mg  Mg12  1  0.74737531  0.24882376  -0.00000000  1
  Mg  Mg13  1  0.74737531  0.75117624  -0.00000000  1
  Mn  Mn14  1  -0.00000000  -0.00000000  0.00000000  1
  Nb  Nb15  1  -0.00000000  0.50000000  0.00000000  1
  O  O16  1  0.25802783  -0.00000000  0.00000000  1
  O  O17  1  0.26244516  0.50000000  0.00000000  1
  O  O18  1  0.74197217  0.00000000  -0.00000000  1
  O  O19  1  0.73755484  0.50000000  -0.00000000  1
  O  O20  1  0.24855424  0.25044979  0.50000000  1
  O  O21  1  0.24855424  0.74955021  0.50000000  1
  O  O22  1  0.75144576  0.25044979  0.50000000  1
  O  O23  1  0.75144576  0.74955021  0.50000000  1
  O  O24  1  0.00000000  0.00000000  0.50000000  1
  O  O25  1  -0.00000000  0.50000000  0.50000000  1
  O  O26  1  0.50000000  0.00000000  0.50000000  1
  O  O27  1  0.50000000  0.50000000  0.50000000  1
  O  O28  1  0.00000000  0.24365462  0.00000000  1
  O  O29  1  0.00000000  0.75634538  0.00000000  1
  O  O30  1  0.50000000  0.24955288  0.00000000  1
  O  O31  1  0.50000000  0.75044712  0.00000000  1
