# generated using pymatgen
data_LiYbSi6H54(C6N)3
_symmetry_space_group_name_H-M   'P 1'
_cell_length_a   9.34584878
_cell_length_b   12.28325386
_cell_length_c   17.16494676
_cell_angle_alpha   96.43964319
_cell_angle_beta   95.59000138
_cell_angle_gamma   102.32492294
_symmetry_Int_Tables_number   1
_chemical_formula_structural   LiYbSi6H54(C6N)3
_chemical_formula_sum   'Li2 Yb2 Si12 H108 C36 N6'
_cell_volume   1897.92750008
_cell_formula_units_Z   2
loop_
 _symmetry_equiv_pos_site_id
 _symmetry_equiv_pos_as_xyz
  1  'x, y, z'
loop_
 _atom_site_type_symbol
 _atom_site_label
 _atom_site_symmetry_multiplicity
 _atom_site_fract_x
 _atom_site_fract_y
 _atom_site_fract_z
 _atom_site_occupancy
  Li  Li0  1  0.32457573  0.35192077  0.29276017  1
  Li  Li1  1  0.67542427  0.64807923  0.70723983  1
  Yb  Yb2  1  0.26506526  0.11094726  0.25122110  1
  Yb  Yb3  1  0.73493474  0.88905274  0.74877890  1
  Si  Si4  1  0.35120439  0.85976854  0.17481707  1
  Si  Si5  1  0.64879561  0.14023146  0.82518293  1
  Si  Si6  1  0.08171135  0.83493366  0.26055348  1
  Si  Si7  1  0.91828865  0.16506634  0.73944652  1
  Si  Si8  1  0.52590413  0.36135178  0.18598057  1
  Si  Si9  1  0.47409587  0.63864822  0.81401943  1
  Si  Si10  1  0.21726665  0.25412638  0.10657017  1
  Si  Si11  1  0.78273335  0.74587362  0.89342983  1
  Si  Si12  1  0.36133523  0.20115199  0.43955542  1
  Si  Si13  1  0.63866477  0.79884801  0.56044458  1
  Si  Si14  1  0.11533623  0.31063328  0.39567890  1
  Si  Si15  1  0.88466377  0.68936672  0.60432110  1
  H  H16  1  0.23371640  0.83419165  0.03331373  1
  H  H17  1  0.76628360  0.16580835  0.96668627  1
  H  H18  1  0.37199186  0.75614481  0.04484902  1
  H  H19  1  0.62800814  0.24385519  0.95515098  1
  H  H20  1  0.19444668  0.70429211  0.07201091  1
  H  H21  1  0.80555332  0.29570789  0.92798909  1
  H  H22  1  0.36192682  0.68062380  0.23329149  1
  H  H23  1  0.63807318  0.31937620  0.76670851  1
  H  H24  1  0.52773097  0.73522219  0.19494389  1
  H  H25  1  0.47226903  0.26477781  0.80505611  1
  H  H26  1  0.49383222  0.79706661  0.28778115  1
  H  H27  1  0.50616778  0.20293339  0.71221885  1
  H  H28  1  0.46880689  0.04612344  0.13376298  1
  H  H29  1  0.53119311  0.95387656  0.86623702  1
  H  H30  1  0.57242351  0.01905721  0.21948449  1
  H  H31  1  0.42757649  0.98094279  0.78051551  1
  H  H32  1  0.58571591  0.95104090  0.12505357  1
  H  H33  1  0.41428409  0.04895910  0.87494643  1
  H  H34  1  0.03156490  0.63279677  0.19469067  1
  H  H35  1  0.96843510  0.36720323  0.80530933  1
  H  H36  1  0.86918659  0.67097674  0.22170864  1
  H  H37  1  0.13081341  0.32902326  0.77829136  1
  H  H38  1  0.94041897  0.71268977  0.13497761  1
  H  H39  1  0.05958103  0.28731023  0.86502239  1
  H  H40  1  0.21343089  0.85418617  0.39884691  1
  H  H41  1  0.78656911  0.14581383  0.60115309  1
  H  H42  1  0.04063377  0.75608692  0.38722076  1
  H  H43  1  0.95936623  0.24391308  0.61277924  1
  H  H44  1  0.19437718  0.71637781  0.34928022  1
  H  H45  1  0.80562282  0.28362219  0.65071978  1
  H  H46  1  0.99354619  0.99827711  0.32677241  1
  H  H47  1  0.00645381  0.00172289  0.67322759  1
  H  H48  1  0.90297034  0.95512210  0.22831532  1
  H  H49  1  0.09702966  0.04487790  0.77168468  1
  H  H50  1  0.84843127  0.87718479  0.30530435  1
  H  H51  1  0.15156873  0.12281521  0.69469565  1
  H  H52  1  0.66921418  0.23398885  0.12058605  1
  H  H53  1  0.33078582  0.76601115  0.87941395  1
  H  H54  1  0.78611275  0.34721938  0.18575944  1
  H  H55  1  0.21388725  0.65278062  0.81424056  1
  H  H56  1  0.68561647  0.22937930  0.22392058  1
  H  H57  1  0.31438353  0.77062070  0.77607942  1
  H  H58  1  0.56833962  0.41040737  0.33699560  1
  H  H59  1  0.43166038  0.58959263  0.66300440  1
  H  H60  1  0.69035985  0.50283993  0.29003123  1
  H  H61  1  0.30964015  0.49716007  0.70996877  1
  H  H62  1  0.50994394  0.52156222  0.29229994  1
  H  H63  1  0.49005606  0.47843778  0.70770006  1
  H  H64  1  0.52848060  0.41510143  0.04809283  1
  H  H65  1  0.47151940  0.58489857  0.95190717  1
  H  H66  1  0.47051402  0.51780350  0.11103645  1
  H  H67  1  0.52948598  0.48219650  0.88896355  1
  H  H68  1  0.65873156  0.51153420  0.11828714  1
  H  H69  1  0.34126844  0.48846580  0.88171286  1
  H  H70  1  0.21583731  0.43630302  0.05203435  1
  H  H71  1  0.78416269  0.56369698  0.94796565  1
  H  H72  1  0.03596191  0.35132302  0.04566695  1
  H  H73  1  0.96403809  0.64867698  0.95433305  1
  H  H74  1  0.12104707  0.43213292  0.13653915  1
  H  H75  1  0.87895293  0.56786708  0.86346085  1
  H  H76  1  0.35636771  0.24880705  0.98773295  1
  H  H77  1  0.64363229  0.75119295  0.01226705  1
  H  H78  1  0.30325643  0.11256585  0.01564187  1
  H  H79  1  0.69674357  0.88743415  0.98435813  1
  H  H80  1  0.17082459  0.17263055  0.96495861  1
  H  H81  1  0.82917541  0.82736945  0.03504139  1
  H  H82  1  0.07209215  0.05921401  0.12732977  1
  H  H83  1  0.92790785  0.94078599  0.87267023  1
  H  H84  1  0.01612822  0.16849009  0.18767963  1
  H  H85  1  0.98387178  0.83150991  0.81232037  1
  H  H86  1  0.95858234  0.13985864  0.08593047  1
  H  H87  1  0.04141766  0.86014136  0.91406953  1
  H  H88  1  0.45686964  0.38879855  0.52694338  1
  H  H89  1  0.54313036  0.61120145  0.47305662  1
  H  H90  1  0.54866583  0.28513814  0.55594497  1
  H  H91  1  0.45133417  0.71486186  0.44405503  1
  H  H92  1  0.59726970  0.35253491  0.47354579  1
  H  H93  1  0.40273030  0.64746509  0.52645421  1
  H  H94  1  0.53818111  0.15261182  0.34469052  1
  H  H95  1  0.46181889  0.84738818  0.65530948  1
  H  H96  1  0.55497803  0.09091608  0.43121772  1
  H  H97  1  0.44502197  0.90908392  0.56878228  1
  H  H98  1  0.40783581  0.02708009  0.35721962  1
  H  H99  1  0.59216419  0.97291991  0.64278038  1
  H  H100  1  0.19440885  0.15971800  0.54542785  1
  H  H101  1  0.80559115  0.84028200  0.45457215  1
  H  H102  1  0.17810317  0.03839283  0.47606003  1
  H  H103  1  0.82189683  0.96160717  0.52393997  1
  H  H104  1  0.33524709  0.08420262  0.54859758  1
  H  H105  1  0.66475291  0.91579738  0.45140242  1
  H  H106  1  0.07810452  0.38935801  0.26563300  1
  H  H107  1  0.92189548  0.61064199  0.73436700  1
  H  H108  1  0.01797269  0.46556544  0.34411297  1
  H  H109  1  0.98202731  0.53443456  0.65588703  1
  H  H110  1  0.20710037  0.49117593  0.33630121  1
  H  H111  1  0.79289963  0.50882407  0.66369879  1
  H  H112  1  0.88718803  0.17172715  0.32617380  1
  H  H113  1  0.11281197  0.82827285  0.67382620  1
  H  H114  1  0.91338115  0.15806847  0.42808061  1
  H  H115  1  0.08661885  0.84193153  0.57191939  1
  H  H116  1  0.84454646  0.27222549  0.39773059  1
  H  H117  1  0.15545354  0.72777451  0.60226941  1
  H  H118  1  0.24081246  0.46587424  0.50654066  1
  H  H119  1  0.75918754  0.53412576  0.49345934  1
  H  H120  1  0.04991179  0.41767342  0.51225170  1
  H  H121  1  0.95008821  0.58232658  0.48774830  1
  H  H122  1  0.17577472  0.33966452  0.54589308  1
  H  H123  1  0.82422528  0.66033548  0.45410692  1
  C  C124  1  0.28011490  0.78125647  0.07198724  1
  C  C125  1  0.71988510  0.21874353  0.92801276  1
  C  C126  1  0.44134688  0.75886947  0.22781861  1
  C  C127  1  0.55865312  0.24113053  0.77218139  1
  C  C128  1  0.50800088  0.97986365  0.16215014  1
  C  C129  1  0.49199912  0.02013635  0.83784986  1
  C  C130  1  0.97197417  0.70094425  0.19653049  1
  C  C131  1  0.02802583  0.29905575  0.80346951  1
  C  C132  1  0.13797972  0.78601742  0.35776921  1
  C  C133  1  0.86202028  0.21398258  0.64223079  1
  C  C134  1  0.94479576  0.92451202  0.28199861  1
  C  C135  1  0.05520424  0.07548798  0.71800139  1
  C  C136  1  0.68007560  0.28535442  0.17853094  1
  C  C137  1  0.31992440  0.71464558  0.82146906  1
  C  C138  1  0.57466790  0.45654487  0.28524466  1
  C  C139  1  0.42533210  0.54345513  0.71475534  1
  C  C140  1  0.54512515  0.46001570  0.10869193  1
  C  C141  1  0.45487485  0.53998430  0.89130807  1
  C  C142  1  0.14186777  0.38032090  0.08406753  1
  C  C143  1  0.85813223  0.61967910  0.91593247  1
  C  C144  1  0.26750802  0.19140589  0.01031455  1
  C  C145  1  0.73249198  0.80859411  0.98968545  1
  C  C146  1  0.05426137  0.14564453  0.13047857  1
  C  C147  1  0.94573863  0.85435547  0.86952143  1
  C  C148  1  0.50321579  0.31829975  0.50433235  1
  C  C149  1  0.49678421  0.68170025  0.49566765  1
  C  C150  1  0.47274383  0.10969230  0.38712307  1
  C  C151  1  0.52725617  0.89030770  0.61287693  1
  C  C152  1  0.25698425  0.11331919  0.50834974  1
  C  C153  1  0.74301575  0.88668081  0.49165026  1
  C  C154  1  0.10586778  0.42330740  0.32889102  1
  C  C155  1  0.89413222  0.57669260  0.67110898  1
  C  C156  1  0.92299612  0.21932250  0.38570549  1
  C  C157  1  0.07700388  0.78067750  0.61429451  1
  C  C158  1  0.15047567  0.39020046  0.49955169  1
  C  C159  1  0.84952433  0.60979954  0.50044831  1
  N  N160  1  0.22540871  0.91558923  0.22295572  1
  N  N161  1  0.77459129  0.08441077  0.77704428  1
  N  N162  1  0.35295080  0.27464704  0.18664275  1
  N  N163  1  0.64704920  0.72535296  0.81335725  1
  N  N164  1  0.24937250  0.24145954  0.36673649  1
  N  N165  1  0.75062750  0.75854046  0.63326351  1
