# generated using pymatgen
data_Rb4Li(SO4)4
_symmetry_space_group_name_H-M   'P 1'
_cell_length_a   7.81505921
_cell_length_b   7.81505921
_cell_length_c   30.24580242
_cell_angle_alpha   90.00000000
_cell_angle_beta   90.00000000
_cell_angle_gamma   90.00000000
_symmetry_Int_Tables_number   1
_chemical_formula_structural   Rb4Li(SO4)4
_chemical_formula_sum   'Rb16 Li4 S16 O64'
_cell_volume   1847.26693346
_cell_formula_units_Z   4
loop_
 _symmetry_equiv_pos_site_id
 _symmetry_equiv_pos_as_xyz
  1  'x, y, z'
loop_
 _atom_site_type_symbol
 _atom_site_label
 _atom_site_symmetry_multiplicity
 _atom_site_fract_x
 _atom_site_fract_y
 _atom_site_fract_z
 _atom_site_occupancy
  Rb  Rb0  1  0.88186227  0.94079664  0.46477455  1
  Rb  Rb1  1  0.11813773  0.05920336  0.96477455  1
  Rb  Rb2  1  0.94079664  0.11813773  0.21477455  1
  Rb  Rb3  1  0.05920336  0.88186227  0.71477455  1
  Rb  Rb4  1  0.39061349  0.63042009  0.45474157  1
  Rb  Rb5  1  0.60938651  0.36957991  0.95474157  1
  Rb  Rb6  1  0.63042009  0.60938651  0.20474157  1
  Rb  Rb7  1  0.36957991  0.39061349  0.70474157  1
  Rb  Rb8  1  0.98236179  0.46590621  0.83399663  1
  Rb  Rb9  1  0.01763821  0.53409379  0.33399663  1
  Rb  Rb10  1  0.46590621  0.01763821  0.58399663  1
  Rb  Rb11  1  0.53409379  0.98236179  0.08399663  1
  Rb  Rb12  1  0.47636081  0.77807935  0.82635486  1
  Rb  Rb13  1  0.52363919  0.22192065  0.32635486  1
  Rb  Rb14  1  0.77807935  0.52363919  0.57635486  1
  Rb  Rb15  1  0.22192065  0.47636081  0.07635486  1
  Li  Li16  1  0.87039501  0.71961823  0.02005787  1
  Li  Li17  1  0.12960499  0.28038177  0.52005787  1
  Li  Li18  1  0.71961823  0.12960499  0.77005787  1
  Li  Li19  1  0.28038177  0.87039501  0.27005787  1
  S  S20  1  0.12784683  0.54128197  0.95381516  1
  S  S21  1  0.87215317  0.45871803  0.45381516  1
  S  S22  1  0.54128197  0.87215317  0.70381516  1
  S  S23  1  0.45871803  0.12784683  0.20381516  1
  S  S24  1  0.12089667  0.59509196  0.20681226  1
  S  S25  1  0.87910333  0.40490804  0.70681226  1
  S  S26  1  0.59509196  0.87910333  0.95681226  1
  S  S27  1  0.40490804  0.12089667  0.45681226  1
  S  S28  1  0.99257427  0.96245736  0.83556610  1
  S  S29  1  0.00742573  0.03754264  0.33556610  1
  S  S30  1  0.96245736  0.00742573  0.58556610  1
  S  S31  1  0.03754264  0.99257427  0.08556610  1
  S  S32  1  0.70051793  0.45797245  0.08377022  1
  S  S33  1  0.29948207  0.54202755  0.58377022  1
  S  S34  1  0.45797245  0.29948207  0.83377022  1
  S  S35  1  0.54202755  0.70051793  0.33377022  1
  O  O36  1  0.25139406  0.42639535  0.97591913  1
  O  O37  1  0.74860594  0.57360465  0.47591913  1
  O  O38  1  0.42639535  0.74860594  0.72591913  1
  O  O39  1  0.57360465  0.25139406  0.22591913  1
  O  O40  1  0.20345554  0.61692427  0.91258969  1
  O  O41  1  0.79654446  0.38307573  0.41258969  1
  O  O42  1  0.61692427  0.79654446  0.66258969  1
  O  O43  1  0.38307573  0.20345554  0.16258969  1
  O  O44  1  0.07360636  0.67881202  0.98455687  1
  O  O45  1  0.92639364  0.32118798  0.48455687  1
  O  O46  1  0.67881202  0.92639364  0.73455687  1
  O  O47  1  0.32118798  0.07360636  0.23455687  1
  O  O48  1  0.97758712  0.44050287  0.93726916  1
  O  O49  1  0.02241288  0.55949713  0.43726916  1
  O  O50  1  0.44050287  0.02241288  0.68726916  1
  O  O51  1  0.55949713  0.97758712  0.18726916  1
  O  O52  1  0.25473541  0.65813435  0.23770127  1
  O  O53  1  0.74526459  0.34186565  0.73770127  1
  O  O54  1  0.65813435  0.74526459  0.98770127  1
  O  O55  1  0.34186565  0.25473541  0.48770127  1
  O  O56  1  0.02042340  0.73967016  0.18714022  1
  O  O57  1  0.97957660  0.26032984  0.68714022  1
  O  O58  1  0.73967016  0.97957660  0.93714022  1
  O  O59  1  0.26032984  0.02042340  0.43714022  1
  O  O60  1  0.99663904  0.48557820  0.23101677  1
  O  O61  1  0.00336096  0.51442180  0.73101677  1
  O  O62  1  0.48557820  0.00336096  0.98101677  1
  O  O63  1  0.51442180  0.99663904  0.48101677  1
  O  O64  1  0.20253921  0.50138761  0.16963320  1
  O  O65  1  0.79746079  0.49861239  0.66963320  1
  O  O66  1  0.50138761  0.79746079  0.91963320  1
  O  O67  1  0.49861239  0.20253921  0.41963320  1
  O  O68  1  0.10904356  0.83535081  0.81461395  1
  O  O69  1  0.89095644  0.16464919  0.31461395  1
  O  O70  1  0.83535081  0.89095644  0.56461395  1
  O  O71  1  0.16464919  0.10904356  0.06461395  1
  O  O72  1  0.84725910  0.86419382  0.85559352  1
  O  O73  1  0.15274090  0.13580618  0.35559352  1
  O  O74  1  0.86419382  0.15274090  0.60559352  1
  O  O75  1  0.13580618  0.84725910  0.10559352  1
  O  O76  1  0.07892197  0.05639501  0.87198401  1
  O  O77  1  0.92107803  0.94360499  0.37198401  1
  O  O78  1  0.05639501  0.92107803  0.62198401  1
  O  O79  1  0.94360499  0.07892197  0.12198401  1
  O  O80  1  0.93156232  0.08611075  0.80169733  1
  O  O81  1  0.06843768  0.91388925  0.30169733  1
  O  O82  1  0.08611075  0.06843768  0.55169733  1
  O  O83  1  0.91388925  0.93156232  0.05169733  1
  O  O84  1  0.59754905  0.60767419  0.09988792  1
  O  O85  1  0.40245095  0.39232581  0.59988792  1
  O  O86  1  0.60767419  0.40245095  0.84988792  1
  O  O87  1  0.39232581  0.59754905  0.34988792  1
  O  O88  1  0.84464634  0.51420484  0.05536808  1
  O  O89  1  0.15535366  0.48579516  0.55536808  1
  O  O90  1  0.51420484  0.15535366  0.80536808  1
  O  O91  1  0.48579516  0.84464634  0.30536808  1
  O  O92  1  0.76749301  0.37952116  0.12570359  1
  O  O93  1  0.23250699  0.62047884  0.62570359  1
  O  O94  1  0.37952116  0.23250699  0.87570359  1
  O  O95  1  0.62047884  0.76749301  0.37570359  1
  O  O96  1  0.58951577  0.33705421  0.05955606  1
  O  O97  1  0.41048423  0.66294579  0.55955606  1
  O  O98  1  0.33705421  0.41048423  0.80955606  1
  O  O99  1  0.66294579  0.58951577  0.30955606  1
