# generated using pymatgen
data_SiP4H28(C5Cl2)2
_symmetry_space_group_name_H-M   'P 1'
_cell_length_a   7.06977407
_cell_length_b   9.18894261
_cell_length_c   9.26297257
_cell_angle_alpha   87.36637269
_cell_angle_beta   91.08681414
_cell_angle_gamma   86.26511647
_symmetry_Int_Tables_number   1
_chemical_formula_structural   SiP4H28(C5Cl2)2
_chemical_formula_sum   'Si1 P4 H28 C10 Cl4'
_cell_volume   599.69954650
_cell_formula_units_Z   1
loop_
 _symmetry_equiv_pos_site_id
 _symmetry_equiv_pos_as_xyz
  1  'x, y, z'
loop_
 _atom_site_type_symbol
 _atom_site_label
 _atom_site_symmetry_multiplicity
 _atom_site_fract_x
 _atom_site_fract_y
 _atom_site_fract_z
 _atom_site_occupancy
  Si  Si0  1  0.00000000  0.50000000  0.50000000  1
  P  P1  1  0.83705189  0.70654159  0.37181023  1
  P  P2  1  0.16294811  0.29345841  0.62818977  1
  P  P3  1  0.61499420  0.82147995  0.08777498  1
  P  P4  1  0.38500580  0.17852005  0.91222502  1
  H  H5  1  0.82830647  0.59907912  0.14059363  1
  H  H6  1  0.17169353  0.40092088  0.85940637  1
  H  H7  1  0.60978237  0.59182367  0.23140061  1
  H  H8  1  0.39021763  0.40817633  0.76859939  1
  H  H9  1  0.06946728  0.87892979  0.42332171  1
  H  H10  1  0.93053272  0.12107021  0.57667829  1
  H  H11  1  0.09903167  0.81015894  0.24781712  1
  H  H12  1  0.90096833  0.18984106  0.75218288  1
  H  H13  1  0.91030261  0.94588542  0.27762373  1
  H  H14  1  0.08969739  0.05411458  0.72237627  1
  H  H15  1  0.53740753  0.72657760  0.49584143  1
  H  H16  1  0.46259247  0.27342240  0.50415857  1
  H  H17  1  0.71390035  0.82901997  0.57748603  1
  H  H18  1  0.28609965  0.17098003  0.42251397  1
  H  H19  1  0.59674812  0.89696055  0.41085047  1
  H  H20  1  0.40325188  0.10303945  0.58914953  1
  H  H21  1  0.51139266  0.63129334  0.92568932  1
  H  H22  1  0.48860734  0.36870666  0.07431068  1
  H  H23  1  0.33285308  0.68439654  0.05116611  1
  H  H24  1  0.66714692  0.31560346  0.94883389  1
  H  H25  1  0.37861228  0.80263481  0.89936729  1
  H  H26  1  0.62138772  0.19736519  0.10063271  1
  H  H27  1  0.74864134  0.92251919  0.86969671  1
  H  H28  1  0.25135866  0.07748081  0.13030329  1
  H  H29  1  0.93071711  0.87412036  0.00195569  1
  H  H30  1  0.06928289  0.12587964  0.99804431  1
  H  H31  1  0.83448336  0.73559043  0.89818436  1
  H  H32  1  0.16551664  0.26440957  0.10181564  1
  C  C33  1  0.72354275  0.66298462  0.20200088  1
  C  C34  1  0.27645725  0.33701538  0.79799912  1
  C  C35  1  0.99457082  0.84986882  0.32481565  1
  C  C36  1  0.00542918  0.15013118  0.67518435  1
  C  C37  1  0.65219775  0.79870660  0.47421059  1
  C  C38  1  0.34780225  0.20129340  0.52578941  1
  C  C39  1  0.44433359  0.72388030  0.98125625  1
  C  C40  1  0.55566641  0.27611970  0.01874375  1
  C  C41  1  0.80074932  0.83839493  0.95158803  1
  C  C42  1  0.19925068  0.16160507  0.04841197  1
  Cl  Cl43  1  0.85862966  0.34195081  0.36442280  1
  Cl  Cl44  1  0.14137034  0.65804919  0.63557720  1
  Cl  Cl45  1  0.76948801  0.48713710  0.66212639  1
  Cl  Cl46  1  0.23051199  0.51286290  0.33787361  1
