# generated using pymatgen
data_Nd2H22C10(N2O7)3
_symmetry_space_group_name_H-M   'P 1'
_cell_length_a   9.18786898
_cell_length_b   9.18786898
_cell_length_c   15.74197736
_cell_angle_alpha   77.25201937
_cell_angle_beta   77.25201937
_cell_angle_gamma   78.60497623
_symmetry_Int_Tables_number   1
_chemical_formula_structural   Nd2H22C10(N2O7)3
_chemical_formula_sum   'Nd4 H44 C20 N12 O42'
_cell_volume   1248.60557963
_cell_formula_units_Z   2
loop_
 _symmetry_equiv_pos_site_id
 _symmetry_equiv_pos_as_xyz
  1  'x, y, z'
loop_
 _atom_site_type_symbol
 _atom_site_label
 _atom_site_symmetry_multiplicity
 _atom_site_fract_x
 _atom_site_fract_y
 _atom_site_fract_z
 _atom_site_occupancy
  Nd  Nd0  1  0.96847677  0.67950102  0.16088951  1
  Nd  Nd1  1  0.32049898  0.03152323  0.33911049  1
  Nd  Nd2  1  0.03152323  0.32049898  0.83911049  1
  Nd  Nd3  1  0.67950102  0.96847677  0.66088951  1
  H  H4  1  0.88231741  0.95397021  0.99941565  1
  H  H5  1  0.04602979  0.11768259  0.50058435  1
  H  H6  1  0.11768259  0.04602979  0.00058435  1
  H  H7  1  0.95397021  0.88231741  0.49941565  1
  H  H8  1  0.99371709  0.82481297  0.95441188  1
  H  H9  1  0.17518703  0.00628291  0.54558812  1
  H  H10  1  0.00628291  0.17518703  0.04558812  1
  H  H11  1  0.82481297  0.99371709  0.45441188  1
  H  H12  1  0.17374026  0.72820334  0.83336258  1
  H  H13  1  0.27179666  0.82625974  0.66663742  1
  H  H14  1  0.82625974  0.27179666  0.16663742  1
  H  H15  1  0.72820334  0.17374026  0.33336258  1
  H  H16  1  0.13251493  0.90159047  0.83415432  1
  H  H17  1  0.09840953  0.86748507  0.66584568  1
  H  H18  1  0.86748507  0.09840953  0.16584568  1
  H  H19  1  0.90159047  0.13251493  0.33415432  1
  H  H20  1  0.34969659  0.54117122  0.74525611  1
  H  H21  1  0.45882878  0.65030341  0.75474389  1
  H  H22  1  0.65030341  0.45882878  0.25474389  1
  H  H23  1  0.54117122  0.34969659  0.24525611  1
  H  H24  1  0.71909497  0.77220006  0.99252448  1
  H  H25  1  0.22779994  0.28090503  0.50747552  1
  H  H26  1  0.28090503  0.22779994  0.00747552  1
  H  H27  1  0.77220006  0.71909497  0.49252448  1
  H  H28  1  0.64237835  0.86961688  0.90141811  1
  H  H29  1  0.13038312  0.35762165  0.59858189  1
  H  H30  1  0.35762165  0.13038312  0.09858189  1
  H  H31  1  0.86961688  0.64237835  0.40141811  1
  H  H32  1  0.40426337  0.59289439  0.10656631  1
  H  H33  1  0.40710561  0.59573663  0.39343369  1
  H  H34  1  0.59573663  0.40710561  0.89343369  1
  H  H35  1  0.59289439  0.40426337  0.60656631  1
  H  H36  1  0.59377726  0.60845518  0.10206359  1
  H  H37  1  0.39154482  0.40622274  0.39793641  1
  H  H38  1  0.40622274  0.39154482  0.89793641  1
  H  H39  1  0.60845518  0.59377726  0.60206359  1
  H  H40  1  0.40615875  0.81326029  0.88743295  1
  H  H41  1  0.18673971  0.59384125  0.61256705  1
  H  H42  1  0.59384125  0.18673971  0.11256705  1
  H  H43  1  0.81326029  0.40615875  0.38743295  1
  H  H44  1  0.30695076  0.69243784  0.97441196  1
  H  H45  1  0.30756216  0.69304924  0.52558804  1
  H  H46  1  0.69304924  0.30756216  0.02558804  1
  H  H47  1  0.69243784  0.30695076  0.47441196  1
  C  C48  1  0.07436513  0.34072371  0.27784141  1
  C  C49  1  0.65927629  0.92563487  0.22215859  1
  C  C50  1  0.92563487  0.65927629  0.72215859  1
  C  C51  1  0.34072371  0.07436513  0.77784141  1
  C  C52  1  0.22930052  0.39401784  0.23706728  1
  C  C53  1  0.60598216  0.77069948  0.26293272  1
  C  C54  1  0.77069948  0.60598216  0.76293272  1
  C  C55  1  0.39401784  0.22930052  0.73706728  1
  C  C56  1  0.91505036  0.49131368  0.01424011  1
  C  C57  1  0.50868632  0.08494964  0.48575989  1
  C  C58  1  0.08494964  0.50868632  0.98575989  1
  C  C59  1  0.49131368  0.91505036  0.51424011  1
  C  C60  1  0.17371505  0.90147098  0.20271789  1
  C  C61  1  0.09852902  0.82628495  0.29728211  1
  C  C62  1  0.82628495  0.09852902  0.79728211  1
  C  C63  1  0.90147098  0.17371505  0.70271789  1
  C  C64  1  0.50785318  0.72818404  0.99468042  1
  C  C65  1  0.27181596  0.49214682  0.50531958  1
  C  C66  1  0.49214682  0.27181596  0.00531958  1
  C  C67  1  0.72818404  0.50785318  0.49468042  1
  N  N68  1  0.63120239  0.79351532  0.95965588  1
  N  N69  1  0.20648468  0.36879761  0.54034412  1
  N  N70  1  0.36879761  0.20648468  0.04034412  1
  N  N71  1  0.79351532  0.63120239  0.45965588  1
  N  N72  1  0.50017293  0.63645024  0.07386916  1
  N  N73  1  0.36354976  0.49982707  0.42613084  1
  N  N74  1  0.49982707  0.36354976  0.92613084  1
  N  N75  1  0.63645024  0.50017293  0.57386916  1
  N  N76  1  0.39301750  0.75508488  0.95101511  1
  N  N77  1  0.24491512  0.60698250  0.54898489  1
  N  N78  1  0.60698250  0.24491512  0.04898489  1
  N  N79  1  0.75508488  0.39301750  0.45101511  1
  O  O80  1  0.95663653  0.43568042  0.26724784  1
  O  O81  1  0.56431958  0.04336347  0.23275216  1
  O  O82  1  0.04336347  0.56431958  0.73275216  1
  O  O83  1  0.43568042  0.95663653  0.76724784  1
  O  O84  1  0.07670767  0.20647868  0.32053837  1
  O  O85  1  0.79352132  0.92329233  0.17946163  1
  O  O86  1  0.92329233  0.79352132  0.67946163  1
  O  O87  1  0.20647868  0.07670767  0.82053837  1
  O  O88  1  0.34543925  0.30037402  0.25456326  1
  O  O89  1  0.69962598  0.65456075  0.24543674  1
  O  O90  1  0.65456075  0.69962598  0.74543674  1
  O  O91  1  0.30037402  0.34543925  0.75456326  1
  O  O92  1  0.22678056  0.52554934  0.19135757  1
  O  O93  1  0.47445066  0.77321944  0.30864243  1
  O  O94  1  0.77321944  0.47445066  0.80864243  1
  O  O95  1  0.52554934  0.22678056  0.69135757  1
  O  O96  1  0.86417306  0.42157355  0.96910987  1
  O  O97  1  0.57842645  0.13582694  0.53089013  1
  O  O98  1  0.13582694  0.57842645  0.03089013  1
  O  O99  1  0.42157355  0.86417306  0.46910987  1
  O  O100  1  0.84091090  0.54839467  0.08031214  1
  O  O101  1  0.45160533  0.15908910  0.41968786  1
  O  O102  1  0.15908910  0.45160533  0.91968786  1
  O  O103  1  0.54839467  0.84091090  0.58031214  1
  O  O104  1  0.13816238  0.86752087  0.13707498  1
  O  O105  1  0.13247913  0.86183762  0.36292502  1
  O  O106  1  0.86183762  0.13247913  0.86292502  1
  O  O107  1  0.86752087  0.13816238  0.63707498  1
  O  O108  1  0.26398975  0.99160921  0.19933329  1
  O  O109  1  0.00839079  0.73601025  0.30066671  1
  O  O110  1  0.73601025  0.00839079  0.80066671  1
  O  O111  1  0.99160921  0.26398975  0.69933329  1
  O  O112  1  0.92487611  0.84718909  0.01148188  1
  O  O113  1  0.15281091  0.07512389  0.48851812  1
  O  O114  1  0.07512389  0.15281091  0.98851812  1
  O  O115  1  0.84718909  0.92487611  0.51148188  1
  O  O116  1  0.09247657  0.80535582  0.85550758  1
  O  O117  1  0.19464418  0.90752343  0.64449242  1
  O  O118  1  0.90752343  0.19464418  0.14449242  1
  O  O119  1  0.80535582  0.09247657  0.35550758  1
  O  O120  1  0.35456728  0.64543272  0.75000000  1
  O  O121  1  0.64543272  0.35456728  0.25000000  1
