# generated using pymatgen
data_P4H36W(C6Cl)2
_symmetry_space_group_name_H-M   'P 1'
_cell_length_a   9.54330335
_cell_length_b   9.54330335
_cell_length_c   9.54330335
_cell_angle_alpha   94.17205200
_cell_angle_beta   117.62121524
_cell_angle_gamma   117.62121524
_symmetry_Int_Tables_number   1
_chemical_formula_structural   P4H36W(C6Cl)2
_chemical_formula_sum   'P4 H36 W1 C12 Cl2'
_cell_volume   634.86067392
_cell_formula_units_Z   1
loop_
 _symmetry_equiv_pos_site_id
 _symmetry_equiv_pos_as_xyz
  1  'x, y, z'
loop_
 _atom_site_type_symbol
 _atom_site_label
 _atom_site_symmetry_multiplicity
 _atom_site_fract_x
 _atom_site_fract_y
 _atom_site_fract_z
 _atom_site_occupancy
  P  P0  1  0.35190521  0.64525832  0.64525832  1
  P  P1  1  0.64809479  0.29335311  0.29335311  1
  P  P2  1  -0.00000000  0.35474168  0.70664689  1
  P  P3  1  -0.00000000  0.70664689  0.35474168  1
  H  H4  1  0.60049060  0.58739251  0.75587004  1
  H  H5  1  0.39950940  0.15537943  0.98690191  1
  H  H6  1  0.16847752  0.41260749  0.01309809  1
  H  H7  1  0.83152248  0.84462057  0.24412996  1
  H  H8  1  0.83152248  0.24412996  0.84462057  1
  H  H9  1  0.16847752  0.01309809  0.41260749  1
  H  H10  1  0.60049060  0.75587004  0.58739251  1
  H  H11  1  0.39950940  0.98690191  0.15537943  1
  H  H12  1  0.43719311  0.48224700  0.81575616  1
  H  H13  1  0.56280689  0.37856305  0.04505389  1
  H  H14  1  0.33350916  0.51775300  0.95494611  1
  H  H15  1  0.66649084  0.62143695  0.18424384  1
  H  H16  1  0.66649084  0.18424384  0.62143695  1
  H  H17  1  0.33350916  0.95494611  0.51775300  1
  H  H18  1  0.43719311  0.81575616  0.48224700  1
  H  H19  1  0.56280689  0.04505389  0.37856305  1
  H  H20  1  0.36563762  0.40054204  0.60308960  1
  H  H21  1  0.63436238  0.23745198  0.03490442  1
  H  H22  1  0.20254756  0.59945796  0.96509558  1
  H  H23  1  0.79745244  0.76254802  0.39691040  1
  H  H24  1  0.79745244  0.39691040  0.76254802  1
  H  H25  1  0.20254756  0.96509558  0.59945796  1
  H  H26  1  0.36563762  0.60308960  0.40054204  1
  H  H27  1  0.63436238  0.03490442  0.23745198  1
  H  H28  1  0.66998213  0.88431745  0.88431745  1
  H  H29  1  0.33001787  0.21433532  0.21433532  1
  H  H30  1  0.00000000  0.11568255  0.78566468  1
  H  H31  1  0.00000000  0.78566468  0.11568255  1
  H  H32  1  0.49877115  0.81137545  0.93840823  1
  H  H33  1  0.50122885  0.43963709  0.31260431  1
  H  H34  1  0.12703278  0.18862455  0.68739569  1
  H  H35  1  0.87296722  0.56036291  0.06159177  1
  H  H36  1  0.87296722  0.06159177  0.56036291  1
  H  H37  1  0.12703278  0.68739569  0.18862455  1
  H  H38  1  0.49877115  0.93840823  0.81137545  1
  H  H39  1  0.50122885  0.31260431  0.43963709  1
  W  W40  1  -0.00000000  0.50000000  0.50000000  1
  C  C41  1  0.52143512  0.83825947  0.83825947  1
  C  C42  1  0.47856488  0.31682435  0.31682435  1
  C  C43  1  0.00000000  0.16174053  0.68317565  1
  C  C44  1  -0.00000000  0.68317565  0.16174053  1
  C  C45  1  0.44948334  0.51707714  0.71298279  1
  C  C46  1  0.55051666  0.26349946  0.06759381  1
  C  C47  1  0.19590565  0.48292286  0.93240619  1
  C  C48  1  0.80409435  0.73650054  0.28701721  1
  C  C49  1  0.80409435  0.28701721  0.73650054  1
  C  C50  1  0.19590565  0.93240619  0.48292286  1
  C  C51  1  0.44948334  0.71298279  0.51707714  1
  C  C52  1  0.55051666  0.06759381  0.26349946  1
  Cl  Cl53  1  -0.00000000  0.30974072  0.30974072  1
  Cl  Cl54  1  -0.00000000  0.69025928  0.69025928  1
