# generated using pymatgen
data_NaVZnP2O9
_symmetry_space_group_name_H-M   'P 1'
_cell_length_a   8.70720822
_cell_length_b   8.93640489
_cell_length_c   9.09180992
_cell_angle_alpha   90.00000000
_cell_angle_beta   92.65479641
_cell_angle_gamma   90.00000000
_symmetry_Int_Tables_number   1
_chemical_formula_structural   NaVZnP2O9
_chemical_formula_sum   'Na4 V4 Zn4 P8 O36'
_cell_volume   706.68479825
_cell_formula_units_Z   4
loop_
 _symmetry_equiv_pos_site_id
 _symmetry_equiv_pos_as_xyz
  1  'x, y, z'
loop_
 _atom_site_type_symbol
 _atom_site_label
 _atom_site_symmetry_multiplicity
 _atom_site_fract_x
 _atom_site_fract_y
 _atom_site_fract_z
 _atom_site_occupancy
  Na  Na0  1  0.81599063  0.46042434  0.96671586  1
  Na  Na1  1  0.18400937  0.96042434  0.53328414  1
  Na  Na2  1  0.18400937  0.53957566  0.03328414  1
  Na  Na3  1  0.81599063  0.03957566  0.46671586  1
  V  V4  1  0.57840573  0.49597501  0.25038267  1
  V  V5  1  0.42159427  0.99597501  0.24961733  1
  V  V6  1  0.42159427  0.50402499  0.74961733  1
  V  V7  1  0.57840573  0.00402499  0.75038267  1
  Zn  Zn8  1  0.08997631  0.14464940  0.09141488  1
  Zn  Zn9  1  0.91002369  0.64464940  0.40858512  1
  Zn  Zn10  1  0.91002369  0.85535060  0.90858512  1
  Zn  Zn11  1  0.08997631  0.35535060  0.59141488  1
  P  P12  1  0.48273293  0.24958766  0.50294523  1
  P  P13  1  0.51726707  0.74958766  0.99705477  1
  P  P14  1  0.51726707  0.75041234  0.49705477  1
  P  P15  1  0.48273293  0.25041234  0.00294523  1
  P  P16  1  0.95712630  0.36006521  0.27704914  1
  P  P17  1  0.04287370  0.86006521  0.22295086  1
  P  P18  1  0.04287370  0.63993479  0.72295086  1
  P  P19  1  0.95712630  0.13993479  0.77704914  1
  O  O20  1  0.07916330  0.42615479  0.39016373  1
  O  O21  1  0.92083670  0.92615479  0.10983627  1
  O  O22  1  0.92083670  0.57384521  0.60983627  1
  O  O23  1  0.07916330  0.07384521  0.89016373  1
  O  O24  1  0.82715241  0.48850996  0.26465478  1
  O  O25  1  0.17284759  0.98850996  0.23534522  1
  O  O26  1  0.17284759  0.51149004  0.73534522  1
  O  O27  1  0.82715241  0.01149004  0.76465478  1
  O  O28  1  0.57949605  0.35330945  0.40714413  1
  O  O29  1  0.42050395  0.85330945  0.09285587  1
  O  O30  1  0.42050395  0.64669055  0.59285587  1
  O  O31  1  0.57949605  0.14669055  0.90714413  1
  O  O32  1  0.60119592  0.34285691  0.09989488  1
  O  O33  1  0.39880408  0.84285691  0.40010512  1
  O  O34  1  0.39880408  0.65714309  0.90010512  1
  O  O35  1  0.60119592  0.15714309  0.59989488  1
  O  O36  1  0.62373345  0.64580570  0.09236043  1
  O  O37  1  0.37626655  0.14580570  0.40763957  1
  O  O38  1  0.37626655  0.35419430  0.90763957  1
  O  O39  1  0.62373345  0.85419430  0.59236043  1
  O  O40  1  0.39418314  0.51331383  0.22758202  1
  O  O41  1  0.60581686  0.01331383  0.27241798  1
  O  O42  1  0.60581686  0.48668617  0.77241798  1
  O  O43  1  0.39418314  0.98668617  0.72758202  1
  O  O44  1  0.03169776  0.35263621  0.12274340  1
  O  O45  1  0.96830224  0.85263621  0.37725660  1
  O  O46  1  0.96830224  0.64736379  0.87725660  1
  O  O47  1  0.03169776  0.14736379  0.62274340  1
  O  O48  1  0.62223676  0.65808846  0.39627690  1
  O  O49  1  0.37776324  0.15808846  0.10372310  1
  O  O50  1  0.37776324  0.34191154  0.60372310  1
  O  O51  1  0.62223676  0.84191154  0.89627690  1
  O  O52  1  0.89316618  0.21033706  0.31432640  1
  O  O53  1  0.10683382  0.71033706  0.18567360  1
  O  O54  1  0.10683382  0.78966294  0.68567360  1
  O  O55  1  0.89316618  0.28966294  0.81432640  1
