# generated using pymatgen
data_AgSO4
_symmetry_space_group_name_H-M   'P 1'
_cell_length_a   7.95022622
_cell_length_b   10.68654527
_cell_length_c   14.96241851
_cell_angle_alpha   89.71389013
_cell_angle_beta   90.00000000
_cell_angle_gamma   90.00000000
_symmetry_Int_Tables_number   1
_chemical_formula_structural   AgSO4
_chemical_formula_sum   'Ag16 S16 O64'
_cell_volume   1271.19799626
_cell_formula_units_Z   16
loop_
 _symmetry_equiv_pos_site_id
 _symmetry_equiv_pos_as_xyz
  1  'x, y, z'
loop_
 _atom_site_type_symbol
 _atom_site_label
 _atom_site_symmetry_multiplicity
 _atom_site_fract_x
 _atom_site_fract_y
 _atom_site_fract_z
 _atom_site_occupancy
  Ag  Ag0  1  0.47762868  0.67154007  0.11137629  1
  Ag  Ag1  1  0.97762868  0.82845993  0.88862371  1
  Ag  Ag2  1  0.52237132  0.32845993  0.88862371  1
  Ag  Ag3  1  0.02237132  0.17154007  0.11137629  1
  Ag  Ag4  1  0.00665239  0.66101302  0.10768509  1
  Ag  Ag5  1  0.50665239  0.83898698  0.89231491  1
  Ag  Ag6  1  0.99334761  0.33898698  0.89231491  1
  Ag  Ag7  1  0.49334761  0.16101302  0.10768509  1
  Ag  Ag8  1  0.51430411  0.41478708  0.39243540  1
  Ag  Ag9  1  0.01430411  0.08521292  0.60756460  1
  Ag  Ag10  1  0.48569589  0.58521292  0.60756460  1
  Ag  Ag11  1  0.98569589  0.91478708  0.39243540  1
  Ag  Ag12  1  0.98966524  0.41401596  0.38942512  1
  Ag  Ag13  1  0.48966524  0.08598404  0.61057488  1
  Ag  Ag14  1  0.01033476  0.58598404  0.61057488  1
  Ag  Ag15  1  0.51033476  0.91401596  0.38942512  1
  S  S16  1  0.75335712  0.66278201  0.29949299  1
  S  S17  1  0.25335712  0.83721799  0.70050701  1
  S  S18  1  0.24664288  0.33721799  0.70050701  1
  S  S19  1  0.74664288  0.16278201  0.29949299  1
  S  S20  1  0.25727781  0.41701837  0.20123492  1
  S  S21  1  0.75727781  0.08298163  0.79876508  1
  S  S22  1  0.74272219  0.58298163  0.79876508  1
  S  S23  1  0.24272219  0.91701837  0.20123492  1
  S  S24  1  0.75434595  0.40912130  0.07576541  1
  S  S25  1  0.25434595  0.09087870  0.92423459  1
  S  S26  1  0.24565405  0.59087870  0.92423459  1
  S  S27  1  0.74565405  0.90912130  0.07576541  1
  S  S28  1  0.25038533  0.66292514  0.42446344  1
  S  S29  1  0.75038533  0.83707486  0.57553656  1
  S  S30  1  0.74961467  0.33707486  0.57553656  1
  S  S31  1  0.24961467  0.16292514  0.42446344  1
  O  O32  1  0.75588506  0.55511562  0.36435404  1
  O  O33  1  0.25588506  0.94488438  0.63564596  1
  O  O34  1  0.24411494  0.44488438  0.63564596  1
  O  O35  1  0.74411494  0.05511562  0.36435404  1
  O  O36  1  0.75414390  0.78416910  0.35050085  1
  O  O37  1  0.25414390  0.71583090  0.64949915  1
  O  O38  1  0.24585610  0.21583090  0.64949915  1
  O  O39  1  0.74585610  0.28416910  0.35050085  1
  O  O40  1  0.59513818  0.65392459  0.24804510  1
  O  O41  1  0.09513818  0.84607541  0.75195490  1
  O  O42  1  0.40486182  0.34607541  0.75195490  1
  O  O43  1  0.90486182  0.15392459  0.24804510  1
  O  O44  1  0.90972240  0.65412133  0.24582185  1
  O  O45  1  0.40972240  0.84587867  0.75417815  1
  O  O46  1  0.09027760  0.34587867  0.75417815  1
  O  O47  1  0.59027760  0.15412133  0.24582185  1
  O  O48  1  0.26382362  0.31293189  0.13503877  1
  O  O49  1  0.76382362  0.18706811  0.86496123  1
  O  O50  1  0.73617638  0.68706811  0.86496123  1
  O  O51  1  0.23617638  0.81293189  0.13503877  1
  O  O52  1  0.09847103  0.40356347  0.25198197  1
  O  O53  1  0.59847103  0.09643653  0.74801803  1
  O  O54  1  0.90152897  0.59643653  0.74801803  1
  O  O55  1  0.40152897  0.90356347  0.25198197  1
  O  O56  1  0.25303487  0.54136924  0.15196328  1
  O  O57  1  0.75303487  0.95863076  0.84803672  1
  O  O58  1  0.74696513  0.45863076  0.84803672  1
  O  O59  1  0.24696513  0.04136924  0.15196328  1
  O  O60  1  0.41316950  0.41040684  0.25510600  1
  O  O61  1  0.91316950  0.08959316  0.74489400  1
  O  O62  1  0.58683050  0.58959316  0.74489400  1
  O  O63  1  0.08683050  0.91040684  0.25510600  1
  O  O64  1  0.75550527  0.38118886  0.17053347  1
  O  O65  1  0.25550527  0.11881114  0.82946653  1
  O  O66  1  0.24449473  0.61881114  0.82946653  1
  O  O67  1  0.74449473  0.88118886  0.17053347  1
  O  O68  1  0.75115205  0.54458882  0.05462206  1
  O  O69  1  0.25115205  0.95541118  0.94537794  1
  O  O70  1  0.24884795  0.45541118  0.94537794  1
  O  O71  1  0.74884795  0.04458882  0.05462206  1
  O  O72  1  0.91337435  0.35019806  0.03541865  1
  O  O73  1  0.41337435  0.14980194  0.96458135  1
  O  O74  1  0.08662565  0.64980194  0.96458135  1
  O  O75  1  0.58662565  0.85019806  0.03541865  1
  O  O76  1  0.60324105  0.34554062  0.03341902  1
  O  O77  1  0.10324105  0.15445938  0.96658098  1
  O  O78  1  0.39675895  0.65445938  0.96658098  1
  O  O79  1  0.89675895  0.84554062  0.03341902  1
  O  O80  1  0.24995727  0.63365953  0.33018220  1
  O  O81  1  0.74995727  0.86634047  0.66981780  1
  O  O82  1  0.75004273  0.36634047  0.66981780  1
  O  O83  1  0.25004273  0.13365953  0.33018220  1
  O  O84  1  0.09607635  0.60465864  0.46716705  1
  O  O85  1  0.59607635  0.89534136  0.53283295  1
  O  O86  1  0.90392365  0.39534136  0.53283295  1
  O  O87  1  0.40392365  0.10465864  0.46716705  1
  O  O88  1  0.40701804  0.60257437  0.46558117  1
  O  O89  1  0.90701804  0.89742563  0.53441883  1
  O  O90  1  0.59298196  0.39742563  0.53441883  1
  O  O91  1  0.09298196  0.10257437  0.46558117  1
  O  O92  1  0.25290298  0.79998207  0.44278079  1
  O  O93  1  0.75290298  0.70001793  0.55721921  1
  O  O94  1  0.74709702  0.20001793  0.55721921  1
  O  O95  1  0.24709702  0.29998207  0.44278079  1
