# generated using pymatgen
data_Mg4B8H31
_symmetry_space_group_name_H-M   'P 1'
_cell_length_a   8.25265006
_cell_length_b   8.28290739
_cell_length_c   10.15215804
_cell_angle_alpha   89.98583828
_cell_angle_beta   90.39390228
_cell_angle_gamma   89.99798636
_symmetry_Int_Tables_number   1
_chemical_formula_structural   Mg4B8H31
_chemical_formula_sum   'Mg4 B8 H31'
_cell_volume   693.94384641
_cell_formula_units_Z   1
loop_
 _symmetry_equiv_pos_site_id
 _symmetry_equiv_pos_as_xyz
  1  'x, y, z'
loop_
 _atom_site_type_symbol
 _atom_site_label
 _atom_site_symmetry_multiplicity
 _atom_site_fract_x
 _atom_site_fract_y
 _atom_site_fract_z
 _atom_site_occupancy
  Mg  Mg0  1  0.88293697  0.50964980  0.25384646  1
  Mg  Mg1  1  0.38574527  0.99029901  0.75197959  1
  Mg  Mg2  1  0.88758022  0.00595461  0.00670422  1
  Mg  Mg3  1  0.38532141  0.49376204  0.50195370  1
  B  B4  1  0.38601435  0.71792569  0.65720535  1
  B  B5  1  0.11236128  0.99449623  0.84948338  1
  B  B6  1  0.65416005  0.99472799  0.85624050  1
  B  B7  1  0.88443101  0.78243540  0.16181759  1
  B  B8  1  0.88283750  0.24477861  0.14808336  1
  B  B9  1  0.15245870  0.50375418  0.35320916  1
  B  B10  1  0.61472452  0.50526578  0.35222941  1
  B  B11  1  0.38617315  0.25542484  0.64458099  1
  H  H12  1  0.72412204  0.12182649  0.88031928  1
  H  H13  1  0.88564634  0.76082267  0.28143124  1
  H  H14  1  0.75853154  0.17220281  0.11935745  1
  H  H15  1  0.13401243  0.51112794  0.23325281  1
  H  H16  1  0.54101822  0.62762016  0.38330870  1
  H  H17  1  0.26089784  0.32685056  0.61644474  1
  H  H18  1  0.38345526  0.84237454  0.59145263  1
  H  H19  1  0.63929418  0.98742301  0.73610147  1
  H  H20  1  0.11567189  0.98940843  0.72921236  1
  H  H21  1  0.88339630  0.25888368  0.26852439  1
  H  H22  1  0.01013079  0.85424439  0.13660940  1
  H  H23  1  0.54400418  0.37827289  0.37446810  1
  H  H24  1  0.22530950  0.62650610  0.38524555  1
  H  H25  1  0.51118642  0.64624915  0.63018574  1
  H  H26  1  0.38808440  0.24236106  0.76520783  1
  H  H27  1  0.08786465  0.87008514  0.90827408  1
  H  H28  1  0.72604402  0.87225658  0.89036369  1
  H  H29  1  0.76019369  0.85735453  0.13674811  1
  H  H30  1  0.88106672  0.37208429  0.08617024  1
  H  H31  1  0.09128474  0.12424904  0.90098945  1
  H  H32  1  0.52557326  0.99736029  0.91770719  1
  H  H33  1  0.00895921  0.17535709  0.12021640  1
  H  H34  1  0.88227437  0.65915725  0.09471933  1
  H  H35  1  0.02716165  0.50029838  0.41736189  1
  H  H36  1  0.63152576  0.51188574  0.23221697  1
  H  H37  1  0.51135578  0.32535970  0.61481445  1
  H  H38  1  0.26119197  0.64392337  0.63216588  1
  H  H39  1  0.22443179  0.37720229  0.37507676  1
  H  H40  1  0.74069672  0.50351803  0.41673533  1
  H  H41  1  0.38802147  0.73786378  0.77711777  1
  H  H42  1  0.38429042  0.12739643  0.58366805  1
