# generated using pymatgen
data_K2CaZrH16(CO3)8
_symmetry_space_group_name_H-M   'P 1'
_cell_length_a   9.08932971
_cell_length_b   9.29708063
_cell_length_c   9.29708063
_cell_angle_alpha   76.17530757
_cell_angle_beta   60.73647884
_cell_angle_gamma   60.73647884
_symmetry_Int_Tables_number   1
_chemical_formula_structural   K2CaZrH16(CO3)8
_chemical_formula_sum   'K2 Ca1 Zr1 H16 C8 O24'
_cell_volume   597.91179951
_cell_formula_units_Z   1
loop_
 _symmetry_equiv_pos_site_id
 _symmetry_equiv_pos_as_xyz
  1  'x, y, z'
loop_
 _atom_site_type_symbol
 _atom_site_label
 _atom_site_symmetry_multiplicity
 _atom_site_fract_x
 _atom_site_fract_y
 _atom_site_fract_z
 _atom_site_occupancy
  K  K0  1  0.50000000  -0.00000000  -0.00000000  1
  K  K1  1  0.25000000  0.50000000  0.50000000  1
  Ca  Ca2  1  0.75000000  0.50000000  0.50000000  1
  Zr  Zr3  1  0.00000000  -0.00000000  -0.00000000  1
  H  H4  1  0.75022933  0.84229656  0.63803364  1
  H  H5  1  0.23055952  0.15770344  0.36196636  1
  H  H6  1  0.61173703  0.63803364  0.15770344  1
  H  H7  1  0.40747412  0.36196636  0.84229656  1
  H  H8  1  0.87110331  0.93142253  0.60754292  1
  H  H9  1  0.41006876  0.06857747  0.39245708  1
  H  H10  1  0.52135377  0.60754292  0.06857747  1
  H  H11  1  0.19747416  0.39245708  0.93142253  1
  H  H12  1  0.23016558  0.89559763  0.42212206  1
  H  H13  1  0.54788526  0.10440237  0.57787794  1
  H  H14  1  0.34771236  0.42212206  0.10440237  1
  H  H15  1  0.87423680  0.57787794  0.89559763  1
  H  H16  1  0.13466694  0.86267428  0.33995625  1
  H  H17  1  0.33729747  0.13732572  0.66004375  1
  H  H18  1  0.52537681  0.33995625  0.13732572  1
  H  H19  1  0.00265878  0.66004375  0.86267428  1
  C  C20  1  0.41787859  0.78120749  0.77530812  1
  C  C21  1  0.97439420  0.21879251  0.22469188  1
  C  C22  1  0.80681329  0.77530812  0.21879251  1
  C  C23  1  0.80091392  0.22469188  0.78120749  1
  C  C24  1  0.30647551  0.72495823  0.73833164  1
  C  C25  1  0.76976538  0.27504177  0.26166836  1
  C  C26  1  0.95519285  0.73833164  0.27504177  1
  C  C27  1  0.96856626  0.26166836  0.72495823  1
  O  O28  1  0.31551170  0.89514243  0.88437781  1
  O  O29  1  0.09503194  0.10485757  0.11562219  1
  O  O30  1  0.80011048  0.88437781  0.10485757  1
  O  O31  1  0.78934587  0.11562219  0.89514243  1
  O  O32  1  0.12584801  0.80386741  0.82094133  1
  O  O33  1  0.75065676  0.19613259  0.17905867  1
  O  O34  1  0.05321065  0.82094133  0.19613259  1
  O  O35  1  0.07028458  0.17905867  0.80386741  1
  O  O36  1  0.59299209  0.71501621  0.69982388  1
  O  O37  1  0.00783217  0.28498379  0.30017612  1
  O  O38  1  0.70718404  0.69982388  0.28498379  1
  O  O39  1  0.69199171  0.30017612  0.71501621  1
  O  O40  1  0.39322019  0.61212968  0.63758666  1
  O  O41  1  0.64293654  0.38787032  0.36241334  1
  O  O42  1  0.96919314  0.63758666  0.38787032  1
  O  O43  1  0.99465013  0.36241334  0.61212968  1
  O  O44  1  0.74078480  0.94721213  0.65478633  1
  O  O45  1  0.34278326  0.05278787  0.34521367  1
  O  O46  1  0.60442888  0.65478633  0.05278787  1
  O  O47  1  0.31200307  0.34521367  0.94721213  1
  O  O48  1  0.14454210  0.84899278  0.44336905  1
  O  O49  1  0.43690392  0.15100722  0.55663095  1
  O  O50  1  0.41208886  0.44336905  0.15100722  1
  O  O51  1  0.00646513  0.55663095  0.84899278  1
