# generated using pymatgen
data_Fe2Cu8P4O21
_symmetry_space_group_name_H-M   'P 1'
_cell_length_a   6.04709674
_cell_length_b   8.63190950
_cell_length_c   9.63836853
_cell_angle_alpha   112.52048526
_cell_angle_beta   90.00000000
_cell_angle_gamma   110.50417709
_symmetry_Int_Tables_number   1
_chemical_formula_structural   Fe2Cu8P4O21
_chemical_formula_sum   'Fe2 Cu8 P4 O21'
_cell_volume   430.03060784
_cell_formula_units_Z   1
loop_
 _symmetry_equiv_pos_site_id
 _symmetry_equiv_pos_as_xyz
  1  'x, y, z'
loop_
 _atom_site_type_symbol
 _atom_site_label
 _atom_site_symmetry_multiplicity
 _atom_site_fract_x
 _atom_site_fract_y
 _atom_site_fract_z
 _atom_site_occupancy
  Fe  Fe0  1  0.00000000  0.50000000  0.50000000  1
  Fe  Fe1  1  0.50000000  0.50000000  0.50000000  1
  Cu  Cu2  1  0.36997836  0.73995672  0.36428668  1
  Cu  Cu3  1  0.63002164  0.26004328  0.63571332  1
  Cu  Cu4  1  0.46801972  0.93603944  0.68494172  1
  Cu  Cu5  1  0.53198028  0.06396056  0.31505828  1
  Cu  Cu6  1  0.14038253  0.76720266  0.04942717  1
  Cu  Cu7  1  0.62682013  0.76720266  0.04942717  1
  Cu  Cu8  1  0.85961747  0.23279734  0.95057283  1
  Cu  Cu9  1  0.37317987  0.23279734  0.95057283  1
  P  P10  1  0.91835251  0.83670503  0.78789953  1
  P  P11  1  0.08164749  0.16329497  0.21210047  1
  P  P12  1  0.77026135  0.54052269  0.22081095  1
  P  P13  1  0.22973865  0.45947731  0.77918905  1
  O  O14  1  0.87788229  0.75576457  0.91095536  1
  O  O15  1  0.12211771  0.24423543  0.08904464  1
  O  O16  1  0.83971491  0.67942981  0.62305339  1
  O  O17  1  0.16028509  0.32057019  0.37694661  1
  O  O18  1  0.18705883  0.94917226  0.80764180  1
  O  O19  1  0.76211343  0.94917226  0.80764180  1
  O  O20  1  0.81294117  0.05082774  0.19235820  1
  O  O21  1  0.23788657  0.05082774  0.19235820  1
  O  O22  1  0.83551827  0.67103655  0.14247912  1
  O  O23  1  0.16448173  0.32896345  0.85752088  1
  O  O24  1  0.66843073  0.33686145  0.10449552  1
  O  O25  1  0.33156927  0.66313855  0.89550448  1
  O  O26  1  0.99460109  0.57074286  0.32196283  1
  O  O27  1  0.57614177  0.57074286  0.32196283  1
  O  O28  1  0.00539891  0.42925714  0.67803717  1
  O  O29  1  0.42385823  0.42925714  0.67803717  1
  O  O30  1  0.33904993  0.67809986  0.55087282  1
  O  O31  1  0.66095007  0.32190014  0.44912718  1
  O  O32  1  0.40000699  0.80001398  0.19246751  1
  O  O33  1  0.59999301  0.19998602  0.80753249  1
  O  O34  1  0.50000000  -0.00000000  0.50000000  1
