# generated using pymatgen
data_Dy2VO5
_symmetry_space_group_name_H-M   'P 1'
_cell_length_a   6.79965131
_cell_length_b   7.06046837
_cell_length_c   9.38804425
_cell_angle_alpha   90.00000000
_cell_angle_beta   100.80580596
_cell_angle_gamma   90.00000000
_symmetry_Int_Tables_number   1
_chemical_formula_structural   Dy2VO5
_chemical_formula_sum   'Dy8 V4 O20'
_cell_volume   442.71617758
_cell_formula_units_Z   4
loop_
 _symmetry_equiv_pos_site_id
 _symmetry_equiv_pos_as_xyz
  1  'x, y, z'
loop_
 _atom_site_type_symbol
 _atom_site_label
 _atom_site_symmetry_multiplicity
 _atom_site_fract_x
 _atom_site_fract_y
 _atom_site_fract_z
 _atom_site_occupancy
  Dy  Dy0  1  0.48869868  0.14263453  0.15014469  1
  Dy  Dy1  1  0.01130132  0.64263453  0.84985531  1
  Dy  Dy2  1  0.51130132  0.85736547  0.84985531  1
  Dy  Dy3  1  0.98869868  0.35736547  0.15014469  1
  Dy  Dy4  1  0.26466807  0.12051584  0.47051761  1
  Dy  Dy5  1  0.23533193  0.62051584  0.52948239  1
  Dy  Dy6  1  0.73533193  0.87948416  0.52948239  1
  Dy  Dy7  1  0.76466807  0.37948416  0.47051761  1
  V  V8  1  0.48862435  0.59880677  0.19616747  1
  V  V9  1  0.01137565  0.09880677  0.80383253  1
  V  V10  1  0.51137565  0.40119323  0.80383253  1
  V  V11  1  0.98862435  0.90119323  0.19616747  1
  O  O12  1  0.42443810  0.88388843  0.60748220  1
  O  O13  1  0.07556190  0.38388843  0.39251780  1
  O  O14  1  0.57556190  0.11611157  0.39251780  1
  O  O15  1  0.92443810  0.61611157  0.60748220  1
  O  O16  1  0.69367156  0.41928145  0.22128005  1
  O  O17  1  0.80632844  0.91928145  0.77871995  1
  O  O18  1  0.30632844  0.58071855  0.77871995  1
  O  O19  1  0.19367156  0.08071855  0.22128005  1
  O  O20  1  0.52664638  0.64160898  0.39604521  1
  O  O21  1  0.97335362  0.14160898  0.60395479  1
  O  O22  1  0.47335362  0.35839102  0.60395479  1
  O  O23  1  0.02664638  0.85839102  0.39604521  1
  O  O24  1  0.30853647  0.42450943  0.12493412  1
  O  O25  1  0.19146353  0.92450943  0.87506588  1
  O  O26  1  0.69146353  0.57549057  0.87506588  1
  O  O27  1  0.80853647  0.07549057  0.12493412  1
  O  O28  1  0.50503467  0.81619132  0.10113726  1
  O  O29  1  0.99496533  0.31619132  0.89886274  1
  O  O30  1  0.49496533  0.18380868  0.89886274  1
  O  O31  1  0.00503467  0.68380868  0.10113726  1
