# generated using pymatgen
data_UH4(SeO5)2
_symmetry_space_group_name_H-M   'P 1'
_cell_length_a   8.38076176
_cell_length_b   9.91760620
_cell_length_c   10.93160440
_cell_angle_alpha   90.00000000
_cell_angle_beta   90.00000000
_cell_angle_gamma   99.39751756
_symmetry_Int_Tables_number   1
_chemical_formula_structural   UH4(SeO5)2
_chemical_formula_sum   'U4 H16 Se8 O40'
_cell_volume   896.40905110
_cell_formula_units_Z   4
loop_
 _symmetry_equiv_pos_site_id
 _symmetry_equiv_pos_as_xyz
  1  'x, y, z'
loop_
 _atom_site_type_symbol
 _atom_site_label
 _atom_site_symmetry_multiplicity
 _atom_site_fract_x
 _atom_site_fract_y
 _atom_site_fract_z
 _atom_site_occupancy
  U  U0  1  0.35565879  0.19416385  0.30380881  1
  U  U1  1  0.85565879  0.69416385  0.19619119  1
  U  U2  1  0.64434121  0.80583615  0.69619119  1
  U  U3  1  0.14434121  0.30583615  0.80380881  1
  H  H4  1  0.74247684  0.19059686  0.36769147  1
  H  H5  1  0.24247684  0.69059686  0.13230853  1
  H  H6  1  0.25752316  0.80940314  0.63230853  1
  H  H7  1  0.75752316  0.30940314  0.86769147  1
  H  H8  1  0.74867383  0.37185727  0.47869114  1
  H  H9  1  0.24867383  0.87185727  0.02130886  1
  H  H10  1  0.25132617  0.62814273  0.52130886  1
  H  H11  1  0.75132617  0.12814273  0.97869114  1
  H  H12  1  0.65998011  0.49457576  0.55577024  1
  H  H13  1  0.15998011  0.99457576  0.94422976  1
  H  H14  1  0.34001989  0.50542424  0.44422976  1
  H  H15  1  0.84001989  0.00542424  0.05577024  1
  H  H16  1  0.79973007  0.41856513  0.62000954  1
  H  H17  1  0.29973007  0.91856513  0.87999046  1
  H  H18  1  0.20026993  0.58143487  0.37999046  1
  H  H19  1  0.70026993  0.08143487  0.12000954  1
  Se  Se20  1  0.97185115  0.18726194  0.49493164  1
  Se  Se21  1  0.47185115  0.68726194  0.00506836  1
  Se  Se22  1  0.02814885  0.81273806  0.50506836  1
  Se  Se23  1  0.52814885  0.31273806  0.99493164  1
  Se  Se24  1  0.38655109  0.08582328  0.62576794  1
  Se  Se25  1  0.88655109  0.58582328  0.87423206  1
  Se  Se26  1  0.61344891  0.91417672  0.37423206  1
  Se  Se27  1  0.11344891  0.41417672  0.12576794  1
  O  O28  1  0.47948365  0.33266088  0.38652612  1
  O  O29  1  0.97948365  0.83266088  0.11347388  1
  O  O30  1  0.52051635  0.66733912  0.61347388  1
  O  O31  1  0.02051635  0.16733912  0.88652612  1
  O  O32  1  0.14135093  0.25347144  0.41494956  1
  O  O33  1  0.64135093  0.75347144  0.08505044  1
  O  O34  1  0.85864907  0.74652856  0.58505044  1
  O  O35  1  0.35864907  0.24652856  0.91494956  1
  O  O36  1  0.54334732  0.20352801  0.64635883  1
  O  O37  1  0.04334732  0.70352801  0.85364117  1
  O  O38  1  0.45665268  0.79647199  0.35364117  1
  O  O39  1  0.95665268  0.29647199  0.14635883  1
  O  O40  1  0.34108755  0.04785596  0.47669511  1
  O  O41  1  0.84108755  0.54785596  0.02330489  1
  O  O42  1  0.65891245  0.95214404  0.52330489  1
  O  O43  1  0.15891245  0.45214404  0.97669511  1
  O  O44  1  0.21067659  0.12397818  0.68252147  1
  O  O45  1  0.71067659  0.62397818  0.81747853  1
  O  O46  1  0.78932341  0.87602182  0.31747853  1
  O  O47  1  0.28932341  0.37602182  0.18252147  1
  O  O48  1  0.97567192  0.29008452  0.61921804  1
  O  O49  1  0.47567192  0.79008452  0.88078196  1
  O  O50  1  0.02432808  0.70991548  0.38078196  1
  O  O51  1  0.52432808  0.20991548  0.11921804  1
  O  O52  1  0.22128296  0.05882289  0.22991651  1
  O  O53  1  0.72128296  0.55882289  0.27008349  1
  O  O54  1  0.77871704  0.94117711  0.77008349  1
  O  O55  1  0.27871704  0.44117711  0.72991651  1
  O  O56  1  0.39688277  0.93317162  0.69570444  1
  O  O57  1  0.89688277  0.43317162  0.80429556  1
  O  O58  1  0.60311723  0.06682838  0.30429556  1
  O  O59  1  0.10311723  0.56682838  0.19570444  1
  O  O60  1  0.81984072  0.26535768  0.40966733  1
  O  O61  1  0.31984072  0.76535768  0.09033267  1
  O  O62  1  0.18015928  0.73464232  0.59033267  1
  O  O63  1  0.68015928  0.23464232  0.90966733  1
  O  O64  1  0.75690391  0.45195478  0.54285693  1
  O  O65  1  0.25690391  0.95195478  0.95714307  1
  O  O66  1  0.24309609  0.54804522  0.45714307  1
  O  O67  1  0.74309609  0.04804522  0.04285693  1
