# generated using pymatgen
data_Pb3WO6
_symmetry_space_group_name_H-M   'P 1'
_cell_length_a   8.08731687
_cell_length_b   9.71452214
_cell_length_c   9.58218553
_cell_angle_alpha   90.00000000
_cell_angle_beta   90.00000000
_cell_angle_gamma   87.47266855
_symmetry_Int_Tables_number   1
_chemical_formula_structural   Pb3WO6
_chemical_formula_sum   'Pb12 W4 O24'
_cell_volume   752.08657070
_cell_formula_units_Z   4
loop_
 _symmetry_equiv_pos_site_id
 _symmetry_equiv_pos_as_xyz
  1  'x, y, z'
loop_
 _atom_site_type_symbol
 _atom_site_label
 _atom_site_symmetry_multiplicity
 _atom_site_fract_x
 _atom_site_fract_y
 _atom_site_fract_z
 _atom_site_occupancy
  Pb  Pb0  1  0.75255156  0.76361200  0.46661543  1
  Pb  Pb1  1  0.24744844  0.73638800  0.96661543  1
  Pb  Pb2  1  0.24744844  0.23638800  0.53338457  1
  Pb  Pb3  1  0.75255156  0.26361200  0.03338457  1
  Pb  Pb4  1  0.49661822  0.48771637  0.32298331  1
  Pb  Pb5  1  0.50338178  0.01228363  0.82298331  1
  Pb  Pb6  1  0.50338178  0.51228363  0.67701669  1
  Pb  Pb7  1  0.49661822  0.98771637  0.17701669  1
  Pb  Pb8  1  0.78076335  0.20068581  0.50794653  1
  Pb  Pb9  1  0.21923665  0.29931419  0.00794653  1
  Pb  Pb10  1  0.21923665  0.79931419  0.49205347  1
  Pb  Pb11  1  0.78076335  0.70068581  0.99205347  1
  W  W12  1  0.97281917  0.46198778  0.32602709  1
  W  W13  1  0.02718083  0.03801222  0.82602709  1
  W  W14  1  0.02718083  0.53801222  0.67397291  1
  W  W15  1  0.97281917  0.96198778  0.17397291  1
  O  O16  1  0.53183520  0.34024797  0.50880863  1
  O  O17  1  0.46816480  0.15975203  0.00880863  1
  O  O18  1  0.46816480  0.65975203  0.49119137  1
  O  O19  1  0.53183520  0.84024797  0.99119137  1
  O  O20  1  0.83901209  0.30814592  0.29925404  1
  O  O21  1  0.16098791  0.19185408  0.79925404  1
  O  O22  1  0.16098791  0.69185408  0.70074596  1
  O  O23  1  0.83901209  0.80814592  0.20074596  1
  O  O24  1  0.75407997  0.56400156  0.35457937  1
  O  O25  1  0.24592003  0.93599844  0.85457937  1
  O  O26  1  0.24592003  0.43599844  0.64542063  1
  O  O27  1  0.75407997  0.06400156  0.14542063  1
  O  O28  1  0.18225164  0.36223243  0.33562006  1
  O  O29  1  0.81774836  0.13776757  0.83562006  1
  O  O30  1  0.81774836  0.63776757  0.66437994  1
  O  O31  1  0.18225164  0.86223243  0.16437994  1
  O  O32  1  0.04854670  0.61721955  0.44548411  1
  O  O33  1  0.95145330  0.88278045  0.94548411  1
  O  O34  1  0.95145330  0.38278045  0.55451589  1
  O  O35  1  0.04854670  0.11721955  0.05451589  1
  O  O36  1  0.00216040  0.48240105  0.85075144  1
  O  O37  1  0.99783960  0.01759895  0.35075144  1
  O  O38  1  0.99783960  0.51759895  0.14924856  1
  O  O39  1  0.00216040  0.98240105  0.64924856  1
