# generated using pymatgen
data_NaMgH2C3O7
_symmetry_space_group_name_H-M   'P 1'
_cell_length_a   5.91424155
_cell_length_b   7.32904788
_cell_length_c   15.83023502
_cell_angle_alpha   90.00000000
_cell_angle_beta   90.00000000
_cell_angle_gamma   102.59363388
_symmetry_Int_Tables_number   1
_chemical_formula_structural   NaMgH2C3O7
_chemical_formula_sum   'Na4 Mg4 H8 C12 O28'
_cell_volume   669.66490616
_cell_formula_units_Z   4
loop_
 _symmetry_equiv_pos_site_id
 _symmetry_equiv_pos_as_xyz
  1  'x, y, z'
loop_
 _atom_site_type_symbol
 _atom_site_label
 _atom_site_symmetry_multiplicity
 _atom_site_fract_x
 _atom_site_fract_y
 _atom_site_fract_z
 _atom_site_occupancy
  Na  Na0  1  0.53113858  0.20329676  0.32088148  1
  Na  Na1  1  0.46886142  0.29670324  0.82088148  1
  Na  Na2  1  0.46886142  0.79670324  0.67911852  1
  Na  Na3  1  0.53113858  0.70329676  0.17911852  1
  Mg  Mg4  1  0.72299264  0.28246886  0.10159596  1
  Mg  Mg5  1  0.27700736  0.21753114  0.60159596  1
  Mg  Mg6  1  0.27700736  0.71753114  0.89840404  1
  Mg  Mg7  1  0.72299264  0.78246886  0.39840404  1
  H  H8  1  0.82571402  0.62345668  0.03027181  1
  H  H9  1  0.17428598  0.87654332  0.53027181  1
  H  H10  1  0.17428598  0.37654332  0.96972819  1
  H  H11  1  0.82571402  0.12345668  0.46972819  1
  H  H12  1  0.94948791  0.63542159  0.12170313  1
  H  H13  1  0.05051209  0.86457841  0.62170313  1
  H  H14  1  0.05051209  0.36457841  0.87829687  1
  H  H15  1  0.94948791  0.13542159  0.37829687  1
  C  C16  1  0.50331370  0.07244970  0.96427979  1
  C  C17  1  0.49668630  0.42755030  0.46427979  1
  C  C18  1  0.49668630  0.92755030  0.03572021  1
  C  C19  1  0.50331370  0.57244970  0.53572021  1
  C  C20  1  0.19590719  0.28441613  0.14858366  1
  C  C21  1  0.80409281  0.21558387  0.64858366  1
  C  C22  1  0.80409281  0.71558387  0.85141634  1
  C  C23  1  0.19590719  0.78441613  0.35141634  1
  C  C24  1  0.04765762  0.25067403  0.23114857  1
  C  C25  1  0.95234238  0.24932597  0.73114857  1
  C  C26  1  0.95234238  0.74932597  0.76885143  1
  C  C27  1  0.04765762  0.75067403  0.26885143  1
  O  O28  1  0.60886684  0.23963245  0.97860785  1
  O  O29  1  0.39113316  0.26036755  0.47860785  1
  O  O30  1  0.39113316  0.76036755  0.02139215  1
  O  O31  1  0.60886684  0.73963245  0.52139215  1
  O  O32  1  0.40092832  0.01221788  0.89614290  1
  O  O33  1  0.59907168  0.48778212  0.39614290  1
  O  O34  1  0.59907168  0.98778212  0.10385710  1
  O  O35  1  0.40092832  0.51221788  0.60385710  1
  O  O36  1  0.41350773  0.31285934  0.15766078  1
  O  O37  1  0.58649227  0.18714066  0.65766078  1
  O  O38  1  0.58649227  0.68714066  0.84233922  1
  O  O39  1  0.41350773  0.81285934  0.34233922  1
  O  O40  1  0.08362697  0.28162725  0.08003890  1
  O  O41  1  0.91637303  0.21837275  0.58003890  1
  O  O42  1  0.91637303  0.71837275  0.91996110  1
  O  O43  1  0.08362697  0.78162725  0.41996110  1
  O  O44  1  0.83695274  0.26265417  0.22342500  1
  O  O45  1  0.16304726  0.23734583  0.72342500  1
  O  O46  1  0.16304726  0.73734583  0.77657500  1
  O  O47  1  0.83695274  0.76265417  0.27657500  1
  O  O48  1  0.14270529  0.21330662  0.29819102  1
  O  O49  1  0.85729471  0.28669338  0.79819102  1
  O  O50  1  0.85729471  0.78669338  0.70180898  1
  O  O51  1  0.14270529  0.71330662  0.20180898  1
  O  O52  1  0.80926332  0.57282647  0.08840740  1
  O  O53  1  0.19073668  0.92717353  0.58840740  1
  O  O54  1  0.19073668  0.42717353  0.91159260  1
  O  O55  1  0.80926332  0.07282647  0.41159260  1
