# generated using pymatgen
data_FeSb6(Pb2Se7)2
_symmetry_space_group_name_H-M   'P 1'
_cell_length_a   4.14602293
_cell_length_b   16.84155763
_cell_length_c   20.15496086
_cell_angle_alpha   90.00000000
_cell_angle_beta   90.00000000
_cell_angle_gamma   91.95521755
_symmetry_Int_Tables_number   1
_chemical_formula_structural   FeSb6(Pb2Se7)2
_chemical_formula_sum   'Fe2 Sb12 Pb8 Se28'
_cell_volume   1406.51055256
_cell_formula_units_Z   2
loop_
 _symmetry_equiv_pos_site_id
 _symmetry_equiv_pos_as_xyz
  1  'x, y, z'
loop_
 _atom_site_type_symbol
 _atom_site_label
 _atom_site_symmetry_multiplicity
 _atom_site_fract_x
 _atom_site_fract_y
 _atom_site_fract_z
 _atom_site_occupancy
  Fe  Fe0  1  0.50000000  0.50000000  0.50000000  1
  Fe  Fe1  1  0.50000000  -0.00000000  -0.00000000  1
  Sb  Sb2  1  0.09520914  0.39715192  0.04935447  1
  Sb  Sb3  1  0.90479086  0.10284808  0.54935447  1
  Sb  Sb4  1  0.90479086  0.60284808  0.95064553  1
  Sb  Sb5  1  0.09520914  0.89715192  0.45064553  1
  Sb  Sb6  1  0.93464641  0.31903762  0.43423087  1
  Sb  Sb7  1  0.06535359  0.18096238  0.93423087  1
  Sb  Sb8  1  0.06535359  0.68096238  0.56576913  1
  Sb  Sb9  1  0.93464641  0.81903762  0.06576913  1
  Sb  Sb10  1  0.09126555  0.63337805  0.16007076  1
  Sb  Sb11  1  0.90873445  0.86662195  0.66007076  1
  Sb  Sb12  1  0.90873445  0.36662195  0.83992924  1
  Sb  Sb13  1  0.09126555  0.13337805  0.33992924  1
  Pb  Pb14  1  0.54773067  0.43551878  0.23652513  1
  Pb  Pb15  1  0.45226933  0.06448122  0.73652513  1
  Pb  Pb16  1  0.45226933  0.56448122  0.76347487  1
  Pb  Pb17  1  0.54773067  0.93551878  0.26347487  1
  Pb  Pb18  1  0.52789956  0.18977124  0.13462886  1
  Pb  Pb19  1  0.47210044  0.31022876  0.63462886  1
  Pb  Pb20  1  0.47210044  0.81022876  0.86537114  1
  Pb  Pb21  1  0.52789956  0.68977124  0.36537114  1
  Se  Se22  1  0.04363112  0.31886075  0.16252518  1
  Se  Se23  1  0.95636888  0.18113925  0.66252518  1
  Se  Se24  1  0.95636888  0.68113925  0.83747482  1
  Se  Se25  1  0.04363112  0.81886075  0.33747482  1
  Se  Se26  1  0.48677245  0.42203154  0.39501433  1
  Se  Se27  1  0.51322755  0.07796846  0.89501433  1
  Se  Se28  1  0.51322755  0.57796846  0.60498567  1
  Se  Se29  1  0.48677245  0.92203154  0.10498567  1
  Se  Se30  1  0.02089579  0.09289519  0.04326539  1
  Se  Se31  1  0.97910421  0.40710481  0.54326539  1
  Se  Se32  1  0.97910421  0.90710481  0.95673461  1
  Se  Se33  1  0.02089579  0.59289519  0.45673461  1
  Se  Se34  1  0.06293032  0.55627063  0.27306096  1
  Se  Se35  1  0.93706968  0.94372937  0.77306096  1
  Se  Se36  1  0.93706968  0.44372937  0.72693904  1
  Se  Se37  1  0.06293032  0.05627063  0.22693904  1
  Se  Se38  1  0.55440174  0.50552997  0.09859809  1
  Se  Se39  1  0.44559826  0.99447003  0.59859809  1
  Se  Se40  1  0.44559826  0.49447003  0.90140191  1
  Se  Se41  1  0.55440174  0.00552997  0.40140191  1
  Se  Se42  1  0.52870913  0.28463864  0.00335292  1
  Se  Se43  1  0.47129087  0.21536136  0.50335292  1
  Se  Se44  1  0.47129087  0.71536136  0.99664708  1
  Se  Se45  1  0.52870913  0.78463864  0.49664708  1
  Se  Se46  1  0.58686085  0.22805809  0.29713517  1
  Se  Se47  1  0.41313915  0.27194191  0.79713517  1
  Se  Se48  1  0.41313915  0.77194191  0.70286483  1
  Se  Se49  1  0.58686085  0.72805809  0.20286483  1
