# generated using pymatgen
data_U4Ga20Pd11
_symmetry_space_group_name_H-M   'P 1'
_cell_length_a   4.20019240
_cell_length_b   11.07718841
_cell_length_c   13.61274420
_cell_angle_alpha   81.90034347
_cell_angle_beta   81.12529225
_cell_angle_gamma   79.07129055
_symmetry_Int_Tables_number   1
_chemical_formula_structural   U4Ga20Pd11
_chemical_formula_sum   'U4 Ga20 Pd11'
_cell_volume   610.33689853
_cell_formula_units_Z   1
loop_
 _symmetry_equiv_pos_site_id
 _symmetry_equiv_pos_as_xyz
  1  'x, y, z'
loop_
 _atom_site_type_symbol
 _atom_site_label
 _atom_site_symmetry_multiplicity
 _atom_site_fract_x
 _atom_site_fract_y
 _atom_site_fract_z
 _atom_site_occupancy
  U  U0  1  0.12169256  0.09414610  0.66246879  1
  U  U1  1  0.87830744  0.90585390  0.33753121  1
  U  U2  1  0.77176861  0.63414624  0.82231654  1
  U  U3  1  0.22823139  0.36585376  0.17768346  1
  Ga  Ga4  1  0.00318366  0.07851915  0.91511354  1
  Ga  Ga5  1  0.99681634  0.92148085  0.08488646  1
  Ga  Ga6  1  0.06706378  0.66870923  0.19716320  1
  Ga  Ga7  1  0.93293622  0.33129077  0.80283680  1
  Ga  Ga8  1  0.10342790  0.33926260  0.45388161  1
  Ga  Ga9  1  0.89657210  0.66073740  0.54611839  1
  Ga  Ga10  1  0.20086725  0.60879048  0.98947502  1
  Ga  Ga11  1  0.79913275  0.39120952  0.01052498  1
  Ga  Ga12  1  0.25144410  0.78893080  0.70818100  1
  Ga  Ga13  1  0.74855590  0.21106920  0.29181900  1
  Ga  Ga14  1  0.29975370  0.90095957  0.49953302  1
  Ga  Ga15  1  0.70024630  0.09904043  0.50046698  1
  Ga  Ga16  1  0.38635621  0.53332019  0.69396739  1
  Ga  Ga17  1  0.61364379  0.46667981  0.30603261  1
  Ga  Ga18  1  0.39352159  0.21316545  0.99979138  1
  Ga  Ga19  1  0.60647841  0.78683455  0.00020862  1
  Ga  Ga20  1  0.54330386  0.29073902  0.62265327  1
  Ga  Ga21  1  0.45669614  0.70926098  0.37734673  1
  Ga  Ga22  1  0.63168005  0.93966224  0.79697766  1
  Ga  Ga23  1  0.36831995  0.06033776  0.20302234  1
  Pd  Pd24  1  0.50000000  0.50000000  0.50000000  1
  Pd  Pd25  1  0.02896633  0.56949904  0.37256829  1
  Pd  Pd26  1  0.97103367  0.43050096  0.62743171  1
  Pd  Pd27  1  0.13107927  0.84479718  0.89304427  1
  Pd  Pd28  1  0.86892073  0.15520282  0.10695573  1
  Pd  Pd29  1  0.24129419  0.12955632  0.38785530  1
  Pd  Pd30  1  0.75870581  0.87044368  0.61214470  1
  Pd  Pd31  1  0.34402340  0.42403125  0.88792195  1
  Pd  Pd32  1  0.65597660  0.57596875  0.11207805  1
  Pd  Pd33  1  0.50306764  0.17866241  0.81520230  1
  Pd  Pd34  1  0.49693236  0.82133759  0.18479770  1
