# generated using pymatgen
data_Sr(SO4)2
_symmetry_space_group_name_H-M   'P 1'
_cell_length_a   7.36596467
_cell_length_b   13.15378026
_cell_length_c   14.51938664
_cell_angle_alpha   90.00000000
_cell_angle_beta   90.00000000
_cell_angle_gamma   90.00000000
_symmetry_Int_Tables_number   1
_chemical_formula_structural   Sr(SO4)2
_chemical_formula_sum   'Sr8 S16 O64'
_cell_volume   1406.78744674
_cell_formula_units_Z   8
loop_
 _symmetry_equiv_pos_site_id
 _symmetry_equiv_pos_as_xyz
  1  'x, y, z'
loop_
 _atom_site_type_symbol
 _atom_site_label
 _atom_site_symmetry_multiplicity
 _atom_site_fract_x
 _atom_site_fract_y
 _atom_site_fract_z
 _atom_site_occupancy
  Sr  Sr0  1  0.64821284  0.43327686  0.68956219  1
  Sr  Sr1  1  0.85178716  0.93327686  0.31043781  1
  Sr  Sr2  1  0.14821284  0.56672314  0.81043781  1
  Sr  Sr3  1  0.35178716  0.06672314  0.18956219  1
  Sr  Sr4  1  0.35178716  0.56672314  0.31043781  1
  Sr  Sr5  1  0.14821284  0.06672314  0.68956219  1
  Sr  Sr6  1  0.85178716  0.43327686  0.18956219  1
  Sr  Sr7  1  0.64821284  0.93327686  0.81043781  1
  S  S8  1  0.66179481  0.13313491  0.66586896  1
  S  S9  1  0.83820519  0.63313491  0.33413104  1
  S  S10  1  0.16179481  0.86686509  0.83413104  1
  S  S11  1  0.33820519  0.36686509  0.16586896  1
  S  S12  1  0.33820519  0.86686509  0.33413104  1
  S  S13  1  0.16179481  0.36686509  0.66586896  1
  S  S14  1  0.83820519  0.13313491  0.16586896  1
  S  S15  1  0.66179481  0.63313491  0.83413104  1
  S  S16  1  0.85314470  0.35191223  0.92772608  1
  S  S17  1  0.64685530  0.85191223  0.07227392  1
  S  S18  1  0.35314470  0.64808777  0.57227392  1
  S  S19  1  0.14685530  0.14808777  0.42772608  1
  S  S20  1  0.14685530  0.64808777  0.07227392  1
  S  S21  1  0.35314470  0.14808777  0.92772608  1
  S  S22  1  0.64685530  0.35191223  0.42772608  1
  S  S23  1  0.85314470  0.85191223  0.57227392  1
  O  O24  1  0.61853914  0.24129375  0.68269199  1
  O  O25  1  0.88146086  0.74129375  0.31730801  1
  O  O26  1  0.11853914  0.75870625  0.81730801  1
  O  O27  1  0.38146086  0.25870625  0.18269199  1
  O  O28  1  0.38146086  0.75870625  0.31730801  1
  O  O29  1  0.11853914  0.25870625  0.68269199  1
  O  O30  1  0.88146086  0.24129375  0.18269199  1
  O  O31  1  0.61853914  0.74129375  0.81730801  1
  O  O32  1  0.99782448  0.43104354  0.67963311  1
  O  O33  1  0.50217552  0.93104354  0.32036689  1
  O  O34  1  0.49782448  0.56895646  0.82036689  1
  O  O35  1  0.00217552  0.06895646  0.17963311  1
  O  O36  1  0.00217552  0.56895646  0.32036689  1
  O  O37  1  0.49782448  0.06895646  0.67963311  1
  O  O38  1  0.50217552  0.43104354  0.17963311  1
  O  O39  1  0.99782448  0.93104354  0.82036689  1
  O  O40  1  0.80420590  0.09480531  0.73076959  1
  O  O41  1  0.69579410  0.59480531  0.26923041  1
  O  O42  1  0.30420590  0.90519469  0.76923041  1
  O  O43  1  0.19579410  0.40519469  0.23076959  1
  O  O44  1  0.19579410  0.90519469  0.26923041  1
  O  O45  1  0.30420590  0.40519469  0.73076959  1
  O  O46  1  0.69579410  0.09480531  0.23076959  1
  O  O47  1  0.80420590  0.59480531  0.76923041  1
  O  O48  1  0.73630083  0.12436082  0.57115577  1
  O  O49  1  0.76369917  0.62436082  0.42884423  1
  O  O50  1  0.23630083  0.87563918  0.92884423  1
  O  O51  1  0.26369917  0.37563918  0.07115577  1
  O  O52  1  0.26369917  0.87563918  0.42884423  1
  O  O53  1  0.23630083  0.37563918  0.57115577  1
  O  O54  1  0.76369917  0.12436082  0.07115577  1
  O  O55  1  0.73630083  0.62436082  0.92884423  1
  O  O56  1  0.70209579  0.35707063  0.86012641  1
  O  O57  1  0.79790421  0.85707063  0.13987359  1
  O  O58  1  0.20209579  0.64292937  0.63987359  1
  O  O59  1  0.29790421  0.14292937  0.36012641  1
  O  O60  1  0.29790421  0.64292937  0.13987359  1
  O  O61  1  0.20209579  0.14292937  0.86012641  1
  O  O62  1  0.79790421  0.35707063  0.36012641  1
  O  O63  1  0.70209579  0.85707063  0.63987359  1
  O  O64  1  0.00733338  0.41199707  0.89190063  1
  O  O65  1  0.49266662  0.91199707  0.10809937  1
  O  O66  1  0.50733338  0.58800293  0.60809937  1
  O  O67  1  0.99266662  0.08800293  0.39190063  1
  O  O68  1  0.99266662  0.58800293  0.10809937  1
  O  O69  1  0.50733338  0.08800293  0.89190063  1
  O  O70  1  0.49266662  0.41199707  0.39190063  1
  O  O71  1  0.00733338  0.91199707  0.60809937  1
  O  O72  1  0.70410647  0.38778194  0.51921385  1
  O  O73  1  0.79589353  0.88778194  0.48078615  1
  O  O74  1  0.20410647  0.61221806  0.98078615  1
  O  O75  1  0.29589353  0.11221806  0.01921385  1
  O  O76  1  0.29589353  0.61221806  0.48078615  1
  O  O77  1  0.20410647  0.11221806  0.51921385  1
  O  O78  1  0.79589353  0.38778194  0.01921385  1
  O  O79  1  0.70410647  0.88778194  0.98078615  1
  O  O80  1  0.90862373  0.24293538  0.93805522  1
  O  O81  1  0.59137627  0.74293538  0.06194478  1
  O  O82  1  0.40862373  0.75706462  0.56194478  1
  O  O83  1  0.09137627  0.25706462  0.43805522  1
  O  O84  1  0.09137627  0.75706462  0.06194478  1
  O  O85  1  0.40862373  0.25706462  0.93805522  1
  O  O86  1  0.59137627  0.24293538  0.43805522  1
  O  O87  1  0.90862373  0.74293538  0.56194478  1
