# generated using pymatgen
data_Na3CoC2ClO6
_symmetry_space_group_name_H-M   'P 1'
_cell_length_a   9.99472869
_cell_length_b   9.99472869
_cell_length_c   9.99472869
_cell_angle_alpha   60.00000000
_cell_angle_beta   60.00000000
_cell_angle_gamma   60.00000000
_symmetry_Int_Tables_number   1
_chemical_formula_structural   Na3CoC2ClO6
_chemical_formula_sum   'Na12 Co4 C8 Cl4 O24'
_cell_volume   705.98915597
_cell_formula_units_Z   4
loop_
 _symmetry_equiv_pos_site_id
 _symmetry_equiv_pos_as_xyz
  1  'x, y, z'
loop_
 _atom_site_type_symbol
 _atom_site_label
 _atom_site_symmetry_multiplicity
 _atom_site_fract_x
 _atom_site_fract_y
 _atom_site_fract_z
 _atom_site_occupancy
  Na  Na0  1  0.84755114  0.40244886  0.40244886  1
  Na  Na1  1  0.40244886  0.84755114  0.84755114  1
  Na  Na2  1  0.40244886  0.40244886  0.84755114  1
  Na  Na3  1  0.84755114  0.84755114  0.40244886  1
  Na  Na4  1  0.40244886  0.84755114  0.40244886  1
  Na  Na5  1  0.84755114  0.40244886  0.84755114  1
  Na  Na6  1  0.15244886  0.59755114  0.59755114  1
  Na  Na7  1  0.59755114  0.15244886  0.15244886  1
  Na  Na8  1  0.59755114  0.59755114  0.15244886  1
  Na  Na9  1  0.15244886  0.15244886  0.59755114  1
  Na  Na10  1  0.59755114  0.15244886  0.59755114  1
  Na  Na11  1  0.15244886  0.59755114  0.15244886  1
  Co  Co12  1  0.00000000  0.00000000  0.50000000  1
  Co  Co13  1  0.50000000  0.00000000  -0.00000000  1
  Co  Co14  1  0.00000000  0.50000000  -0.00000000  1
  Co  Co15  1  0.00000000  0.00000000  -0.00000000  1
  C  C16  1  0.21749303  0.84752090  0.21749303  1
  C  C17  1  0.21749303  0.21749303  0.21749303  1
  C  C18  1  0.21749303  0.21749303  0.84752090  1
  C  C19  1  0.84752090  0.21749303  0.21749303  1
  C  C20  1  0.78250697  0.15247910  0.78250697  1
  C  C21  1  0.78250697  0.78250697  0.78250697  1
  C  C22  1  0.78250697  0.78250697  0.15247910  1
  C  C23  1  0.15247910  0.78250697  0.78250697  1
  Cl  Cl24  1  0.50000000  0.50000000  0.50000000  1
  Cl  Cl25  1  0.50000000  0.00000000  0.50000000  1
  Cl  Cl26  1  0.00000000  0.50000000  0.50000000  1
  Cl  Cl27  1  0.50000000  0.50000000  -0.00000000  1
  O  O28  1  0.18827627  0.84476852  0.36072397  1
  O  O29  1  0.36072397  0.10623124  0.18827627  1
  O  O30  1  0.10623124  0.36072397  0.84476852  1
  O  O31  1  0.84476852  0.18827627  0.10623124  1
  O  O32  1  0.84476852  0.36072397  0.18827627  1
  O  O33  1  0.10623124  0.18827627  0.36072397  1
  O  O34  1  0.36072397  0.84476852  0.10623124  1
  O  O35  1  0.18827627  0.10623124  0.84476852  1
  O  O36  1  0.36072397  0.18827627  0.84476852  1
  O  O37  1  0.18827627  0.36072397  0.10623124  1
  O  O38  1  0.84476852  0.10623124  0.36072397  1
  O  O39  1  0.10623124  0.84476852  0.18827627  1
  O  O40  1  0.81172373  0.15523148  0.63927603  1
  O  O41  1  0.63927603  0.89376876  0.81172373  1
  O  O42  1  0.89376876  0.63927603  0.15523148  1
  O  O43  1  0.15523148  0.81172373  0.89376876  1
  O  O44  1  0.15523148  0.63927603  0.81172373  1
  O  O45  1  0.89376876  0.81172373  0.63927603  1
  O  O46  1  0.63927603  0.15523148  0.89376876  1
  O  O47  1  0.81172373  0.89376876  0.15523148  1
  O  O48  1  0.63927603  0.81172373  0.15523148  1
  O  O49  1  0.81172373  0.63927603  0.89376876  1
  O  O50  1  0.15523148  0.89376876  0.63927603  1
  O  O51  1  0.89376876  0.15523148  0.81172373  1
