# generated using pymatgen
data_CsGaH6(CF)2
_symmetry_space_group_name_H-M   'P 1'
_cell_length_a   8.33232014
_cell_length_b   9.89417830
_cell_length_c   11.62568340
_cell_angle_alpha   115.18428116
_cell_angle_beta   110.64947262
_cell_angle_gamma   90.00000000
_symmetry_Int_Tables_number   1
_chemical_formula_structural   CsGaH6(CF)2
_chemical_formula_sum   'Cs4 Ga4 H24 C8 F8'
_cell_volume   798.76590246
_cell_formula_units_Z   4
loop_
 _symmetry_equiv_pos_site_id
 _symmetry_equiv_pos_as_xyz
  1  'x, y, z'
loop_
 _atom_site_type_symbol
 _atom_site_label
 _atom_site_symmetry_multiplicity
 _atom_site_fract_x
 _atom_site_fract_y
 _atom_site_fract_z
 _atom_site_occupancy
  Cs  Cs0  1  0.73672655  0.45246757  0.65634652  1
  Cs  Cs1  1  0.76327345  0.79612005  0.34365348  1
  Cs  Cs2  1  0.26327345  0.54753243  0.34365348  1
  Cs  Cs3  1  0.23672655  0.20387995  0.65634652  1
  Ga  Ga4  1  0.78013044  0.10424363  0.75345555  1
  Ga  Ga5  1  0.71986956  0.35078808  0.24654445  1
  Ga  Ga6  1  0.21986956  0.89575637  0.24654445  1
  Ga  Ga7  1  0.28013044  0.64921192  0.75345555  1
  H  H8  1  0.71971513  0.81626595  0.67031951  1
  H  H9  1  0.78028487  0.14594644  0.32968049  1
  H  H10  1  0.28028487  0.18373405  0.32968049  1
  H  H11  1  0.21971513  0.85405356  0.67031951  1
  H  H12  1  0.56206100  0.90302076  0.73330691  1
  H  H13  1  0.93793900  0.16971386  0.26669309  1
  H  H14  1  0.43793900  0.09697924  0.26669309  1
  H  H15  1  0.06206100  0.83028614  0.73330691  1
  H  H16  1  0.54508320  0.87167208  0.56658786  1
  H  H17  1  0.95491680  0.30508422  0.43341214  1
  H  H18  1  0.45491680  0.12832792  0.43341214  1
  H  H19  1  0.04508320  0.69491578  0.56658786  1
  H  H20  1  0.07004421  0.13093486  0.94579983  1
  H  H21  1  0.42995579  0.18513503  0.05420017  1
  H  H22  1  0.92995579  0.86906514  0.05420017  1
  H  H23  1  0.57004421  0.81486497  0.94579983  1
  H  H24  1  0.04136663  0.31121629  0.94925502  1
  H  H25  1  0.45863337  0.36196127  0.05074498  1
  H  H26  1  0.95863337  0.68878371  0.05074498  1
  H  H27  1  0.54136663  0.63803873  0.94925502  1
  H  H28  1  0.92663608  0.23500461  0.01780728  1
  H  H29  1  0.57336392  0.21719733  0.98219272  1
  H  H30  1  0.07336392  0.76499539  0.98219272  1
  H  H31  1  0.42663608  0.78280267  0.01780728  1
  C  C32  1  0.63667538  0.90254540  0.67211483  1
  C  C33  1  0.86332462  0.23043057  0.32788517  1
  C  C34  1  0.36332462  0.09745460  0.32788517  1
  C  C35  1  0.13667538  0.76956943  0.67211483  1
  C  C36  1  0.97536552  0.20638714  0.93561348  1
  C  C37  1  0.52463448  0.27077366  0.06438652  1
  C  C38  1  0.02463448  0.79361286  0.06438652  1
  C  C39  1  0.47536552  0.72922634  0.93561348  1
  F  F40  1  0.86308351  0.10523915  0.62083519  1
  F  F41  1  0.63691649  0.48440396  0.37916481  1
  F  F42  1  0.13691649  0.89476085  0.37916481  1
  F  F43  1  0.36308351  0.51559604  0.62083519  1
  F  F44  1  0.62192027  0.23994404  0.73928754  1
  F  F45  1  0.87807973  0.50065650  0.26071246  1
  F  F46  1  0.37807973  0.76005596  0.26071246  1
  F  F47  1  0.12192027  0.49934350  0.73928754  1
