# generated using pymatgen
data_KH2SNO3
_symmetry_space_group_name_H-M   'P 1'
_cell_length_a   6.03094475
_cell_length_b   8.34084398
_cell_length_c   8.48465101
_cell_angle_alpha   90.00000000
_cell_angle_beta   90.00000000
_cell_angle_gamma   90.00000000
_symmetry_Int_Tables_number   1
_chemical_formula_structural   KH2SNO3
_chemical_formula_sum   'K4 H8 S4 N4 O12'
_cell_volume   426.80483546
_cell_formula_units_Z   4
loop_
 _symmetry_equiv_pos_site_id
 _symmetry_equiv_pos_as_xyz
  1  'x, y, z'
loop_
 _atom_site_type_symbol
 _atom_site_label
 _atom_site_symmetry_multiplicity
 _atom_site_fract_x
 _atom_site_fract_y
 _atom_site_fract_z
 _atom_site_occupancy
  K  K0  1  0.33514782  0.50000000  0.75000000  1
  K  K1  1  0.66485218  0.00000000  0.25000000  1
  K  K2  1  0.66485218  0.50000000  0.25000000  1
  K  K3  1  0.33514782  0.00000000  0.75000000  1
  H  H4  1  0.75878340  0.35012561  0.87796429  1
  H  H5  1  0.24121660  0.85012561  0.12203571  1
  H  H6  1  0.75878340  0.64987439  0.62203571  1
  H  H7  1  0.24121660  0.14987439  0.37796429  1
  H  H8  1  0.24121660  0.64987439  0.12203571  1
  H  H9  1  0.75878340  0.14987439  0.87796429  1
  H  H10  1  0.24121660  0.35012561  0.37796429  1
  H  H11  1  0.75878340  0.85012561  0.62203571  1
  S  S12  1  0.82209838  0.25000000  0.63846809  1
  S  S13  1  0.17790162  0.75000000  0.36153191  1
  S  S14  1  0.82209838  0.75000000  0.86153191  1
  S  S15  1  0.17790162  0.25000000  0.13846809  1
  N  N16  1  0.70625545  0.25000000  0.81792144  1
  N  N17  1  0.29374455  0.75000000  0.18207856  1
  N  N18  1  0.70625545  0.75000000  0.68207856  1
  N  N19  1  0.29374455  0.25000000  0.31792144  1
  O  O20  1  0.06577497  0.25000000  0.65462077  1
  O  O21  1  0.93422503  0.75000000  0.34537923  1
  O  O22  1  0.06577497  0.75000000  0.84537923  1
  O  O23  1  0.93422503  0.25000000  0.15462077  1
  O  O24  1  0.73792183  0.10222809  0.56595936  1
  O  O25  1  0.26207817  0.60222809  0.43404064  1
  O  O26  1  0.73792183  0.89777191  0.93404064  1
  O  O27  1  0.26207817  0.39777191  0.06595936  1
  O  O28  1  0.26207817  0.89777191  0.43404064  1
  O  O29  1  0.73792183  0.39777191  0.56595936  1
  O  O30  1  0.26207817  0.10222809  0.06595936  1
  O  O31  1  0.73792183  0.60222809  0.93404064  1
