# generated using pymatgen
data_InSi2H19C7Br2
_symmetry_space_group_name_H-M   'P 1'
_cell_length_a   9.88565339
_cell_length_b   14.16891079
_cell_length_c   14.61388553
_cell_angle_alpha   62.66707055
_cell_angle_beta   78.66939653
_cell_angle_gamma   81.73132276
_symmetry_Int_Tables_number   1
_chemical_formula_structural   InSi2H19C7Br2
_chemical_formula_sum   'In4 Si8 H76 C28 Br8'
_cell_volume   1779.59582191
_cell_formula_units_Z   4
loop_
 _symmetry_equiv_pos_site_id
 _symmetry_equiv_pos_as_xyz
  1  'x, y, z'
loop_
 _atom_site_type_symbol
 _atom_site_label
 _atom_site_symmetry_multiplicity
 _atom_site_fract_x
 _atom_site_fract_y
 _atom_site_fract_z
 _atom_site_occupancy
  In  In0  1  0.05437799  0.84209090  0.61649610  1
  In  In1  1  0.94562201  0.15790910  0.38350390  1
  In  In2  1  0.90362413  0.66467252  0.94025538  1
  In  In3  1  0.09637587  0.33532748  0.05974462  1
  Si  Si4  1  0.16803602  0.70026113  0.48105960  1
  Si  Si5  1  0.83196398  0.29973887  0.51894040  1
  Si  Si6  1  0.39408736  0.74988518  0.58933957  1
  Si  Si7  1  0.60591264  0.25011482  0.41066043  1
  Si  Si8  1  0.58811433  0.75585375  0.01591341  1
  Si  Si9  1  0.41188567  0.24414625  0.98408659  1
  Si  Si10  1  0.85075614  0.77605644  0.11203020  1
  Si  Si11  1  0.14924386  0.22394356  0.88796980  1
  H  H12  1  0.18078456  0.65609522  0.66217074  1
  H  H13  1  0.81921544  0.34390478  0.33782926  1
  H  H14  1  0.14519867  0.80476867  0.29473256  1
  H  H15  1  0.85480133  0.19523133  0.70526744  1
  H  H16  1  0.08487130  0.88363211  0.36166550  1
  H  H17  1  0.91512870  0.11636789  0.63833450  1
  H  H18  1  0.26561460  0.86169006  0.32783515  1
  H  H19  1  0.73438540  0.13830994  0.67216485  1
  H  H20  1  0.98516480  0.57434586  0.59874674  1
  H  H21  1  0.01483520  0.42565414  0.40125326  1
  H  H22  1  0.90812627  0.69978858  0.51842779  1
  H  H23  1  0.09187373  0.30021142  0.48157221  1
  H  H24  1  0.98379678  0.61097891  0.46501438  1
  H  H25  1  0.01620322  0.38902109  0.53498562  1
  H  H26  1  0.30027898  0.52304231  0.52811786  1
  H  H27  1  0.69972102  0.47695769  0.47188214  1
  H  H28  1  0.27013900  0.58574066  0.39674038  1
  H  H29  1  0.72986100  0.41425934  0.60325962  1
  H  H30  1  0.40460506  0.62721233  0.43259496  1
  H  H31  1  0.59539494  0.37278767  0.56740504  1
  H  H32  1  0.35244787  0.77611044  0.75157448  1
  H  H33  1  0.64755213  0.22388956  0.24842552  1
  H  H34  1  0.51622003  0.81731471  0.67555615  1
  H  H35  1  0.48377997  0.18268529  0.32444385  1
  H  H36  1  0.36521562  0.90117849  0.63853117  1
  H  H37  1  0.63478438  0.09882151  0.36146883  1
  H  H38  1  0.46387454  0.57801571  0.73344119  1
  H  H39  1  0.53612546  0.42198429  0.26655881  1
  H  H40  1  0.46618894  0.56030627  0.61990553  1
  H  H41  1  0.53381106  0.43969373  0.38009447  1
  H  H42  1  0.60082990  0.62576278  0.62818739  1
  H  H43  1  0.39917010  0.37423722  0.37181261  1
  H  H44  1  0.49627207  0.79124182  0.40453683  1
  H  H45  1  0.50372793  0.20875818  0.59546317  1
  H  H46  1  0.43311267  0.90985972  0.41683459  1
  H  H47  1  0.56688733  0.09014028  0.58316541  1
  H  H48  1  0.59089752  0.84290246  0.46122783  1
  H  H49  1  0.40910248  0.15709754  0.53877217  1
  H  H50  1  0.75245853  0.62431646  0.12017476  1
  H  H51  1  0.24754147  0.37568354  0.87982524  1
  H  H52  1  0.39997291  0.66990289  0.99904359  1
  H  H53  1  0.60002709  0.33009711  0.00095641  1
  H  H54  1  0.55960039  0.63774773  0.93604747  1
  H  H55  1  0.44039961  0.36225227  0.06395253  1
  H  H56  1  0.51855377  0.57167034  0.07420527  1
  H  H57  1  0.48144623  0.42832966  0.92579473  1
  H  H58  1  0.36499623  0.80519793  0.09700889  1
  H  H59  1  0.63500377  0.19480207  0.90299111  1
  H  H60  1  0.46377142  0.71619520  0.19553303  1
  H  H61  1  0.53622858  0.28380480  0.80446697  1
  H  H62  1  0.49986814  0.85324944  0.12599878  1
  H  H63  1  0.50013186  0.14675056  0.87400122  1
  H  H64  1  0.65764224  0.86536943  0.82495127  1
  H  H65  1  0.34235776  0.13463057  0.17504873  1
  H  H66  1  0.48870543  0.90457943  0.86863543  1
  H  H67  1  0.51129457  0.09542057  0.13136457  1
  H  H68  1  0.63551809  0.94541590  0.89220181  1
  H  H69  1  0.36448191  0.05458410  0.10779819  1
  H  H70  1  0.06852428  0.65753005  0.13235486  1
  H  H71  1  0.93147572  0.34246995  0.86764514  1
  H  H72  1  0.09859653  0.78594764  0.02724427  1
  H  H73  1  0.90140347  0.21405236  0.97275573  1
  H  H74  1  0.08121058  0.76706463  0.15777047  1
  H  H75  1  0.91878942  0.23293537  0.84222953  1
  H  H76  1  0.87970125  0.96293302  0.07130097  1
  H  H77  1  0.12029875  0.03706698  0.92869903  1
  H  H78  1  0.85200627  0.95447020  0.95864664  1
  H  H79  1  0.14799373  0.04552980  0.04135336  1
  H  H80  1  0.71012129  0.94950595  0.05669135  1
  H  H81  1  0.28987871  0.05049405  0.94330865  1
  H  H82  1  0.80708134  0.77747934  0.28443033  1
  H  H83  1  0.19291866  0.22252066  0.71556967  1
  H  H84  1  0.66248566  0.72900162  0.26702189  1
  H  H85  1  0.33751434  0.27099838  0.73297811  1
  H  H86  1  0.81539118  0.64508244  0.29966372  1
  H  H87  1  0.18460882  0.35491756  0.70033628  1
  C  C88  1  0.20855798  0.72751754  0.58827155  1
  C  C89  1  0.79144202  0.27248246  0.41172845  1
  C  C90  1  0.16602657  0.82436094  0.35497450  1
  C  C91  1  0.83397343  0.17563906  0.64502550  1
  C  C92  1  0.99477571  0.64114736  0.52019147  1
  C  C93  1  0.00522429  0.35885264  0.47980853  1
  C  C94  1  0.29918209  0.59972186  0.45826039  1
  C  C95  1  0.70081791  0.40027814  0.54173961  1
  C  C96  1  0.40607188  0.81773201  0.67163125  1
  C  C97  1  0.59392812  0.18226799  0.32836875  1
  C  C98  1  0.48892536  0.61514388  0.64821635  1
  C  C99  1  0.51107464  0.38485612  0.35178365  1
  C  C100  1  0.48624572  0.83094814  0.45503901  1
  C  C101  1  0.51375428  0.16905186  0.54496099  1
  C  C102  1  0.76661874  0.70553888  0.05608404  1
  C  C103  1  0.23338126  0.29446112  0.94391596  1
  C  C104  1  0.51030659  0.64863264  0.00512539  1
  C  C105  1  0.48969341  0.35136736  0.99487461  1
  C  C106  1  0.46965439  0.78547200  0.11897479  1
  C  C107  1  0.53034561  0.21452800  0.88102521  1
  C  C108  1  0.59388306  0.87945375  0.88860726  1
  C  C109  1  0.40611694  0.12054625  0.11139274  1
  C  C110  1  0.04268020  0.74320707  0.10619397  1
  C  C111  1  0.95731980  0.25679293  0.89380603  1
  C  C112  1  0.81978843  0.92466287  0.04304063  1
  C  C113  1  0.18021157  0.07533713  0.95695937  1
  C  C114  1  0.77583226  0.72700842  0.25404932  1
  C  C115  1  0.22416774  0.27299158  0.74595068  1
  Br  Br116  1  0.83620210  0.94313236  0.52351770  1
  Br  Br117  1  0.16379790  0.05686764  0.47648230  1
  Br  Br118  1  0.02304787  0.87456675  0.78272658  1
  Br  Br119  1  0.97695213  0.12543325  0.21727342  1
  Br  Br120  1  0.84405587  0.66750984  0.77263720  1
  Br  Br121  1  0.15594413  0.33249016  0.22736280  1
  Br  Br122  1  0.15549412  0.57746277  0.93974372  1
  Br  Br123  1  0.84450588  0.42253723  0.06025628  1
