# generated using pymatgen
data_Tm3InS6
_symmetry_space_group_name_H-M   'P 1'
_cell_length_a   3.82279547
_cell_length_b   13.25905068
_cell_length_c   16.49957493
_cell_angle_alpha   90.00000000
_cell_angle_beta   90.00000000
_cell_angle_gamma   90.00000000
_symmetry_Int_Tables_number   1
_chemical_formula_structural   Tm3InS6
_chemical_formula_sum   'Tm12 In4 S24'
_cell_volume   836.30799608
_cell_formula_units_Z   4
loop_
 _symmetry_equiv_pos_site_id
 _symmetry_equiv_pos_as_xyz
  1  'x, y, z'
loop_
 _atom_site_type_symbol
 _atom_site_label
 _atom_site_symmetry_multiplicity
 _atom_site_fract_x
 _atom_site_fract_y
 _atom_site_fract_z
 _atom_site_occupancy
  Tm  Tm0  1  0.25353438  0.03584628  0.77594078  1
  Tm  Tm1  1  0.25353438  0.96415372  0.22405922  1
  Tm  Tm2  1  0.74646562  0.46415372  0.27594078  1
  Tm  Tm3  1  0.74646562  0.53584628  0.72405922  1
  Tm  Tm4  1  0.26474276  0.24639475  0.61127108  1
  Tm  Tm5  1  0.26474276  0.75360525  0.38872892  1
  Tm  Tm6  1  0.73525724  0.25360525  0.11127108  1
  Tm  Tm7  1  0.73525724  0.74639475  0.88872892  1
  Tm  Tm8  1  0.74766426  0.30944838  0.85617017  1
  Tm  Tm9  1  0.74766426  0.69055162  0.14382983  1
  Tm  Tm10  1  0.25233574  0.19055162  0.35617017  1
  Tm  Tm11  1  0.25233574  0.80944838  0.64382983  1
  In  In12  1  0.75304472  -0.00000000  0.50000000  1
  In  In13  1  0.24695528  0.50000000  -0.00000000  1
  In  In14  1  0.39080709  0.50000000  0.50000000  1
  In  In15  1  0.60919291  -0.00000000  -0.00000000  1
  S  S16  1  0.76963855  0.39644296  0.59474827  1
  S  S17  1  0.76963855  0.60355704  0.40525173  1
  S  S18  1  0.23036145  0.10355704  0.09474827  1
  S  S19  1  0.23036145  0.89644296  0.90525173  1
  S  S20  1  0.24659687  0.30551098  0.97992940  1
  S  S21  1  0.24659687  0.69448902  0.02007060  1
  S  S22  1  0.75340313  0.19448902  0.47992940  1
  S  S23  1  0.75340313  0.80551098  0.52007060  1
  S  S24  1  0.75062066  0.10797960  0.88291566  1
  S  S25  1  0.75062066  0.89202040  0.11708434  1
  S  S26  1  0.24937934  0.39202040  0.38291566  1
  S  S27  1  0.24937934  0.60797960  0.61708434  1
  S  S28  1  0.76007540  0.17922999  0.71684299  1
  S  S29  1  0.76007540  0.82077001  0.28315701  1
  S  S30  1  0.23992460  0.32077001  0.21684299  1
  S  S31  1  0.23992460  0.67922999  0.78315701  1
  S  S32  1  0.24931439  0.38419012  0.75642896  1
  S  S33  1  0.24931439  0.61580988  0.24357104  1
  S  S34  1  0.75068561  0.11580988  0.25642896  1
  S  S35  1  0.75068561  0.88419012  0.74357104  1
  S  S36  1  0.25390867  0.02092048  0.60663372  1
  S  S37  1  0.25390867  0.97907952  0.39336628  1
  S  S38  1  0.74609133  0.47907952  0.10663372  1
  S  S39  1  0.74609133  0.52092048  0.89336628  1
