# generated using pymatgen
data_Cu3B6H2O13
_symmetry_space_group_name_H-M   'P 1'
_cell_length_a   5.69045555
_cell_length_b   8.63686616
_cell_length_c   8.82043469
_cell_angle_alpha   83.89997958
_cell_angle_beta   71.18144270
_cell_angle_gamma   70.76592325
_symmetry_Int_Tables_number   1
_chemical_formula_structural   Cu3B6H2O13
_chemical_formula_sum   'Cu6 B12 H4 O26'
_cell_volume   387.42663946
_cell_formula_units_Z   2
loop_
 _symmetry_equiv_pos_site_id
 _symmetry_equiv_pos_as_xyz
  1  'x, y, z'
loop_
 _atom_site_type_symbol
 _atom_site_label
 _atom_site_symmetry_multiplicity
 _atom_site_fract_x
 _atom_site_fract_y
 _atom_site_fract_z
 _atom_site_occupancy
  Cu  Cu0  1  0.48916198  0.50000000  0.50000000  1
  Cu  Cu1  1  0.73916198  -0.00000000  -0.00000000  1
  Cu  Cu2  1  0.61808587  0.67819387  0.84185434  1
  Cu  Cu3  1  0.13813408  0.32180613  0.15814566  1
  Cu  Cu4  1  0.04627973  0.82180613  0.34185434  1
  Cu  Cu5  1  0.20994021  0.17819387  0.65814566  1
  B  B6  1  0.15938640  0.46466319  0.83576623  1
  B  B7  1  0.45981582  0.53533681  0.16423377  1
  B  B8  1  0.37404959  0.03533681  0.33576623  1
  B  B9  1  0.74515264  0.96466319  0.66423377  1
  B  B10  1  0.12497011  0.75522450  0.75400416  1
  B  B11  1  0.63419878  0.24477550  0.24599584  1
  B  B12  1  0.63019462  0.74477550  0.25400416  1
  B  B13  1  0.62897427  0.25522450  0.74599584  1
  B  B14  1  0.88639324  0.16694564  0.45937579  1
  B  B15  1  0.51271467  0.83305436  0.54062421  1
  B  B16  1  0.80333888  0.33305436  0.95937579  1
  B  B17  1  0.09576903  0.66694564  0.04062421  1
  H  H18  1  0.24542511  0.95517201  0.08630365  1
  H  H19  1  0.28690076  0.04482799  0.91369635  1
  H  H20  1  0.95059712  0.54482799  0.58630365  1
  H  H21  1  0.08172876  0.45517201  0.41369635  1
  O  O22  1  0.43722221  0.41609933  0.73086455  1
  O  O23  1  0.58418609  0.58390067  0.26913545  1
  O  O24  1  0.60332154  0.08390067  0.23086455  1
  O  O25  1  0.91808676  0.91609933  0.76913545  1
  O  O26  1  0.13365701  0.49568481  0.00228019  1
  O  O27  1  0.63162201  0.50431519  0.99771981  1
  O  O28  1  0.37934182  0.00431519  0.50228019  1
  O  O29  1  0.88593720  0.99568481  0.49771981  1
  O  O30  1  0.04629001  0.33511152  0.83464825  1
  O  O31  1  0.21604977  0.66488848  0.16535175  1
  O  O32  1  0.13140153  0.16488848  0.33464825  1
  O  O33  1  0.63093825  0.83511152  0.66535175  1
  O  O34  1  0.01020666  0.61986074  0.77367728  1
  O  O35  1  0.40374469  0.38013926  0.22632272  1
  O  O36  1  0.38006741  0.88013926  0.27367728  1
  O  O37  1  0.53388394  0.11986074  0.72632272  1
  O  O38  1  0.36120120  0.00000000  -0.00000000  1
  O  O39  1  0.11120120  0.50000000  0.50000000  1
  O  O40  1  0.66322055  0.26789527  0.40352472  1
  O  O41  1  0.33464054  0.73210473  0.59647528  1
  O  O42  1  0.68111582  0.23210473  0.90352472  1
  O  O43  1  0.81674527  0.76789527  0.09647528  1
  O  O44  1  0.87196509  0.24232024  0.60858201  1
  O  O45  1  0.72286734  0.75767976  0.39141799  1
  O  O46  1  0.86428533  0.25767976  0.10858201  1
  O  O47  1  0.23054710  0.74232024  0.89141799  1
