# generated using pymatgen
data_Tl3Cr4AgO14
_symmetry_space_group_name_H-M   'P 1'
_cell_length_a   7.55763354
_cell_length_b   7.55763354
_cell_length_c   13.80230039
_cell_angle_alpha   101.98716881
_cell_angle_beta   101.98716881
_cell_angle_gamma   90.33895684
_symmetry_Int_Tables_number   1
_chemical_formula_structural   Tl3Cr4AgO14
_chemical_formula_sum   'Tl6 Cr8 Ag2 O28'
_cell_volume   753.35876374
_cell_formula_units_Z   2
loop_
 _symmetry_equiv_pos_site_id
 _symmetry_equiv_pos_as_xyz
  1  'x, y, z'
loop_
 _atom_site_type_symbol
 _atom_site_label
 _atom_site_symmetry_multiplicity
 _atom_site_fract_x
 _atom_site_fract_y
 _atom_site_fract_z
 _atom_site_occupancy
  Tl  Tl0  1  0.62187199  0.24777370  0.99769538  1
  Tl  Tl1  1  0.75222630  0.37812801  0.50230462  1
  Tl  Tl2  1  0.37812801  0.75222630  0.00230462  1
  Tl  Tl3  1  0.24777370  0.62187199  0.49769538  1
  Tl  Tl4  1  0.03212127  0.96787873  0.25000000  1
  Tl  Tl5  1  0.96787873  0.03212127  0.75000000  1
  Cr  Cr6  1  0.86842963  0.72648433  0.95302926  1
  Cr  Cr7  1  0.27351567  0.13157037  0.54697074  1
  Cr  Cr8  1  0.13157037  0.27351567  0.04697074  1
  Cr  Cr9  1  0.72648433  0.86842963  0.45302926  1
  Cr  Cr10  1  0.94924745  0.46723002  0.24364772  1
  Cr  Cr11  1  0.53276998  0.05075255  0.25635228  1
  Cr  Cr12  1  0.05075255  0.53276998  0.75635228  1
  Cr  Cr13  1  0.46723002  0.94924745  0.74364772  1
  Ag  Ag14  1  0.44459766  0.55540234  0.25000000  1
  Ag  Ag15  1  0.55540234  0.44459766  0.75000000  1
  O  O16  1  0.00826266  0.69998876  0.86040362  1
  O  O17  1  0.30001124  0.99173734  0.63959638  1
  O  O18  1  0.99173734  0.30001124  0.13959638  1
  O  O19  1  0.69998876  0.00826266  0.36040362  1
  O  O20  1  0.69787885  0.57079479  0.91618268  1
  O  O21  1  0.42920521  0.30212115  0.58381732  1
  O  O22  1  0.30212115  0.42920521  0.08381732  1
  O  O23  1  0.57079479  0.69787885  0.41618268  1
  O  O24  1  0.99358961  0.70844388  0.06129319  1
  O  O25  1  0.29155612  0.00641039  0.43870681  1
  O  O26  1  0.00641039  0.29155612  0.93870681  1
  O  O27  1  0.70844388  0.99358961  0.56129319  1
  O  O28  1  0.78674235  0.92673052  0.96351633  1
  O  O29  1  0.07326948  0.21325765  0.53648367  1
  O  O30  1  0.21325765  0.07326948  0.03648367  1
  O  O31  1  0.92673052  0.78674235  0.46351633  1
  O  O32  1  0.12438784  0.61490865  0.28029489  1
  O  O33  1  0.38509135  0.87561216  0.21970511  1
  O  O34  1  0.87561216  0.38509135  0.71970511  1
  O  O35  1  0.61490865  0.12438784  0.78029489  1
  O  O36  1  0.75880993  0.56406432  0.20959909  1
  O  O37  1  0.43593568  0.24119007  0.29040091  1
  O  O38  1  0.24119007  0.43593568  0.79040091  1
  O  O39  1  0.56406432  0.75880993  0.70959909  1
  O  O40  1  0.93883532  0.36657305  0.33652073  1
  O  O41  1  0.63342695  0.06116468  0.16347927  1
  O  O42  1  0.06116468  0.63342695  0.66347927  1
  O  O43  1  0.36657305  0.93883532  0.83652073  1
