# generated using pymatgen
data_Cs11Fe10S16O
_symmetry_space_group_name_H-M   'P 1'
_cell_length_a   11.40364252
_cell_length_b   11.40364252
_cell_length_c   11.40364252
_cell_angle_alpha   101.57327587
_cell_angle_beta   113.55876900
_cell_angle_gamma   113.55876900
_symmetry_Int_Tables_number   1
_chemical_formula_structural   Cs11Fe10S16O
_chemical_formula_sum   'Cs11 Fe10 S16 O1'
_cell_volume   1125.63629632
_cell_formula_units_Z   1
loop_
 _symmetry_equiv_pos_site_id
 _symmetry_equiv_pos_as_xyz
  1  'x, y, z'
loop_
 _atom_site_type_symbol
 _atom_site_label
 _atom_site_symmetry_multiplicity
 _atom_site_fract_x
 _atom_site_fract_y
 _atom_site_fract_z
 _atom_site_occupancy
  Cs  Cs0  1  0.00000000  0.50000000  0.50000000  1
  Cs  Cs1  1  0.00000000  0.21698554  0.21698554  1
  Cs  Cs2  1  -0.00000000  0.78301446  0.78301446  1
  Cs  Cs3  1  0.66497475  0.83248737  0.83248737  1
  Cs  Cs4  1  0.33502525  0.16751263  0.16751263  1
  Cs  Cs5  1  0.00000000  0.16751263  0.83248737  1
  Cs  Cs6  1  -0.00000000  0.83248737  0.16751263  1
  Cs  Cs7  1  0.32909615  0.50000000  0.82909615  1
  Cs  Cs8  1  0.67090385  0.50000000  0.17090385  1
  Cs  Cs9  1  0.67090385  0.17090385  0.50000000  1
  Cs  Cs10  1  0.32909615  0.82909615  0.50000000  1
  Fe  Fe11  1  0.50000000  0.75000000  0.25000000  1
  Fe  Fe12  1  0.50000000  0.25000000  0.75000000  1
  Fe  Fe13  1  0.16443041  0.58221520  0.08221520  1
  Fe  Fe14  1  0.83556959  0.91778480  0.41778480  1
  Fe  Fe15  1  0.50000000  0.91778480  0.08221520  1
  Fe  Fe16  1  0.50000000  0.58221520  0.41778480  1
  Fe  Fe17  1  0.50000000  0.41778480  0.58221520  1
  Fe  Fe18  1  0.50000000  0.08221520  0.91778480  1
  Fe  Fe19  1  0.16443041  0.08221520  0.58221520  1
  Fe  Fe20  1  0.83556959  0.41778480  0.91778480  1
  S  S21  1  0.65499126  0.81466288  0.15967162  1
  S  S22  1  0.34500874  0.50468036  0.15967162  1
  S  S23  1  0.65499126  0.15967162  0.81466288  1
  S  S24  1  0.34500874  0.15967162  0.50468036  1
  S  S25  1  0.34500874  0.18533712  0.84032838  1
  S  S26  1  0.65499126  0.49531964  0.84032838  1
  S  S27  1  0.34500874  0.84032838  0.18533712  1
  S  S28  1  0.65499126  0.84032838  0.49531964  1
  S  S29  1  0.64559751  0.16806361  0.16806361  1
  S  S30  1  0.35440249  0.52246610  0.52246610  1
  S  S31  1  -0.00000000  0.52246610  0.16806361  1
  S  S32  1  0.00000000  0.16806361  0.52246610  1
  S  S33  1  0.35440249  0.83193639  0.83193639  1
  S  S34  1  0.64559751  0.47753390  0.47753390  1
  S  S35  1  0.00000000  0.47753390  0.83193639  1
  S  S36  1  -0.00000000  0.83193639  0.47753390  1
  O  O37  1  0.00000000  0.00000000  0.00000000  1
