# generated using pymatgen
data_TiO
_symmetry_space_group_name_H-M   'P 1'
_cell_length_a   4.17372282
_cell_length_b   5.11554533
_cell_length_c   5.84589564
_cell_angle_alpha   105.76315095
_cell_angle_beta   90.00000000
_cell_angle_gamma   114.07581145
_symmetry_Int_Tables_number   1
_chemical_formula_structural   TiO
_chemical_formula_sum   'Ti5 O5'
_cell_volume   108.79546615
_cell_formula_units_Z   5
loop_
 _symmetry_equiv_pos_site_id
 _symmetry_equiv_pos_as_xyz
  1  'x, y, z'
loop_
 _atom_site_type_symbol
 _atom_site_label
 _atom_site_symmetry_multiplicity
 _atom_site_fract_x
 _atom_site_fract_y
 _atom_site_fract_z
 _atom_site_occupancy
  O  O0  1  0.50000000  0.00000000  0.00000000  1
  O  O1  1  0.82819888  0.65639776  0.16862567  1
  O  O2  1  0.17180112  0.34360224  0.83137433  1
  O  O3  1  0.82898148  0.65796296  0.65657521  1
  O  O4  1  0.17101852  0.34203704  0.34342479  1
  Ti  Ti5  1  0.64953065  0.29906129  0.32551998  1
  Ti  Ti6  1  0.35046935  0.70093871  0.67448002  1
  Ti  Ti7  1  0.66258444  0.32516887  0.82763433  1
  Ti  Ti8  1  0.33741556  0.67483113  0.17236567  1
  Ti  Ti9  1  0.00000000  0.00000000  0.50000000  1
