# generated using pymatgen
data_Ag6Te4W3O20
_symmetry_space_group_name_H-M   'P 1'
_cell_length_a   6.82229320
_cell_length_b   9.71240584
_cell_length_c   15.52412549
_cell_angle_alpha   91.59282508
_cell_angle_beta   102.69329050
_cell_angle_gamma   90.00000000
_symmetry_Int_Tables_number   1
_chemical_formula_structural   Ag6Te4W3O20
_chemical_formula_sum   'Ag12 Te8 W6 O40'
_cell_volume   1003.09507088
_cell_formula_units_Z   2
loop_
 _symmetry_equiv_pos_site_id
 _symmetry_equiv_pos_as_xyz
  1  'x, y, z'
loop_
 _atom_site_type_symbol
 _atom_site_label
 _atom_site_symmetry_multiplicity
 _atom_site_fract_x
 _atom_site_fract_y
 _atom_site_fract_z
 _atom_site_occupancy
  Ag  Ag0  1  0.36434249  0.59296714  0.93964332  1
  Ag  Ag1  1  0.42469917  0.90703286  0.06035668  1
  Ag  Ag2  1  0.63565751  0.40703286  0.06035668  1
  Ag  Ag3  1  0.57530083  0.09296714  0.93964332  1
  Ag  Ag4  1  0.75362807  0.70505050  0.21297134  1
  Ag  Ag5  1  0.54065673  0.79494950  0.78702866  1
  Ag  Ag6  1  0.24637193  0.29494950  0.78702866  1
  Ag  Ag7  1  0.45934327  0.20505050  0.21297134  1
  Ag  Ag8  1  0.51265557  0.49129843  0.36749023  1
  Ag  Ag9  1  0.14516534  0.00870157  0.63250977  1
  Ag  Ag10  1  0.48734443  0.50870157  0.63250977  1
  Ag  Ag11  1  0.85483466  0.99129843  0.36749023  1
  Te  Te12  1  0.93714375  0.03797171  0.15909572  1
  Te  Te13  1  0.77804804  0.46202829  0.84090428  1
  Te  Te14  1  0.06285625  0.96202829  0.84090428  1
  Te  Te15  1  0.22195196  0.53797171  0.15909572  1
  Te  Te16  1  0.09703560  0.64420800  0.45849088  1
  Te  Te17  1  0.63854471  0.85579200  0.54150912  1
  Te  Te18  1  0.90296440  0.35579200  0.54150912  1
  Te  Te19  1  0.36145529  0.14420800  0.45849088  1
  W  W20  1  0.93711786  0.75000000  0.00000000  1
  W  W21  1  0.06288214  0.25000000  0.00000000  1
  W  W22  1  0.97805842  0.34629227  0.33159886  1
  W  W23  1  0.64645956  0.15370773  0.66840114  1
  W  W24  1  0.02194158  0.65370773  0.66840114  1
  W  W25  1  0.35354044  0.84629227  0.33159886  1
  O  O26  1  0.14136701  0.44705974  0.45623272  1
  O  O27  1  0.68513430  0.05294026  0.54376728  1
  O  O28  1  0.85863299  0.55294026  0.54376728  1
  O  O29  1  0.31486570  0.94705974  0.45623272  1
  O  O30  1  0.83572147  0.14912434  0.05771704  1
  O  O31  1  0.77800443  0.35087566  0.94228296  1
  O  O32  1  0.16427853  0.85087566  0.94228296  1
  O  O33  1  0.22199557  0.64912434  0.05771704  1
  O  O34  1  0.23351484  0.66118414  0.58146609  1
  O  O35  1  0.65204875  0.83881586  0.41853391  1
  O  O36  1  0.76648516  0.33881586  0.41853391  1
  O  O37  1  0.34795125  0.16118414  0.58146609  1
  O  O38  1  0.04074086  0.88992996  0.09326369  1
  O  O39  1  0.94747717  0.61007004  0.90673631  1
  O  O40  1  0.95925914  0.11007004  0.90673631  1
  O  O41  1  0.05252283  0.38992996  0.09326369  1
  O  O42  1  0.69647719  0.95062970  0.16595656  1
  O  O43  1  0.53052063  0.54937030  0.83404344  1
  O  O44  1  0.30352281  0.04937030  0.83404344  1
  O  O45  1  0.46947937  0.45062970  0.16595656  1
  O  O46  1  0.34057186  0.67661246  0.41631317  1
  O  O47  1  0.92425869  0.82338754  0.58368683  1
  O  O48  1  0.65942814  0.32338754  0.58368683  1
  O  O49  1  0.07574131  0.17661246  0.41631317  1
  O  O50  1  0.21514562  0.34107086  0.29535014  1
  O  O51  1  0.91979548  0.15892914  0.70464986  1
  O  O52  1  0.78485438  0.65892914  0.70464986  1
  O  O53  1  0.08020452  0.84107086  0.29535014  1
  O  O54  1  0.80546181  0.65207712  0.06713907  1
  O  O55  1  0.73832274  0.84792288  0.93286093  1
  O  O56  1  0.19453819  0.34792288  0.93286093  1
  O  O57  1  0.26167726  0.15207712  0.06713907  1
  O  O58  1  0.89097695  0.51958302  0.30093124  1
  O  O59  1  0.59004571  0.98041698  0.69906876  1
  O  O60  1  0.10902305  0.48041698  0.69906876  1
  O  O61  1  0.40995429  0.01958302  0.30093124  1
  O  O62  1  0.81654605  0.23128244  0.25114659  1
  O  O63  1  0.56539946  0.26871756  0.74885341  1
  O  O64  1  0.18345395  0.76871756  0.74885341  1
  O  O65  1  0.43460054  0.73128244  0.25114659  1
