# generated using pymatgen
data_ThH8(CO3)4
_symmetry_space_group_name_H-M   'P 1'
_cell_length_a   8.09854092
_cell_length_b   8.07971133
_cell_length_c   10.60903211
_cell_angle_alpha   69.74773800
_cell_angle_beta   67.56212896
_cell_angle_gamma   59.92288081
_symmetry_Int_Tables_number   1
_chemical_formula_structural   ThH8(CO3)4
_chemical_formula_sum   'Th2 H16 C8 O24'
_cell_volume   544.73291889
_cell_formula_units_Z   2
loop_
 _symmetry_equiv_pos_site_id
 _symmetry_equiv_pos_as_xyz
  1  'x, y, z'
loop_
 _atom_site_type_symbol
 _atom_site_label
 _atom_site_symmetry_multiplicity
 _atom_site_fract_x
 _atom_site_fract_y
 _atom_site_fract_z
 _atom_site_occupancy
  Th  Th0  1  0.23053354  0.25000000  0.75000000  1
  Th  Th1  1  0.76946646  0.75000000  0.25000000  1
  H  H2  1  0.40051783  0.55796607  0.61848562  1
  H  H3  1  0.57696952  0.94203393  0.88151438  1
  H  H4  1  0.59948217  0.44203393  0.38151438  1
  H  H5  1  0.42303048  0.05796607  0.11848562  1
  H  H6  1  0.45946829  0.47114206  0.76174381  1
  H  H7  1  0.69235415  0.02885794  0.73825619  1
  H  H8  1  0.54053171  0.52885794  0.23825619  1
  H  H9  1  0.30764585  0.97114206  0.26174381  1
  H  H10  1  0.00581231  0.83007065  0.65664898  1
  H  H11  1  0.49253194  0.66992935  0.84335102  1
  H  H12  1  0.99418769  0.16992935  0.34335102  1
  H  H13  1  0.50746806  0.33007065  0.15664898  1
  H  H14  1  0.98677349  0.04703300  0.62456905  1
  H  H15  1  0.65837554  0.45296700  0.87543095  1
  H  H16  1  0.01322651  0.95296700  0.37543095  1
  H  H17  1  0.34162446  0.54703300  0.12456905  1
  C  C18  1  0.53839524  0.07859113  0.45714118  1
  C  C19  1  0.07412754  0.42140887  0.04285882  1
  C  C20  1  0.46160476  0.92140887  0.54285882  1
  C  C21  1  0.92587246  0.57859113  0.95714118  1
  C  C22  1  0.02829671  0.58273203  0.48900842  1
  C  C23  1  0.10003716  0.91726797  0.01099158  1
  C  C24  1  0.97170329  0.41726797  0.51099158  1
  C  C25  1  0.89996284  0.08273203  0.98900842  1
  O  O26  1  0.13034614  0.55914100  0.56385102  1
  O  O27  1  0.25333817  0.94085900  0.93614898  1
  O  O28  1  0.86965386  0.44085900  0.43614898  1
  O  O29  1  0.74666183  0.05914100  0.06385102  1
  O  O30  1  0.39627126  0.45692690  0.70203543  1
  O  O31  1  0.55523359  0.04307310  0.79796457  1
  O  O32  1  0.60372874  0.54307310  0.29796457  1
  O  O33  1  0.44476641  0.95692690  0.20203543  1
  O  O34  1  0.48201668  0.21884895  0.51469462  1
  O  O35  1  0.21556025  0.28115105  0.98530538  1
  O  O36  1  0.51798332  0.78115105  0.48530538  1
  O  O37  1  0.78443975  0.71884895  0.01469462  1
  O  O38  1  0.03516230  0.26846805  0.60293510  1
  O  O39  1  0.90656545  0.23153195  0.89706490  1
  O  O40  1  0.96483770  0.73153195  0.39706490  1
  O  O41  1  0.09343455  0.76846805  0.10293510  1
  O  O42  1  0.34971766  0.94419844  0.66288929  1
  O  O43  1  0.95680539  0.55580156  0.83711071  1
  O  O44  1  0.65028234  0.05580156  0.33711071  1
  O  O45  1  0.04319461  0.44419844  0.16288929  1
  O  O46  1  0.91572636  0.96402162  0.66776704  1
  O  O47  1  0.54751502  0.53597838  0.83223296  1
  O  O48  1  0.08427364  0.03597838  0.33223296  1
  O  O49  1  0.45248498  0.46402162  0.16776704  1
