# generated using pymatgen
data_ZrH8Pb(C3O8)2
_symmetry_space_group_name_H-M   'P 1'
_cell_length_a   9.75665112
_cell_length_b   10.22928145
_cell_length_c   14.87875415
_cell_angle_alpha   90.00000000
_cell_angle_beta   90.00000000
_cell_angle_gamma   105.33050242
_symmetry_Int_Tables_number   1
_chemical_formula_structural   ZrH8Pb(C3O8)2
_chemical_formula_sum   'Zr4 H32 Pb4 C24 O64'
_cell_volume   1432.11284614
_cell_formula_units_Z   4
loop_
 _symmetry_equiv_pos_site_id
 _symmetry_equiv_pos_as_xyz
  1  'x, y, z'
loop_
 _atom_site_type_symbol
 _atom_site_label
 _atom_site_symmetry_multiplicity
 _atom_site_fract_x
 _atom_site_fract_y
 _atom_site_fract_z
 _atom_site_occupancy
  Zr  Zr0  1  0.31599303  0.12170816  0.11088805  1
  Zr  Zr1  1  0.18400697  0.87829184  0.61088805  1
  Zr  Zr2  1  0.68400697  0.87829184  0.88911195  1
  Zr  Zr3  1  0.81599303  0.12170816  0.38911195  1
  H  H4  1  0.67625758  0.86066642  0.08517547  1
  H  H5  1  0.82374242  0.13933358  0.58517547  1
  H  H6  1  0.32374242  0.13933358  0.91482453  1
  H  H7  1  0.17625758  0.86066642  0.41482453  1
  H  H8  1  0.61403839  0.98727129  0.05240646  1
  H  H9  1  0.88596161  0.01272871  0.55240646  1
  H  H10  1  0.38596161  0.01272871  0.94759354  1
  H  H11  1  0.11403839  0.98727129  0.44759354  1
  H  H12  1  0.92863641  0.50460786  0.36855626  1
  H  H13  1  0.57136359  0.49539214  0.86855626  1
  H  H14  1  0.07136359  0.49539214  0.63144374  1
  H  H15  1  0.42863641  0.50460786  0.13144374  1
  H  H16  1  0.85386955  0.62211724  0.34879654  1
  H  H17  1  0.64613045  0.37788276  0.84879654  1
  H  H18  1  0.14613045  0.37788276  0.65120346  1
  H  H19  1  0.35386955  0.62211724  0.15120346  1
  H  H20  1  0.33588621  0.13346879  0.30716943  1
  H  H21  1  0.16411379  0.86653121  0.80716943  1
  H  H22  1  0.66411379  0.86653121  0.69283057  1
  H  H23  1  0.83588621  0.13346879  0.19283057  1
  H  H24  1  0.44539111  0.04689107  0.27906194  1
  H  H25  1  0.05460889  0.95310893  0.77906194  1
  H  H26  1  0.55460889  0.95310893  0.72093806  1
  H  H27  1  0.94539111  0.04689107  0.22093806  1
  H  H28  1  0.77610808  0.77406421  0.17043307  1
  H  H29  1  0.72389192  0.22593579  0.67043307  1
  H  H30  1  0.22389192  0.22593579  0.82956693  1
  H  H31  1  0.27610808  0.77406421  0.32956693  1
  H  H32  1  0.60544576  0.70122379  0.16635050  1
  H  H33  1  0.89455424  0.29877621  0.66635050  1
  H  H34  1  0.39455424  0.29877621  0.83364950  1
  H  H35  1  0.10544576  0.70122379  0.33364950  1
  Pb  Pb36  1  0.93429189  0.51774883  0.13813490  1
  Pb  Pb37  1  0.56570811  0.48225117  0.63813490  1
  Pb  Pb38  1  0.06570811  0.48225117  0.86186510  1
  Pb  Pb39  1  0.43429189  0.51774883  0.36186510  1
  C  C40  1  0.87408606  0.68860976  0.93186757  1
  C  C41  1  0.62591394  0.31139024  0.43186757  1
  C  C42  1  0.12591394  0.31139024  0.06813243  1
  C  C43  1  0.37408606  0.68860976  0.56813243  1
  C  C44  1  0.84868199  0.67573962  0.82932988  1
  C  C45  1  0.65131801  0.32426038  0.32932988  1
  C  C46  1  0.15131801  0.32426038  0.17067012  1
  C  C47  1  0.34868199  0.67573962  0.67067012  1
  C  C48  1  0.20378462  0.81012833  0.12721956  1
  C  C49  1  0.29621538  0.18987167  0.62721956  1
  C  C50  1  0.79621538  0.18987167  0.87278044  1
  C  C51  1  0.70378462  0.81012833  0.37278044  1
  C  C52  1  0.07193152  0.86140288  0.14904253  1
  C  C53  1  0.42806848  0.13859712  0.64904253  1
  C  C54  1  0.92806848  0.13859712  0.85095747  1
  C  C55  1  0.57193152  0.86140288  0.35095747  1
  C  C56  1  0.64585800  0.22812258  0.10059653  1
  C  C57  1  0.85414200  0.77187742  0.60059653  1
  C  C58  1  0.35414200  0.77187742  0.89940347  1
  C  C59  1  0.14585800  0.22812258  0.39940347  1
  C  C60  1  0.59084249  0.35490375  0.08501668  1
  C  C61  1  0.90915751  0.64509625  0.58501668  1
  C  C62  1  0.40915751  0.64509625  0.91498332  1
  C  C63  1  0.09084249  0.35490375  0.41498332  1
  O  O64  1  0.93983224  0.61315136  0.96978847  1
  O  O65  1  0.56016776  0.38684864  0.46978847  1
  O  O66  1  0.06016776  0.38684864  0.03021153  1
  O  O67  1  0.43983224  0.61315136  0.53021153  1
  O  O68  1  0.82389272  0.77790918  0.96944856  1
  O  O69  1  0.67610728  0.22209082  0.46944856  1
  O  O70  1  0.17610728  0.22209082  0.03055144  1
  O  O71  1  0.32389272  0.77790918  0.53055144  1
  O  O72  1  0.22956387  0.25091052  0.20055196  1
  O  O73  1  0.27043613  0.74908948  0.70055196  1
  O  O74  1  0.77043613  0.74908948  0.79944804  1
  O  O75  1  0.72956387  0.25091052  0.29944804  1
  O  O76  1  0.09903961  0.39991454  0.21754077  1
  O  O77  1  0.40096039  0.60008546  0.71754077  1
  O  O78  1  0.90096039  0.60008546  0.78245923  1
  O  O79  1  0.59903961  0.39991454  0.28245923  1
  O  O80  1  0.31734895  0.90430490  0.11184407  1
  O  O81  1  0.18265105  0.09569510  0.61184407  1
  O  O82  1  0.68265105  0.09569510  0.88815593  1
  O  O83  1  0.81734895  0.90430490  0.38815593  1
  O  O84  1  0.19391877  0.68543050  0.12639902  1
  O  O85  1  0.30608123  0.31456950  0.62639902  1
  O  O86  1  0.80608123  0.31456950  0.87360098  1
  O  O87  1  0.69391877  0.68543050  0.37360098  1
  O  O88  1  0.09512446  0.99160718  0.14796023  1
  O  O89  1  0.40487554  0.00839282  0.64796023  1
  O  O90  1  0.90487554  0.00839282  0.85203977  1
  O  O91  1  0.59512446  0.99160718  0.35203977  1
  O  O92  1  0.95632460  0.77836181  0.16655473  1
  O  O93  1  0.54367540  0.22163819  0.66655473  1
  O  O94  1  0.04367540  0.22163819  0.83344527  1
  O  O95  1  0.45632460  0.77836181  0.33344527  1
  O  O96  1  0.54605076  0.11594884  0.10494543  1
  O  O97  1  0.95394924  0.88405116  0.60494543  1
  O  O98  1  0.45394924  0.88405116  0.89505457  1
  O  O99  1  0.04605076  0.11594884  0.39505457  1
  O  O100  1  0.77546719  0.23852804  0.10882812  1
  O  O101  1  0.72453281  0.76147196  0.60882812  1
  O  O102  1  0.22453281  0.76147196  0.89117188  1
  O  O103  1  0.27546719  0.23852804  0.39117188  1
  O  O104  1  0.67350027  0.46810350  0.07192697  1
  O  O105  1  0.82649973  0.53189650  0.57192697  1
  O  O106  1  0.32649973  0.53189650  0.92807303  1
  O  O107  1  0.17350027  0.46810350  0.42807303  1
  O  O108  1  0.45346576  0.32959326  0.08847109  1
  O  O109  1  0.04653424  0.67040674  0.58847109  1
  O  O110  1  0.54653424  0.67040674  0.91152891  1
  O  O111  1  0.95346576  0.32959326  0.41152891  1
  O  O112  1  0.66558015  0.92236688  0.02957403  1
  O  O113  1  0.83441985  0.07763312  0.52957403  1
  O  O114  1  0.33441985  0.07763312  0.97042597  1
  O  O115  1  0.16558015  0.92236688  0.47042597  1
  O  O116  1  0.93056734  0.58183957  0.32856873  1
  O  O117  1  0.56943266  0.41816043  0.82856873  1
  O  O118  1  0.06943266  0.41816043  0.67143127  1
  O  O119  1  0.43056734  0.58183957  0.17143127  1
  O  O120  1  0.37635781  0.09362977  0.25584917  1
  O  O121  1  0.12364219  0.90637023  0.75584917  1
  O  O122  1  0.62364219  0.90637023  0.74415083  1
  O  O123  1  0.87635781  0.09362977  0.24415083  1
  O  O124  1  0.67997346  0.78877908  0.16771683  1
  O  O125  1  0.82002654  0.21122092  0.66771683  1
  O  O126  1  0.32002654  0.21122092  0.83228317  1
  O  O127  1  0.17997346  0.78877908  0.33228317  1
