# generated using pymatgen
data_CuH5IO7
_symmetry_space_group_name_H-M   'P 1'
_cell_length_a   5.32427448
_cell_length_b   6.59562637
_cell_length_c   15.87654315
_cell_angle_alpha   90.00000000
_cell_angle_beta   90.00000000
_cell_angle_gamma   90.00000000
_symmetry_Int_Tables_number   1
_chemical_formula_structural   CuH5IO7
_chemical_formula_sum   'Cu4 H20 I4 O28'
_cell_volume   557.53537762
_cell_formula_units_Z   4
loop_
 _symmetry_equiv_pos_site_id
 _symmetry_equiv_pos_as_xyz
  1  'x, y, z'
loop_
 _atom_site_type_symbol
 _atom_site_label
 _atom_site_symmetry_multiplicity
 _atom_site_fract_x
 _atom_site_fract_y
 _atom_site_fract_z
 _atom_site_occupancy
  Cu  Cu0  1  0.66179406  0.85663506  0.43644961  1
  Cu  Cu1  1  0.83820594  0.14336494  0.93644961  1
  Cu  Cu2  1  0.16179406  0.64336494  0.56355039  1
  Cu  Cu3  1  0.33820594  0.35663506  0.06355039  1
  H  H4  1  0.42653978  0.42696402  0.26593032  1
  H  H5  1  0.07346022  0.57303598  0.76593032  1
  H  H6  1  0.92653978  0.07303598  0.73406968  1
  H  H7  1  0.57346022  0.92696402  0.23406968  1
  H  H8  1  0.86636845  0.46155185  0.33966809  1
  H  H9  1  0.63363155  0.53844815  0.83966809  1
  H  H10  1  0.36636845  0.03844815  0.66033191  1
  H  H11  1  0.13363155  0.96155185  0.16033191  1
  H  H12  1  0.96869362  0.03403837  0.33189495  1
  H  H13  1  0.53130638  0.96596163  0.83189495  1
  H  H14  1  0.46869362  0.46596163  0.66810505  1
  H  H15  1  0.03130638  0.53403837  0.16810505  1
  H  H16  1  0.52802836  0.25753128  0.41228935  1
  H  H17  1  0.97197164  0.74246872  0.91228935  1
  H  H18  1  0.02802836  0.24246872  0.58771065  1
  H  H19  1  0.47197164  0.75753128  0.08771065  1
  H  H20  1  0.47083487  0.19997112  0.50483682  1
  H  H21  1  0.02916513  0.80002888  0.00483682  1
  H  H22  1  0.97083487  0.30002888  0.49516318  1
  H  H23  1  0.52916513  0.69997112  0.99516318  1
  I  I24  1  0.21425432  0.70392622  0.34545168  1
  I  I25  1  0.28574568  0.29607378  0.84545168  1
  I  I26  1  0.71425432  0.79607378  0.65454832  1
  I  I27  1  0.78574568  0.20392622  0.15454832  1
  O  O28  1  0.09903167  0.71952625  0.23717068  1
  O  O29  1  0.40096833  0.28047375  0.73717068  1
  O  O30  1  0.59903167  0.78047375  0.76282932  1
  O  O31  1  0.90096833  0.21952625  0.26282932  1
  O  O32  1  0.49449765  0.87456103  0.32759427  1
  O  O33  1  0.00550235  0.12543897  0.82759427  1
  O  O34  1  0.99449765  0.62543897  0.67240573  1
  O  O35  1  0.50550235  0.37456103  0.17240573  1
  O  O36  1  0.33934112  0.70237333  0.45866365  1
  O  O37  1  0.16065888  0.29762667  0.95866365  1
  O  O38  1  0.83934112  0.79762667  0.54133635  1
  O  O39  1  0.66065888  0.20237333  0.04133635  1
  O  O40  1  0.40637475  0.45752168  0.32861674  1
  O  O41  1  0.09362525  0.54247832  0.82861674  1
  O  O42  1  0.90637475  0.04247832  0.67138326  1
  O  O43  1  0.59362525  0.95752168  0.17138326  1
  O  O44  1  0.93208177  0.54320254  0.38757431  1
  O  O45  1  0.56791823  0.45679746  0.88757431  1
  O  O46  1  0.43208177  0.95679746  0.61242569  1
  O  O47  1  0.06791823  0.04320254  0.11242569  1
  O  O48  1  0.00357991  0.94233662  0.38192126  1
  O  O49  1  0.49642009  0.05766338  0.88192126  1
  O  O50  1  0.50357991  0.55766338  0.61807874  1
  O  O51  1  0.99642009  0.44233662  0.11807874  1
  O  O52  1  0.60128704  0.18774091  0.46120860  1
  O  O53  1  0.89871296  0.81225909  0.96120860  1
  O  O54  1  0.10128704  0.31225909  0.53879140  1
  O  O55  1  0.39871296  0.68774091  0.03879140  1
