# generated using pymatgen
data_UH8(SO6)2
_symmetry_space_group_name_H-M   'P 1'
_cell_length_a   5.81926179
_cell_length_b   11.16593569
_cell_length_c   14.75654416
_cell_angle_alpha   90.00000000
_cell_angle_beta   90.00000000
_cell_angle_gamma   90.00000000
_symmetry_Int_Tables_number   1
_chemical_formula_structural   UH8(SO6)2
_chemical_formula_sum   'U4 H32 S8 O48'
_cell_volume   958.84339110
_cell_formula_units_Z   4
loop_
 _symmetry_equiv_pos_site_id
 _symmetry_equiv_pos_as_xyz
  1  'x, y, z'
loop_
 _atom_site_type_symbol
 _atom_site_label
 _atom_site_symmetry_multiplicity
 _atom_site_fract_x
 _atom_site_fract_y
 _atom_site_fract_z
 _atom_site_occupancy
  U  U0  1  0.62627819  0.25000000  0.67040167  1
  U  U1  1  0.87372181  0.25000000  0.17040167  1
  U  U2  1  0.37372181  0.75000000  0.32959833  1
  U  U3  1  0.12627819  0.75000000  0.82959833  1
  H  H4  1  0.98110296  0.31955071  0.81999292  1
  H  H5  1  0.51889704  0.18044929  0.31999292  1
  H  H6  1  0.01889704  0.81955071  0.18000708  1
  H  H7  1  0.48110296  0.68044929  0.68000708  1
  H  H8  1  0.01889704  0.68044929  0.18000708  1
  H  H9  1  0.48110296  0.81955071  0.68000708  1
  H  H10  1  0.98110296  0.18044929  0.81999292  1
  H  H11  1  0.51889704  0.31955071  0.31999292  1
  H  H12  1  0.28996513  0.44418000  0.59444045  1
  H  H13  1  0.21003487  0.05582000  0.09444045  1
  H  H14  1  0.71003487  0.94418000  0.40555955  1
  H  H15  1  0.78996513  0.55582000  0.90555955  1
  H  H16  1  0.71003487  0.55582000  0.40555955  1
  H  H17  1  0.78996513  0.94418000  0.90555955  1
  H  H18  1  0.28996513  0.05582000  0.59444045  1
  H  H19  1  0.21003487  0.44418000  0.09444045  1
  H  H20  1  0.36760137  0.37339511  0.50798466  1
  H  H21  1  0.13239863  0.12660489  0.00798466  1
  H  H22  1  0.63239863  0.87339511  0.49201534  1
  H  H23  1  0.86760137  0.62660489  0.99201534  1
  H  H24  1  0.63239863  0.62660489  0.49201534  1
  H  H25  1  0.86760137  0.87339511  0.99201534  1
  H  H26  1  0.36760137  0.12660489  0.50798466  1
  H  H27  1  0.13239863  0.37339511  0.00798466  1
  H  H28  1  0.84727329  0.32144077  0.48635679  1
  H  H29  1  0.65272671  0.17855923  0.98635679  1
  H  H30  1  0.15272671  0.82144077  0.51364321  1
  H  H31  1  0.34727329  0.67855923  0.01364321  1
  H  H32  1  0.15272671  0.67855923  0.51364321  1
  H  H33  1  0.34727329  0.82144077  0.01364321  1
  H  H34  1  0.84727329  0.17855923  0.48635679  1
  H  H35  1  0.65272671  0.32144077  0.98635679  1
  S  S36  1  0.88503490  0.55538096  0.64814607  1
  S  S37  1  0.61496510  0.94461904  0.14814607  1
  S  S38  1  0.11496510  0.05538096  0.35185393  1
  S  S39  1  0.38503490  0.44461904  0.85185393  1
  S  S40  1  0.11496510  0.44461904  0.35185393  1
  S  S41  1  0.38503490  0.05538096  0.85185393  1
  S  S42  1  0.88503490  0.94461904  0.64814607  1
  S  S43  1  0.61496510  0.55538096  0.14814607  1
  O  O44  1  0.80803372  0.25000000  0.52391544  1
  O  O45  1  0.69196628  0.25000000  0.02391544  1
  O  O46  1  0.19196628  0.75000000  0.47608456  1
  O  O47  1  0.30803372  0.75000000  0.97608456  1
  O  O48  1  0.38764257  0.37604428  0.57504262  1
  O  O49  1  0.11235743  0.12395572  0.07504262  1
  O  O50  1  0.61235743  0.87604428  0.42495738  1
  O  O51  1  0.88764257  0.62395572  0.92495738  1
  O  O52  1  0.61235743  0.62395572  0.42495738  1
  O  O53  1  0.88764257  0.87604428  0.92495738  1
  O  O54  1  0.38764257  0.12395572  0.57504262  1
  O  O55  1  0.11235743  0.37604428  0.07504262  1
  O  O56  1  0.84691750  0.42490560  0.66744476  1
  O  O57  1  0.65308250  0.07509440  0.16744476  1
  O  O58  1  0.15308250  0.92490560  0.33255524  1
  O  O59  1  0.34691750  0.57509440  0.83255524  1
  O  O60  1  0.15308250  0.57509440  0.33255524  1
  O  O61  1  0.34691750  0.92490560  0.83255524  1
  O  O62  1  0.84691750  0.07509440  0.66744476  1
  O  O63  1  0.65308250  0.42490560  0.16744476  1
  O  O64  1  0.09202681  0.56616599  0.59126591  1
  O  O65  1  0.40797319  0.93383401  0.09126591  1
  O  O66  1  0.90797319  0.06616599  0.40873409  1
  O  O67  1  0.59202681  0.43383401  0.90873409  1
  O  O68  1  0.90797319  0.43383401  0.40873409  1
  O  O69  1  0.59202681  0.06616599  0.90873409  1
  O  O70  1  0.09202681  0.93383401  0.59126591  1
  O  O71  1  0.40797319  0.56616599  0.09126591  1
  O  O72  1  0.92154968  0.61762054  0.73744533  1
  O  O73  1  0.57845032  0.88237946  0.23744533  1
  O  O74  1  0.07845032  0.11762054  0.26255467  1
  O  O75  1  0.42154968  0.38237946  0.76255467  1
  O  O76  1  0.07845032  0.38237946  0.26255467  1
  O  O77  1  0.42154968  0.11762054  0.76255467  1
  O  O78  1  0.92154968  0.88237946  0.73744533  1
  O  O79  1  0.57845032  0.61762054  0.23744533  1
  O  O80  1  0.67873222  0.60774856  0.60544152  1
  O  O81  1  0.82126778  0.89225144  0.10544152  1
  O  O82  1  0.32126778  0.10774856  0.39455848  1
  O  O83  1  0.17873222  0.39225144  0.89455848  1
  O  O84  1  0.32126778  0.39225144  0.39455848  1
  O  O85  1  0.17873222  0.10774856  0.89455848  1
  O  O86  1  0.67873222  0.89225144  0.60544152  1
  O  O87  1  0.82126778  0.60774856  0.10544152  1
  O  O88  1  0.89696178  0.25000000  0.79439050  1
  O  O89  1  0.60303822  0.25000000  0.29439050  1
  O  O90  1  0.10303822  0.75000000  0.20560950  1
  O  O91  1  0.39696178  0.75000000  0.70560950  1
