# generated using pymatgen
data_RbCr(SO4)2
_symmetry_space_group_name_H-M   'P 1'
_cell_length_a   4.93677568
_cell_length_b   4.93677568
_cell_length_c   8.71855990
_cell_angle_alpha   90.00000000
_cell_angle_beta   90.00000000
_cell_angle_gamma   120.00000030
_symmetry_Int_Tables_number   1
_chemical_formula_structural   RbCr(SO4)2
_chemical_formula_sum   'Rb1 Cr1 S2 O8'
_cell_volume   184.01879155
_cell_formula_units_Z   1
loop_
 _symmetry_equiv_pos_site_id
 _symmetry_equiv_pos_as_xyz
  1  'x, y, z'
loop_
 _atom_site_type_symbol
 _atom_site_label
 _atom_site_symmetry_multiplicity
 _atom_site_fract_x
 _atom_site_fract_y
 _atom_site_fract_z
 _atom_site_occupancy
  Rb  Rb0  1  -0.00000000  0.00000000  0.50000000  1
  Cr  Cr1  1  -0.00000000  0.00000000  -0.00000000  1
  S  S2  1  0.66666700  0.33333300  0.79464696  1
  S  S3  1  0.33333300  0.66666700  0.20535304  1
  O  O4  1  0.90689388  0.25809252  0.85142054  1
  O  O5  1  0.35119864  0.09310612  0.85142054  1
  O  O6  1  0.64880136  0.74190748  0.14857946  1
  O  O7  1  0.74190748  0.64880136  0.85142054  1
  O  O8  1  0.25809252  0.90689388  0.14857946  1
  O  O9  1  0.09310612  0.35119864  0.14857946  1
  O  O10  1  0.66666700  0.33333300  0.62711683  1
  O  O11  1  0.33333300  0.66666700  0.37288317  1
