# generated using pymatgen
data_Ta2N3
_symmetry_space_group_name_H-M   'P 1'
_cell_length_a   3.00334701
_cell_length_b   8.24441805
_cell_length_c   8.19447938
_cell_angle_alpha   90.00000000
_cell_angle_beta   90.00000000
_cell_angle_gamma   90.00000000
_symmetry_Int_Tables_number   1
_chemical_formula_structural   Ta2N3
_chemical_formula_sum   'Ta8 N12'
_cell_volume   202.90226082
_cell_formula_units_Z   4
loop_
 _symmetry_equiv_pos_site_id
 _symmetry_equiv_pos_as_xyz
  1  'x, y, z'
loop_
 _atom_site_type_symbol
 _atom_site_label
 _atom_site_symmetry_multiplicity
 _atom_site_fract_x
 _atom_site_fract_y
 _atom_site_fract_z
 _atom_site_occupancy
  Ta  Ta0  1  0.75000000  0.97859980  0.31353605  1
  Ta  Ta1  1  0.25000000  0.02140020  0.68646395  1
  Ta  Ta2  1  0.25000000  0.52140020  0.81353605  1
  Ta  Ta3  1  0.75000000  0.47859980  0.18646395  1
  Ta  Ta4  1  0.75000000  0.80580327  0.99663676  1
  Ta  Ta5  1  0.25000000  0.19419673  0.00336324  1
  Ta  Ta6  1  0.25000000  0.69419673  0.49663676  1
  Ta  Ta7  1  0.75000000  0.30580327  0.50336324  1
  N  N8  1  0.75000000  0.54597275  0.62604923  1
  N  N9  1  0.25000000  0.45402725  0.37395077  1
  N  N10  1  0.25000000  0.95402725  0.12604923  1
  N  N11  1  0.75000000  0.04597275  0.87395077  1
  N  N12  1  0.75000000  0.87884817  0.55142320  1
  N  N13  1  0.25000000  0.12115183  0.44857680  1
  N  N14  1  0.25000000  0.62115183  0.05142320  1
  N  N15  1  0.75000000  0.37884817  0.94857680  1
  N  N16  1  0.75000000  0.72029531  0.30193754  1
  N  N17  1  0.25000000  0.27970469  0.69806246  1
  N  N18  1  0.25000000  0.77970469  0.80193754  1
  N  N19  1  0.75000000  0.22029531  0.19806246  1
