# generated using pymatgen
data_TbTa5Ag2O15
_symmetry_space_group_name_H-M   'P 1'
_cell_length_a   3.92003522
_cell_length_b   12.61404046
_cell_length_c   12.61404046
_cell_angle_alpha   90.00000000
_cell_angle_beta   90.00000000
_cell_angle_gamma   90.00000000
_symmetry_Int_Tables_number   1
_chemical_formula_structural   TbTa5Ag2O15
_chemical_formula_sum   'Tb2 Ta10 Ag4 O30'
_cell_volume   623.73254956
_cell_formula_units_Z   2
loop_
 _symmetry_equiv_pos_site_id
 _symmetry_equiv_pos_as_xyz
  1  'x, y, z'
loop_
 _atom_site_type_symbol
 _atom_site_label
 _atom_site_symmetry_multiplicity
 _atom_site_fract_x
 _atom_site_fract_y
 _atom_site_fract_z
 _atom_site_occupancy
  Tb  Tb0  1  0.50000000  0.00000000  0.00000000  1
  Tb  Tb1  1  0.50000000  0.50000000  0.50000000  1
  Ta  Ta2  1  -0.00000000  0.00000000  0.50000000  1
  Ta  Ta3  1  -0.00000000  0.50000000  0.00000000  1
  Ta  Ta4  1  -0.00000000  0.07855051  0.21108884  1
  Ta  Ta5  1  0.00000000  0.92144949  0.78891116  1
  Ta  Ta6  1  -0.00000000  0.78891116  0.07855051  1
  Ta  Ta7  1  0.00000000  0.42144949  0.71108884  1
  Ta  Ta8  1  0.00000000  0.21108884  0.92144949  1
  Ta  Ta9  1  -0.00000000  0.57855051  0.28891116  1
  Ta  Ta10  1  -0.00000000  0.71108884  0.57855051  1
  Ta  Ta11  1  0.00000000  0.28891116  0.42144949  1
  Ag  Ag12  1  0.50000000  0.17164207  0.67164207  1
  Ag  Ag13  1  0.50000000  0.82835793  0.32835793  1
  Ag  Ag14  1  0.50000000  0.32835793  0.17164207  1
  Ag  Ag15  1  0.50000000  0.67164207  0.82835793  1
  O  O16  1  0.50000000  0.07983194  0.18898331  1
  O  O17  1  0.50000000  0.92016806  0.81101669  1
  O  O18  1  0.50000000  0.81101669  0.07983194  1
  O  O19  1  0.50000000  0.42016806  0.68898331  1
  O  O20  1  0.50000000  0.18898331  0.92016806  1
  O  O21  1  0.50000000  0.57983194  0.31101669  1
  O  O22  1  0.50000000  0.68898331  0.57983194  1
  O  O23  1  0.50000000  0.31101669  0.42016806  1
  O  O24  1  0.00000000  0.72412952  0.22412952  1
  O  O25  1  -0.00000000  0.27587048  0.77587048  1
  O  O26  1  -0.00000000  0.77587048  0.72412952  1
  O  O27  1  0.00000000  0.22412952  0.27587048  1
  O  O28  1  0.50000000  0.00000000  0.50000000  1
  O  O29  1  0.50000000  0.50000000  0.00000000  1
  O  O30  1  -0.00000000  0.13026882  0.05704563  1
  O  O31  1  0.00000000  0.86973118  0.94295437  1
  O  O32  1  -0.00000000  0.94295437  0.13026882  1
  O  O33  1  0.00000000  0.36973118  0.55704563  1
  O  O34  1  0.00000000  0.05704563  0.86973118  1
  O  O35  1  -0.00000000  0.63026882  0.44295437  1
  O  O36  1  0.00000000  0.55704563  0.63026882  1
  O  O37  1  -0.00000000  0.44295437  0.36973118  1
  O  O38  1  0.00000000  0.99951776  0.34118785  1
  O  O39  1  -0.00000000  0.00048224  0.65881215  1
  O  O40  1  0.00000000  0.65881215  0.99951776  1
  O  O41  1  -0.00000000  0.50048224  0.84118785  1
  O  O42  1  -0.00000000  0.34118785  0.00048224  1
  O  O43  1  0.00000000  0.49951776  0.15881215  1
  O  O44  1  -0.00000000  0.84118785  0.49951776  1
  O  O45  1  0.00000000  0.15881215  0.50048224  1
