# generated using pymatgen
data_Yb2NiGe6
_symmetry_space_group_name_H-M   'P 1'
_cell_length_a   3.91841693
_cell_length_b   4.12521928
_cell_length_c   11.20856564
_cell_angle_alpha   90.00000000
_cell_angle_beta   100.06676613
_cell_angle_gamma   90.00000000
_symmetry_Int_Tables_number   1
_chemical_formula_structural   Yb2NiGe6
_chemical_formula_sum   'Yb2 Ni1 Ge6'
_cell_volume   178.38964534
_cell_formula_units_Z   1
loop_
 _symmetry_equiv_pos_site_id
 _symmetry_equiv_pos_as_xyz
  1  'x, y, z'
loop_
 _atom_site_type_symbol
 _atom_site_label
 _atom_site_symmetry_multiplicity
 _atom_site_fract_x
 _atom_site_fract_y
 _atom_site_fract_z
 _atom_site_occupancy
  Yb  Yb0  1  0.77890151  0.50000000  0.55780302  1
  Yb  Yb1  1  0.11090920  0.50000000  0.22181840  1
  Ni  Ni2  1  0.55635088  0.00000000  0.11270175  1
  Ge  Ge3  1  0.50020006  0.50000000  0.00040011  1
  Ge  Ge4  1  0.38782992  0.50000000  0.77565985  1
  Ge  Ge5  1  0.99723500  -0.00000000  0.99447001  1
  Ge  Ge6  1  0.88403555  0.00000000  0.76807110  1
  Ge  Ge7  1  0.66155457  0.00000000  0.32310915  1
  Ge  Ge8  1  0.22998330  0.00000000  0.45996661  1
