# generated using pymatgen
data_Sm2Ge6Pd
_symmetry_space_group_name_H-M   'P 1'
_cell_length_a   4.10248165
_cell_length_b   4.15566221
_cell_length_c   11.31864585
_cell_angle_alpha   90.00000000
_cell_angle_beta   100.44121973
_cell_angle_gamma   90.00000000
_symmetry_Int_Tables_number   1
_chemical_formula_structural   Sm2Ge6Pd
_chemical_formula_sum   'Sm2 Ge6 Pd1'
_cell_volume   189.77098905
_cell_formula_units_Z   1
loop_
 _symmetry_equiv_pos_site_id
 _symmetry_equiv_pos_as_xyz
  1  'x, y, z'
loop_
 _atom_site_type_symbol
 _atom_site_label
 _atom_site_symmetry_multiplicity
 _atom_site_fract_x
 _atom_site_fract_y
 _atom_site_fract_z
 _atom_site_occupancy
  Sm  Sm0  1  0.77860852  0.50000000  0.55721704  1
  Sm  Sm1  1  0.11638187  0.50000000  0.23276374  1
  Ge  Ge2  1  0.49473313  0.50000000  0.98946625  1
  Ge  Ge3  1  0.38242302  0.50000000  0.76484603  1
  Ge  Ge4  1  0.99343371  0.00000000  0.98686741  1
  Ge  Ge5  1  0.88071801  -0.00000000  0.76143602  1
  Ge  Ge6  1  0.66719932  -0.00000000  0.33439864  1
  Ge  Ge7  1  0.23618172  -0.00000000  0.47236343  1
  Pd  Pd8  1  0.55732071  0.00000000  0.11464143  1
