# generated using pymatgen
data_Tl2Co2(SO4)3
_symmetry_space_group_name_H-M   'P 1'
_cell_length_a   10.16578710
_cell_length_b   10.16578710
_cell_length_c   10.16578710
_cell_angle_alpha   90.00000000
_cell_angle_beta   90.00000000
_cell_angle_gamma   90.00000000
_symmetry_Int_Tables_number   1
_chemical_formula_structural   Tl2Co2(SO4)3
_chemical_formula_sum   'Tl8 Co8 S12 O48'
_cell_volume   1050.56524759
_cell_formula_units_Z   4
loop_
 _symmetry_equiv_pos_site_id
 _symmetry_equiv_pos_as_xyz
  1  'x, y, z'
loop_
 _atom_site_type_symbol
 _atom_site_label
 _atom_site_symmetry_multiplicity
 _atom_site_fract_x
 _atom_site_fract_y
 _atom_site_fract_z
 _atom_site_occupancy
  Tl  Tl0  1  0.04822088  0.04822088  0.04822088  1
  Tl  Tl1  1  0.45177912  0.95177912  0.54822088  1
  Tl  Tl2  1  0.95177912  0.54822088  0.45177912  1
  Tl  Tl3  1  0.54822088  0.45177912  0.95177912  1
  Tl  Tl4  1  0.81726162  0.81726162  0.81726162  1
  Tl  Tl5  1  0.68273838  0.18273838  0.31726162  1
  Tl  Tl6  1  0.18273838  0.31726162  0.68273838  1
  Tl  Tl7  1  0.31726162  0.68273838  0.18273838  1
  Co  Co8  1  0.33541877  0.33541877  0.33541877  1
  Co  Co9  1  0.16458123  0.66458123  0.83541877  1
  Co  Co10  1  0.66458123  0.83541877  0.16458123  1
  Co  Co11  1  0.83541877  0.16458123  0.66458123  1
  Co  Co12  1  0.59712947  0.59712947  0.59712947  1
  Co  Co13  1  0.90287053  0.40287053  0.09712947  1
  Co  Co14  1  0.40287053  0.09712947  0.90287053  1
  Co  Co15  1  0.09712947  0.90287053  0.40287053  1
  S  S16  1  0.01864850  0.21595384  0.37585672  1
  S  S17  1  0.48135150  0.78404616  0.87585672  1
  S  S18  1  0.98135150  0.71595384  0.12414328  1
  S  S19  1  0.37585672  0.01864850  0.21595384  1
  S  S20  1  0.51864850  0.28404616  0.62414328  1
  S  S21  1  0.87585672  0.48135150  0.78404616  1
  S  S22  1  0.12414328  0.98135150  0.71595384  1
  S  S23  1  0.62414328  0.51864850  0.28404616  1
  S  S24  1  0.21595384  0.37585672  0.01864850  1
  S  S25  1  0.71595384  0.12414328  0.98135150  1
  S  S26  1  0.28404616  0.62414328  0.51864850  1
  S  S27  1  0.78404616  0.87585672  0.48135150  1
  O  O28  1  0.00953679  0.07611106  0.32995118  1
  O  O29  1  0.49046321  0.92388894  0.82995118  1
  O  O30  1  0.99046321  0.57611106  0.17004882  1
  O  O31  1  0.32995118  0.00953679  0.07611106  1
  O  O32  1  0.50953679  0.42388894  0.67004882  1
  O  O33  1  0.82995118  0.49046321  0.92388894  1
  O  O34  1  0.17004882  0.99046321  0.57611106  1
  O  O35  1  0.67004882  0.50953679  0.42388894  1
  O  O36  1  0.07611106  0.32995118  0.00953679  1
  O  O37  1  0.57611106  0.17004882  0.99046321  1
  O  O38  1  0.42388894  0.67004882  0.50953679  1
  O  O39  1  0.92388894  0.82995118  0.49046321  1
  O  O40  1  0.26592690  0.50043347  0.44180173  1
  O  O41  1  0.23407310  0.49956653  0.94180173  1
  O  O42  1  0.73407310  0.00043347  0.05819827  1
  O  O43  1  0.44180173  0.26592690  0.50043347  1
  O  O44  1  0.76592690  0.99956653  0.55819827  1
  O  O45  1  0.94180173  0.23407310  0.49956653  1
  O  O46  1  0.05819827  0.73407310  0.00043347  1
  O  O47  1  0.55819827  0.76592690  0.99956653  1
  O  O48  1  0.50043347  0.44180173  0.26592690  1
  O  O49  1  0.00043347  0.05819827  0.73407310  1
  O  O50  1  0.99956653  0.55819827  0.76592690  1
  O  O51  1  0.49956653  0.94180173  0.23407310  1
  O  O52  1  0.04101603  0.80279084  0.22526985  1
  O  O53  1  0.45898397  0.19720916  0.72526985  1
  O  O54  1  0.95898397  0.30279084  0.27473015  1
  O  O55  1  0.22526985  0.04101603  0.80279084  1
  O  O56  1  0.54101603  0.69720916  0.77473015  1
  O  O57  1  0.72526985  0.45898397  0.19720916  1
  O  O58  1  0.27473015  0.95898397  0.30279084  1
  O  O59  1  0.77473015  0.54101603  0.69720916  1
  O  O60  1  0.80279084  0.22526985  0.04101603  1
  O  O61  1  0.30279084  0.27473015  0.95898397  1
  O  O62  1  0.69720916  0.77473015  0.54101603  1
  O  O63  1  0.19720916  0.72526985  0.45898397  1
  O  O64  1  0.15746319  0.25321275  0.40151092  1
  O  O65  1  0.34253681  0.74678725  0.90151092  1
  O  O66  1  0.84253681  0.75321275  0.09848908  1
  O  O67  1  0.40151092  0.15746319  0.25321275  1
  O  O68  1  0.65746319  0.24678725  0.59848908  1
  O  O69  1  0.90151092  0.34253681  0.74678725  1
  O  O70  1  0.09848908  0.84253681  0.75321275  1
  O  O71  1  0.59848908  0.65746319  0.24678725  1
  O  O72  1  0.25321275  0.40151092  0.15746319  1
  O  O73  1  0.75321275  0.09848908  0.84253681  1
  O  O74  1  0.24678725  0.59848908  0.65746319  1
  O  O75  1  0.74678725  0.90151092  0.34253681  1
