# generated using pymatgen
data_Pr2CuGe6
_symmetry_space_group_name_H-M   'P 1'
_cell_length_a   4.13895177
_cell_length_b   4.19384753
_cell_length_c   11.22909247
_cell_angle_alpha   90.00000000
_cell_angle_beta   100.62008338
_cell_angle_gamma   90.00000000
_symmetry_Int_Tables_number   1
_chemical_formula_structural   Pr2CuGe6
_chemical_formula_sum   'Pr2 Cu1 Ge6'
_cell_volume   191.57732226
_cell_formula_units_Z   1
loop_
 _symmetry_equiv_pos_site_id
 _symmetry_equiv_pos_as_xyz
  1  'x, y, z'
loop_
 _atom_site_type_symbol
 _atom_site_label
 _atom_site_symmetry_multiplicity
 _atom_site_fract_x
 _atom_site_fract_y
 _atom_site_fract_z
 _atom_site_occupancy
  Pr  Pr0  1  0.77905212  0.50000000  0.55810423  1
  Pr  Pr1  1  0.11180913  0.50000000  0.22361825  1
  Cu  Cu2  1  0.55570231  -0.00000000  0.11140462  1
  Ge  Ge3  1  0.49794038  0.50000000  0.99588076  1
  Ge  Ge4  1  0.38529297  0.50000000  0.77058593  1
  Ge  Ge5  1  0.99737527  -0.00000000  0.99475055  1
  Ge  Ge6  1  0.88404418  -0.00000000  0.76808836  1
  Ge  Ge7  1  0.66362489  0.00000000  0.32724977  1
  Ge  Ge8  1  0.23215876  -0.00000000  0.46431752  1
