# generated using pymatgen
data_Nd2BeGa2O7
_symmetry_space_group_name_H-M   'P 1'
_cell_length_a   5.23994317
_cell_length_b   7.74559994
_cell_length_c   7.74559994
_cell_angle_alpha   90.00000000
_cell_angle_beta   90.00000000
_cell_angle_gamma   90.00000000
_symmetry_Int_Tables_number   1
_chemical_formula_structural   Nd2BeGa2O7
_chemical_formula_sum   'Nd4 Be2 Ga4 O14'
_cell_volume   314.36681910
_cell_formula_units_Z   2
loop_
 _symmetry_equiv_pos_site_id
 _symmetry_equiv_pos_as_xyz
  1  'x, y, z'
loop_
 _atom_site_type_symbol
 _atom_site_label
 _atom_site_symmetry_multiplicity
 _atom_site_fract_x
 _atom_site_fract_y
 _atom_site_fract_z
 _atom_site_occupancy
  Nd  Nd0  1  0.51678709  0.16637454  0.66637454  1
  Nd  Nd1  1  0.51678709  0.83362546  0.33362546  1
  Nd  Nd2  1  0.48321291  0.66637454  0.83362546  1
  Nd  Nd3  1  0.48321291  0.33362546  0.16637454  1
  Be  Be4  1  -0.00000000  0.00000000  -0.00000000  1
  Be  Be5  1  0.00000000  0.50000000  0.50000000  1
  Ga  Ga6  1  0.97049399  0.65091096  0.15091096  1
  Ga  Ga7  1  0.97049399  0.34908904  0.84908904  1
  Ga  Ga8  1  0.02950601  0.15091096  0.34908904  1
  Ga  Ga9  1  0.02950601  0.84908904  0.65091096  1
  O  O10  1  0.19672639  0.00000000  0.50000000  1
  O  O11  1  0.80327361  0.50000000  0.00000000  1
  O  O12  1  0.32004071  0.63498022  0.13498022  1
  O  O13  1  0.32004071  0.36501978  0.86501978  1
  O  O14  1  0.67995929  0.13498022  0.36501978  1
  O  O15  1  0.67995929  0.86501978  0.63498022  1
  O  O16  1  0.19335734  0.09158345  0.14461834  1
  O  O17  1  0.19335734  0.90841655  0.85538166  1
  O  O18  1  0.80664266  0.14461834  0.90841655  1
  O  O19  1  0.80664266  0.40841655  0.64461834  1
  O  O20  1  0.80664266  0.85538166  0.09158345  1
  O  O21  1  0.80664266  0.59158345  0.35538166  1
  O  O22  1  0.19335734  0.35538166  0.40841655  1
  O  O23  1  0.19335734  0.64461834  0.59158345  1
