# generated using pymatgen
data_Lu2(GePt3)3
_symmetry_space_group_name_H-M   'P 1'
_cell_length_a   7.78946218
_cell_length_b   7.78946218
_cell_length_c   10.04295112
_cell_angle_alpha   90.18258917
_cell_angle_beta   112.80796571
_cell_angle_gamma   119.74246546
_symmetry_Int_Tables_number   1
_chemical_formula_structural   Lu2(GePt3)3
_chemical_formula_sum   'Lu4 Ge6 Pt18'
_cell_volume   472.94559655
_cell_formula_units_Z   2
loop_
 _symmetry_equiv_pos_site_id
 _symmetry_equiv_pos_as_xyz
  1  'x, y, z'
loop_
 _atom_site_type_symbol
 _atom_site_label
 _atom_site_symmetry_multiplicity
 _atom_site_fract_x
 _atom_site_fract_y
 _atom_site_fract_z
 _atom_site_occupancy
  Lu  Lu0  1  0.66643566  0.75531677  0.25077165  1
  Lu  Lu1  1  0.33356434  0.24468323  0.74922835  1
  Lu  Lu2  1  0.00454513  0.41566401  0.24922835  1
  Lu  Lu3  1  0.99545487  0.58433599  0.75077165  1
  Ge  Ge4  1  0.50000000  0.00000000  0.00000000  1
  Ge  Ge5  1  0.50000000  0.50000000  0.50000000  1
  Ge  Ge6  1  0.13743348  0.81846350  0.49778829  1
  Ge  Ge7  1  0.86256652  0.18153650  0.50221171  1
  Ge  Ge8  1  0.82067521  0.63964518  0.00221171  1
  Ge  Ge9  1  0.17932479  0.36035482  0.99778829  1
  Pt  Pt10  1  0.55423908  0.08390484  0.25618036  1
  Pt  Pt11  1  0.44576092  0.91609516  0.74381964  1
  Pt  Pt12  1  0.32772447  0.29805871  0.24381964  1
  Pt  Pt13  1  0.67227553  0.70194129  0.75618036  1
  Pt  Pt14  1  0.55632194  0.36147304  0.07809334  1
  Pt  Pt15  1  0.44367806  0.63852696  0.92190666  1
  Pt  Pt16  1  0.78337970  0.47822859  0.42190666  1
  Pt  Pt17  1  0.21662030  0.52177141  0.57809334  1
  Pt  Pt18  1  0.11427933  0.86427933  0.25000000  1
  Pt  Pt19  1  0.88572067  0.13572067  0.75000000  1
  Pt  Pt20  1  0.87231173  0.02266464  0.07705099  1
  Pt  Pt21  1  0.12768827  0.97733536  0.92294901  1
  Pt  Pt22  1  0.44561365  0.79526075  0.42294901  1
  Pt  Pt23  1  0.55438635  0.20473925  0.57705099  1
  Pt  Pt24  1  0.11270681  0.13967187  0.42063030  1
  Pt  Pt25  1  0.88729319  0.86032813  0.57936970  1
  Pt  Pt26  1  0.21904157  0.69207651  0.07936970  1
  Pt  Pt27  1  0.78095843  0.30792349  0.92063030  1
