# generated using pymatgen
data_Mg2TiBO5
_symmetry_space_group_name_H-M   'P 1'
_cell_length_a   3.05082056
_cell_length_b   9.38839920
_cell_length_c   12.47552760
_cell_angle_alpha   90.00000000
_cell_angle_beta   90.00000000
_cell_angle_gamma   90.00000000
_symmetry_Int_Tables_number   1
_chemical_formula_structural   Mg2TiBO5
_chemical_formula_sum   'Mg8 Ti4 B4 O20'
_cell_volume   357.32806997
_cell_formula_units_Z   4
loop_
 _symmetry_equiv_pos_site_id
 _symmetry_equiv_pos_as_xyz
  1  'x, y, z'
loop_
 _atom_site_type_symbol
 _atom_site_label
 _atom_site_symmetry_multiplicity
 _atom_site_fract_x
 _atom_site_fract_y
 _atom_site_fract_z
 _atom_site_occupancy
  Mg  Mg0  1  0.50000000  0.00000000  0.50000000  1
  Mg  Mg1  1  0.50000000  0.50000000  -0.00000000  1
  Mg  Mg2  1  0.50000000  0.00260067  0.21806966  1
  Mg  Mg3  1  0.50000000  0.99739933  0.78193034  1
  Mg  Mg4  1  0.50000000  0.49739933  0.71806966  1
  Mg  Mg5  1  0.50000000  0.50260067  0.28193034  1
  Mg  Mg6  1  0.00000000  0.00000000  0.00000000  1
  Mg  Mg7  1  0.00000000  0.50000000  0.50000000  1
  Ti  Ti8  1  0.00000000  0.24009862  0.38483523  1
  Ti  Ti9  1  -0.00000000  0.75990138  0.61516477  1
  Ti  Ti10  1  -0.00000000  0.25990138  0.88483523  1
  Ti  Ti11  1  0.00000000  0.74009862  0.11516477  1
  B  B12  1  0.00000000  0.27370781  0.13973406  1
  B  B13  1  -0.00000000  0.72629219  0.86026594  1
  B  B14  1  -0.00000000  0.22629219  0.63973406  1
  B  B15  1  0.00000000  0.77370781  0.36026594  1
  O  O16  1  0.00000000  0.35056568  0.04331815  1
  O  O17  1  0.00000000  0.64943432  0.95668185  1
  O  O18  1  0.00000000  0.14943432  0.54331815  1
  O  O19  1  0.00000000  0.85056568  0.45668185  1
  O  O20  1  0.50000000  0.38423875  0.42348592  1
  O  O21  1  0.50000000  0.61576125  0.57651408  1
  O  O22  1  0.50000000  0.11576125  0.92348592  1
  O  O23  1  0.50000000  0.88423875  0.07651408  1
  O  O24  1  -0.00000000  0.12668281  0.14199276  1
  O  O25  1  0.00000000  0.87331719  0.85800724  1
  O  O26  1  -0.00000000  0.37331719  0.64199276  1
  O  O27  1  0.00000000  0.62668281  0.35800724  1
  O  O28  1  0.50000000  0.10633337  0.35693282  1
  O  O29  1  0.50000000  0.89366663  0.64306718  1
  O  O30  1  0.50000000  0.39366663  0.85693282  1
  O  O31  1  0.50000000  0.60633337  0.14306718  1
  O  O32  1  0.00000000  0.35023943  0.23621599  1
  O  O33  1  0.00000000  0.64976057  0.76378401  1
  O  O34  1  0.00000000  0.14976057  0.73621599  1
  O  O35  1  0.00000000  0.85023943  0.26378401  1
