# generated using pymatgen
data_KNb3CuO9
_symmetry_space_group_name_H-M   'P 1'
_cell_length_a   7.83953159
_cell_length_b   8.98022075
_cell_length_c   10.27011715
_cell_angle_alpha   90.00000000
_cell_angle_beta   90.00000000
_cell_angle_gamma   90.00000000
_symmetry_Int_Tables_number   1
_chemical_formula_structural   KNb3CuO9
_chemical_formula_sum   'K4 Nb12 Cu4 O36'
_cell_volume   723.02368554
_cell_formula_units_Z   4
loop_
 _symmetry_equiv_pos_site_id
 _symmetry_equiv_pos_as_xyz
  1  'x, y, z'
loop_
 _atom_site_type_symbol
 _atom_site_label
 _atom_site_symmetry_multiplicity
 _atom_site_fract_x
 _atom_site_fract_y
 _atom_site_fract_z
 _atom_site_occupancy
  K  K0  1  0.31172294  0.08375321  0.74684957  1
  K  K1  1  0.31172294  0.91624679  0.25315043  1
  K  K2  1  0.81172294  0.08375321  0.75315043  1
  K  K3  1  0.81172294  0.91624679  0.24684957  1
  Nb  Nb4  1  0.06808784  0.20482054  0.43766820  1
  Nb  Nb5  1  0.06808784  0.79517946  0.56233180  1
  Nb  Nb6  1  0.56808784  0.20482054  0.06233180  1
  Nb  Nb7  1  0.56808784  0.79517946  0.93766820  1
  Nb  Nb8  1  0.07680923  0.19672333  0.06164538  1
  Nb  Nb9  1  0.07680923  0.80327667  0.93835462  1
  Nb  Nb10  1  0.57680923  0.19672333  0.43835462  1
  Nb  Nb11  1  0.57680923  0.80327667  0.56164538  1
  Nb  Nb12  1  0.06428321  0.56915375  0.25323814  1
  Nb  Nb13  1  0.06428321  0.43084625  0.74676186  1
  Nb  Nb14  1  0.56428321  0.56915375  0.24676186  1
  Nb  Nb15  1  0.56428321  0.43084625  0.75323814  1
  Cu  Cu16  1  0.81059217  0.50000000  0.00000000  1
  Cu  Cu17  1  0.31059217  0.50000000  0.50000000  1
  Cu  Cu18  1  0.30407419  0.50000000  0.00000000  1
  Cu  Cu19  1  0.80407419  0.50000000  0.50000000  1
  O  O20  1  0.08951302  0.72512421  0.12284842  1
  O  O21  1  0.08951302  0.27487579  0.87715158  1
  O  O22  1  0.58951302  0.72512421  0.37715158  1
  O  O23  1  0.58951302  0.27487579  0.62284842  1
  O  O24  1  0.30548066  0.14659051  0.05811894  1
  O  O25  1  0.30548066  0.85340949  0.94188106  1
  O  O26  1  0.80548066  0.14659051  0.44188106  1
  O  O27  1  0.80548066  0.85340949  0.55811894  1
  O  O28  1  0.05469599  0.14816830  0.25129813  1
  O  O29  1  0.05469599  0.85183170  0.74870187  1
  O  O30  1  0.55469599  0.14816830  0.24870187  1
  O  O31  1  0.55469599  0.85183170  0.75129813  1
  O  O32  1  0.12344811  0.41598695  0.11330611  1
  O  O33  1  0.12344811  0.58401305  0.88669389  1
  O  O34  1  0.62344811  0.41598695  0.38669389  1
  O  O35  1  0.62344811  0.58401305  0.61330611  1
  O  O36  1  0.01491153  0.27506661  0.61878259  1
  O  O37  1  0.01491153  0.72493339  0.38121741  1
  O  O38  1  0.51491153  0.27506661  0.88121741  1
  O  O39  1  0.51491153  0.72493339  0.11878259  1
  O  O40  1  0.30147434  0.27784730  0.44795907  1
  O  O41  1  0.30147434  0.72215270  0.55204093  1
  O  O42  1  0.80147434  0.27784730  0.05204093  1
  O  O43  1  0.80147434  0.72215270  0.94795907  1
  O  O44  1  0.48164833  0.41599630  0.11507177  1
  O  O45  1  0.48164833  0.58400370  0.88492823  1
  O  O46  1  0.98164833  0.41599630  0.38492823  1
  O  O47  1  0.98164833  0.58400370  0.61507177  1
  O  O48  1  0.30352574  0.55708601  0.31590566  1
  O  O49  1  0.30352574  0.44291399  0.68409434  1
  O  O50  1  0.80352574  0.55708601  0.18409434  1
  O  O51  1  0.80352574  0.44291399  0.81590566  1
  O  O52  1  0.99333660  -0.00000000  0.00000000  1
  O  O53  1  0.49333660  -0.00000000  0.50000000  1
  O  O54  1  0.61659517  -0.00000000  0.00000000  1
  O  O55  1  0.11659517  -0.00000000  0.50000000  1
