# generated using pymatgen
data_KSc(WO4)2
_symmetry_space_group_name_H-M   'P 1'
_cell_length_a   5.93343826
_cell_length_b   5.93343826
_cell_length_c   7.76385760
_cell_angle_alpha   90.00000000
_cell_angle_beta   90.00000000
_cell_angle_gamma   120.00000585
_symmetry_Int_Tables_number   1
_chemical_formula_structural   KSc(WO4)2
_chemical_formula_sum   'K1 Sc1 W2 O8'
_cell_volume   236.71240799
_cell_formula_units_Z   1
loop_
 _symmetry_equiv_pos_site_id
 _symmetry_equiv_pos_as_xyz
  1  'x, y, z'
loop_
 _atom_site_type_symbol
 _atom_site_label
 _atom_site_symmetry_multiplicity
 _atom_site_fract_x
 _atom_site_fract_y
 _atom_site_fract_z
 _atom_site_occupancy
  K  K0  1  -0.00000000  0.00000000  -0.00000000  1
  Sc  Sc1  1  -0.00000000  0.00000000  0.50000000  1
  W  W2  1  0.66666700  0.33333300  0.73425638  1
  W  W3  1  0.33333300  0.66666700  0.26574362  1
  O  O4  1  0.83558105  0.67116210  0.66086150  1
  O  O5  1  0.16441895  0.32883790  0.33913850  1
  O  O6  1  0.83558105  0.16441895  0.66086150  1
  O  O7  1  0.16441895  0.83558105  0.33913850  1
  O  O8  1  0.32883790  0.16441895  0.66086150  1
  O  O9  1  0.67116210  0.83558105  0.33913850  1
  O  O10  1  0.66666700  0.33333300  0.96337288  1
  O  O11  1  0.33333300  0.66666700  0.03662712  1
