# generated using pymatgen
data_Tb3Cu20Sb11
_symmetry_space_group_name_H-M   'P 1'
_cell_length_a   11.96340350
_cell_length_b   11.96340350
_cell_length_c   11.96340350
_cell_angle_alpha   60.00000000
_cell_angle_beta   60.00000000
_cell_angle_gamma   60.00000000
_symmetry_Int_Tables_number   1
_chemical_formula_structural   Tb3Cu20Sb11
_chemical_formula_sum   'Tb6 Cu40 Sb22'
_cell_volume   1210.73543835
_cell_formula_units_Z   2
loop_
 _symmetry_equiv_pos_site_id
 _symmetry_equiv_pos_as_xyz
  1  'x, y, z'
loop_
 _atom_site_type_symbol
 _atom_site_label
 _atom_site_symmetry_multiplicity
 _atom_site_fract_x
 _atom_site_fract_y
 _atom_site_fract_z
 _atom_site_occupancy
  Tb  Tb0  1  0.98952403  0.98952403  0.51047597  1
  Tb  Tb1  1  0.51047597  0.51047597  0.98952403  1
  Tb  Tb2  1  0.98952403  0.51047597  0.98952403  1
  Tb  Tb3  1  0.51047597  0.98952403  0.51047597  1
  Tb  Tb4  1  0.51047597  0.98952403  0.98952403  1
  Tb  Tb5  1  0.98952403  0.51047597  0.51047597  1
  Cu  Cu6  1  0.76802731  0.00307976  0.00307976  1
  Cu  Cu7  1  0.22581316  0.00307976  0.00307976  1
  Cu  Cu8  1  0.00307976  0.22581316  0.76802731  1
  Cu  Cu9  1  0.00307976  0.00307976  0.76802731  1
  Cu  Cu10  1  0.00307976  0.76802731  0.22581316  1
  Cu  Cu11  1  0.00307976  0.00307976  0.22581316  1
  Cu  Cu12  1  0.22581316  0.76802731  0.00307976  1
  Cu  Cu13  1  0.76802731  0.22581316  0.00307976  1
  Cu  Cu14  1  0.00307976  0.76802731  0.00307976  1
  Cu  Cu15  1  0.76802731  0.00307976  0.22581316  1
  Cu  Cu16  1  0.22581316  0.00307976  0.76802731  1
  Cu  Cu17  1  0.00307976  0.22581316  0.00307976  1
  Cu  Cu18  1  0.13455193  0.74842942  0.74842942  1
  Cu  Cu19  1  0.36858923  0.74842942  0.74842942  1
  Cu  Cu20  1  0.74842942  0.36858923  0.13455193  1
  Cu  Cu21  1  0.74842942  0.74842942  0.13455193  1
  Cu  Cu22  1  0.74842942  0.13455193  0.36858923  1
  Cu  Cu23  1  0.74842942  0.74842942  0.36858923  1
  Cu  Cu24  1  0.36858923  0.13455193  0.74842942  1
  Cu  Cu25  1  0.13455193  0.36858923  0.74842942  1
  Cu  Cu26  1  0.74842942  0.13455193  0.74842942  1
  Cu  Cu27  1  0.13455193  0.74842942  0.36858923  1
  Cu  Cu28  1  0.36858923  0.74842942  0.13455193  1
  Cu  Cu29  1  0.74842942  0.36858923  0.74842942  1
  Cu  Cu30  1  0.30140128  0.30140128  0.30140128  1
  Cu  Cu31  1  0.09579616  0.30140128  0.30140128  1
  Cu  Cu32  1  0.30140128  0.09579616  0.30140128  1
  Cu  Cu33  1  0.30140128  0.30140128  0.09579616  1
  Cu  Cu34  1  0.27601960  0.49521072  0.49521072  1
  Cu  Cu35  1  0.73355896  0.49521072  0.49521072  1
  Cu  Cu36  1  0.49521072  0.73355896  0.27601960  1
  Cu  Cu37  1  0.49521072  0.49521072  0.27601960  1
  Cu  Cu38  1  0.49521072  0.27601960  0.73355896  1
  Cu  Cu39  1  0.49521072  0.49521072  0.73355896  1
  Cu  Cu40  1  0.73355896  0.27601960  0.49521072  1
  Cu  Cu41  1  0.27601960  0.73355896  0.49521072  1
  Cu  Cu42  1  0.49521072  0.27601960  0.49521072  1
  Cu  Cu43  1  0.27601960  0.49521072  0.73355896  1
  Cu  Cu44  1  0.73355896  0.49521072  0.27601960  1
  Cu  Cu45  1  0.49521072  0.73355896  0.49521072  1
  Sb  Sb46  1  0.56396672  0.24872417  0.24872417  1
  Sb  Sb47  1  0.93858495  0.24872417  0.24872417  1
  Sb  Sb48  1  0.24872417  0.93858495  0.56396672  1
  Sb  Sb49  1  0.24872417  0.24872417  0.56396672  1
  Sb  Sb50  1  0.24872417  0.56396672  0.93858495  1
  Sb  Sb51  1  0.24872417  0.24872417  0.93858495  1
  Sb  Sb52  1  0.93858495  0.56396672  0.24872417  1
  Sb  Sb53  1  0.56396672  0.93858495  0.24872417  1
  Sb  Sb54  1  0.24872417  0.56396672  0.24872417  1
  Sb  Sb55  1  0.56396672  0.24872417  0.93858495  1
  Sb  Sb56  1  0.93858495  0.24872417  0.56396672  1
  Sb  Sb57  1  0.24872417  0.93858495  0.24872417  1
  Sb  Sb58  1  0.64663184  0.64663184  0.64663184  1
  Sb  Sb59  1  0.06010448  0.64663184  0.64663184  1
  Sb  Sb60  1  0.64663184  0.06010448  0.64663184  1
  Sb  Sb61  1  0.64663184  0.64663184  0.06010448  1
  Sb  Sb62  1  0.50000000  0.50000000  0.50000000  1
  Sb  Sb63  1  0.85208143  0.85208143  0.85208143  1
  Sb  Sb64  1  0.44375571  0.85208143  0.85208143  1
  Sb  Sb65  1  0.85208143  0.44375571  0.85208143  1
  Sb  Sb66  1  0.85208143  0.85208143  0.44375571  1
  Sb  Sb67  1  -0.00000000  -0.00000000  -0.00000000  1
