# generated using pymatgen
data_La5B3O13
_symmetry_space_group_name_H-M   'P 1'
_cell_length_a   7.16069642
_cell_length_b   9.37087049
_cell_length_c   9.37087049
_cell_angle_alpha   120.00000228
_cell_angle_beta   90.00000000
_cell_angle_gamma   90.00000000
_symmetry_Int_Tables_number   1
_chemical_formula_structural   La5B3O13
_chemical_formula_sum   'La10 B6 O26'
_cell_volume   544.56002249
_cell_formula_units_Z   2
loop_
 _symmetry_equiv_pos_site_id
 _symmetry_equiv_pos_as_xyz
  1  'x, y, z'
loop_
 _atom_site_type_symbol
 _atom_site_label
 _atom_site_symmetry_multiplicity
 _atom_site_fract_x
 _atom_site_fract_y
 _atom_site_fract_z
 _atom_site_occupancy
  La  La0  1  0.75000000  0.74740828  0.98396828  1
  La  La1  1  0.25000000  0.25259172  0.01603172  1
  La  La2  1  0.75000000  0.23656000  0.25259172  1
  La  La3  1  0.25000000  0.76344000  0.74740828  1
  La  La4  1  0.75000000  0.01603172  0.76344000  1
  La  La5  1  0.25000000  0.98396828  0.23656000  1
  La  La6  1  0.99790889  0.66666700  0.33333300  1
  La  La7  1  0.00209111  0.33333300  0.66666700  1
  La  La8  1  0.49790889  0.33333300  0.66666700  1
  La  La9  1  0.50209111  0.66666700  0.33333300  1
  B  B10  1  0.75000000  0.96772255  0.36965346  1
  B  B11  1  0.25000000  0.03227745  0.63034654  1
  B  B12  1  0.75000000  0.40193091  0.03227745  1
  B  B13  1  0.25000000  0.59806909  0.96772255  1
  B  B14  1  0.75000000  0.63034654  0.59806909  1
  B  B15  1  0.25000000  0.36965346  0.40193091  1
  O  O16  1  0.91978463  0.91396287  0.26204212  1
  O  O17  1  0.08021537  0.08603713  0.73795788  1
  O  O18  1  0.91978463  0.34807925  0.08603713  1
  O  O19  1  0.41978463  0.08603713  0.73795788  1
  O  O20  1  0.08021537  0.65192075  0.91396287  1
  O  O21  1  0.58021537  0.91396287  0.26204212  1
  O  O22  1  0.91978463  0.73795788  0.65192075  1
  O  O23  1  0.41978463  0.65192075  0.91396287  1
  O  O24  1  0.08021537  0.26204212  0.34807925  1
  O  O25  1  0.58021537  0.34807925  0.08603713  1
  O  O26  1  0.41978463  0.26204212  0.34807925  1
  O  O27  1  0.58021537  0.73795788  0.65192075  1
  O  O28  1  0.75000000  0.51917197  0.66789838  1
  O  O29  1  0.25000000  0.48082803  0.33210162  1
  O  O30  1  0.75000000  0.14872641  0.48082803  1
  O  O31  1  0.25000000  0.85127359  0.51917197  1
  O  O32  1  0.75000000  0.33210162  0.85127359  1
  O  O33  1  0.25000000  0.66789838  0.14872641  1
  O  O34  1  0.75000000  0.00000000  -0.00000000  1
  O  O35  1  0.25000000  0.00000000  -0.00000000  1
  O  O36  1  0.75000000  0.87740157  0.46285690  1
  O  O37  1  0.25000000  0.12259843  0.53714310  1
  O  O38  1  0.75000000  0.58545533  0.12259843  1
  O  O39  1  0.25000000  0.41454467  0.87740157  1
  O  O40  1  0.75000000  0.53714310  0.41454467  1
  O  O41  1  0.25000000  0.46285690  0.58545533  1
