# generated using pymatgen
data_Na(RuO2)4
_symmetry_space_group_name_H-M   'P 1'
_cell_length_a   3.17217047
_cell_length_b   7.09621873
_cell_length_c   7.09621873
_cell_angle_alpha   87.13646494
_cell_angle_beta   77.08464594
_cell_angle_gamma   77.08464594
_symmetry_Int_Tables_number   1
_chemical_formula_structural   Na(RuO2)4
_chemical_formula_sum   'Na1 Ru4 O8'
_cell_volume   151.75870962
_cell_formula_units_Z   1
loop_
 _symmetry_equiv_pos_site_id
 _symmetry_equiv_pos_as_xyz
  1  'x, y, z'
loop_
 _atom_site_type_symbol
 _atom_site_label
 _atom_site_symmetry_multiplicity
 _atom_site_fract_x
 _atom_site_fract_y
 _atom_site_fract_z
 _atom_site_occupancy
  Na  Na0  1  0.00000000  -0.00000000  -0.00000000  1
  Ru  Ru1  1  0.32845823  0.82150243  0.52158111  1
  Ru  Ru2  1  0.67154177  0.17849757  0.47841889  1
  Ru  Ru3  1  0.85003934  0.47841889  0.82150243  1
  Ru  Ru4  1  0.14996066  0.52158111  0.17849757  1
  O  O5  1  0.30796865  0.05053013  0.33353258  1
  O  O6  1  0.69203135  0.94946987  0.66646742  1
  O  O7  1  0.64150122  0.66646742  0.05053013  1
  O  O8  1  0.35849878  0.33353258  0.94946987  1
  O  O9  1  0.04873311  0.29193481  0.61059898  1
  O  O10  1  0.95126689  0.70806519  0.38940102  1
  O  O11  1  0.65933208  0.38940102  0.29193481  1
  O  O12  1  0.34066792  0.61059898  0.70806519  1
