# generated using pymatgen
data_Cu2NO6
_symmetry_space_group_name_H-M   'P 1'
_cell_length_a   5.36942512
_cell_length_b   5.87099093
_cell_length_c   7.12002035
_cell_angle_alpha   90.00000000
_cell_angle_beta   94.31233522
_cell_angle_gamma   90.00000000
_symmetry_Int_Tables_number   1
_chemical_formula_structural   Cu2NO6
_chemical_formula_sum   'Cu4 N2 O12'
_cell_volume   223.81500037
_cell_formula_units_Z   2
loop_
 _symmetry_equiv_pos_site_id
 _symmetry_equiv_pos_as_xyz
  1  'x, y, z'
loop_
 _atom_site_type_symbol
 _atom_site_label
 _atom_site_symmetry_multiplicity
 _atom_site_fract_x
 _atom_site_fract_y
 _atom_site_fract_z
 _atom_site_occupancy
  Cu  Cu0  1  0.00042920  0.26730214  0.00250526  1
  Cu  Cu1  1  0.99957080  0.76730214  0.99749474  1
  Cu  Cu2  1  0.49442312  0.01653091  0.00149589  1
  Cu  Cu3  1  0.50557688  0.51653091  0.99850411  1
  N  N4  1  0.23718326  0.49807905  0.41854007  1
  N  N5  1  0.76281674  0.99807905  0.58145993  1
  O  O6  1  0.11203339  0.01508626  0.12992506  1
  O  O7  1  0.88796661  0.51508626  0.87007494  1
  O  O8  1  0.31014385  0.27131655  0.89741708  1
  O  O9  1  0.68985615  0.77131655  0.10258292  1
  O  O10  1  0.08642303  0.38034160  0.49851944  1
  O  O11  1  0.91357697  0.88034160  0.50148056  1
  O  O12  1  0.21524190  0.50473605  0.23549108  1
  O  O13  1  0.78475810  0.00473605  0.76450892  1
  O  O14  1  0.68880470  0.26049491  0.10275264  1
  O  O15  1  0.31119530  0.76049491  0.89724736  1
  O  O16  1  0.59348693  0.10911252  0.49698703  1
  O  O17  1  0.40651307  0.60911252  0.50301297  1
