# generated using pymatgen
data_Mg14TiAlO16
_symmetry_space_group_name_H-M   'P 1'
_cell_length_a   8.57466971
_cell_length_b   8.55011133
_cell_length_c   4.27672807
_cell_angle_alpha   90.00000000
_cell_angle_beta   90.00000000
_cell_angle_gamma   90.00000000
_symmetry_Int_Tables_number   1
_chemical_formula_structural   Mg14TiAlO16
_chemical_formula_sum   'Mg14 Ti1 Al1 O16'
_cell_volume   313.54566961
_cell_formula_units_Z   1
loop_
 _symmetry_equiv_pos_site_id
 _symmetry_equiv_pos_as_xyz
  1  'x, y, z'
loop_
 _atom_site_type_symbol
 _atom_site_label
 _atom_site_symmetry_multiplicity
 _atom_site_fract_x
 _atom_site_fract_y
 _atom_site_fract_z
 _atom_site_occupancy
  Mg  Mg0  1  0.50000000  -0.00000000  0.00000000  1
  Mg  Mg1  1  0.50000000  0.50000000  0.00000000  1
  Mg  Mg2  1  0.00000000  0.25075966  0.50000000  1
  Mg  Mg3  1  0.00000000  0.74924034  0.50000000  1
  Mg  Mg4  1  0.50000000  0.25074510  0.50000000  1
  Mg  Mg5  1  0.50000000  0.74925490  0.50000000  1
  Mg  Mg6  1  0.25035208  -0.00000000  0.50000000  1
  Mg  Mg7  1  0.25142131  0.50000000  0.50000000  1
  Mg  Mg8  1  0.74964792  -0.00000000  0.50000000  1
  Mg  Mg9  1  0.74857869  0.50000000  0.50000000  1
  Mg  Mg10  1  0.25073761  0.25205362  0.00000000  1
  Mg  Mg11  1  0.25073761  0.74794638  0.00000000  1
  Mg  Mg12  1  0.74926239  0.25205362  -0.00000000  1
  Mg  Mg13  1  0.74926239  0.74794638  -0.00000000  1
  Ti  Ti14  1  0.00000000  0.50000000  0.00000000  1
  Al  Al15  1  0.00000000  -0.00000000  0.00000000  1
  O  O16  1  0.23421637  -0.00000000  0.00000000  1
  O  O17  1  0.26014396  0.50000000  0.00000000  1
  O  O18  1  0.76578363  -0.00000000  -0.00000000  1
  O  O19  1  0.73985604  0.50000000  -0.00000000  1
  O  O20  1  0.24942786  0.24909854  0.50000000  1
  O  O21  1  0.24942786  0.75090146  0.50000000  1
  O  O22  1  0.75057214  0.24909854  0.50000000  1
  O  O23  1  0.75057214  0.75090146  0.50000000  1
  O  O24  1  0.00000000  -0.00000000  0.50000000  1
  O  O25  1  0.00000000  0.50000000  0.50000000  1
  O  O26  1  0.50000000  -0.00000000  0.50000000  1
  O  O27  1  0.50000000  0.50000000  0.50000000  1
  O  O28  1  0.00000000  0.22260962  0.00000000  1
  O  O29  1  0.00000000  0.77739038  -0.00000000  1
  O  O30  1  0.50000000  0.24492538  0.00000000  1
  O  O31  1  0.50000000  0.75507462  -0.00000000  1
