# generated using pymatgen
data_Ca3Fe2Br2O5
_symmetry_space_group_name_H-M   'P 1'
_cell_length_a   3.93088515
_cell_length_b   3.93088515
_cell_length_c   12.86175640
_cell_angle_alpha   98.78997671
_cell_angle_beta   98.78997671
_cell_angle_gamma   90.00000000
_symmetry_Int_Tables_number   1
_chemical_formula_structural   Ca3Fe2Br2O5
_chemical_formula_sum   'Ca3 Fe2 Br2 O5'
_cell_volume   194.04165360
_cell_formula_units_Z   1
loop_
 _symmetry_equiv_pos_site_id
 _symmetry_equiv_pos_as_xyz
  1  'x, y, z'
loop_
 _atom_site_type_symbol
 _atom_site_label
 _atom_site_symmetry_multiplicity
 _atom_site_fract_x
 _atom_site_fract_y
 _atom_site_fract_z
 _atom_site_occupancy
  Ca  Ca0  1  0.35619291  0.35619291  0.71238581  1
  Ca  Ca1  1  0.64380709  0.64380709  0.28761419  1
  Ca  Ca2  1  0.50000000  0.50000000  0.00000000  1
  Fe  Fe3  1  0.07712995  0.07712995  0.15425991  1
  Fe  Fe4  1  0.92287005  0.92287005  0.84574009  1
  Br  Br5  1  0.19841094  0.19841094  0.39682188  1
  Br  Br6  1  0.80158906  0.80158906  0.60317812  1
  O  O7  1  0.08773691  0.58773691  0.17547381  1
  O  O8  1  0.91226309  0.41226309  0.82452619  1
  O  O9  1  0.58773691  0.08773691  0.17547381  1
  O  O10  1  0.41226309  0.91226309  0.82452619  1
  O  O11  1  0.00000000  0.00000000  0.00000000  1
