# generated using pymatgen
data_BaY2(MoO4)4
_symmetry_space_group_name_H-M   'P 1'
_cell_length_a   5.32394813
_cell_length_b   6.91812434
_cell_length_c   19.63154856
_cell_angle_alpha   89.46344618
_cell_angle_beta   88.60544902
_cell_angle_gamma   67.36975774
_symmetry_Int_Tables_number   1
_chemical_formula_structural   BaY2(MoO4)4
_chemical_formula_sum   'Ba2 Y4 Mo8 O32'
_cell_volume   667.19563302
_cell_formula_units_Z   2
loop_
 _symmetry_equiv_pos_site_id
 _symmetry_equiv_pos_as_xyz
  1  'x, y, z'
loop_
 _atom_site_type_symbol
 _atom_site_label
 _atom_site_symmetry_multiplicity
 _atom_site_fract_x
 _atom_site_fract_y
 _atom_site_fract_z
 _atom_site_occupancy
  Ba  Ba0  1  0.46870417  0.06259166  0.75000000  1
  Ba  Ba1  1  0.53129583  0.93740834  0.25000000  1
  Y  Y2  1  0.35352718  0.29742040  0.53209947  1
  Y  Y3  1  0.64647282  0.70257960  0.46790053  1
  Y  Y4  1  0.34905242  0.29742040  0.96790053  1
  Y  Y5  1  0.65094758  0.70257960  0.03209947  1
  Mo  Mo6  1  0.07077094  0.88329902  0.90993524  1
  Mo  Mo7  1  0.92922906  0.11670098  0.09006476  1
  Mo  Mo8  1  0.04593004  0.88329902  0.59006476  1
  Mo  Mo9  1  0.95406996  0.11670098  0.40993524  1
  Mo  Mo10  1  0.75658574  0.47972429  0.85214455  1
  Mo  Mo11  1  0.24341426  0.52027571  0.14785545  1
  Mo  Mo12  1  0.76368997  0.47972429  0.64785545  1
  Mo  Mo13  1  0.23631003  0.52027571  0.35214455  1
  O  O14  1  0.32925427  0.65890072  0.95608979  1
  O  O15  1  0.67074573  0.34109928  0.04391021  1
  O  O16  1  0.01184501  0.65890072  0.54391021  1
  O  O17  1  0.98815499  0.34109928  0.45608979  1
  O  O18  1  0.57256330  0.51847081  0.56653372  1
  O  O19  1  0.42743670  0.48152919  0.43346628  1
  O  O20  1  0.90896589  0.51847081  0.93346628  1
  O  O21  1  0.09103411  0.48152919  0.06653372  1
  O  O22  1  0.20075641  0.83553724  0.66898267  1
  O  O23  1  0.79924359  0.16446276  0.33101733  1
  O  O24  1  0.96370635  0.83553724  0.83101733  1
  O  O25  1  0.03629365  0.16446276  0.16898267  1
  O  O26  1  0.27988996  0.90424857  0.39806006  1
  O  O27  1  0.72011004  0.09575143  0.60193994  1
  O  O28  1  0.81586147  0.90424857  0.10193994  1
  O  O29  1  0.18413853  0.09575143  0.89806006  1
  O  O30  1  0.58498537  0.29854079  0.86757959  1
  O  O31  1  0.41501463  0.70145921  0.13242041  1
  O  O32  1  0.11647384  0.29854079  0.63242041  1
  O  O33  1  0.88352616  0.70145921  0.36757959  1
  O  O34  1  0.27527136  0.96531012  0.53512638  1
  O  O35  1  0.72472864  0.03468988  0.46487362  1
  O  O36  1  0.75941852  0.96531012  0.96487362  1
  O  O37  1  0.24058148  0.03468988  0.03512638  1
  O  O38  1  0.51158258  0.72309961  0.82610251  1
  O  O39  1  0.48841742  0.27690039  0.17389749  1
  O  O40  1  0.76531781  0.72309961  0.67389749  1
  O  O41  1  0.23468219  0.27690039  0.32610251  1
  O  O42  1  0.59849516  0.38764689  0.71119287  1
  O  O43  1  0.40150484  0.61235311  0.28880713  1
  O  O44  1  0.01385795  0.38764689  0.78880713  1
  O  O45  1  0.98614205  0.61235311  0.21119287  1
