# generated using pymatgen
data_H3O2
_symmetry_space_group_name_H-M   'P 1'
_cell_length_a   4.45710980
_cell_length_b   6.51843195
_cell_length_c   6.51843195
_cell_angle_alpha   92.79829029
_cell_angle_beta   109.01882127
_cell_angle_gamma   109.01882127
_symmetry_Int_Tables_number   1
_chemical_formula_structural   H3O2
_chemical_formula_sum   'H12 O8'
_cell_volume   166.70531509
_cell_formula_units_Z   4
loop_
 _symmetry_equiv_pos_site_id
 _symmetry_equiv_pos_as_xyz
  1  'x, y, z'
loop_
 _atom_site_type_symbol
 _atom_site_label
 _atom_site_symmetry_multiplicity
 _atom_site_fract_x
 _atom_site_fract_y
 _atom_site_fract_z
 _atom_site_occupancy
  H  H0  1  0.98005604  0.22129108  0.16525646  1
  H  H1  1  0.01994396  0.77870892  0.83474354  1
  H  H2  1  0.51994396  0.83474354  0.77870892  1
  H  H3  1  0.48005604  0.16525646  0.22129108  1
  H  H4  1  0.57310341  0.46455428  0.74849140  1
  H  H5  1  0.42689659  0.53544572  0.25150860  1
  H  H6  1  0.92689659  0.25150860  0.53544572  1
  H  H7  1  0.07310341  0.74849140  0.46455428  1
  H  H8  1  0.89330999  0.71973724  0.04046401  1
  H  H9  1  0.10669001  0.28026276  0.95953599  1
  H  H10  1  0.60669001  0.95953599  0.28026276  1
  H  H11  1  0.39330999  0.04046401  0.71973724  1
  O  O12  1  0.90674817  0.67311337  0.31064604  1
  O  O13  1  0.09325183  0.32688663  0.68935396  1
  O  O14  1  0.59325183  0.68935396  0.32688663  1
  O  O15  1  0.40674817  0.31064604  0.67311337  1
  O  O16  1  0.81740840  0.71538242  0.87804569  1
  O  O17  1  0.18259160  0.28461758  0.12195431  1
  O  O18  1  0.68259160  0.12195431  0.28461758  1
  O  O19  1  0.31740840  0.87804569  0.71538242  1
