# generated using pymatgen
data_Er6Al3Si
_symmetry_space_group_name_H-M   'P 1'
_cell_length_a   11.09644932
_cell_length_b   11.09644932
_cell_length_c   11.09644932
_cell_angle_alpha   93.76163126
_cell_angle_beta   117.85251085
_cell_angle_gamma   117.85251085
_symmetry_Int_Tables_number   1
_chemical_formula_structural   Er6Al3Si
_chemical_formula_sum   'Er24 Al12 Si4'
_cell_volume   995.17332923
_cell_formula_units_Z   4
loop_
 _symmetry_equiv_pos_site_id
 _symmetry_equiv_pos_as_xyz
  1  'x, y, z'
loop_
 _atom_site_type_symbol
 _atom_site_label
 _atom_site_symmetry_multiplicity
 _atom_site_fract_x
 _atom_site_fract_y
 _atom_site_fract_z
 _atom_site_occupancy
  Er  Er0  1  0.16286172  0.83143086  0.33143086  1
  Er  Er1  1  0.83713828  0.16856914  0.66856914  1
  Er  Er2  1  0.50000000  0.66856914  0.83143086  1
  Er  Er3  1  0.50000000  0.33143086  0.16856914  1
  Er  Er4  1  0.73874342  0.80103101  0.66887441  1
  Er  Er5  1  0.26125658  0.19896899  0.33112559  1
  Er  Er6  1  0.26125658  0.93013099  0.06228758  1
  Er  Er7  1  0.13215659  0.06228758  0.80103101  1
  Er  Er8  1  0.86784341  0.69896899  0.43771242  1
  Er  Er9  1  0.73874342  0.06986901  0.93771242  1
  Er  Er10  1  0.86784341  0.93771242  0.19896899  1
  Er  Er11  1  0.13215659  0.30103101  0.56228758  1
  Er  Er12  1  0.86784341  0.66887441  0.93013099  1
  Er  Er13  1  0.13215659  0.56986901  0.83112559  1
  Er  Er14  1  0.13215659  0.33112559  0.06986901  1
  Er  Er15  1  0.86784341  0.43013099  0.16887441  1
  Er  Er16  1  0.73874342  0.43771242  0.56986901  1
  Er  Er17  1  0.26125658  0.56228758  0.43013099  1
  Er  Er18  1  0.26125658  0.83112559  0.69896899  1
  Er  Er19  1  0.73874342  0.16887441  0.30103101  1
  Er  Er20  1  0.50000000  0.85340960  0.35340960  1
  Er  Er21  1  0.50000000  0.14659040  0.64659040  1
  Er  Er22  1  0.50000000  0.35340960  0.85340960  1
  Er  Er23  1  0.50000000  0.64659040  0.14659040  1
  Al  Al24  1  0.25550121  0.37775061  0.87775061  1
  Al  Al25  1  0.74449879  0.62224939  0.12224939  1
  Al  Al26  1  0.50000000  0.12224939  0.37775061  1
  Al  Al27  1  0.50000000  0.87775061  0.62224939  1
  Al  Al28  1  0.14617152  0.61827309  0.11827309  1
  Al  Al29  1  0.85382848  0.38172691  0.88172691  1
  Al  Al30  1  0.85382848  0.97210157  0.47210157  1
  Al  Al31  1  0.50000000  0.47210157  0.61827309  1
  Al  Al32  1  0.50000000  0.88172691  0.02789843  1
  Al  Al33  1  0.14617152  0.02789843  0.52789843  1
  Al  Al34  1  0.50000000  0.52789843  0.38172691  1
  Al  Al35  1  0.50000000  0.11827309  0.97210157  1
  Si  Si36  1  0.00000000  0.00000000  0.00000000  1
  Si  Si37  1  0.00000000  0.50000000  0.50000000  1
  Si  Si38  1  0.00000000  0.75000000  0.75000000  1
  Si  Si39  1  0.00000000  0.25000000  0.25000000  1
