# generated using pymatgen
data_Cs3BiF6
_symmetry_space_group_name_H-M   'P 1'
_cell_length_a   9.56191184
_cell_length_b   7.67655042
_cell_length_c   7.72592630
_cell_angle_alpha   76.69420823
_cell_angle_beta   111.38778881
_cell_angle_gamma   128.41765111
_symmetry_Int_Tables_number   1
_chemical_formula_structural   Cs3BiF6
_chemical_formula_sum   'Cs3 Bi1 F6'
_cell_volume   413.72180542
_cell_formula_units_Z   1
loop_
 _symmetry_equiv_pos_site_id
 _symmetry_equiv_pos_as_xyz
  1  'x, y, z'
loop_
 _atom_site_type_symbol
 _atom_site_label
 _atom_site_symmetry_multiplicity
 _atom_site_fract_x
 _atom_site_fract_y
 _atom_site_fract_z
 _atom_site_occupancy
  Cs  Cs0  1  0.00000000  0.00000000  0.50000000  1
  Cs  Cs1  1  0.50000000  0.50000000  -0.00000000  1
  Cs  Cs2  1  0.00000000  0.50000000  -0.00000000  1
  Bi  Bi3  1  0.00000000  0.00000000  -0.00000000  1
  F  F4  1  0.05126114  0.27109032  0.77797377  1
  F  F5  1  0.94873886  0.72890968  0.22202623  1
  F  F6  1  0.78030275  0.71368356  0.79313959  1
  F  F7  1  0.21969725  0.28631644  0.20686041  1
  F  F8  1  0.78643110  0.99942429  0.06870265  1
  F  F9  1  0.21356890  0.00057571  0.93129735  1
