# generated using pymatgen
data_CdGa(AgSe2)2
_symmetry_space_group_name_H-M   'P 1'
_cell_length_a   7.10374011
_cell_length_b   7.48249497
_cell_length_c   8.15865913
_cell_angle_alpha   90.00000000
_cell_angle_beta   90.00000000
_cell_angle_gamma   90.00000000
_symmetry_Int_Tables_number   1
_chemical_formula_structural   CdGa(AgSe2)2
_chemical_formula_sum   'Cd2 Ga2 Ag4 Se8'
_cell_volume   433.66291687
_cell_formula_units_Z   2
loop_
 _symmetry_equiv_pos_site_id
 _symmetry_equiv_pos_as_xyz
  1  'x, y, z'
loop_
 _atom_site_type_symbol
 _atom_site_label
 _atom_site_symmetry_multiplicity
 _atom_site_fract_x
 _atom_site_fract_y
 _atom_site_fract_z
 _atom_site_occupancy
  Cd  Cd0  1  0.50828944  0.34996909  0.00000000  1
  Cd  Cd1  1  0.00828944  0.65003091  0.50000000  1
  Ga  Ga2  1  0.99740071  0.66953184  0.00000000  1
  Ga  Ga3  1  0.49740071  0.33046816  0.50000000  1
  Ag  Ag4  1  0.51657165  0.82657515  0.75221794  1
  Ag  Ag5  1  0.01657165  0.17342485  0.74778206  1
  Ag  Ag6  1  0.01657165  0.17342485  0.25221794  1
  Ag  Ag7  1  0.51657165  0.82657515  0.24778206  1
  Se  Se8  1  0.88899565  0.35786884  0.00000000  1
  Se  Se9  1  0.38899565  0.64213116  0.50000000  1
  Se  Se10  1  0.88865135  0.83523967  0.76099725  1
  Se  Se11  1  0.38865135  0.16476033  0.73900275  1
  Se  Se12  1  0.38865135  0.16476033  0.26099725  1
  Se  Se13  1  0.88865135  0.83523967  0.23900275  1
  Se  Se14  1  0.34736820  0.67402839  0.00000000  1
  Se  Se15  1  0.84736820  0.32597161  0.50000000  1
