# generated using pymatgen
data_Cd5Si2PO12
_symmetry_space_group_name_H-M   'P 1'
_cell_length_a   6.80662829
_cell_length_b   10.34135331
_cell_length_c   15.25773032
_cell_angle_alpha   90.00000000
_cell_angle_beta   90.00000000
_cell_angle_gamma   90.00000000
_symmetry_Int_Tables_number   1
_chemical_formula_structural   Cd5Si2PO12
_chemical_formula_sum   'Cd20 Si8 P4 O48'
_cell_volume   1073.98779223
_cell_formula_units_Z   4
loop_
 _symmetry_equiv_pos_site_id
 _symmetry_equiv_pos_as_xyz
  1  'x, y, z'
loop_
 _atom_site_type_symbol
 _atom_site_label
 _atom_site_symmetry_multiplicity
 _atom_site_fract_x
 _atom_site_fract_y
 _atom_site_fract_z
 _atom_site_occupancy
  Cd  Cd0  1  0.64367521  0.94365384  0.91057299  1
  Cd  Cd1  1  0.35632479  0.05634616  0.08942701  1
  Cd  Cd2  1  0.85632479  0.44365384  0.08942701  1
  Cd  Cd3  1  0.35632479  0.05634616  0.41057299  1
  Cd  Cd4  1  0.14367521  0.55634616  0.91057299  1
  Cd  Cd5  1  0.64367521  0.94365384  0.58942701  1
  Cd  Cd6  1  0.14367521  0.55634616  0.58942701  1
  Cd  Cd7  1  0.85632479  0.44365384  0.41057299  1
  Cd  Cd8  1  0.84187504  0.83712527  0.39215094  1
  Cd  Cd9  1  0.15812496  0.16287473  0.60784906  1
  Cd  Cd10  1  0.65812496  0.33712527  0.60784906  1
  Cd  Cd11  1  0.15812496  0.16287473  0.89215094  1
  Cd  Cd12  1  0.34187504  0.66287473  0.39215094  1
  Cd  Cd13  1  0.84187504  0.83712527  0.10784906  1
  Cd  Cd14  1  0.34187504  0.66287473  0.10784906  1
  Cd  Cd15  1  0.65812496  0.33712527  0.89215094  1
  Cd  Cd16  1  0.94965770  0.78397211  0.75000000  1
  Cd  Cd17  1  0.05034230  0.21602789  0.25000000  1
  Cd  Cd18  1  0.55034230  0.28397211  0.25000000  1
  Cd  Cd19  1  0.44965770  0.71602789  0.75000000  1
  Si  Si20  1  0.64765667  0.63272416  0.92924501  1
  Si  Si21  1  0.35234333  0.36727584  0.07075499  1
  Si  Si22  1  0.85234333  0.13272416  0.07075499  1
  Si  Si23  1  0.35234333  0.36727584  0.42924501  1
  Si  Si24  1  0.14765667  0.86727584  0.92924501  1
  Si  Si25  1  0.64765667  0.63272416  0.57075499  1
  Si  Si26  1  0.14765667  0.86727584  0.57075499  1
  Si  Si27  1  0.85234333  0.13272416  0.42924501  1
  P  P28  1  0.99346378  0.41301958  0.75000000  1
  P  P29  1  0.00653622  0.58698042  0.25000000  1
  P  P30  1  0.50653622  0.91301958  0.25000000  1
  P  P31  1  0.49346378  0.08698042  0.75000000  1
  O  O32  1  0.54630065  0.94055887  0.75000000  1
  O  O33  1  0.45369935  0.05944113  0.25000000  1
  O  O34  1  0.95369935  0.44055887  0.25000000  1
  O  O35  1  0.04630065  0.55944113  0.75000000  1
  O  O36  1  0.59448802  0.72134837  0.48481245  1
  O  O37  1  0.40551198  0.27865163  0.51518755  1
  O  O38  1  0.90551198  0.22134837  0.51518755  1
  O  O39  1  0.40551198  0.27865163  0.98481245  1
  O  O40  1  0.09448802  0.77865163  0.48481245  1
  O  O41  1  0.59448802  0.72134837  0.01518755  1
  O  O42  1  0.09448802  0.77865163  0.01518755  1
  O  O43  1  0.90551198  0.22134837  0.98481245  1
  O  O44  1  0.91689731  0.64360109  0.33540440  1
  O  O45  1  0.08310269  0.35639891  0.66459560  1
  O  O46  1  0.58310269  0.14360109  0.66459560  1
  O  O47  1  0.08310269  0.35639891  0.83540440  1
  O  O48  1  0.41689731  0.85639891  0.33540440  1
  O  O49  1  0.91689731  0.64360109  0.16459560  1
  O  O50  1  0.41689731  0.85639891  0.16459560  1
  O  O51  1  0.58310269  0.14360109  0.83540440  1
  O  O52  1  0.82304090  0.52538721  0.94908441  1
  O  O53  1  0.17695910  0.47461279  0.05091559  1
  O  O54  1  0.67695910  0.02538721  0.05091559  1
  O  O55  1  0.17695910  0.47461279  0.44908441  1
  O  O56  1  0.32304090  0.97461279  0.94908441  1
  O  O57  1  0.82304090  0.52538721  0.55091559  1
  O  O58  1  0.32304090  0.97461279  0.55091559  1
  O  O59  1  0.67695910  0.02538721  0.44908441  1
  O  O60  1  0.96786669  0.95658676  0.88812894  1
  O  O61  1  0.03213331  0.04341324  0.11187106  1
  O  O62  1  0.53213331  0.45658676  0.11187106  1
  O  O63  1  0.03213331  0.04341324  0.38812894  1
  O  O64  1  0.46786669  0.54341324  0.88812894  1
  O  O65  1  0.96786669  0.95658676  0.61187106  1
  O  O66  1  0.46786669  0.54341324  0.61187106  1
  O  O67  1  0.53213331  0.45658676  0.38812894  1
  O  O68  1  0.76626669  0.39029501  0.75000000  1
  O  O69  1  0.23373331  0.60970499  0.25000000  1
  O  O70  1  0.73373331  0.89029501  0.25000000  1
  O  O71  1  0.26626669  0.10970499  0.75000000  1
  O  O72  1  0.70685751  0.73604209  0.84990713  1
  O  O73  1  0.29314249  0.26395791  0.15009287  1
  O  O74  1  0.79314249  0.23604209  0.15009287  1
  O  O75  1  0.29314249  0.26395791  0.34990713  1
  O  O76  1  0.20685751  0.76395791  0.84990713  1
  O  O77  1  0.70685751  0.73604209  0.65009287  1
  O  O78  1  0.20685751  0.76395791  0.65009287  1
  O  O79  1  0.79314249  0.23604209  0.34990713  1
