# generated using pymatgen
data_ZnCu(WO4)2
_symmetry_space_group_name_H-M   'P 1'
_cell_length_a   4.74524630
_cell_length_b   5.01087326
_cell_length_c   5.88285069
_cell_angle_alpha   88.35376255
_cell_angle_beta   86.01154444
_cell_angle_gamma   87.15014383
_symmetry_Int_Tables_number   1
_chemical_formula_structural   ZnCu(WO4)2
_chemical_formula_sum   'Zn1 Cu1 W2 O8'
_cell_volume   139.32521689
_cell_formula_units_Z   1
loop_
 _symmetry_equiv_pos_site_id
 _symmetry_equiv_pos_as_xyz
  1  'x, y, z'
loop_
 _atom_site_type_symbol
 _atom_site_label
 _atom_site_symmetry_multiplicity
 _atom_site_fract_x
 _atom_site_fract_y
 _atom_site_fract_z
 _atom_site_occupancy
  Zn  Zn0  1  0.48948046  0.74009793  0.32198229  1
  Cu  Cu1  1  0.49904255  0.24576908  0.65904769  1
  W  W2  1  0.99724751  0.75645528  0.82919484  1
  W  W3  1  0.00380716  0.25090659  0.17090489  1
  O  O4  1  0.78614383  0.93739740  0.11187754  1
  O  O5  1  0.22089895  0.07151220  0.88281789  1
  O  O6  1  0.26586218  0.58788524  0.62791089  1
  O  O7  1  0.73501077  0.39892240  0.38500216  1
  O  O8  1  0.21872870  0.56476003  0.10593753  1
  O  O9  1  0.78941352  0.44806840  0.90857281  1
  O  O10  1  0.74473069  0.91642203  0.63900611  1
  O  O11  1  0.24963367  0.08180343  0.35774537  1
