# generated using pymatgen
data_YbGeAu
_symmetry_space_group_name_H-M   'P 1'
_cell_length_a   3.47274743
_cell_length_b   4.58077919
_cell_length_c   4.57996263
_cell_angle_alpha   59.91697907
_cell_angle_beta   90.00000000
_cell_angle_gamma   90.00000000
_symmetry_Int_Tables_number   1
_chemical_formula_structural   YbGeAu
_chemical_formula_sum   'Yb1 Ge1 Au1'
_cell_volume   63.04362752
_cell_formula_units_Z   1
loop_
 _symmetry_equiv_pos_site_id
 _symmetry_equiv_pos_as_xyz
  1  'x, y, z'
loop_
 _atom_site_type_symbol
 _atom_site_label
 _atom_site_symmetry_multiplicity
 _atom_site_fract_x
 _atom_site_fract_y
 _atom_site_fract_z
 _atom_site_occupancy
  Yb  Yb0  1  -0.00000000  0.99991407  0.99991493  1
  Ge  Ge1  1  0.50000000  0.66644624  0.66642671  1
  Au  Au2  1  0.50000000  0.33353970  0.33375836  1
