# generated using pymatgen
data_BaV2ZnO7
_symmetry_space_group_name_H-M   'P 1'
_cell_length_a   5.56389262
_cell_length_b   15.42861482
_cell_length_c   7.55565314
_cell_angle_alpha   90.00000000
_cell_angle_beta   90.00000000
_cell_angle_gamma   90.00000000
_symmetry_Int_Tables_number   1
_chemical_formula_structural   BaV2ZnO7
_chemical_formula_sum   'Ba4 V8 Zn4 O28'
_cell_volume   648.60111219
_cell_formula_units_Z   4
loop_
 _symmetry_equiv_pos_site_id
 _symmetry_equiv_pos_as_xyz
  1  'x, y, z'
loop_
 _atom_site_type_symbol
 _atom_site_label
 _atom_site_symmetry_multiplicity
 _atom_site_fract_x
 _atom_site_fract_y
 _atom_site_fract_z
 _atom_site_occupancy
  Ba  Ba0  1  0.75000000  0.71024432  0.35272439  1
  Ba  Ba1  1  0.25000000  0.28975568  0.64727561  1
  Ba  Ba2  1  0.25000000  0.78975568  0.85272439  1
  Ba  Ba3  1  0.75000000  0.21024432  0.14727561  1
  V  V4  1  0.75000000  0.94348360  0.69443576  1
  V  V5  1  0.25000000  0.05651640  0.30556424  1
  V  V6  1  0.25000000  0.55651640  0.19443576  1
  V  V7  1  0.75000000  0.44348360  0.80556424  1
  V  V8  1  0.75000000  0.64061858  0.82751391  1
  V  V9  1  0.25000000  0.35938142  0.17248609  1
  V  V10  1  0.25000000  0.85938142  0.32751391  1
  V  V11  1  0.75000000  0.14061858  0.67248609  1
  Zn  Zn12  1  0.75000000  0.95232729  0.14911000  1
  Zn  Zn13  1  0.25000000  0.04767271  0.85089000  1
  Zn  Zn14  1  0.25000000  0.54767271  0.64911000  1
  Zn  Zn15  1  0.75000000  0.45232729  0.35089000  1
  O  O16  1  0.00235858  0.64357244  0.69195210  1
  O  O17  1  0.99764142  0.35642756  0.30804790  1
  O  O18  1  0.99764142  0.85642756  0.19195210  1
  O  O19  1  0.50235858  0.35642756  0.30804790  1
  O  O20  1  0.00235858  0.14357244  0.80804790  1
  O  O21  1  0.49764142  0.64357244  0.69195210  1
  O  O22  1  0.49764142  0.14357244  0.80804790  1
  O  O23  1  0.50235858  0.85642756  0.19195210  1
  O  O24  1  0.00197653  0.95003804  0.83123235  1
  O  O25  1  0.99802347  0.04996196  0.16876765  1
  O  O26  1  0.99802347  0.54996196  0.33123235  1
  O  O27  1  0.50197653  0.04996196  0.16876765  1
  O  O28  1  0.00197653  0.45003804  0.66876765  1
  O  O29  1  0.49802347  0.95003804  0.83123235  1
  O  O30  1  0.49802347  0.45003804  0.66876765  1
  O  O31  1  0.50197653  0.54996196  0.33123235  1
  O  O32  1  0.75000000  0.53874868  0.94860878  1
  O  O33  1  0.25000000  0.46125132  0.05139122  1
  O  O34  1  0.25000000  0.96125132  0.44860878  1
  O  O35  1  0.75000000  0.03874868  0.55139122  1
  O  O36  1  0.75000000  0.72950198  0.95892261  1
  O  O37  1  0.25000000  0.27049802  0.04107739  1
  O  O38  1  0.25000000  0.77049802  0.45892261  1
  O  O39  1  0.75000000  0.22950198  0.54107739  1
  O  O40  1  0.75000000  0.84906620  0.58150517  1
  O  O41  1  0.25000000  0.15093380  0.41849483  1
  O  O42  1  0.25000000  0.65093380  0.08150517  1
  O  O43  1  0.75000000  0.34906620  0.91849483  1
