# generated using pymatgen
data_Ba2V2FeO9
_symmetry_space_group_name_H-M   'P 1'
_cell_length_a   6.06356342
_cell_length_b   8.27226676
_cell_length_c   9.33631352
_cell_angle_alpha   113.31193502
_cell_angle_beta   90.00000000
_cell_angle_gamma   90.00000000
_symmetry_Int_Tables_number   1
_chemical_formula_structural   Ba2V2FeO9
_chemical_formula_sum   'Ba4 V4 Fe2 O18'
_cell_volume   430.07353422
_cell_formula_units_Z   2
loop_
 _symmetry_equiv_pos_site_id
 _symmetry_equiv_pos_as_xyz
  1  'x, y, z'
loop_
 _atom_site_type_symbol
 _atom_site_label
 _atom_site_symmetry_multiplicity
 _atom_site_fract_x
 _atom_site_fract_y
 _atom_site_fract_z
 _atom_site_occupancy
  Ba  Ba0  1  0.75000000  0.31717965  0.41027302  1
  Ba  Ba1  1  0.25000000  0.68282035  0.58972698  1
  Ba  Ba2  1  0.75000000  0.72593693  0.23721456  1
  Ba  Ba3  1  0.25000000  0.27406307  0.76278544  1
  V  V4  1  0.75000000  0.95542329  0.66821609  1
  V  V5  1  0.25000000  0.04457671  0.33178391  1
  V  V6  1  0.75000000  0.56907620  0.82339511  1
  V  V7  1  0.25000000  0.43092380  0.17660489  1
  Fe  Fe8  1  -0.00000000  0.00000000  0.00000000  1
  Fe  Fe9  1  0.50000000  0.00000000  0.00000000  1
  O  O10  1  0.75000000  0.45969448  0.94286819  1
  O  O11  1  0.25000000  0.54030552  0.05713181  1
  O  O12  1  0.49350269  0.00285032  0.21406573  1
  O  O13  1  0.50649731  0.99714968  0.78593427  1
  O  O14  1  0.99350269  0.99714968  0.78593427  1
  O  O15  1  0.00649731  0.00285032  0.21406573  1
  O  O16  1  0.75000000  0.73875612  0.54532738  1
  O  O17  1  0.25000000  0.26124388  0.45467262  1
  O  O18  1  0.75000000  0.07741433  0.55791326  1
  O  O19  1  0.25000000  0.92258567  0.44208674  1
  O  O20  1  0.97759021  0.50172322  0.70221213  1
  O  O21  1  0.02240979  0.49827678  0.29778787  1
  O  O22  1  0.47759021  0.49827678  0.29778787  1
  O  O23  1  0.52240979  0.50172322  0.70221213  1
  O  O24  1  0.75000000  0.80780877  0.94684120  1
  O  O25  1  0.25000000  0.19219123  0.05315880  1
  O  O26  1  0.75000000  0.14546593  0.05765175  1
  O  O27  1  0.25000000  0.85453407  0.94234825  1
