# generated using pymatgen
data_ZrMoWO8
_symmetry_space_group_name_H-M   'P 1'
_cell_length_a   8.39608907
_cell_length_b   8.39608905
_cell_length_c   8.39608907
_cell_angle_alpha   72.74070283
_cell_angle_beta   72.74069609
_cell_angle_gamma   72.74070283
_symmetry_Int_Tables_number   1
_chemical_formula_structural   ZrMoWO8
_chemical_formula_sum   'Zr3 Mo3 W3 O24'
_cell_volume   525.45474103
_cell_formula_units_Z   3
loop_
 _symmetry_equiv_pos_site_id
 _symmetry_equiv_pos_as_xyz
  1  'x, y, z'
loop_
 _atom_site_type_symbol
 _atom_site_label
 _atom_site_symmetry_multiplicity
 _atom_site_fract_x
 _atom_site_fract_y
 _atom_site_fract_z
 _atom_site_occupancy
  Zr  Zr0  1  0.99694254  0.99694254  0.99694254  1
  Zr  Zr1  1  0.70494903  0.70494903  0.70494903  1
  Zr  Zr2  1  0.29644906  0.29644906  0.29644906  1
  Mo  Mo3  1  0.73966830  0.42682923  0.13818582  1
  Mo  Mo4  1  0.42682923  0.13818582  0.73966830  1
  Mo  Mo5  1  0.13818582  0.73966830  0.42682923  1
  W  W6  1  0.26519018  0.56637679  0.86152320  1
  W  W7  1  0.56637679  0.86152320  0.26519018  1
  W  W8  1  0.86152320  0.26519018  0.56637679  1
  O  O9  1  0.18633625  0.55181095  0.69149527  1
  O  O10  1  0.55181095  0.69149527  0.18633625  1
  O  O11  1  0.69149527  0.18633625  0.55181095  1
  O  O12  1  0.81278585  0.44370056  0.31092006  1
  O  O13  1  0.44370056  0.31092006  0.81278585  1
  O  O14  1  0.31092006  0.81278585  0.44370056  1
  O  O15  1  0.46987198  0.62880859  0.80178127  1
  O  O16  1  0.62880859  0.80178127  0.46987198  1
  O  O17  1  0.80178127  0.46987198  0.62880859  1
  O  O18  1  0.53519538  0.37100751  0.19590606  1
  O  O19  1  0.37100751  0.19590606  0.53519538  1
  O  O20  1  0.19590606  0.53519538  0.37100751  1
  O  O21  1  0.21283860  0.41912183  0.07310312  1
  O  O22  1  0.41912183  0.07310312  0.21283860  1
  O  O23  1  0.07310312  0.21283860  0.41912183  1
  O  O24  1  0.78676035  0.57839597  0.93208093  1
  O  O25  1  0.57839597  0.93208093  0.78676035  1
  O  O26  1  0.93208093  0.78676035  0.57839597  1
  O  O27  1  0.12120991  0.76709327  0.91694959  1
  O  O28  1  0.76709327  0.91694959  0.12120991  1
  O  O29  1  0.91694959  0.12120991  0.76709327  1
  O  O30  1  0.88179384  0.23089008  0.08402864  1
  O  O31  1  0.23089008  0.08402864  0.88179384  1
  O  O32  1  0.08402864  0.88179384  0.23089008  1
