# generated using pymatgen
data_BaLiGd2(MoO4)4
_symmetry_space_group_name_H-M   'P 1'
_cell_length_a   5.31980737
_cell_length_b   6.94767092
_cell_length_c   19.47886535
_cell_angle_alpha   89.49270980
_cell_angle_beta   88.67485679
_cell_angle_gamma   67.48978224
_symmetry_Int_Tables_number   1
_chemical_formula_structural   BaLiGd2(MoO4)4
_chemical_formula_sum   'Ba2 Li2 Gd4 Mo8 O32'
_cell_volume   664.91463951
_cell_formula_units_Z   2
loop_
 _symmetry_equiv_pos_site_id
 _symmetry_equiv_pos_as_xyz
  1  'x, y, z'
loop_
 _atom_site_type_symbol
 _atom_site_label
 _atom_site_symmetry_multiplicity
 _atom_site_fract_x
 _atom_site_fract_y
 _atom_site_fract_z
 _atom_site_occupancy
  Ba  Ba0  1  0.47150272  0.05699456  0.75000000  1
  Ba  Ba1  1  0.52849728  0.94300544  0.25000000  1
  Li  Li2  1  0.18178488  0.63643024  0.75000000  1
  Li  Li3  1  0.81821512  0.36356976  0.25000000  1
  Gd  Gd4  1  0.35573949  0.28869549  0.96779599  1
  Gd  Gd5  1  0.64426051  0.71130451  0.03220401  1
  Gd  Gd6  1  0.35556503  0.28869549  0.53220401  1
  Gd  Gd7  1  0.64443497  0.71130451  0.46779599  1
  Mo  Mo8  1  0.76204938  0.47834578  0.84998314  1
  Mo  Mo9  1  0.23795062  0.52165422  0.15001686  1
  Mo  Mo10  1  0.75960484  0.47834578  0.65001686  1
  Mo  Mo11  1  0.24039516  0.52165422  0.34998314  1
  Mo  Mo12  1  0.07023891  0.87892314  0.90696799  1
  Mo  Mo13  1  0.92976109  0.12107686  0.09303201  1
  Mo  Mo14  1  0.05083796  0.87892314  0.59303201  1
  Mo  Mo15  1  0.94916204  0.12107686  0.40696799  1
  O  O16  1  0.57075819  0.39926617  0.71338196  1
  O  O17  1  0.42924181  0.60073383  0.28661804  1
  O  O18  1  0.02997564  0.39926617  0.78661804  1
  O  O19  1  0.97002436  0.60073383  0.21338196  1
  O  O20  1  0.21441033  0.83005728  0.67453322  1
  O  O21  1  0.78558967  0.16994272  0.32546678  1
  O  O22  1  0.95553238  0.83005728  0.82546678  1
  O  O23  1  0.04446762  0.16994272  0.17453322  1
  O  O24  1  0.27944140  0.96355512  0.53589938  1
  O  O25  1  0.72055860  0.03644488  0.46410062  1
  O  O26  1  0.75700348  0.96355512  0.96410062  1
  O  O27  1  0.24299652  0.03644488  0.03589938  1
  O  O28  1  0.50232656  0.70934045  0.82005046  1
  O  O29  1  0.49767344  0.29065955  0.17994954  1
  O  O30  1  0.78833299  0.70934045  0.67994954  1
  O  O31  1  0.21166701  0.29065955  0.32005046  1
  O  O32  1  0.60028804  0.29279675  0.86362841  1
  O  O33  1  0.39971196  0.70720325  0.13637159  1
  O  O34  1  0.10691521  0.29279675  0.63637159  1
  O  O35  1  0.89308479  0.70720325  0.36362841  1
  O  O36  1  0.28516832  0.91121510  0.39463629  1
  O  O37  1  0.71483168  0.08878490  0.60536371  1
  O  O38  1  0.80361658  0.91121510  0.10536371  1
  O  O39  1  0.19638342  0.08878490  0.89463629  1
  O  O40  1  0.33005689  0.65867833  0.95498198  1
  O  O41  1  0.66994311  0.34132167  0.04501802  1
  O  O42  1  0.01126477  0.65867833  0.54501802  1
  O  O43  1  0.98873523  0.34132167  0.45498198  1
  O  O44  1  0.57577467  0.52053900  0.56835522  1
  O  O45  1  0.42422533  0.47946100  0.43164478  1
  O  O46  1  0.90368633  0.52053900  0.93164478  1
  O  O47  1  0.09631367  0.47946100  0.06835522  1
