# generated using pymatgen
data_AuCl4
_symmetry_space_group_name_H-M   'P 1'
_cell_length_a   11.05154149
_cell_length_b   11.05154149
_cell_length_c   11.05154149
_cell_angle_alpha   79.14634991
_cell_angle_beta   126.45209745
_cell_angle_gamma   126.45209745
_symmetry_Int_Tables_number   1
_chemical_formula_structural   AuCl4
_chemical_formula_sum   'Au2 Cl8'
_cell_volume   844.52364604
_cell_formula_units_Z   2
loop_
 _symmetry_equiv_pos_site_id
 _symmetry_equiv_pos_as_xyz
  1  'x, y, z'
loop_
 _atom_site_type_symbol
 _atom_site_label
 _atom_site_symmetry_multiplicity
 _atom_site_fract_x
 _atom_site_fract_y
 _atom_site_fract_z
 _atom_site_occupancy
  Au  Au0  1  0.00000000  0.00000000  0.00000000  1
  Au  Au1  1  0.50000000  0.75000000  0.25000000  1
  Cl  Cl2  1  0.73095195  0.75368223  0.48463418  1
  Cl  Cl3  1  0.26904805  0.75368223  0.02273028  1
  Cl  Cl4  1  0.76904805  0.77273028  0.00368223  1
  Cl  Cl5  1  0.23095195  0.99631777  0.22726972  1
  Cl  Cl6  1  0.76904805  0.99631777  0.76536582  1
  Cl  Cl7  1  0.23095195  0.23463418  0.00368223  1
  Cl  Cl8  1  0.73095195  0.97726972  0.24631777  1
  Cl  Cl9  1  0.26904805  0.51536582  0.24631777  1
