# generated using pymatgen
data_Ag3Pd13Pb6
_symmetry_space_group_name_H-M   'P 1'
_cell_length_a   9.11823195
_cell_length_b   9.11823195
_cell_length_c   17.15035442
_cell_angle_alpha   90.00000000
_cell_angle_beta   90.00000000
_cell_angle_gamma   120.00000284
_symmetry_Int_Tables_number   1
_chemical_formula_structural   Ag3Pd13Pb6
_chemical_formula_sum   'Ag9 Pd39 Pb18'
_cell_volume   1234.88066271
_cell_formula_units_Z   3
loop_
 _symmetry_equiv_pos_site_id
 _symmetry_equiv_pos_as_xyz
  1  'x, y, z'
loop_
 _atom_site_type_symbol
 _atom_site_label
 _atom_site_symmetry_multiplicity
 _atom_site_fract_x
 _atom_site_fract_y
 _atom_site_fract_z
 _atom_site_occupancy
  Ag  Ag0  1  0.50976705  0.50976705  0.16666700  1
  Ag  Ag1  1  1.00000000  0.49023295  0.83333300  1
  Ag  Ag2  1  0.49023295  1.00000000  0.50000000  1
  Ag  Ag3  1  0.81067519  0.12026515  0.92693713  1
  Ag  Ag4  1  0.30958996  0.18932481  0.59360413  1
  Ag  Ag5  1  0.69041004  0.87973485  0.07306287  1
  Ag  Ag6  1  0.87973485  0.69041004  0.26027013  1
  Ag  Ag7  1  0.12026515  0.81067519  0.40639587  1
  Ag  Ag8  1  0.18932481  0.30958996  0.73972987  1
  Pd  Pd9  1  0.83744721  0.18045063  0.76072616  1
  Pd  Pd10  1  0.34300342  0.16255279  0.42739316  1
  Pd  Pd11  1  0.65699658  0.81954937  0.23927384  1
  Pd  Pd12  1  0.81954937  0.65699658  0.09405916  1
  Pd  Pd13  1  0.18045063  0.83744721  0.57260684  1
  Pd  Pd14  1  0.16255279  0.34300342  0.90594084  1
  Pd  Pd15  1  0.51382066  0.51382066  0.66666700  1
  Pd  Pd16  1  1.00000000  0.48617934  0.33333300  1
  Pd  Pd17  1  0.48617934  1.00000000  -0.00000000  1
  Pd  Pd18  1  0.65649837  0.84581865  0.57071999  1
  Pd  Pd19  1  0.18932028  0.34350163  0.23738699  1
  Pd  Pd20  1  0.81067972  0.15418135  0.42928001  1
  Pd  Pd21  1  0.15418135  0.81067972  0.90405299  1
  Pd  Pd22  1  0.84581865  0.65649837  0.76261301  1
  Pd  Pd23  1  0.34350163  0.18932028  0.09594701  1
  Pd  Pd24  1  0.98421978  0.98421978  0.66666700  1
  Pd  Pd25  1  0.00000000  0.01578022  0.33333300  1
  Pd  Pd26  1  0.01578022  0.00000000  -0.00000000  1
  Pd  Pd27  1  0.50041115  0.50315182  0.83122190  1
  Pd  Pd28  1  0.00274067  0.49958885  0.49788890  1
  Pd  Pd29  1  0.99725933  0.49684818  0.16877810  1
  Pd  Pd30  1  0.49684818  0.99725933  0.16455490  1
  Pd  Pd31  1  0.50315182  0.50041115  0.50211110  1
  Pd  Pd32  1  0.49958885  0.00274067  0.83544510  1
  Pd  Pd33  1  0.68310045  0.34605318  0.91077616  1
  Pd  Pd34  1  0.66295273  0.31689955  0.57744316  1
  Pd  Pd35  1  0.33704727  0.65394682  0.08922384  1
  Pd  Pd36  1  0.65394682  0.33704727  0.24410916  1
  Pd  Pd37  1  0.34605318  0.68310045  0.42255684  1
  Pd  Pd38  1  0.31689955  0.66295273  0.75589084  1
  Pd  Pd39  1  0.99425527  0.50378611  0.66791046  1
  Pd  Pd40  1  0.50953084  0.00574473  0.33457746  1
  Pd  Pd41  1  0.49046916  0.49621389  0.33208954  1
  Pd  Pd42  1  0.49621389  0.49046916  0.00124346  1
  Pd  Pd43  1  0.50378611  0.99425527  0.66542254  1
  Pd  Pd44  1  0.00574473  0.50953084  0.99875654  1
  Pd  Pd45  1  0.99592336  0.99592336  0.16666700  1
  Pd  Pd46  1  0.00000000  0.00407664  0.83333300  1
  Pd  Pd47  1  0.00407664  0.00000000  0.50000000  1
  Pb  Pb48  1  0.38572429  0.69256416  0.92330214  1
  Pb  Pb49  1  0.30683986  0.61427571  0.58996914  1
  Pb  Pb50  1  0.69316014  0.30743584  0.07669786  1
  Pb  Pb51  1  0.30743584  0.69316014  0.25663514  1
  Pb  Pb52  1  0.69256416  0.38572429  0.41003086  1
  Pb  Pb53  1  0.61427571  0.30683986  0.74336486  1
  Pb  Pb54  1  0.88907425  0.19294844  0.59454877  1
  Pb  Pb55  1  0.30387418  0.11092575  0.26121577  1
  Pb  Pb56  1  0.69612582  0.80705156  0.40545123  1
  Pb  Pb57  1  0.80705156  0.69612582  0.92788177  1
  Pb  Pb58  1  0.19294844  0.88907425  0.73878423  1
  Pb  Pb59  1  0.11092575  0.30387418  0.07211823  1
  Pb  Pb60  1  0.66824761  0.83552468  0.74860913  1
  Pb  Pb61  1  0.16727707  0.33175239  0.41527613  1
  Pb  Pb62  1  0.83272293  0.16447532  0.25139087  1
  Pb  Pb63  1  0.16447532  0.83272293  0.08194213  1
  Pb  Pb64  1  0.83552468  0.66824761  0.58472387  1
  Pb  Pb65  1  0.33175239  0.16727707  0.91805787  1
