# generated using pymatgen
data_Yb2Ti12(CuO4)9
_symmetry_space_group_name_H-M   'P 1'
_cell_length_a   6.44411909
_cell_length_b   10.50405603
_cell_length_c   10.50405603
_cell_angle_alpha   120.00000000
_cell_angle_beta   90.00000000
_cell_angle_gamma   90.00000000
_symmetry_Int_Tables_number   1
_chemical_formula_structural   Yb2Ti12(CuO4)9
_chemical_formula_sum   'Yb2 Ti12 Cu9 O36'
_cell_volume   615.75542783
_cell_formula_units_Z   1
loop_
 _symmetry_equiv_pos_site_id
 _symmetry_equiv_pos_as_xyz
  1  'x, y, z'
loop_
 _atom_site_type_symbol
 _atom_site_label
 _atom_site_symmetry_multiplicity
 _atom_site_fract_x
 _atom_site_fract_y
 _atom_site_fract_z
 _atom_site_occupancy
  Yb  Yb0  1  0.00120180  -0.00000000  -0.00000000  1
  Yb  Yb1  1  0.66546520  0.66666700  0.33333300  1
  Ti  Ti2  1  0.16986100  0.65596867  0.82627875  1
  Ti  Ti3  1  0.83333300  0.33333300  0.16666700  1
  Ti  Ti4  1  0.49680600  0.01069833  0.50705425  1
  Ti  Ti5  1  0.83333300  0.33333300  0.66666700  1
  Ti  Ti6  1  0.49247892  0.00000000  0.00000000  1
  Ti  Ti7  1  0.17418808  0.66666700  0.33333300  1
  Ti  Ti8  1  0.16986100  0.17031108  0.34403133  1
  Ti  Ti9  1  0.83333300  0.83333300  0.66666700  1
  Ti  Ti10  1  0.49680600  0.49635592  0.98930167  1
  Ti  Ti11  1  0.49680600  0.49294575  0.50364408  1
  Ti  Ti12  1  0.16986100  0.17372125  0.82968892  1
  Ti  Ti13  1  0.83333300  0.83333300  0.16666700  1
  Cu  Cu14  1  0.67179390  0.67055684  0.83519253  1
  Cu  Cu15  1  0.33333300  0.33333300  0.16666700  1
  Cu  Cu16  1  0.99487310  0.99611016  0.49814047  1
  Cu  Cu17  1  0.99487310  0.50185953  0.49796969  1
  Cu  Cu18  1  0.67179390  0.16480747  0.83536331  1
  Cu  Cu19  1  0.33333300  0.83333300  0.16666700  1
  Cu  Cu20  1  0.67179390  0.16463669  0.32944316  1
  Cu  Cu21  1  0.33333300  0.83333300  0.66666700  1
  Cu  Cu22  1  0.99487310  0.50203031  0.00388984  1
  O  O23  1  0.24222047  0.06366226  0.62127590  1
  O  O24  1  0.91715473  0.74123001  0.95792213  1
  O  O25  1  0.58058537  0.40603206  0.29087409  1
  O  O26  1  0.34772574  0.52287761  0.17431517  1
  O  O27  1  0.00337071  0.18318492  0.50185811  1
  O  O28  1  0.68398379  0.85750228  0.84165929  1
  O  O29  1  0.98268321  0.80916472  0.49167371  1
  O  O30  1  0.66329529  0.48348108  0.83147589  1
  O  O31  1  0.31894126  0.14378939  0.15901783  1
  O  O32  1  0.08608063  0.26063394  0.04245991  1
  O  O33  1  0.74951227  0.92543699  0.37541087  1
  O  O34  1  0.42444653  0.60300474  0.71205710  1
  O  O35  1  0.42444653  0.28794290  0.89094665  1
  O  O36  1  0.08608063  0.95754009  0.21817503  1
  O  O37  1  0.74951227  0.62458913  0.55002612  1
  O  O38  1  0.66329529  0.16852411  0.65200619  1
  O  O39  1  0.31894126  0.84098217  0.98477155  1
  O  O40  1  0.98268321  0.50832629  0.31749001  1
  O  O41  1  0.68398379  0.15834071  0.01584299  1
  O  O42  1  0.34772574  0.82568483  0.34856145  1
  O  O43  1  0.00337071  0.49814189  0.68132781  1
  O  O44  1  0.91715473  0.04207787  0.78330688  1
  O  O45  1  0.58058537  0.70912591  0.11515897  1
  O  O46  1  0.24222047  0.37872410  0.44238635  1
  O  O47  1  0.00337071  0.31867219  0.81681508  1
  O  O48  1  0.68398379  0.98415701  0.14249772  1
  O  O49  1  0.34772574  0.65143855  0.47712239  1
  O  O50  1  0.58058537  0.88484103  0.59396794  1
  O  O51  1  0.24222047  0.55761365  0.93633774  1
  O  O52  1  0.91715473  0.21669312  0.25876999  1
  O  O53  1  0.74951227  0.44997388  0.07456301  1
  O  O54  1  0.42444653  0.10905335  0.39699526  1
  O  O55  1  0.08608063  0.78182497  0.73936606  1
  O  O56  1  0.31894126  0.01522845  0.85621061  1
  O  O57  1  0.98268321  0.68250999  0.19083528  1
  O  O58  1  0.66329529  0.34799381  0.51651892  1
