# generated using pymatgen
data_V6Ga7
_symmetry_space_group_name_H-M   'P 1'
_cell_length_a   7.91381817
_cell_length_b   7.91381817
_cell_length_c   8.02279038
_cell_angle_alpha   69.90620564
_cell_angle_beta   69.90620564
_cell_angle_gamma   109.17322283
_symmetry_Int_Tables_number   1
_chemical_formula_structural   V6Ga7
_chemical_formula_sum   'V12 Ga14'
_cell_volume   382.17783280
_cell_formula_units_Z   2
loop_
 _symmetry_equiv_pos_site_id
 _symmetry_equiv_pos_as_xyz
  1  'x, y, z'
loop_
 _atom_site_type_symbol
 _atom_site_label
 _atom_site_symmetry_multiplicity
 _atom_site_fract_x
 _atom_site_fract_y
 _atom_site_fract_z
 _atom_site_occupancy
  V  V0  1  0.33332943  0.33332943  0.66027804  1
  V  V1  1  0.66601820  0.00662929  0.99179394  1
  V  V2  1  0.00662929  0.66601820  0.99179394  1
  V  V3  1  0.00179315  0.00179315  0.34306971  1
  V  V4  1  0.79492471  0.79492471  0.20727107  1
  V  V5  1  0.21173130  0.99912436  0.99307306  1
  V  V6  1  0.99912436  0.21173130  0.99307306  1
  V  V7  1  0.00257471  0.00257471  0.78439772  1
  V  V8  1  0.99457499  0.65485830  0.35048563  1
  V  V9  1  0.64793331  0.64793331  0.01202938  1
  V  V10  1  0.65485830  0.99457499  0.35048563  1
  V  V11  1  0.34204871  0.34204871  0.00851629  1
  Ga  Ga12  1  0.36418099  0.00129060  0.63730016  1
  Ga  Ga13  1  0.00129060  0.36418099  0.63730016  1
  Ga  Ga14  1  0.39316535  0.66233210  0.34597701  1
  Ga  Ga15  1  0.65251305  0.65251305  0.61838403  1
  Ga  Ga16  1  0.66233210  0.39316535  0.34597701  1
  Ga  Ga17  1  0.61358403  0.27411995  0.73582155  1
  Ga  Ga18  1  0.34131567  0.71604644  0.01830589  1
  Ga  Ga19  1  0.34136748  0.99241493  0.26555740  1
  Ga  Ga20  1  0.99241493  0.34136748  0.26555740  1
  Ga  Ga21  1  0.71604644  0.34131567  0.01830589  1
  Ga  Ga22  1  0.27411995  0.61358403  0.73582155  1
  Ga  Ga23  1  0.98910526  0.72946946  0.65768257  1
  Ga  Ga24  1  0.27355424  0.27355424  0.37405930  1
  Ga  Ga25  1  0.72946946  0.98910526  0.65768257  1
