# generated using pymatgen
data_VPPb3O8
_symmetry_space_group_name_H-M   'P 1'
_cell_length_a   5.66150042
_cell_length_b   5.66150025
_cell_length_c   7.63594512
_cell_angle_alpha   68.24035500
_cell_angle_beta   111.75964667
_cell_angle_gamma   119.99999894
_symmetry_Int_Tables_number   1
_chemical_formula_structural   VPPb3O8
_chemical_formula_sum   'V1 P1 Pb3 O8'
_cell_volume   191.55971969
_cell_formula_units_Z   1
loop_
 _symmetry_equiv_pos_site_id
 _symmetry_equiv_pos_as_xyz
  1  'x, y, z'
loop_
 _atom_site_type_symbol
 _atom_site_label
 _atom_site_symmetry_multiplicity
 _atom_site_fract_x
 _atom_site_fract_y
 _atom_site_fract_z
 _atom_site_occupancy
  V  V0  1  0.40320369  0.59679631  0.20961108  1
  P  P1  1  0.59820685  0.40179315  0.79462054  1
  Pb  Pb2  1  0.78622087  0.21377913  0.35866261  1
  Pb  Pb3  1  0.20699364  0.79300636  0.62098091  1
  Pb  Pb4  1  0.99593525  0.00406475  0.98780574  1
  O  O5  1  0.67374895  0.32625105  0.02124686  1
  O  O6  1  0.31967984  0.68032016  0.95903951  1
  O  O7  1  0.72370873  0.27629127  0.71946523  1
  O  O8  1  0.27204777  0.27629127  0.71946523  1
  O  O9  1  0.72370873  0.72795223  0.71946523  1
  O  O10  1  0.26536609  0.73463391  0.29654568  1
  O  O11  1  0.76581351  0.73463391  0.29654568  1
  O  O12  1  0.26536609  0.23418649  0.29654568  1
