# generated using pymatgen
data_Y3ScN4
_symmetry_space_group_name_H-M   'P 1'
_cell_length_a   3.41387122
_cell_length_b   3.41387122
_cell_length_c   11.30945742
_cell_angle_alpha   81.31917884
_cell_angle_beta   98.68082116
_cell_angle_gamma   120.00000000
_symmetry_Int_Tables_number   1
_chemical_formula_structural   Y3ScN4
_chemical_formula_sum   'Y3 Sc1 N4'
_cell_volume   112.40069397
_cell_formula_units_Z   1
loop_
 _symmetry_equiv_pos_site_id
 _symmetry_equiv_pos_as_xyz
  1  'x, y, z'
loop_
 _atom_site_type_symbol
 _atom_site_label
 _atom_site_symmetry_multiplicity
 _atom_site_fract_x
 _atom_site_fract_y
 _atom_site_fract_z
 _atom_site_occupancy
  Y  Y0  1  0.74750640  0.25249360  0.24251921  1
  Y  Y1  1  0.50000000  0.50000000  0.50000000  1
  Y  Y2  1  0.25249360  0.74750640  0.75748079  1
  Sc  Sc3  1  0.00000000  -0.00000000  0.00000000  1
  N  N4  1  0.62853465  0.37146535  0.88560395  1
  N  N5  1  0.87618782  0.12381218  0.62856347  1
  N  N6  1  0.37146535  0.62853465  0.11439605  1
  N  N7  1  0.12381218  0.87618782  0.37143653  1
