# generated using pymatgen
data_Mg30CoCO32
_symmetry_space_group_name_H-M   'P 1'
_cell_length_a   8.51723282
_cell_length_b   8.49631251
_cell_length_c   8.49631251
_cell_angle_alpha   90.00000000
_cell_angle_beta   90.00000000
_cell_angle_gamma   90.00000000
_symmetry_Int_Tables_number   1
_chemical_formula_structural   Mg30CoCO32
_chemical_formula_sum   'Mg30 Co1 C1 O32'
_cell_volume   614.83626447
_cell_formula_units_Z   1
loop_
 _symmetry_equiv_pos_site_id
 _symmetry_equiv_pos_as_xyz
  1  'x, y, z'
loop_
 _atom_site_type_symbol
 _atom_site_label
 _atom_site_symmetry_multiplicity
 _atom_site_fract_x
 _atom_site_fract_y
 _atom_site_fract_z
 _atom_site_occupancy
  Mg  Mg0  1  0.00000000  0.00000000  0.50000000  1
  Mg  Mg1  1  0.00000000  0.50000000  0.00000000  1
  Mg  Mg2  1  0.50000000  0.00000000  0.00000000  1
  Mg  Mg3  1  0.50000000  0.00000000  0.50000000  1
  Mg  Mg4  1  0.50000000  0.50000000  0.00000000  1
  Mg  Mg5  1  0.50000000  0.50000000  0.50000000  1
  Mg  Mg6  1  0.00000000  0.25184660  0.25184660  1
  Mg  Mg7  1  0.00000000  0.25184660  0.74815340  1
  Mg  Mg8  1  0.00000000  0.74815340  0.25184660  1
  Mg  Mg9  1  0.00000000  0.74815340  0.74815340  1
  Mg  Mg10  1  0.50000000  0.25011721  0.25011721  1
  Mg  Mg11  1  0.50000000  0.25011721  0.74988279  1
  Mg  Mg12  1  0.50000000  0.74988279  0.25011721  1
  Mg  Mg13  1  0.50000000  0.74988279  0.74988279  1
  Mg  Mg14  1  0.24944288  0.00000000  0.24903888  1
  Mg  Mg15  1  0.24944288  0.00000000  0.75096112  1
  Mg  Mg16  1  0.24827084  0.50000000  0.25141171  1
  Mg  Mg17  1  0.24827084  0.50000000  0.74858829  1
  Mg  Mg18  1  0.75055712  0.00000000  0.24903888  1
  Mg  Mg19  1  0.75055712  0.00000000  0.75096112  1
  Mg  Mg20  1  0.75172916  0.50000000  0.25141171  1
  Mg  Mg21  1  0.75172916  0.50000000  0.74858829  1
  Mg  Mg22  1  0.24944288  0.24903888  0.00000000  1
  Mg  Mg23  1  0.24827084  0.25141171  0.50000000  1
  Mg  Mg24  1  0.24944288  0.75096112  0.00000000  1
  Mg  Mg25  1  0.24827084  0.74858829  0.50000000  1
  Mg  Mg26  1  0.75055712  0.24903888  0.00000000  1
  Mg  Mg27  1  0.75172916  0.25141171  0.50000000  1
  Mg  Mg28  1  0.75055712  0.75096112  0.00000000  1
  Mg  Mg29  1  0.75172916  0.74858829  0.50000000  1
  Co  Co30  1  0.00000000  0.00000000  0.00000000  1
  C  C31  1  0.00000000  0.50000000  0.50000000  1
  O  O32  1  0.25635357  0.00000000  0.00000000  1
  O  O33  1  0.24883823  0.00000000  0.50000000  1
  O  O34  1  0.24883823  0.50000000  0.00000000  1
  O  O35  1  0.25130183  0.50000000  0.50000000  1
  O  O36  1  0.74364643  0.00000000  0.00000000  1
  O  O37  1  0.75116177  0.00000000  0.50000000  1
  O  O38  1  0.75116177  0.50000000  0.00000000  1
  O  O39  1  0.74869817  0.50000000  0.50000000  1
  O  O40  1  0.24902215  0.25031972  0.25031972  1
  O  O41  1  0.24902215  0.25031972  0.74968028  1
  O  O42  1  0.24902215  0.74968028  0.25031972  1
  O  O43  1  0.24902215  0.74968028  0.74968028  1
  O  O44  1  0.75097785  0.25031972  0.25031972  1
  O  O45  1  0.75097785  0.25031972  0.74968028  1
  O  O46  1  0.75097785  0.74968028  0.25031972  1
  O  O47  1  0.75097785  0.74968028  0.74968028  1
  O  O48  1  0.00000000  0.00000000  0.25069757  1
  O  O49  1  0.00000000  0.00000000  0.74930243  1
  O  O50  1  0.00000000  0.50000000  0.24819956  1
  O  O51  1  0.00000000  0.50000000  0.75180044  1
  O  O52  1  0.50000000  0.00000000  0.25114797  1
  O  O53  1  0.50000000  0.00000000  0.74885203  1
  O  O54  1  0.50000000  0.50000000  0.25057722  1
  O  O55  1  0.50000000  0.50000000  0.74942278  1
  O  O56  1  0.00000000  0.25069757  0.00000000  1
  O  O57  1  0.00000000  0.24819956  0.50000000  1
  O  O58  1  0.00000000  0.74930243  0.00000000  1
  O  O59  1  0.00000000  0.75180044  0.50000000  1
  O  O60  1  0.50000000  0.25114797  0.00000000  1
  O  O61  1  0.50000000  0.25057722  0.50000000  1
  O  O62  1  0.50000000  0.74885203  0.00000000  1
  O  O63  1  0.50000000  0.74942278  0.50000000  1
