# generated using pymatgen
data_UAl7Fe3Cu2
_symmetry_space_group_name_H-M   'P 1'
_cell_length_a   5.01784542
_cell_length_b   6.69671767
_cell_length_c   6.59523503
_cell_angle_alpha   97.85039399
_cell_angle_beta   112.35935704
_cell_angle_gamma   67.99734131
_symmetry_Int_Tables_number   1
_chemical_formula_structural   UAl7Fe3Cu2
_chemical_formula_sum   'U1 Al7 Fe3 Cu2'
_cell_volume   190.02565876
_cell_formula_units_Z   1
loop_
 _symmetry_equiv_pos_site_id
 _symmetry_equiv_pos_as_xyz
  1  'x, y, z'
loop_
 _atom_site_type_symbol
 _atom_site_label
 _atom_site_symmetry_multiplicity
 _atom_site_fract_x
 _atom_site_fract_y
 _atom_site_fract_z
 _atom_site_occupancy
  U  U0  1  0.00802707  0.99307031  0.00912444  1
  Al  Al1  1  0.65642993  0.33401441  0.64687426  1
  Al  Al2  1  0.34606795  0.66053152  0.35266742  1
  Al  Al3  1  0.99572430  0.35207794  0.34352654  1
  Al  Al4  1  0.98458591  0.66905009  0.63822191  1
  Al  Al5  1  0.27747410  0.21929347  0.77424166  1
  Al  Al6  1  0.50315397  0.78854779  0.79485572  1
  Al  Al7  1  0.50696687  0.20152530  0.21545904  1
  Fe  Fe8  1  0.72587314  0.78187030  0.23361657  1
  Fe  Fe9  1  0.49424901  0.00070213  0.49702500  1
  Fe  Fe10  1  0.00207387  0.00070213  0.49702500  1
  Cu  Cu11  1  0.49833947  0.49930732  0.99868121  1
  Cu  Cu12  1  0.00103443  0.49930732  0.99868121  1
