# generated using pymatgen
data_Y2Sc2TiCo10
_symmetry_space_group_name_H-M   'P 1'
_cell_length_a   4.93898427
_cell_length_b   4.93898427
_cell_length_c   20.50961818
_cell_angle_alpha   83.08443434
_cell_angle_beta   90.00000000
_cell_angle_gamma   120.00000000
_symmetry_Int_Tables_number   1
_chemical_formula_structural   Y2Sc2TiCo10
_chemical_formula_sum   'Y4 Sc4 Ti2 Co20'
_cell_volume   429.06675804
_cell_formula_units_Z   2
loop_
 _symmetry_equiv_pos_site_id
 _symmetry_equiv_pos_as_xyz
  1  'x, y, z'
loop_
 _atom_site_type_symbol
 _atom_site_label
 _atom_site_symmetry_multiplicity
 _atom_site_fract_x
 _atom_site_fract_y
 _atom_site_fract_z
 _atom_site_occupancy
  Y  Y0  1  0.60018399  0.20036798  0.19944802  1
  Y  Y1  1  0.20048708  0.40097416  0.39853877  1
  Y  Y2  1  0.79996763  0.59993526  0.60009710  1
  Y  Y3  1  0.39945997  0.79891994  0.80162009  1
  Sc  Sc4  1  0.15010800  0.30021599  0.54967601  1
  Sc  Sc5  1  0.74967511  0.49935022  0.75097467  1
  Sc  Sc6  1  0.34896672  0.69793343  0.95309985  1
  Sc  Sc7  1  0.99975297  0.99950595  0.00074108  1
  Ti  Ti8  1  0.95116660  0.90233319  0.14650021  1
  Ti  Ti9  1  0.55032877  0.10065754  0.34901369  1
  Co  Co10  1  0.87479815  0.24722418  0.87797767  1
  Co  Co11  1  0.67392850  0.85313209  0.47293940  1
  Co  Co12  1  0.27408938  0.05056225  0.67534837  1
  Co  Co13  1  0.47525013  0.44963092  0.07511895  1
  Co  Co14  1  0.07438197  0.65108814  0.27452989  1
  Co  Co15  1  0.87479815  0.74959630  0.87797767  1
  Co  Co16  1  0.67392850  0.34785701  0.47293940  1
  Co  Co17  1  0.27408938  0.54817876  0.67534837  1
  Co  Co18  1  0.47525013  0.95050026  0.07511895  1
  Co  Co19  1  0.07438197  0.14876395  0.27452989  1
  Co  Co20  1  0.67477820  0.34955641  0.97566539  1
  Co  Co21  1  0.47537558  0.95075116  0.57387326  1
  Co  Co22  1  0.07481247  0.14962495  0.77556258  1
  Co  Co23  1  0.27534915  0.55069830  0.17395254  1
  Co  Co24  1  0.87550204  0.75100407  0.37349389  1
  Co  Co25  1  0.37242603  0.24722418  0.87797767  1
  Co  Co26  1  0.17920359  0.85313209  0.47293940  1
  Co  Co27  1  0.77647287  0.05056225  0.67534837  1
  Co  Co28  1  0.97438079  0.44963092  0.07511895  1
  Co  Co29  1  0.57670616  0.65108814  0.27452989  1
