# generated using pymatgen
data_V3FeS6
_symmetry_space_group_name_H-M   'P 1'
_cell_length_a   5.59459145
_cell_length_b   5.59459130
_cell_length_c   6.43236275
_cell_angle_alpha   90.00000018
_cell_angle_beta   64.22245087
_cell_angle_gamma   119.99999307
_symmetry_Int_Tables_number   1
_chemical_formula_structural   V3FeS6
_chemical_formula_sum   'V3 Fe1 S6'
_cell_volume   150.77961488
_cell_formula_units_Z   1
loop_
 _symmetry_equiv_pos_site_id
 _symmetry_equiv_pos_as_xyz
  1  'x, y, z'
loop_
 _atom_site_type_symbol
 _atom_site_label
 _atom_site_symmetry_multiplicity
 _atom_site_fract_x
 _atom_site_fract_y
 _atom_site_fract_z
 _atom_site_occupancy
  V  V0  1  0.66224116  0.33112058  0.00663826  1
  V  V1  1  0.33775884  0.66887942  0.99336174  1
  V  V2  1  -0.00000000  -0.00000000  0.00000000  1
  Fe  Fe3  1  -0.00000000  0.50000000  0.50000000  1
  S  S4  1  0.15723116  0.24722621  0.26144760  1
  S  S5  1  0.82854744  0.58132124  0.26144760  1
  S  S6  1  0.49132619  0.91000496  0.26144760  1
  S  S7  1  0.84276884  0.75277379  0.73855240  1
  S  S8  1  0.17145256  0.41867876  0.73855240  1
  S  S9  1  0.50867381  0.08999504  0.73855240  1
