# generated using pymatgen
data_Zn2Cu10Sb4S13
_symmetry_space_group_name_H-M   'P 1'
_cell_length_a   9.05163811
_cell_length_b   9.05163811
_cell_length_c   9.05163811
_cell_angle_alpha   71.11927170
_cell_angle_beta   70.23272880
_cell_angle_gamma   109.76727120
_symmetry_Int_Tables_number   1
_chemical_formula_structural   Zn2Cu10Sb4S13
_chemical_formula_sum   'Zn2 Cu10 Sb4 S13'
_cell_volume   570.85406844
_cell_formula_units_Z   1
loop_
 _symmetry_equiv_pos_site_id
 _symmetry_equiv_pos_as_xyz
  1  'x, y, z'
loop_
 _atom_site_type_symbol
 _atom_site_label
 _atom_site_symmetry_multiplicity
 _atom_site_fract_x
 _atom_site_fract_y
 _atom_site_fract_z
 _atom_site_occupancy
  Zn  Zn0  1  -0.00000000  0.77328768  0.22671232  1
  Zn  Zn1  1  -0.00000000  0.22671232  0.77328768  1
  Cu  Cu2  1  0.25353955  0.75353955  0.50000000  1
  Cu  Cu3  1  0.74646045  0.50000000  0.75353955  1
  Cu  Cu4  1  0.50000000  0.25000000  0.25000000  1
  Cu  Cu5  1  0.25353955  0.50000000  0.24646045  1
  Cu  Cu6  1  0.74646045  0.24646045  0.50000000  1
  Cu  Cu7  1  0.50000000  0.75000000  0.75000000  1
  Cu  Cu8  1  0.77655952  0.77655952  0.00000000  1
  Cu  Cu9  1  0.77655952  -0.00000000  0.22344048  1
  Cu  Cu10  1  0.22344048  0.22344048  -0.00000000  1
  Cu  Cu11  1  0.22344048  -0.00000000  0.77655952  1
  Sb  Sb12  1  0.45982730  0.46639046  0.53360954  1
  Sb  Sb13  1  0.54017270  0.00656316  0.99343684  1
  Sb  Sb14  1  0.00000000  0.53360954  0.00656316  1
  Sb  Sb15  1  0.00000000  0.99343684  0.46639046  1
  S  S16  1  -0.00000000  -0.00000000  0.00000000  1
  S  S17  1  0.76374031  0.51183311  0.48816689  1
  S  S18  1  0.52165395  0.51987159  0.22858024  1
  S  S19  1  0.52165395  0.77141976  0.48012841  1
  S  S20  1  0.23625969  0.74809280  0.25190720  1
  S  S21  1  0.47834605  0.24976581  0.00178236  1
  S  S22  1  0.47834605  0.99821764  0.75023419  1
  S  S23  1  0.00000000  0.48816689  0.74809280  1
  S  S24  1  0.25154817  0.48012841  0.99821764  1
  S  S25  1  0.74845183  0.22858024  0.24976581  1
  S  S26  1  -0.00000000  0.25190720  0.51183311  1
  S  S27  1  0.74845183  0.75023419  0.77141976  1
  S  S28  1  0.25154817  0.00178236  0.51987159  1
