# generated using pymatgen
data_V4Fe2HO12
_symmetry_space_group_name_H-M   'P 1'
_cell_length_a   5.00194746
_cell_length_b   8.99326068
_cell_length_c   9.78327298
_cell_angle_alpha   90.00000000
_cell_angle_beta   91.08030172
_cell_angle_gamma   90.00000000
_symmetry_Int_Tables_number   1
_chemical_formula_structural   V4Fe2HO12
_chemical_formula_sum   'V8 Fe4 H2 O24'
_cell_volume   440.01074126
_cell_formula_units_Z   2
loop_
 _symmetry_equiv_pos_site_id
 _symmetry_equiv_pos_as_xyz
  1  'x, y, z'
loop_
 _atom_site_type_symbol
 _atom_site_label
 _atom_site_symmetry_multiplicity
 _atom_site_fract_x
 _atom_site_fract_y
 _atom_site_fract_z
 _atom_site_occupancy
  V  V0  1  0.85794805  0.91412824  0.44524279  1
  V  V1  1  0.64205195  0.41412824  0.55475721  1
  V  V2  1  0.35814337  0.08534213  0.05422087  1
  V  V3  1  0.14185663  0.58534213  0.94577913  1
  V  V4  1  0.12389721  0.25358570  0.34313681  1
  V  V5  1  0.37610279  0.75358570  0.65686319  1
  V  V6  1  0.65771052  0.74120221  0.14701547  1
  V  V7  1  0.84228948  0.24120221  0.85298453  1
  Fe  Fe8  1  0.15785165  0.58580610  0.36747050  1
  Fe  Fe9  1  0.34214835  0.08580610  0.63252950  1
  Fe  Fe10  1  0.63977433  0.40599470  0.13923929  1
  Fe  Fe11  1  0.86022567  0.90599470  0.86076071  1
  H  H12  1  0.20857959  0.82935484  0.24245098  1
  H  H13  1  0.29142041  0.32935484  0.75754902  1
  O  O14  1  0.18267186  0.91916537  0.72299148  1
  O  O15  1  0.31732814  0.41916537  0.27700852  1
  O  O16  1  0.68029010  0.10122159  0.75900266  1
  O  O17  1  0.81970990  0.60122159  0.24099734  1
  O  O18  1  0.03617570  0.75476975  0.49473391  1
  O  O19  1  0.46382430  0.25476975  0.50526609  1
  O  O20  1  0.53952951  0.23899845  0.99354440  1
  O  O21  1  0.96047049  0.73899845  0.00645560  1
  O  O22  1  0.16945198  0.24505037  0.74411303  1
  O  O23  1  0.33054802  0.74505037  0.25588697  1
  O  O24  1  0.66099999  0.75187484  0.75067902  1
  O  O25  1  0.83900001  0.25187484  0.24932098  1
  O  O26  1  0.18509896  0.60977911  0.77490077  1
  O  O27  1  0.31490104  0.10977911  0.22509923  1
  O  O28  1  0.67675536  0.39472003  0.72878901  1
  O  O29  1  0.82324464  0.89472003  0.27121099  1
  O  O30  1  0.95510442  0.41867265  0.47221175  1
  O  O31  1  0.54489558  0.91867265  0.52778825  1
  O  O32  1  0.46170394  0.58654468  0.02824916  1
  O  O33  1  0.03829606  0.08654468  0.97175084  1
  O  O34  1  0.04497872  0.07849179  0.47814358  1
  O  O35  1  0.45502128  0.57849179  0.52185642  1
  O  O36  1  0.52742810  0.91529742  0.02893625  1
  O  O37  1  0.97257190  0.41529742  0.97106375  1
