# generated using pymatgen
data_Ti5Nb5Ge6
_symmetry_space_group_name_H-M   'P 1'
_cell_length_a   5.34214660
_cell_length_b   7.66552888
_cell_length_c   7.66552870
_cell_angle_alpha   60.06748858
_cell_angle_beta   90.00138849
_cell_angle_gamma   89.99861152
_symmetry_Int_Tables_number   1
_chemical_formula_structural   Ti5Nb5Ge6
_chemical_formula_sum   'Ti5 Nb5 Ge6'
_cell_volume   272.03552119
_cell_formula_units_Z   1
loop_
 _symmetry_equiv_pos_site_id
 _symmetry_equiv_pos_as_xyz
  1  'x, y, z'
loop_
 _atom_site_type_symbol
 _atom_site_label
 _atom_site_symmetry_multiplicity
 _atom_site_fract_x
 _atom_site_fract_y
 _atom_site_fract_z
 _atom_site_occupancy
  Ti  Ti0  1  0.75000045  0.74366194  0.99968229  1
  Ti  Ti1  1  0.75000045  0.00031771  0.25633806  1
  Ti  Ti2  1  0.24999087  0.74342373  0.25657627  1
  Ti  Ti3  1  0.25000640  0.25449508  0.00029808  1
  Ti  Ti4  1  0.25000640  0.99970192  0.74550492  1
  Nb  Nb5  1  0.49886169  0.33291747  0.33401822  1
  Nb  Nb6  1  0.49886169  0.66598178  0.66708253  1
  Nb  Nb7  1  0.00113719  0.66598111  0.66708404  1
  Nb  Nb8  1  0.00113719  0.33291596  0.33401889  1
  Nb  Nb9  1  0.75000080  0.25897527  0.74102473  1
  Ge  Ge10  1  0.74998754  0.61905975  0.38094025  1
  Ge  Ge11  1  0.75000878  0.38499883  0.00304223  1
  Ge  Ge12  1  0.75000878  0.99695777  0.61500117  1
  Ge  Ge13  1  0.24999092  0.38391509  0.61608491  1
  Ge  Ge14  1  0.25000043  0.61711276  0.00041616  1
  Ge  Ge15  1  0.25000043  0.99958384  0.38288724  1
