# generated using pymatgen
data_U5B4Rh15
_symmetry_space_group_name_H-M   'P 1'
_cell_length_a   4.21667752
_cell_length_b   4.21667752
_cell_length_c   20.79526992
_cell_angle_alpha   90.00000000
_cell_angle_beta   90.00000000
_cell_angle_gamma   90.00000000
_symmetry_Int_Tables_number   1
_chemical_formula_structural   U5B4Rh15
_chemical_formula_sum   'U5 B4 Rh15'
_cell_volume   369.74757903
_cell_formula_units_Z   1
loop_
 _symmetry_equiv_pos_site_id
 _symmetry_equiv_pos_as_xyz
  1  'x, y, z'
loop_
 _atom_site_type_symbol
 _atom_site_label
 _atom_site_symmetry_multiplicity
 _atom_site_fract_x
 _atom_site_fract_y
 _atom_site_fract_z
 _atom_site_occupancy
  U  U0  1  -0.00000000  0.00000000  0.00769885  1
  U  U1  1  0.00000000  0.00000000  0.19230115  1
  U  U2  1  0.00000000  0.00000000  0.39650897  1
  U  U3  1  -0.00000000  0.00000000  0.60000000  1
  U  U4  1  -0.00000000  0.00000000  0.80349103  1
  B  B5  1  0.50000000  0.50000000  0.28851491  1
  B  B6  1  0.50000000  0.50000000  0.49683706  1
  B  B7  1  0.50000000  0.50000000  0.70316294  1
  B  B8  1  0.50000000  0.50000000  0.91148509  1
  Rh  Rh9  1  0.50000000  0.50000000  0.00789443  1
  Rh  Rh10  1  0.50000000  0.50000000  0.19210557  1
  Rh  Rh11  1  0.50000000  0.50000000  0.39519061  1
  Rh  Rh12  1  0.50000000  0.50000000  0.60000000  1
  Rh  Rh13  1  0.50000000  0.50000000  0.80480939  1
  Rh  Rh14  1  0.50000000  0.00000000  0.10000000  1
  Rh  Rh15  1  0.50000000  0.00000000  0.29641640  1
  Rh  Rh16  1  0.50000000  0.00000000  0.49888649  1
  Rh  Rh17  1  0.50000000  0.00000000  0.70111351  1
  Rh  Rh18  1  0.50000000  0.00000000  0.90358360  1
  Rh  Rh19  1  -0.00000000  0.50000000  0.10000000  1
  Rh  Rh20  1  0.00000000  0.50000000  0.29641640  1
  Rh  Rh21  1  0.00000000  0.50000000  0.49888649  1
  Rh  Rh22  1  -0.00000000  0.50000000  0.70111351  1
  Rh  Rh23  1  -0.00000000  0.50000000  0.90358360  1
