# generated using pymatgen
data_TlBiPbS3
_symmetry_space_group_name_H-M   'P 1'
_cell_length_a   4.15433309
_cell_length_b   5.96641398
_cell_length_c   7.58872250
_cell_angle_alpha   66.85181317
_cell_angle_beta   74.11439679
_cell_angle_gamma   90.00000000
_symmetry_Int_Tables_number   1
_chemical_formula_structural   TlBiPbS3
_chemical_formula_sum   'Tl1 Bi1 Pb1 S3'
_cell_volume   165.11318310
_cell_formula_units_Z   1
loop_
 _symmetry_equiv_pos_site_id
 _symmetry_equiv_pos_as_xyz
  1  'x, y, z'
loop_
 _atom_site_type_symbol
 _atom_site_label
 _atom_site_symmetry_multiplicity
 _atom_site_fract_x
 _atom_site_fract_y
 _atom_site_fract_z
 _atom_site_occupancy
  Tl  Tl0  1  0.99507409  0.99507409  0.00985182  1
  Bi  Bi1  1  0.66247355  0.66247355  0.67505390  1
  Pb  Pb2  1  0.33099241  0.33099241  0.33801418  1
  S  S3  1  0.01935805  0.51935805  0.96128390  1
  S  S4  1  0.30865163  0.80865163  0.38269574  1
  S  S5  1  0.68345027  0.18345027  0.63310046  1
