# generated using pymatgen
data_Mg30SiNiO32
_symmetry_space_group_name_H-M   'P 1'
_cell_length_a   8.54232650
_cell_length_b   8.54029517
_cell_length_c   8.54029517
_cell_angle_alpha   90.00000000
_cell_angle_beta   90.00000000
_cell_angle_gamma   90.00000000
_symmetry_Int_Tables_number   1
_chemical_formula_structural   Mg30SiNiO32
_chemical_formula_sum   'Mg30 Si1 Ni1 O32'
_cell_volume   623.04860628
_cell_formula_units_Z   1
loop_
 _symmetry_equiv_pos_site_id
 _symmetry_equiv_pos_as_xyz
  1  'x, y, z'
loop_
 _atom_site_type_symbol
 _atom_site_label
 _atom_site_symmetry_multiplicity
 _atom_site_fract_x
 _atom_site_fract_y
 _atom_site_fract_z
 _atom_site_occupancy
  Mg  Mg0  1  0.00000000  0.00000000  0.50000000  1
  Mg  Mg1  1  0.00000000  0.50000000  0.00000000  1
  Mg  Mg2  1  0.50000000  0.00000000  -0.00000000  1
  Mg  Mg3  1  0.50000000  0.00000000  0.50000000  1
  Mg  Mg4  1  0.50000000  0.50000000  -0.00000000  1
  Mg  Mg5  1  0.50000000  0.50000000  0.50000000  1
  Mg  Mg6  1  0.00000000  0.24820992  0.24820992  1
  Mg  Mg7  1  0.00000000  0.24820992  0.75179008  1
  Mg  Mg8  1  0.00000000  0.75179008  0.24820992  1
  Mg  Mg9  1  0.00000000  0.75179008  0.75179008  1
  Mg  Mg10  1  0.50000000  0.24984637  0.24984637  1
  Mg  Mg11  1  0.50000000  0.24984637  0.75015363  1
  Mg  Mg12  1  0.50000000  0.75015363  0.24984637  1
  Mg  Mg13  1  0.50000000  0.75015363  0.75015363  1
  Mg  Mg14  1  0.24945479  0.00000000  0.24951594  1
  Mg  Mg15  1  0.24945479  0.00000000  0.75048406  1
  Mg  Mg16  1  0.25113855  0.50000000  0.24873870  1
  Mg  Mg17  1  0.25113855  0.50000000  0.75126130  1
  Mg  Mg18  1  0.75054521  0.00000000  0.24951594  1
  Mg  Mg19  1  0.75054521  0.00000000  0.75048406  1
  Mg  Mg20  1  0.74886145  0.50000000  0.24873870  1
  Mg  Mg21  1  0.74886145  0.50000000  0.75126130  1
  Mg  Mg22  1  0.24945479  0.24951594  0.00000000  1
  Mg  Mg23  1  0.25113855  0.24873870  0.50000000  1
  Mg  Mg24  1  0.24945479  0.75048406  0.00000000  1
  Mg  Mg25  1  0.25113855  0.75126130  0.50000000  1
  Mg  Mg26  1  0.75054521  0.24951594  -0.00000000  1
  Mg  Mg27  1  0.74886145  0.24873870  0.50000000  1
  Mg  Mg28  1  0.75054521  0.75048406  -0.00000000  1
  Mg  Mg29  1  0.74886145  0.75126130  0.50000000  1
  Si  Si30  1  0.00000000  0.50000000  0.50000000  1
  Ni  Ni31  1  0.00000000  0.00000000  0.00000000  1
  O  O32  1  0.25063467  0.00000000  0.00000000  1
  O  O33  1  0.25107782  0.00000000  0.50000000  1
  O  O34  1  0.25107782  0.50000000  0.00000000  1
  O  O35  1  0.25969640  0.50000000  0.50000000  1
  O  O36  1  0.74936533  0.00000000  0.00000000  1
  O  O37  1  0.74892218  0.00000000  0.50000000  1
  O  O38  1  0.74892218  0.50000000  -0.00000000  1
  O  O39  1  0.74030360  0.50000000  0.50000000  1
  O  O40  1  0.24944424  0.25013728  0.25013728  1
  O  O41  1  0.24944424  0.25013728  0.74986272  1
  O  O42  1  0.24944424  0.74986272  0.25013728  1
  O  O43  1  0.24944424  0.74986272  0.74986272  1
  O  O44  1  0.75055576  0.25013728  0.25013728  1
  O  O45  1  0.75055576  0.25013728  0.74986272  1
  O  O46  1  0.75055576  0.74986272  0.25013728  1
  O  O47  1  0.75055576  0.74986272  0.74986272  1
  O  O48  1  0.00000000  0.00000000  0.25024273  1
  O  O49  1  0.00000000  0.00000000  0.74975727  1
  O  O50  1  0.00000000  0.50000000  0.24059321  1
  O  O51  1  0.00000000  0.50000000  0.75940679  1
  O  O52  1  0.50000000  0.00000000  0.24952043  1
  O  O53  1  0.50000000  0.00000000  0.75047957  1
  O  O54  1  0.50000000  0.50000000  0.24892013  1
  O  O55  1  0.50000000  0.50000000  0.75107987  1
  O  O56  1  0.00000000  0.25024273  0.00000000  1
  O  O57  1  0.00000000  0.24059321  0.50000000  1
  O  O58  1  0.00000000  0.74975727  0.00000000  1
  O  O59  1  0.00000000  0.75940679  0.50000000  1
  O  O60  1  0.50000000  0.24952043  -0.00000000  1
  O  O61  1  0.50000000  0.24892013  0.50000000  1
  O  O62  1  0.50000000  0.75047957  -0.00000000  1
  O  O63  1  0.50000000  0.75107987  0.50000000  1
