# generated using pymatgen
data_SrTiNb2Bi2PbO12
_symmetry_space_group_name_H-M   'P 1'
_cell_length_a   3.94930527
_cell_length_b   3.94930527
_cell_length_c   16.75051451
_cell_angle_alpha   83.22988160
_cell_angle_beta   83.22988160
_cell_angle_gamma   90.00000000
_symmetry_Int_Tables_number   1
_chemical_formula_structural   SrTiNb2Bi2PbO12
_chemical_formula_sum   'Sr1 Ti1 Nb2 Bi2 Pb1 O12'
_cell_volume   257.60165694
_cell_formula_units_Z   1
loop_
 _symmetry_equiv_pos_site_id
 _symmetry_equiv_pos_as_xyz
  1  'x, y, z'
loop_
 _atom_site_type_symbol
 _atom_site_label
 _atom_site_symmetry_multiplicity
 _atom_site_fract_x
 _atom_site_fract_y
 _atom_site_fract_z
 _atom_site_occupancy
  Sr  Sr0  1  0.94034373  0.94034373  0.11931254  1
  Ti  Ti1  1  0.49914361  0.49914361  0.00171279  1
  Nb  Nb2  1  0.62861766  0.62861766  0.74276469  1
  Nb  Nb3  1  0.37270962  0.37270962  0.25458076  1
  Bi  Bi4  1  0.21238020  0.21238020  0.57523961  1
  Bi  Bi5  1  0.78667255  0.78667255  0.42665490  1
  Pb  Pb6  1  0.05757029  0.05757029  0.88485942  1
  O  O7  1  0.55987081  0.55987081  0.88025839  1
  O  O8  1  0.43961858  0.43961858  0.12076284  1
  O  O9  1  0.24986102  0.74986102  0.50027795  1
  O  O10  1  0.74986102  0.24986102  0.50027795  1
  O  O11  1  0.12179464  0.62179464  0.75641072  1
  O  O12  1  0.38070531  0.88070531  0.23858939  1
  O  O13  1  0.88070531  0.38070531  0.23858939  1
  O  O14  1  0.62179464  0.12179464  0.75641072  1
  O  O15  1  0.68627187  0.68627187  0.62745627  1
  O  O16  1  0.31517308  0.31517308  0.36965384  1
  O  O17  1  0.99845304  0.49845304  0.00309392  1
  O  O18  1  0.49845304  0.99845304  0.00309392  1
