# generated using pymatgen
data_Sr3Nb2CuO9
_symmetry_space_group_name_H-M   'P 1'
_cell_length_a   5.60959484
_cell_length_b   7.10008786
_cell_length_c   5.83221937
_cell_angle_alpha   86.31282636
_cell_angle_beta   61.25486974
_cell_angle_gamma   90.00000000
_symmetry_Int_Tables_number   1
_chemical_formula_structural   Sr3Nb2CuO9
_chemical_formula_sum   'Sr3 Nb2 Cu1 O9'
_cell_volume   203.11509288
_cell_formula_units_Z   1
loop_
 _symmetry_equiv_pos_site_id
 _symmetry_equiv_pos_as_xyz
  1  'x, y, z'
loop_
 _atom_site_type_symbol
 _atom_site_label
 _atom_site_symmetry_multiplicity
 _atom_site_fract_x
 _atom_site_fract_y
 _atom_site_fract_z
 _atom_site_occupancy
  Sr  Sr0  1  0.33376164  0.65996524  0.33247572  1
  Sr  Sr1  1  0.66666700  0.33333300  0.66666700  1
  Sr  Sr2  1  0.99957136  0.00670176  0.00085728  1
  Nb  Nb3  1  0.32270144  0.15246437  0.35459611  1
  Nb  Nb4  1  0.01063156  0.51420263  0.97873689  1
  Cu  Cu5  1  0.66666700  0.83333300  0.66666700  1
  O  O6  1  0.16666700  0.33333300  0.66666700  1
  O  O7  1  0.46034052  0.98383149  0.07931896  1
  O  O8  1  0.87299248  0.68283551  0.25401404  1
  O  O9  1  0.85369603  0.64699455  0.78153997  1
  O  O10  1  0.16666700  0.33333300  0.16666700  1
  O  O11  1  0.47963697  0.01967245  0.55179303  1
  O  O12  1  0.36476300  0.64699455  0.78153997  1
  O  O13  1  0.66666700  0.33333300  0.16666700  1
  O  O14  1  0.96857000  0.01967245  0.55179303  1
