# generated using pymatgen
data_SrGdNiO4
_symmetry_space_group_name_H-M   'P 1'
_cell_length_a   3.80944790
_cell_length_b   3.80944790
_cell_length_c   6.69091828
_cell_angle_alpha   73.46069941
_cell_angle_beta   73.46069941
_cell_angle_gamma   90.00000000
_symmetry_Int_Tables_number   1
_chemical_formula_structural   SrGdNiO4
_chemical_formula_sum   'Sr1 Gd1 Ni1 O4'
_cell_volume   88.88157847
_cell_formula_units_Z   1
loop_
 _symmetry_equiv_pos_site_id
 _symmetry_equiv_pos_as_xyz
  1  'x, y, z'
loop_
 _atom_site_type_symbol
 _atom_site_label
 _atom_site_symmetry_multiplicity
 _atom_site_fract_x
 _atom_site_fract_y
 _atom_site_fract_z
 _atom_site_occupancy
  Sr  Sr0  1  0.35757455  0.35757455  0.28485090  1
  Gd  Gd1  1  0.63746467  0.63746467  0.72507067  1
  Ni  Ni2  1  0.99757481  0.99757481  0.00485038  1
  O  O3  1  0.16275970  0.16275970  0.67448060  1
  O  O4  1  0.82375196  0.82375196  0.35249608  1
  O  O5  1  0.01043716  0.51043716  0.97912568  1
  O  O6  1  0.51043716  0.01043716  0.97912568  1
