# generated using pymatgen
data_TaTiAlO6
_symmetry_space_group_name_H-M   'P 1'
_cell_length_a   4.62678314
_cell_length_b   4.62678314
_cell_length_c   8.93430250
_cell_angle_alpha   90.00000000
_cell_angle_beta   90.00000000
_cell_angle_gamma   90.00000000
_symmetry_Int_Tables_number   1
_chemical_formula_structural   TaTiAlO6
_chemical_formula_sum   'Ta2 Ti2 Al2 O12'
_cell_volume   191.25770561
_cell_formula_units_Z   2
loop_
 _symmetry_equiv_pos_site_id
 _symmetry_equiv_pos_as_xyz
  1  'x, y, z'
loop_
 _atom_site_type_symbol
 _atom_site_label
 _atom_site_symmetry_multiplicity
 _atom_site_fract_x
 _atom_site_fract_y
 _atom_site_fract_z
 _atom_site_occupancy
  Ta  Ta0  1  0.50000000  0.50000000  0.83330603  1
  Ta  Ta1  1  0.00000000  -0.00000000  0.33330603  1
  Ti  Ti2  1  0.50000000  0.50000000  0.49813998  1
  Ti  Ti3  1  0.00000000  -0.00000000  0.99813998  1
  Al  Al4  1  0.50000000  0.50000000  0.16733219  1
  Al  Al5  1  0.00000000  -0.00000000  0.66733219  1
  O  O6  1  0.20063689  0.79936311  0.16609034  1
  O  O7  1  0.19511558  0.80488442  0.50471377  1
  O  O8  1  0.19148646  0.80851354  0.82980680  1
  O  O9  1  0.79936311  0.20063689  0.16609034  1
  O  O10  1  0.80488442  0.19511558  0.50471377  1
  O  O11  1  0.80851354  0.19148646  0.82980680  1
  O  O12  1  0.30851354  0.30851354  0.32980680  1
  O  O13  1  0.29936311  0.29936311  0.66609034  1
  O  O14  1  0.30488442  0.30488442  0.00471377  1
  O  O15  1  0.69148646  0.69148646  0.32980680  1
  O  O16  1  0.70063689  0.70063689  0.66609034  1
  O  O17  1  0.69511558  0.69511558  0.00471377  1
