# generated using pymatgen
data_SrNdCoO4
_symmetry_space_group_name_H-M   'P 1'
_cell_length_a   5.40198929
_cell_length_b   5.41611820
_cell_length_c   6.81465633
_cell_angle_alpha   90.00000000
_cell_angle_beta   66.64975188
_cell_angle_gamma   90.00000000
_symmetry_Int_Tables_number   1
_chemical_formula_structural   SrNdCoO4
_chemical_formula_sum   'Sr2 Nd2 Co2 O8'
_cell_volume   183.05238454
_cell_formula_units_Z   2
loop_
 _symmetry_equiv_pos_site_id
 _symmetry_equiv_pos_as_xyz
  1  'x, y, z'
loop_
 _atom_site_type_symbol
 _atom_site_label
 _atom_site_symmetry_multiplicity
 _atom_site_fract_x
 _atom_site_fract_y
 _atom_site_fract_z
 _atom_site_occupancy
  Sr  Sr0  1  0.85552895  0.50000000  0.28894210  1
  Sr  Sr1  1  0.64447105  -0.00000000  0.71105790  1
  Nd  Nd2  1  0.36298921  0.00000000  0.27402157  1
  Nd  Nd3  1  0.13701079  0.50000000  0.72597843  1
  Co  Co4  1  0.50084725  0.50000000  0.99830550  1
  Co  Co5  1  0.99915275  -0.00000000  0.00169450  1
  O  O6  1  0.17569533  -0.00000000  0.64860934  1
  O  O7  1  0.66162616  0.50000000  0.67674769  1
  O  O8  1  0.32430467  0.50000000  0.35139066  1
  O  O9  1  0.83837384  -0.00000000  0.32325231  1
  O  O10  1  0.25000000  0.25000000  0.00000000  1
  O  O11  1  0.75000000  0.75000000  0.00000000  1
  O  O12  1  0.25000000  0.75000000  0.00000000  1
  O  O13  1  0.75000000  0.25000000  0.00000000  1
