# generated using pymatgen
data_Ta2Ti2NbC5
_symmetry_space_group_name_H-M   'P 1'
_cell_length_a   3.13899241
_cell_length_b   3.13899241
_cell_length_c   12.88337242
_cell_angle_alpha   96.99734776
_cell_angle_beta   83.00265224
_cell_angle_gamma   120.00000000
_symmetry_Int_Tables_number   1
_chemical_formula_structural   Ta2Ti2NbC5
_chemical_formula_sum   'Ta2 Ti2 Nb1 C5'
_cell_volume   108.84306165
_cell_formula_units_Z   1
loop_
 _symmetry_equiv_pos_site_id
 _symmetry_equiv_pos_as_xyz
  1  'x, y, z'
loop_
 _atom_site_type_symbol
 _atom_site_label
 _atom_site_symmetry_multiplicity
 _atom_site_fract_x
 _atom_site_fract_y
 _atom_site_fract_z
 _atom_site_occupancy
  Ta  Ta0  1  0.90000886  0.09999114  0.29997342  1
  Ta  Ta1  1  0.49843767  0.50156233  0.50468700  1
  Ti  Ti2  1  0.09867728  0.90132272  0.70396817  1
  Ti  Ti3  1  0.70121887  0.29878113  0.89634339  1
  Nb  Nb4  1  0.30161991  0.69838009  0.09514027  1
  C  C5  1  0.40016923  0.59983077  0.79949231  1
  C  C6  1  0.19934414  0.80065586  0.40196758  1
  C  C7  1  0.79853922  0.20146078  0.60438233  1
  C  C8  1  0.00204006  0.99795994  0.99387982  1
  C  C9  1  0.59994476  0.40005524  0.20016571  1
