# generated using pymatgen
data_Sr3TaCoO7
_symmetry_space_group_name_H-M   'P 1'
_cell_length_a   3.96704062
_cell_length_b   3.96704062
_cell_length_c   10.92007303
_cell_angle_alpha   79.53470961
_cell_angle_beta   79.53470961
_cell_angle_gamma   90.00000000
_symmetry_Int_Tables_number   1
_chemical_formula_structural   Sr3TaCoO7
_chemical_formula_sum   'Sr3 Ta1 Co1 O7'
_cell_volume   166.08695242
_cell_formula_units_Z   1
loop_
 _symmetry_equiv_pos_site_id
 _symmetry_equiv_pos_as_xyz
  1  'x, y, z'
loop_
 _atom_site_type_symbol
 _atom_site_label
 _atom_site_symmetry_multiplicity
 _atom_site_fract_x
 _atom_site_fract_y
 _atom_site_fract_z
 _atom_site_occupancy
  Sr  Sr0  1  0.51837360  0.51837360  0.96325279  1
  Sr  Sr1  1  0.30690629  0.30690629  0.38618742  1
  Sr  Sr2  1  0.67961512  0.67961512  0.64076976  1
  Ta  Ta3  1  0.90377272  0.90377272  0.19245457  1
  Co  Co4  1  0.10146515  0.10146515  0.79706969  1
  O  O5  1  0.19651446  0.19651446  0.60697108  1
  O  O6  1  0.80625811  0.80625811  0.38748378  1
  O  O7  1  0.59637604  0.09637604  0.80724793  1
  O  O8  1  0.09637604  0.59637604  0.80724793  1
  O  O9  1  0.39956955  0.89956955  0.20086089  1
  O  O10  1  0.89956955  0.39956955  0.20086089  1
  O  O11  1  0.99520337  0.99520337  0.00959327  1
