# generated using pymatgen
data_SrLaInO4
_symmetry_space_group_name_H-M   'P 1'
_cell_length_a   5.98184745
_cell_length_b   5.99076112
_cell_length_c   12.53917067
_cell_angle_alpha   90.00000000
_cell_angle_beta   90.00000000
_cell_angle_gamma   90.00000000
_symmetry_Int_Tables_number   1
_chemical_formula_structural   SrLaInO4
_chemical_formula_sum   'Sr4 La4 In4 O16'
_cell_volume   449.35145216
_cell_formula_units_Z   4
loop_
 _symmetry_equiv_pos_site_id
 _symmetry_equiv_pos_as_xyz
  1  'x, y, z'
loop_
 _atom_site_type_symbol
 _atom_site_label
 _atom_site_symmetry_multiplicity
 _atom_site_fract_x
 _atom_site_fract_y
 _atom_site_fract_z
 _atom_site_occupancy
  Sr  Sr0  1  0.46910043  0.01430806  0.35320925  1
  Sr  Sr1  1  0.03089957  0.51430806  0.64679075  1
  Sr  Sr2  1  0.46910043  0.51430806  0.14679075  1
  Sr  Sr3  1  0.03089957  0.01430806  0.85320925  1
  La  La4  1  0.54918441  0.48579585  0.85378125  1
  La  La5  1  0.95081559  0.98579585  0.14621875  1
  La  La6  1  0.54918441  0.98579585  0.64621875  1
  La  La7  1  0.95081559  0.48579585  0.35378125  1
  In  In8  1  0.49641746  0.99834566  0.00070938  1
  In  In9  1  0.49641746  0.49834566  0.49929062  1
  In  In10  1  0.00358254  0.49834566  0.99929062  1
  In  In11  1  0.00358254  0.99834566  0.50070938  1
  O  O12  1  0.72078628  0.77864217  0.46952050  1
  O  O13  1  0.29017968  0.70713568  0.96566174  1
  O  O14  1  0.77921372  0.27864217  0.53047950  1
  O  O15  1  0.20982032  0.20713568  0.03433826  1
  O  O16  1  0.29017968  0.20713568  0.53433826  1
  O  O17  1  0.72078628  0.27864217  0.03047950  1
  O  O18  1  0.20982032  0.70713568  0.46566174  1
  O  O19  1  0.77921372  0.77864217  0.96952050  1
  O  O20  1  0.56256949  0.91898782  0.17158915  1
  O  O21  1  0.46976711  0.59678475  0.67707476  1
  O  O22  1  0.93743051  0.41898782  0.82841085  1
  O  O23  1  0.03023289  0.09678475  0.32292524  1
  O  O24  1  0.46976711  0.09678475  0.82292524  1
  O  O25  1  0.56256949  0.41898782  0.32841085  1
  O  O26  1  0.03023289  0.59678475  0.17707476  1
  O  O27  1  0.93743051  0.91898782  0.67158915  1
