# generated using pymatgen
data_Sr4Mn2Cu3(SO)4
_symmetry_space_group_name_H-M   'P 1'
_cell_length_a   5.71061698
_cell_length_b   5.71010010
_cell_length_c   9.05531922
_cell_angle_alpha   90.00000000
_cell_angle_beta   71.61996545
_cell_angle_gamma   90.00000000
_symmetry_Int_Tables_number   1
_chemical_formula_structural   Sr4Mn2Cu3(SO)4
_chemical_formula_sum   'Sr4 Mn2 Cu3 S4 O4'
_cell_volume   280.21430308
_cell_formula_units_Z   1
loop_
 _symmetry_equiv_pos_site_id
 _symmetry_equiv_pos_as_xyz
  1  'x, y, z'
loop_
 _atom_site_type_symbol
 _atom_site_label
 _atom_site_symmetry_multiplicity
 _atom_site_fract_x
 _atom_site_fract_y
 _atom_site_fract_z
 _atom_site_occupancy
  Sr  Sr0  1  0.39790368  0.99777645  0.20073446  1
  Sr  Sr1  1  0.90136186  0.50222355  0.20073446  1
  Sr  Sr2  1  0.09863814  0.50222355  0.79926554  1
  Sr  Sr3  1  0.60209632  0.99777645  0.79926554  1
  Mn  Mn4  1  0.50000000  0.49800989  0.00000000  1
  Mn  Mn5  1  0.00000000  0.00199011  0.00000000  1
  Cu  Cu6  1  0.50000000  0.25000000  0.50000000  1
  Cu  Cu7  1  0.50000000  0.75000000  0.50000000  1
  Cu  Cu8  1  -0.00000000  0.25000000  0.50000000  1
  S  S9  1  0.17644486  0.00399561  0.65549368  1
  S  S10  1  0.66806147  0.49600439  0.65549368  1
  S  S11  1  0.33193853  0.49600439  0.34450632  1
  S  S12  1  0.82355514  0.00399561  0.34450632  1
  O  O13  1  0.24842181  0.25000000  0.00315638  1
  O  O14  1  0.75006798  0.75000000  0.99986403  1
  O  O15  1  0.75157819  0.25000000  0.99684362  1
  O  O16  1  0.24993202  0.75000000  0.00013597  1
