# generated using pymatgen
data_SrLa2Sc2O7
_symmetry_space_group_name_H-M   'P 1'
_cell_length_a   4.09220645
_cell_length_b   4.09220645
_cell_length_c   10.83416051
_cell_angle_alpha   79.10697778
_cell_angle_beta   79.10697778
_cell_angle_gamma   89.96383485
_symmetry_Int_Tables_number   1
_chemical_formula_structural   SrLa2Sc2O7
_chemical_formula_sum   'Sr1 La2 Sc2 O7'
_cell_volume   174.83548122
_cell_formula_units_Z   1
loop_
 _symmetry_equiv_pos_site_id
 _symmetry_equiv_pos_as_xyz
  1  'x, y, z'
loop_
 _atom_site_type_symbol
 _atom_site_label
 _atom_site_symmetry_multiplicity
 _atom_site_fract_x
 _atom_site_fract_y
 _atom_site_fract_z
 _atom_site_occupancy
  Sr  Sr0  1  0.50000000  0.50000000  -0.00000000  1
  La  La1  1  0.31718925  0.31718925  0.36562150  1
  La  La2  1  0.68281075  0.68281075  0.63437850  1
  Sc  Sc3  1  0.09788017  0.09788017  0.80423967  1
  Sc  Sc4  1  0.90211983  0.90211983  0.19576033  1
  O  O5  1  0.20819807  0.20819807  0.58360386  1
  O  O6  1  0.79180193  0.79180193  0.41639614  1
  O  O7  1  0.60766303  0.10766303  0.78467393  1
  O  O8  1  0.89233697  0.39233697  0.21532607  1
  O  O9  1  0.39233697  0.89233697  0.21532607  1
  O  O10  1  0.10766303  0.60766303  0.78467393  1
  O  O11  1  -0.00000000  -0.00000000  -0.00000000  1
