# generated using pymatgen
data_Ni6Se5
_symmetry_space_group_name_H-M   'P 1'
_cell_length_a   3.49093236
_cell_length_b   6.25194132
_cell_length_c   16.99780524
_cell_angle_alpha   90.00000000
_cell_angle_beta   90.00000000
_cell_angle_gamma   73.78825653
_symmetry_Int_Tables_number   1
_chemical_formula_structural   Ni6Se5
_chemical_formula_sum   'Ni12 Se10'
_cell_volume   356.22744700
_cell_formula_units_Z   2
loop_
 _symmetry_equiv_pos_site_id
 _symmetry_equiv_pos_as_xyz
  1  'x, y, z'
loop_
 _atom_site_type_symbol
 _atom_site_label
 _atom_site_symmetry_multiplicity
 _atom_site_fract_x
 _atom_site_fract_y
 _atom_site_fract_z
 _atom_site_occupancy
  Ni  Ni0  1  0.65944949  0.68110102  0.25086908  1
  Ni  Ni1  1  0.34055051  0.31889898  0.75086908  1
  Ni  Ni2  1  0.46652387  0.06695227  0.17728567  1
  Ni  Ni3  1  0.53078893  0.93842213  0.82209382  1
  Ni  Ni4  1  0.46921107  0.06157787  0.32209382  1
  Ni  Ni5  1  0.53347613  0.93304773  0.67728567  1
  Ni  Ni6  1  0.18668222  0.62663556  0.03552107  1
  Ni  Ni7  1  0.80403654  0.39192692  0.96803676  1
  Ni  Ni8  1  0.19596346  0.60807308  0.46803676  1
  Ni  Ni9  1  0.81331778  0.37336444  0.53552107  1
  Ni  Ni10  1  0.00075482  0.99849036  0.47410857  1
  Ni  Ni11  1  0.99924518  0.00150964  0.97410857  1
  Se  Se12  1  0.88837678  0.22324644  0.84659468  1
  Se  Se13  1  0.10662226  0.78675548  0.15623861  1
  Se  Se14  1  0.89337774  0.21324452  0.65623861  1
  Se  Se15  1  0.11162322  0.77675356  0.34659468  1
  Se  Se16  1  0.38065654  0.23868691  0.04820085  1
  Se  Se17  1  0.62083275  0.75833450  0.94567658  1
  Se  Se18  1  0.37916725  0.24166550  0.44567658  1
  Se  Se19  1  0.61934346  0.76131309  0.54820085  1
  Se  Se20  1  0.86195954  0.27608092  0.24837432  1
  Se  Se21  1  0.13804046  0.72391908  0.74837432  1
