# generated using pymatgen
data_Sm2Si3Ge
_symmetry_space_group_name_H-M   'P 1'
_cell_length_a   4.02905554
_cell_length_b   4.07671833
_cell_length_c   8.13919474
_cell_angle_alpha   75.49660039
_cell_angle_beta   75.66981906
_cell_angle_gamma   90.00000000
_symmetry_Int_Tables_number   1
_chemical_formula_structural   Sm2Si3Ge
_chemical_formula_sum   'Sm2 Si3 Ge1'
_cell_volume   125.12740957
_cell_formula_units_Z   1
loop_
 _symmetry_equiv_pos_site_id
 _symmetry_equiv_pos_as_xyz
  1  'x, y, z'
loop_
 _atom_site_type_symbol
 _atom_site_label
 _atom_site_symmetry_multiplicity
 _atom_site_fract_x
 _atom_site_fract_y
 _atom_site_fract_z
 _atom_site_occupancy
  Sm  Sm0  1  0.87844758  0.62844758  0.74310484  1
  Sm  Sm1  1  0.12309123  0.37309123  0.25381755  1
  Si  Si2  1  0.46281520  0.21281520  0.57436960  1
  Si  Si3  1  0.54173767  0.79173767  0.41652466  1
  Si  Si4  1  0.69969058  0.94969058  0.10061883  1
  Ge  Ge5  1  0.29421774  0.04421774  0.91156452  1
