# generated using pymatgen
data_Si5Mo10P
_symmetry_space_group_name_H-M   'P 1'
_cell_length_a   4.92935383
_cell_length_b   7.26224785
_cell_length_c   7.26224785
_cell_angle_alpha   96.61402135
_cell_angle_beta   109.83923581
_cell_angle_gamma   70.16076419
_symmetry_Int_Tables_number   1
_chemical_formula_structural   Si5Mo10P
_chemical_formula_sum   'Si5 Mo10 P1'
_cell_volume   230.03130173
_cell_formula_units_Z   1
loop_
 _symmetry_equiv_pos_site_id
 _symmetry_equiv_pos_as_xyz
  1  'x, y, z'
loop_
 _atom_site_type_symbol
 _atom_site_label
 _atom_site_symmetry_multiplicity
 _atom_site_fract_x
 _atom_site_fract_y
 _atom_site_fract_z
 _atom_site_occupancy
  Si  Si0  1  0.33241776  0.50000000  0.16483552  1
  Si  Si1  1  0.66758224  0.50000000  0.83516448  1
  Si  Si2  1  0.83241776  0.83516448  0.50000000  1
  Si  Si3  1  0.16758224  0.16483552  0.50000000  1
  Si  Si4  1  0.75000000  -0.00000000  0.00000000  1
  Mo  Mo5  1  0.42246970  0.85242719  0.70080935  1
  Mo  Mo6  1  0.57408754  0.14757281  0.29919065  1
  Mo  Mo7  1  0.92591246  0.29919065  0.14757281  1
  Mo  Mo8  1  0.07753030  0.70080935  0.85242719  1
  Mo  Mo9  1  0.72166036  0.70080935  0.14757281  1
  Mo  Mo10  1  0.27489689  0.29919065  0.85242719  1
  Mo  Mo11  1  0.77833964  0.14757281  0.70080935  1
  Mo  Mo12  1  0.22510311  0.85242719  0.29919065  1
  Mo  Mo13  1  0.25000000  0.50000000  0.50000000  1
  Mo  Mo14  1  0.75000000  0.50000000  0.50000000  1
  P  P15  1  0.25000000  -0.00000000  0.00000000  1
