# generated using pymatgen
data_Sr2La2MnCuO8
_symmetry_space_group_name_H-M   'P 1'
_cell_length_a   3.89064280
_cell_length_b   3.89064280
_cell_length_c   12.66221024
_cell_angle_alpha   90.00000000
_cell_angle_beta   90.00000000
_cell_angle_gamma   90.00000000
_symmetry_Int_Tables_number   1
_chemical_formula_structural   Sr2La2MnCuO8
_chemical_formula_sum   'Sr2 La2 Mn1 Cu1 O8'
_cell_volume   191.66916032
_cell_formula_units_Z   1
loop_
 _symmetry_equiv_pos_site_id
 _symmetry_equiv_pos_as_xyz
  1  'x, y, z'
loop_
 _atom_site_type_symbol
 _atom_site_label
 _atom_site_symmetry_multiplicity
 _atom_site_fract_x
 _atom_site_fract_y
 _atom_site_fract_z
 _atom_site_occupancy
  Sr  Sr0  1  0.00000000  -0.00000000  0.64089730  1
  Sr  Sr1  1  -0.00000000  0.00000000  0.35910270  1
  La  La2  1  0.50000000  0.50000000  0.14120552  1
  La  La3  1  0.50000000  0.50000000  0.85879448  1
  Mn  Mn4  1  0.50000000  0.50000000  0.50000000  1
  Cu  Cu5  1  -0.00000000  0.00000000  0.00000000  1
  O  O6  1  0.50000000  0.50000000  0.32125797  1
  O  O7  1  0.00000000  -0.00000000  0.83731613  1
  O  O8  1  -0.00000000  0.00000000  0.16268387  1
  O  O9  1  0.50000000  0.50000000  0.67874203  1
  O  O10  1  0.50000000  -0.00000000  0.00000000  1
  O  O11  1  0.00000000  0.50000000  0.50000000  1
  O  O12  1  0.50000000  -0.00000000  0.50000000  1
  O  O13  1  0.00000000  0.50000000  0.00000000  1
