# generated using pymatgen
data_SmSiPd
_symmetry_space_group_name_H-M   'P 1'
_cell_length_a   3.79026904
_cell_length_b   4.33917812
_cell_length_c   4.33533679
_cell_angle_alpha   59.96977218
_cell_angle_beta   90.00000000
_cell_angle_gamma   90.00000000
_symmetry_Int_Tables_number   1
_chemical_formula_structural   SmSiPd
_chemical_formula_sum   'Sm1 Si1 Pd1'
_cell_volume   61.73033364
_cell_formula_units_Z   1
loop_
 _symmetry_equiv_pos_site_id
 _symmetry_equiv_pos_as_xyz
  1  'x, y, z'
loop_
 _atom_site_type_symbol
 _atom_site_label
 _atom_site_symmetry_multiplicity
 _atom_site_fract_x
 _atom_site_fract_y
 _atom_site_fract_z
 _atom_site_occupancy
  Sm  Sm0  1  0.00000000  0.00014904  0.99971943  1
  Si  Si1  1  0.50000000  0.66670464  0.66668528  1
  Pd  Pd2  1  0.50000000  0.33304632  0.33369528  1
