# generated using pymatgen
data_Sn7Pd5
_symmetry_space_group_name_H-M   'P 1'
_cell_length_a   4.38377663
_cell_length_b   7.00020299
_cell_length_c   9.73039332
_cell_angle_alpha   110.33827142
_cell_angle_beta   90.00000000
_cell_angle_gamma   71.75277418
_symmetry_Int_Tables_number   1
_chemical_formula_structural   Sn7Pd5
_chemical_formula_sum   'Sn7 Pd5'
_cell_volume   263.91182327
_cell_formula_units_Z   1
loop_
 _symmetry_equiv_pos_site_id
 _symmetry_equiv_pos_as_xyz
  1  'x, y, z'
loop_
 _atom_site_type_symbol
 _atom_site_label
 _atom_site_symmetry_multiplicity
 _atom_site_fract_x
 _atom_site_fract_y
 _atom_site_fract_z
 _atom_site_occupancy
  Sn  Sn0  1  0.75966018  0.49333010  0.61939511  1
  Sn  Sn1  1  0.25299028  0.50666990  0.38060489  1
  Sn  Sn2  1  0.77134408  0.45516428  0.11672297  1
  Sn  Sn3  1  0.22650836  0.54483572  0.88327703  1
  Sn  Sn4  1  0.50264787  0.98514468  0.17457938  1
  Sn  Sn5  1  0.48779256  0.01485532  0.82542062  1
  Sn  Sn6  1  0.82451719  -0.00000000  0.50000000  1
  Pd  Pd7  1  0.86815995  0.25928492  0.80301312  1
  Pd  Pd8  1  0.12744487  0.74071508  0.19698688  1
  Pd  Pd9  1  0.88801570  0.23220548  0.31984389  1
  Pd  Pd10  1  0.12022118  0.76779452  0.68015611  1
  Pd  Pd11  1  0.99089777  -0.00000000  0.00000000  1
