# generated using pymatgen
data_NbAlVC
_symmetry_space_group_name_H-M   'P 1'
_cell_length_a   3.04479473
_cell_length_b   3.04479473
_cell_length_c   13.46077636
_cell_angle_alpha   90.00132333
_cell_angle_beta   89.99867667
_cell_angle_gamma   119.99690300
_symmetry_Int_Tables_number   1
_chemical_formula_structural   NbAlVC
_chemical_formula_sum   'Nb2 Al2 V2 C2'
_cell_volume   108.07626600
_cell_formula_units_Z   2
loop_
 _symmetry_equiv_pos_site_id
 _symmetry_equiv_pos_as_xyz
  1  'x, y, z'
loop_
 _atom_site_type_symbol
 _atom_site_label
 _atom_site_symmetry_multiplicity
 _atom_site_fract_x
 _atom_site_fract_y
 _atom_site_fract_z
 _atom_site_occupancy
  Nb  Nb0  1  0.66665810  0.33334190  0.59497819  1
  Nb  Nb1  1  0.33334190  0.66665810  0.40502181  1
  Al  Al2  1  0.66666005  0.33333995  0.23631268  1
  Al  Al3  1  0.33333995  0.66666005  0.76368732  1
  V  V4  1  0.33331537  0.66668463  0.07834764  1
  V  V5  1  0.66668463  0.33331537  0.92165236  1
  C  C6  1  -0.00000000  0.00000000  0.50000000  1
  C  C7  1  -0.00000000  0.00000000  -0.00000000  1
