# generated using pymatgen
data_NbFe(PbO3)2
_symmetry_space_group_name_H-M   'P 1'
_cell_length_a   5.72700358
_cell_length_b   5.72700358
_cell_length_c   5.72700358
_cell_angle_alpha   60.02460243
_cell_angle_beta   89.95738205
_cell_angle_gamma   119.97539757
_symmetry_Int_Tables_number   1
_chemical_formula_structural   NbFe(PbO3)2
_chemical_formula_sum   'Nb1 Fe1 Pb2 O6'
_cell_volume   132.87054130
_cell_formula_units_Z   1
loop_
 _symmetry_equiv_pos_site_id
 _symmetry_equiv_pos_as_xyz
  1  'x, y, z'
loop_
 _atom_site_type_symbol
 _atom_site_label
 _atom_site_symmetry_multiplicity
 _atom_site_fract_x
 _atom_site_fract_y
 _atom_site_fract_z
 _atom_site_occupancy
  Nb  Nb0  1  0.25321245  0.50000000  0.24678755  1
  Fe  Fe1  1  0.75407661  0.50000000  0.74592339  1
  Pb  Pb2  1  0.00458951  -0.00000000  0.99541049  1
  Pb  Pb3  1  0.50458951  -0.00000000  0.49541049  1
  O  O4  1  0.00058359  0.00163366  0.49941641  1
  O  O5  1  0.49894994  0.99836634  0.00105006  1
  O  O6  1  0.49894994  0.50000000  0.49941641  1
  O  O7  1  0.00058359  0.50000000  0.00105006  1
  O  O8  1  0.50014905  0.50000000  -0.00014905  1
  O  O9  1  0.00231581  0.50000000  0.49768419  1
