# generated using pymatgen
data_Ni3Pb2SeS
_symmetry_space_group_name_H-M   'P 1'
_cell_length_a   5.69022173
_cell_length_b   5.69022170
_cell_length_c   5.74698189
_cell_angle_alpha   60.32617844
_cell_angle_beta   119.67382463
_cell_angle_gamma   119.99999983
_symmetry_Int_Tables_number   1
_chemical_formula_structural   Ni3Pb2SeS
_chemical_formula_sum   'Ni3 Pb2 Se1 S1'
_cell_volume   132.22295210
_cell_formula_units_Z   1
loop_
 _symmetry_equiv_pos_site_id
 _symmetry_equiv_pos_as_xyz
  1  'x, y, z'
loop_
 _atom_site_type_symbol
 _atom_site_label
 _atom_site_symmetry_multiplicity
 _atom_site_fract_x
 _atom_site_fract_y
 _atom_site_fract_z
 _atom_site_occupancy
  Ni  Ni0  1  0.50472596  0.00569069  0.49334458  1
  Ni  Ni1  1  0.99430931  0.49527404  0.49334458  1
  Ni  Ni2  1  0.99430931  0.00569069  0.49334458  1
  Pb  Pb3  1  0.00004183  -0.00004183  0.00012550  1
  Pb  Pb4  1  0.50098927  0.49901073  0.50296781  1
  Se  Se5  1  0.27691337  0.72308663  0.83074010  1
  S  S6  1  0.72871095  0.27128905  0.18613285  1
