# generated using pymatgen
data_NbAlNi
_symmetry_space_group_name_H-M   'P 1'
_cell_length_a   4.93326115
_cell_length_b   4.93411134
_cell_length_c   7.99431561
_cell_angle_alpha   90.00000000
_cell_angle_beta   90.00000000
_cell_angle_gamma   61.24898944
_symmetry_Int_Tables_number   1
_chemical_formula_structural   NbAlNi
_chemical_formula_sum   'Nb4 Al4 Ni4'
_cell_volume   170.60211059
_cell_formula_units_Z   4
loop_
 _symmetry_equiv_pos_site_id
 _symmetry_equiv_pos_as_xyz
  1  'x, y, z'
loop_
 _atom_site_type_symbol
 _atom_site_label
 _atom_site_symmetry_multiplicity
 _atom_site_fract_x
 _atom_site_fract_y
 _atom_site_fract_z
 _atom_site_occupancy
  Nb  Nb0  1  0.33383343  0.33384074  0.55117589  1
  Nb  Nb1  1  0.66272067  0.66273261  0.42889354  1
  Nb  Nb2  1  0.66272067  0.66273261  0.07110646  1
  Nb  Nb3  1  0.33383343  0.33384074  0.94882411  1
  Al  Al4  1  0.99235657  0.99244322  0.48744277  1
  Al  Al5  1  0.99235657  0.99244322  0.01255723  1
  Al  Al6  1  0.83445873  0.35028256  0.75000000  1
  Al  Al7  1  0.35028409  0.83445277  0.75000000  1
  Ni  Ni8  1  0.83866918  0.83864888  0.75000000  1
  Ni  Ni9  1  0.17428707  0.65336274  0.25000000  1
  Ni  Ni10  1  0.65345635  0.17420919  0.25000000  1
  Ni  Ni11  1  0.17102324  0.17101072  0.25000000  1
