# generated using pymatgen
data_OsClF8
_symmetry_space_group_name_H-M   'P 1'
_cell_length_a   5.65198706
_cell_length_b   5.67740516
_cell_length_c   6.15488936
_cell_angle_alpha   91.61438486
_cell_angle_beta   89.22032574
_cell_angle_gamma   86.64583710
_symmetry_Int_Tables_number   1
_chemical_formula_structural   OsClF8
_chemical_formula_sum   'Os1 Cl1 F8'
_cell_volume   197.06228657
_cell_formula_units_Z   1
loop_
 _symmetry_equiv_pos_site_id
 _symmetry_equiv_pos_as_xyz
  1  'x, y, z'
loop_
 _atom_site_type_symbol
 _atom_site_label
 _atom_site_symmetry_multiplicity
 _atom_site_fract_x
 _atom_site_fract_y
 _atom_site_fract_z
 _atom_site_occupancy
  Os  Os0  1  0.50038146  0.50108839  0.49580238  1
  Cl  Cl1  1  0.00011533  0.99968535  0.93571959  1
  F  F2  1  0.70889794  0.23240523  0.48888295  1
  F  F3  1  0.29184038  0.77019620  0.50627403  1
  F  F4  1  0.74857138  0.18120414  0.99278909  1
  F  F5  1  0.24926805  0.81615249  0.97977322  1
  F  F6  1  0.68491929  0.62674279  0.71625820  1
  F  F7  1  0.31513881  0.37092126  0.27890823  1
  F  F8  1  0.67992913  0.64549976  0.28487097  1
  F  F9  1  0.32033824  0.35920439  0.70892134  1
