# generated using pymatgen
data_NdDyC4
_symmetry_space_group_name_H-M   'P 1'
_cell_length_a   3.74370423
_cell_length_b   4.14177033
_cell_length_c   6.74199881
_cell_angle_alpha   98.77583043
_cell_angle_beta   106.11943439
_cell_angle_gamma   63.13146259
_symmetry_Int_Tables_number   1
_chemical_formula_structural   NdDyC4
_chemical_formula_sum   'Nd1 Dy1 C4'
_cell_volume   89.54210581
_cell_formula_units_Z   1
loop_
 _symmetry_equiv_pos_site_id
 _symmetry_equiv_pos_as_xyz
  1  'x, y, z'
loop_
 _atom_site_type_symbol
 _atom_site_label
 _atom_site_symmetry_multiplicity
 _atom_site_fract_x
 _atom_site_fract_y
 _atom_site_fract_z
 _atom_site_occupancy
  Nd  Nd0  1  -0.00000000  0.00000000  0.00000000  1
  Dy  Dy1  1  0.50000000  0.50000000  0.50000000  1
  C  C2  1  0.80503712  0.60216614  0.21224037  1
  C  C3  1  0.29901901  0.08866821  0.68670622  1
  C  C4  1  0.19496288  0.39783386  0.78775963  1
  C  C5  1  0.70098099  0.91133179  0.31329378  1
