# generated using pymatgen
data_YMg30SiO32
_symmetry_space_group_name_H-M   'P 1'
_cell_length_a   8.64371482
_cell_length_b   8.64458262
_cell_length_c   8.64458262
_cell_angle_alpha   90.00000000
_cell_angle_beta   90.00000000
_cell_angle_gamma   90.00000000
_symmetry_Int_Tables_number   1
_chemical_formula_structural   YMg30SiO32
_chemical_formula_sum   'Y1 Mg30 Si1 O32'
_cell_volume   645.93451102
_cell_formula_units_Z   1
loop_
 _symmetry_equiv_pos_site_id
 _symmetry_equiv_pos_as_xyz
  1  'x, y, z'
loop_
 _atom_site_type_symbol
 _atom_site_label
 _atom_site_symmetry_multiplicity
 _atom_site_fract_x
 _atom_site_fract_y
 _atom_site_fract_z
 _atom_site_occupancy
  Y  Y0  1  -0.00000000  -0.00000000  0.00000000  1
  Mg  Mg1  1  -0.00000000  -0.00000000  0.50000000  1
  Mg  Mg2  1  -0.00000000  0.50000000  0.00000000  1
  Mg  Mg3  1  0.50000000  -0.00000000  0.00000000  1
  Mg  Mg4  1  0.50000000  -0.00000000  0.50000000  1
  Mg  Mg5  1  0.50000000  0.50000000  0.00000000  1
  Mg  Mg6  1  0.50000000  0.50000000  0.50000000  1
  Mg  Mg7  1  -0.00000000  0.25524163  0.25524163  1
  Mg  Mg8  1  -0.00000000  0.25524163  0.74475837  1
  Mg  Mg9  1  -0.00000000  0.74475837  0.25524163  1
  Mg  Mg10  1  -0.00000000  0.74475837  0.74475837  1
  Mg  Mg11  1  0.50000000  0.25084373  0.25084373  1
  Mg  Mg12  1  0.50000000  0.25084373  0.74915627  1
  Mg  Mg13  1  0.50000000  0.74915627  0.25084373  1
  Mg  Mg14  1  0.50000000  0.74915627  0.74915627  1
  Mg  Mg15  1  0.25629620  -0.00000000  0.25632867  1
  Mg  Mg16  1  0.25629620  -0.00000000  0.74367133  1
  Mg  Mg17  1  0.25201507  0.50000000  0.24958615  1
  Mg  Mg18  1  0.25201507  0.50000000  0.75041385  1
  Mg  Mg19  1  0.74370380  -0.00000000  0.25632867  1
  Mg  Mg20  1  0.74370380  -0.00000000  0.74367133  1
  Mg  Mg21  1  0.74798493  0.50000000  0.24958615  1
  Mg  Mg22  1  0.74798493  0.50000000  0.75041385  1
  Mg  Mg23  1  0.25629620  0.25632867  -0.00000000  1
  Mg  Mg24  1  0.25201507  0.24958615  0.50000000  1
  Mg  Mg25  1  0.25629620  0.74367133  -0.00000000  1
  Mg  Mg26  1  0.25201507  0.75041385  0.50000000  1
  Mg  Mg27  1  0.74370380  0.25632867  0.00000000  1
  Mg  Mg28  1  0.74798493  0.24958615  0.50000000  1
  Mg  Mg29  1  0.74370380  0.74367133  0.00000000  1
  Mg  Mg30  1  0.74798493  0.75041385  0.50000000  1
  Si  Si31  1  -0.00000000  0.50000000  0.50000000  1
  O  O32  1  0.25888513  -0.00000000  0.00000000  1
  O  O33  1  0.25190622  -0.00000000  0.50000000  1
  O  O34  1  0.25190622  0.50000000  -0.00000000  1
  O  O35  1  0.26035833  0.50000000  0.50000000  1
  O  O36  1  0.74111487  -0.00000000  -0.00000000  1
  O  O37  1  0.74809378  -0.00000000  0.50000000  1
  O  O38  1  0.74809378  0.50000000  0.00000000  1
  O  O39  1  0.73964167  0.50000000  0.50000000  1
  O  O40  1  0.24852610  0.24999966  0.24999966  1
  O  O41  1  0.24852610  0.24999966  0.75000034  1
  O  O42  1  0.24852610  0.75000034  0.24999966  1
  O  O43  1  0.24852610  0.75000034  0.75000034  1
  O  O44  1  0.75147390  0.24999966  0.24999966  1
  O  O45  1  0.75147390  0.24999966  0.75000034  1
  O  O46  1  0.75147390  0.75000034  0.24999966  1
  O  O47  1  0.75147390  0.75000034  0.75000034  1
  O  O48  1  -0.00000000  -0.00000000  0.25794391  1
  O  O49  1  -0.00000000  -0.00000000  0.74205609  1
  O  O50  1  -0.00000000  0.50000000  0.23989590  1
  O  O51  1  -0.00000000  0.50000000  0.76010410  1
  O  O52  1  0.50000000  -0.00000000  0.25087482  1
  O  O53  1  0.50000000  -0.00000000  0.74912518  1
  O  O54  1  0.50000000  0.50000000  0.24883558  1
  O  O55  1  0.50000000  0.50000000  0.75116442  1
  O  O56  1  -0.00000000  0.25794391  0.00000000  1
  O  O57  1  -0.00000000  0.23989590  0.50000000  1
  O  O58  1  -0.00000000  0.74205609  -0.00000000  1
  O  O59  1  -0.00000000  0.76010410  0.50000000  1
  O  O60  1  0.50000000  0.25087482  -0.00000000  1
  O  O61  1  0.50000000  0.24883558  0.50000000  1
  O  O62  1  0.50000000  0.74912518  0.00000000  1
  O  O63  1  0.50000000  0.75116442  0.50000000  1
