# generated using pymatgen
data_P3Pb5O13
_symmetry_space_group_name_H-M   'P 1'
_cell_length_a   7.52933966
_cell_length_b   9.95760406
_cell_length_c   9.97693313
_cell_angle_alpha   59.65562378
_cell_angle_beta   90.00000000
_cell_angle_gamma   90.00000000
_symmetry_Int_Tables_number   1
_chemical_formula_structural   P3Pb5O13
_chemical_formula_sum   'P6 Pb10 O26'
_cell_volume   645.53809959
_cell_formula_units_Z   2
loop_
 _symmetry_equiv_pos_site_id
 _symmetry_equiv_pos_as_xyz
  1  'x, y, z'
loop_
 _atom_site_type_symbol
 _atom_site_label
 _atom_site_symmetry_multiplicity
 _atom_site_fract_x
 _atom_site_fract_y
 _atom_site_fract_z
 _atom_site_occupancy
  P  P0  1  0.75042247  0.02926060  0.59596495  1
  P  P1  1  0.74946635  0.37552457  0.02642012  1
  P  P2  1  0.74883567  0.59715161  0.37803059  1
  P  P3  1  0.25042247  0.97073940  0.40403505  1
  P  P4  1  0.24946635  0.62447543  0.97357988  1
  P  P5  1  0.24883567  0.40284839  0.62196941  1
  Pb  Pb6  1  0.71174502  0.22677892  0.76064798  1
  Pb  Pb7  1  0.72281792  0.00461065  0.22601398  1
  Pb  Pb8  1  0.71824002  0.76291975  0.00339158  1
  Pb  Pb9  1  0.21174502  0.77322108  0.23935202  1
  Pb  Pb10  1  0.22281792  0.99538935  0.77398602  1
  Pb  Pb11  1  0.21824002  0.23708025  0.99660842  1
  Pb  Pb12  1  0.49999683  0.66815173  0.66736964  1
  Pb  Pb13  1  -0.00000317  0.33184827  0.33263036  1
  Pb  Pb14  1  0.49448973  0.33042712  0.33395720  1
  Pb  Pb15  1  0.99448973  0.66957288  0.66604280  1
  O  O16  1  0.74449359  0.84958392  0.67146461  1
  O  O17  1  0.74541713  0.48316715  0.84743398  1
  O  O18  1  0.74527378  0.66647631  0.48596145  1
  O  O19  1  0.24449359  0.15041608  0.32853539  1
  O  O20  1  0.24541713  0.51683285  0.15256602  1
  O  O21  1  0.24527378  0.33352369  0.51403855  1
  O  O22  1  0.75519912  0.11239921  0.41524002  1
  O  O23  1  0.74922646  0.47194498  0.11095867  1
  O  O24  1  0.74878800  0.41422778  0.47462413  1
  O  O25  1  0.25519912  0.88760079  0.58475998  1
  O  O26  1  0.24922646  0.52805502  0.88904133  1
  O  O27  1  0.24878800  0.58577222  0.52537587  1
  O  O28  1  0.58266951  0.09122785  0.64192992  1
  O  O29  1  0.58532147  0.26408588  0.08591326  1
  O  O30  1  0.58528601  0.64979468  0.26624306  1
  O  O31  1  0.08266951  0.90877215  0.35807008  1
  O  O32  1  0.08532147  0.73591412  0.91408674  1
  O  O33  1  0.08528601  0.35020532  0.73375694  1
  O  O34  1  0.41587003  0.91956667  0.34535844  1
  O  O35  1  0.41908267  0.73002378  0.92120473  1
  O  O36  1  0.41821964  0.34915252  0.72798130  1
  O  O37  1  0.91587003  0.08043333  0.65464156  1
  O  O38  1  0.91908267  0.26997622  0.07879527  1
  O  O39  1  0.91821964  0.65084748  0.27201870  1
  O  O40  1  0.64913860  0.00764969  0.98309120  1
  O  O41  1  0.14913860  0.99235031  0.01690880  1
