# generated using pymatgen
data_MnFe4Si3
_symmetry_space_group_name_H-M   'P 1'
_cell_length_a   4.68986934
_cell_length_b   6.71406513
_cell_length_c   6.77195471
_cell_angle_alpha   120.27417187
_cell_angle_beta   90.00219367
_cell_angle_gamma   90.00195719
_symmetry_Int_Tables_number   1
_chemical_formula_structural   MnFe4Si3
_chemical_formula_sum   'Mn2 Fe8 Si6'
_cell_volume   184.15541142
_cell_formula_units_Z   2
loop_
 _symmetry_equiv_pos_site_id
 _symmetry_equiv_pos_as_xyz
  1  'x, y, z'
loop_
 _atom_site_type_symbol
 _atom_site_label
 _atom_site_symmetry_multiplicity
 _atom_site_fract_x
 _atom_site_fract_y
 _atom_site_fract_z
 _atom_site_occupancy
  Mn  Mn0  1  0.74992701  0.22890568  0.99899983  1
  Mn  Mn1  1  0.74993184  0.77144511  0.77030503  1
  Fe  Fe2  1  0.50030690  0.33661823  0.66940746  1
  Fe  Fe3  1  0.50030812  0.66335560  0.33283977  1
  Fe  Fe4  1  0.99971883  0.66335249  0.33282310  1
  Fe  Fe5  1  0.99968948  0.33664021  0.66940067  1
  Fe  Fe6  1  0.74995313  0.00003977  0.23711843  1
  Fe  Fe7  1  0.25005033  0.76093090  0.00019773  1
  Fe  Fe8  1  0.25004406  0.23888951  0.23900582  1
  Fe  Fe9  1  0.25001926  -0.00004056  0.75308864  1
  Si  Si10  1  0.75000452  0.60243822  0.00418830  1
  Si  Si11  1  0.75001214  0.39754605  0.40176093  1
  Si  Si12  1  0.75002780  -0.00000811  0.59248201  1
  Si  Si13  1  0.24998540  0.39484702  0.99988018  1
  Si  Si14  1  0.25000565  0.60498365  0.60479638  1
  Si  Si15  1  0.25001554  0.00005622  0.39370571  1
