# generated using pymatgen
data_MnNiSb2
_symmetry_space_group_name_H-M   'P 1'
_cell_length_a   3.99598636
_cell_length_b   3.99468994
_cell_length_c   5.46180407
_cell_angle_alpha   90.00000000
_cell_angle_beta   89.98839635
_cell_angle_gamma   60.01073150
_symmetry_Int_Tables_number   1
_chemical_formula_structural   MnNiSb2
_chemical_formula_sum   'Mn1 Ni1 Sb2'
_cell_volume   75.51283279
_cell_formula_units_Z   1
loop_
 _symmetry_equiv_pos_site_id
 _symmetry_equiv_pos_as_xyz
  1  'x, y, z'
loop_
 _atom_site_type_symbol
 _atom_site_label
 _atom_site_symmetry_multiplicity
 _atom_site_fract_x
 _atom_site_fract_y
 _atom_site_fract_z
 _atom_site_occupancy
  Mn  Mn0  1  -0.00000000  0.00000000  0.50000000  1
  Ni  Ni1  1  -0.00000000  0.00000000  -0.00000000  1
  Sb  Sb2  1  0.33371338  0.33314331  0.76562441  1
  Sb  Sb3  1  0.66628662  0.66685669  0.23437559  1
