# generated using pymatgen
data_NaBi(WO4)2
_symmetry_space_group_name_H-M   'P 1'
_cell_length_a   5.36216029
_cell_length_b   5.36216029
_cell_length_c   6.93042324
_cell_angle_alpha   67.24094976
_cell_angle_beta   67.24094976
_cell_angle_gamma   90.00000000
_symmetry_Int_Tables_number   1
_chemical_formula_structural   NaBi(WO4)2
_chemical_formula_sum   'Na1 Bi1 W2 O8'
_cell_volume   166.80167696
_cell_formula_units_Z   1
loop_
 _symmetry_equiv_pos_site_id
 _symmetry_equiv_pos_as_xyz
  1  'x, y, z'
loop_
 _atom_site_type_symbol
 _atom_site_label
 _atom_site_symmetry_multiplicity
 _atom_site_fract_x
 _atom_site_fract_y
 _atom_site_fract_z
 _atom_site_occupancy
  Na  Na0  1  0.37500000  0.62500000  0.25000000  1
  Bi  Bi1  1  0.62500000  0.37500000  0.75000000  1
  W  W2  1  0.87500000  0.12500000  0.25000000  1
  W  W3  1  0.12500000  0.87500000  0.75000000  1
  O  O4  1  0.20396076  0.36131038  0.07372630  1
  O  O5  1  0.72231294  0.06496332  0.07372630  1
  O  O6  1  0.36657451  0.71614230  0.58182729  1
  O  O7  1  0.05159820  0.20203042  0.58182729  1
  O  O8  1  0.79796958  0.63342549  0.91817271  1
  O  O9  1  0.28385770  0.94840180  0.91817271  1
  O  O10  1  0.63868962  0.27768706  0.42627370  1
  O  O11  1  0.93503668  0.79603924  0.42627370  1
