# generated using pymatgen
data_Mn5Fe5Si6
_symmetry_space_group_name_H-M   'P 1'
_cell_length_a   4.69522781
_cell_length_b   6.77853196
_cell_length_c   6.78000035
_cell_angle_alpha   61.02816267
_cell_angle_beta   89.99654263
_cell_angle_gamma   89.99649909
_symmetry_Int_Tables_number   1
_chemical_formula_structural   Mn5Fe5Si6
_chemical_formula_sum   'Mn5 Fe5 Si6'
_cell_volume   188.78155124
_cell_formula_units_Z   1
loop_
 _symmetry_equiv_pos_site_id
 _symmetry_equiv_pos_as_xyz
  1  'x, y, z'
loop_
 _atom_site_type_symbol
 _atom_site_label
 _atom_site_symmetry_multiplicity
 _atom_site_fract_x
 _atom_site_fract_y
 _atom_site_fract_z
 _atom_site_occupancy
  Mn  Mn0  1  0.74997568  0.76515541  0.00198188  1
  Mn  Mn1  1  0.75002231  0.99796236  0.23511562  1
  Mn  Mn2  1  0.25000388  0.75694350  0.24306690  1
  Mn  Mn3  1  0.25001029  0.22838743  0.00073434  1
  Mn  Mn4  1  0.24998892  0.99925168  0.77147876  1
  Fe  Fe5  1  0.49950976  0.33249076  0.32945042  1
  Fe  Fe6  1  0.49951938  0.67049781  0.66757567  1
  Fe  Fe7  1  0.00049741  0.67048342  0.66759227  1
  Fe  Fe8  1  0.00046360  0.33250496  0.32943174  1
  Fe  Fe9  1  0.75000740  0.24983939  0.75012269  1
  Si  Si10  1  0.74999559  0.59470821  0.40534768  1
  Si  Si11  1  0.74998096  0.39880177  0.99468985  1
  Si  Si12  1  0.75001202  0.00533898  0.60107783  1
  Si  Si13  1  0.25000195  0.40162146  0.59838275  1
  Si  Si14  1  0.25002490  0.59677171  0.00071507  1
  Si  Si15  1  0.24998596  -0.00075886  0.40323653  1
