# generated using pymatgen
data_Na4Al3Ge3O13
_symmetry_space_group_name_H-M   'P 1'
_cell_length_a   9.10310474
_cell_length_b   9.10310474
_cell_length_c   9.10310474
_cell_angle_alpha   89.66249314
_cell_angle_beta   90.33750686
_cell_angle_gamma   90.33750686
_symmetry_Int_Tables_number   1
_chemical_formula_structural   Na4Al3Ge3O13
_chemical_formula_sum   'Na8 Al6 Ge6 O26'
_cell_volume   754.30346389
_cell_formula_units_Z   2
loop_
 _symmetry_equiv_pos_site_id
 _symmetry_equiv_pos_as_xyz
  1  'x, y, z'
loop_
 _atom_site_type_symbol
 _atom_site_label
 _atom_site_symmetry_multiplicity
 _atom_site_fract_x
 _atom_site_fract_y
 _atom_site_fract_z
 _atom_site_occupancy
  Na  Na0  1  0.68171678  0.31828322  0.31828322  1
  Na  Na1  1  0.33351473  0.34883482  0.66646441  1
  Na  Na2  1  0.33353559  0.66648527  0.34883482  1
  Na  Na3  1  0.65116518  0.66646441  0.66648527  1
  Na  Na4  1  0.83351473  0.16646441  0.84883482  1
  Na  Na5  1  0.83353559  0.84883482  0.16648527  1
  Na  Na6  1  0.18171678  0.81828322  0.81828322  1
  Na  Na7  1  0.15116518  0.16648527  0.16646441  1
  Al  Al8  1  0.00022842  0.25117197  0.50291110  1
  Al  Al9  1  0.74882803  0.50291110  0.99977158  1
  Al  Al10  1  0.49708890  0.99977158  0.25117197  1
  Al  Al11  1  0.24882803  0.49977158  0.00291110  1
  Al  Al12  1  0.50022842  0.00291110  0.75117197  1
  Al  Al13  1  0.99708890  0.75117197  0.49977158  1
  Ge  Ge14  1  0.49679560  0.25098985  0.99965341  1
  Ge  Ge15  1  0.74901015  0.99965341  0.50320440  1
  Ge  Ge16  1  0.00034659  0.50320440  0.25098985  1
  Ge  Ge17  1  0.24901015  0.00320440  0.49965341  1
  Ge  Ge18  1  0.99679560  0.49965341  0.75098985  1
  Ge  Ge19  1  0.50034659  0.75098985  0.00320440  1
  O  O20  1  0.92411738  0.36068550  0.36028774  1
  O  O21  1  0.63931450  0.36028774  0.07588262  1
  O  O22  1  0.63971226  0.07588262  0.36068550  1
  O  O23  1  0.07520721  0.35767153  0.64682473  1
  O  O24  1  0.35351596  0.35746514  0.92481153  1
  O  O25  1  0.35711562  0.07874762  0.64253163  1
  O  O26  1  0.07518847  0.64648404  0.35746514  1
  O  O27  1  0.35746837  0.64288438  0.07874762  1
  O  O28  1  0.35317527  0.92479279  0.35767153  1
  O  O29  1  0.92125238  0.64253163  0.64288438  1
  O  O30  1  0.64232847  0.64682473  0.92479279  1
  O  O31  1  0.64253486  0.92481153  0.64648404  1
  O  O32  1  0.85351596  0.42481153  0.85746514  1
  O  O33  1  0.85711562  0.14253163  0.57874762  1
  O  O34  1  0.57520721  0.14682473  0.85767153  1
  O  O35  1  0.85746837  0.57874762  0.14288438  1
  O  O36  1  0.85317527  0.85767153  0.42479279  1
  O  O37  1  0.57518847  0.85746514  0.14648404  1
  O  O38  1  0.13931450  0.57588262  0.86028774  1
  O  O39  1  0.13971226  0.86068550  0.57588262  1
  O  O40  1  0.42411738  0.86028774  0.86068550  1
  O  O41  1  0.14232847  0.42479279  0.14682473  1
  O  O42  1  0.14253486  0.14648404  0.42481153  1
  O  O43  1  0.42125238  0.14288438  0.14253163  1
  O  O44  1  0.95303929  0.04696071  0.04696071  1
  O  O45  1  0.45303929  0.54696071  0.54696071  1
