# generated using pymatgen
data_Mn4CdO5
_symmetry_space_group_name_H-M   'P 1'
_cell_length_a   3.24491923
_cell_length_b   11.62628744
_cell_length_c   3.24491923
_cell_angle_alpha   98.02186328
_cell_angle_beta   90.00000000
_cell_angle_gamma   81.97813672
_symmetry_Int_Tables_number   1
_chemical_formula_structural   Mn4CdO5
_chemical_formula_sum   'Mn4 Cd1 O5'
_cell_volume   120.01127998
_cell_formula_units_Z   1
loop_
 _symmetry_equiv_pos_site_id
 _symmetry_equiv_pos_as_xyz
  1  'x, y, z'
loop_
 _atom_site_type_symbol
 _atom_site_label
 _atom_site_symmetry_multiplicity
 _atom_site_fract_x
 _atom_site_fract_y
 _atom_site_fract_z
 _atom_site_occupancy
  Mn  Mn0  1  0.39695722  0.20608556  0.60304278  1
  Mn  Mn1  1  0.79836980  0.40326040  0.20163020  1
  Mn  Mn2  1  0.20163020  0.59673960  0.79836980  1
  Mn  Mn3  1  0.60304278  0.79391444  0.39695722  1
  Cd  Cd4  1  0.00000000  -0.00000000  -0.00000000  1
  O  O5  1  0.10534060  0.78931880  0.89465940  1
  O  O6  1  0.50000000  0.00000000  0.50000000  1
  O  O7  1  0.89465940  0.21068120  0.10534060  1
  O  O8  1  0.29923222  0.40153556  0.70076778  1
  O  O9  1  0.70076778  0.59846444  0.29923222  1
