# generated using pymatgen
data_Na2Cu2Si5(H3O8)2
_symmetry_space_group_name_H-M   'P 1'
_cell_length_a   5.27726007
_cell_length_b   11.34928103
_cell_length_c   11.99087935
_cell_angle_alpha   95.70451618
_cell_angle_beta   90.00000000
_cell_angle_gamma   90.00000000
_symmetry_Int_Tables_number   1
_chemical_formula_structural   Na2Cu2Si5(H3O8)2
_chemical_formula_sum   'Na4 Cu4 Si10 H12 O32'
_cell_volume   714.61445583
_cell_formula_units_Z   2
loop_
 _symmetry_equiv_pos_site_id
 _symmetry_equiv_pos_as_xyz
  1  'x, y, z'
loop_
 _atom_site_type_symbol
 _atom_site_label
 _atom_site_symmetry_multiplicity
 _atom_site_fract_x
 _atom_site_fract_y
 _atom_site_fract_z
 _atom_site_occupancy
  Na  Na0  1  0.71707115  0.76337538  0.93865109  1
  Na  Na1  1  0.27268857  0.22655320  0.06752172  1
  Na  Na2  1  0.72731143  0.72655320  0.56752172  1
  Na  Na3  1  0.28292885  0.26337538  0.43865109  1
  Cu  Cu4  1  0.23607680  0.92183161  0.98158309  1
  Cu  Cu5  1  0.76052133  0.07553148  0.01847824  1
  Cu  Cu6  1  0.23947867  0.57553148  0.51847824  1
  Cu  Cu7  1  0.76392320  0.42183161  0.48158309  1
  Si  Si8  1  0.54091627  0.88167869  0.20848122  1
  Si  Si9  1  0.45945862  0.11764759  0.79069500  1
  Si  Si10  1  0.54054138  0.61764759  0.29069500  1
  Si  Si11  1  0.45908373  0.38167869  0.70848122  1
  Si  Si12  1  0.19222641  0.75083878  0.74975668  1
  Si  Si13  1  0.80777359  0.25083878  0.24975668  1
  Si  Si14  1  0.94795740  0.98140971  0.76894481  1
  Si  Si15  1  0.05128168  0.01844392  0.23123218  1
  Si  Si16  1  0.94871832  0.51844392  0.73123218  1
  Si  Si17  1  0.05204260  0.48140971  0.26894481  1
  H  H18  1  0.97626866  0.67869996  0.12485015  1
  H  H19  1  0.02172194  0.32232429  0.87160652  1
  H  H20  1  0.97827806  0.82232429  0.37160652  1
  H  H21  1  0.02373134  0.17869996  0.62485015  1
  H  H22  1  0.17772613  0.67380990  0.02898105  1
  H  H23  1  0.83397650  0.32495515  0.97187718  1
  H  H24  1  0.16602350  0.82495515  0.47187718  1
  H  H25  1  0.82227387  0.17380990  0.52898105  1
  H  H26  1  0.49202786  0.53871524  0.91564933  1
  H  H27  1  0.50797214  0.03871524  0.41564933  1
  H  H28  1  0.46606932  0.53040038  0.04534320  1
  H  H29  1  0.53393068  0.03040038  0.54534320  1
  O  O30  1  0.81693579  0.93101009  0.26212306  1
  O  O31  1  0.18279624  0.06876209  0.73895745  1
  O  O32  1  0.81720376  0.56876209  0.23895745  1
  O  O33  1  0.18306421  0.43101009  0.76212306  1
  O  O34  1  0.35391110  0.81454262  0.85249054  1
  O  O35  1  0.64743578  0.18897323  0.14509914  1
  O  O36  1  0.35256422  0.68897323  0.64509914  1
  O  O37  1  0.64608890  0.31454262  0.35249054  1
  O  O38  1  0.03107363  0.71920346  0.06089537  1
  O  O39  1  0.98372325  0.28494895  0.93976230  1
  O  O40  1  0.01627675  0.78494895  0.43976230  1
  O  O41  1  0.96892637  0.21920346  0.56089537  1
  O  O42  1  0.99112410  0.65084312  0.79716431  1
  O  O43  1  0.01002335  0.34968198  0.20091479  1
  O  O44  1  0.98997665  0.84968198  0.70091479  1
  O  O45  1  0.00887590  0.15084312  0.29716431  1
  O  O46  1  0.68431137  0.46303390  0.77771311  1
  O  O47  1  0.31551640  0.53663790  0.22250057  1
  O  O48  1  0.68448360  0.03663790  0.72250057  1
  O  O49  1  0.31568863  0.96303390  0.27771311  1
  O  O50  1  0.51502990  0.75029538  0.25053613  1
  O  O51  1  0.48497010  0.25029538  0.75053613  1
  O  O52  1  0.52646167  0.88987237  0.07617549  1
  O  O53  1  0.47654230  0.11476823  0.92400071  1
  O  O54  1  0.52345770  0.61476823  0.42400071  1
  O  O55  1  0.47353833  0.38987237  0.57617549  1
  O  O56  1  0.07301412  0.03399339  0.09816028  1
  O  O57  1  0.92580445  0.96509431  0.90186516  1
  O  O58  1  0.07419555  0.46509431  0.40186516  1
  O  O59  1  0.92698588  0.53399339  0.59816028  1
  O  O60  1  0.47369565  0.58572370  0.98819012  1
  O  O61  1  0.52630435  0.08572370  0.48819012  1
