# generated using pymatgen
data_Nd2H13Cl3O20
_symmetry_space_group_name_H-M   'P 1'
_cell_length_a   7.33583562
_cell_length_b   8.00683814
_cell_length_c   18.83181428
_cell_angle_alpha   100.49857877
_cell_angle_beta   90.00000003
_cell_angle_gamma   62.73554895
_symmetry_Int_Tables_number   1
_chemical_formula_structural   Nd2H13Cl3O20
_chemical_formula_sum   'Nd4 H26 Cl6 O40'
_cell_volume   962.35437493
_cell_formula_units_Z   2
loop_
 _symmetry_equiv_pos_site_id
 _symmetry_equiv_pos_as_xyz
  1  'x, y, z'
loop_
 _atom_site_type_symbol
 _atom_site_label
 _atom_site_symmetry_multiplicity
 _atom_site_fract_x
 _atom_site_fract_y
 _atom_site_fract_z
 _atom_site_occupancy
  Nd  Nd0  1  0.86624131  0.32450544  0.39640757  1
  Nd  Nd1  1  0.18115714  0.71050477  0.10234446  1
  Nd  Nd2  1  0.10833808  0.71050477  0.60234446  1
  Nd  Nd3  1  0.80925326  0.32450544  0.89640757  1
  H  H4  1  0.66530711  0.63955955  0.30219309  1
  H  H5  1  0.29663595  0.38050695  0.18996938  1
  H  H6  1  0.32285710  0.38050695  0.68996938  1
  H  H7  1  0.69513334  0.63955955  0.80219309  1
  H  H8  1  0.32609785  0.03854691  0.40233855  1
  H  H9  1  0.35365593  0.95316243  0.07241068  1
  H  H10  1  0.69318163  0.95316243  0.57241068  1
  H  H11  1  0.63535524  0.03854691  0.90233855  1
  H  H12  1  0.74013777  0.02224543  0.34092697  1
  H  H13  1  0.74723148  0.97944336  0.15771899  1
  H  H14  1  0.27332516  0.97944336  0.65771899  1
  H  H15  1  0.23761680  0.02224543  0.84092697  1
  H  H16  1  0.53666456  0.69499920  0.48185005  1
  H  H17  1  0.19849582  0.31323483  0.02940330  1
  H  H18  1  0.48826935  0.31323483  0.52940330  1
  H  H19  1  0.76833624  0.69499920  0.98185005  1
  H  H20  1  0.73376175  0.73704097  0.49721679  1
  H  H21  1  0.42372799  0.28513016  0.01514994  1
  H  H22  1  0.29114184  0.28513016  0.51514994  1
  H  H23  1  0.52919727  0.73704097  0.99721679  1
  H  H24  1  0.79710791  0.44425229  0.24541050  1
  H  H25  1  0.23585314  0.56239369  0.25285724  1
  H  H26  1  0.20175317  0.56239369  0.75285724  1
  H  H27  1  0.75863981  0.44425229  0.74541050  1
  H  H28  1  0.22448066  0.02136594  0.47215404  1
  H  H29  1  0.75415339  0.02136594  0.97215404  1
  Cl  Cl30  1  0.33835620  0.01055559  0.25264482  1
  Cl  Cl31  1  0.65108821  0.01055559  0.75264482  1
  Cl  Cl32  1  0.75925504  0.41692368  0.59184798  1
  Cl  Cl33  1  0.17205463  0.57449769  0.90921116  1
  Cl  Cl34  1  0.25344768  0.57449769  0.40921116  1
  Cl  Cl35  1  0.82382128  0.41692368  0.09184798  1
  O  O36  1  0.94191463  0.44162932  0.58334725  1
  O  O37  1  0.38723131  0.50831834  0.92273952  1
  O  O38  1  0.10445035  0.50831834  0.42273952  1
  O  O39  1  0.61645606  0.44162932  0.08334725  1
  O  O40  1  0.15146221  0.17874304  0.28962552  1
  O  O41  1  0.28847429  0.86093150  0.21723170  1
  O  O42  1  0.85059421  0.86093150  0.71723170  1
  O  O43  1  0.66979476  0.17874304  0.78962552  1
  O  O44  1  0.82621857  0.08254615  0.35538311  1
  O  O45  1  0.87704610  0.93938209  0.12995580  1
  O  O46  1  0.18357181  0.93938209  0.62995580  1
  O  O47  1  0.09123527  0.08254615  0.85538311  1
  O  O48  1  0.48089477  0.93413367  0.30742162  1
  O  O49  1  0.42977236  0.06850990  0.20024050  1
  O  O50  1  0.50171774  0.06850990  0.70024050  1
  O  O51  1  0.58497156  0.93413367  0.80742162  1
  O  O52  1  0.75037801  0.50097921  0.29719122  1
  O  O53  1  0.24301973  0.51975002  0.20019432  1
  O  O54  1  0.23723025  0.51975002  0.70019432  1
  O  O55  1  0.74864278  0.50097921  0.79719122  1
  O  O56  1  0.77033184  0.31950508  0.65063814  1
  O  O57  1  0.12364896  0.67149473  0.84893962  1
  O  O58  1  0.20485631  0.67149473  0.34893962  1
  O  O59  1  0.91016308  0.31950508  0.15063814  1
  O  O60  1  0.67147251  0.66071778  0.45859979  1
  O  O61  1  0.29724294  0.35747820  0.04865207  1
  O  O62  1  0.34527887  0.35747820  0.54865207  1
  O  O63  1  0.66780971  0.66071778  0.95859979  1
  O  O64  1  0.57222371  0.59925592  0.60309498  1
  O  O65  1  0.12940176  0.41088444  0.89622373  1
  O  O66  1  0.45971380  0.41088444  0.39622373  1
  O  O67  1  0.82852037  0.59925592  0.10309498  1
  O  O68  1  0.22072315  0.11428321  0.44395691  1
  O  O69  1  0.35836396  0.83264394  0.04874576  1
  O  O70  1  0.80899211  0.83264394  0.54874576  1
  O  O71  1  0.66499365  0.11428321  0.94395691  1
  O  O72  1  0.75435773  0.29194574  0.52233011  1
  O  O73  1  0.04190010  0.71279882  0.97533283  1
  O  O74  1  0.24530108  0.71279882  0.47533283  1
  O  O75  1  0.95369652  0.29194574  0.02233011  1
