# generated using pymatgen
data_Mn(CuSe)2
_symmetry_space_group_name_H-M   'P 1'
_cell_length_a   8.07802003
_cell_length_b   8.07802003
_cell_length_c   8.07802003
_cell_angle_alpha   90.00000000
_cell_angle_beta   60.00000000
_cell_angle_gamma   120.00000000
_symmetry_Int_Tables_number   1
_chemical_formula_structural   Mn(CuSe)2
_chemical_formula_sum   'Mn4 Cu8 Se8'
_cell_volume   372.73465989
_cell_formula_units_Z   4
loop_
 _symmetry_equiv_pos_site_id
 _symmetry_equiv_pos_as_xyz
  1  'x, y, z'
loop_
 _atom_site_type_symbol
 _atom_site_label
 _atom_site_symmetry_multiplicity
 _atom_site_fract_x
 _atom_site_fract_y
 _atom_site_fract_z
 _atom_site_occupancy
  Mn  Mn0  1  0.50773642  0.51160463  0.99613179  1
  Mn  Mn1  1  0.50773642  0.99613179  0.99613179  1
  Mn  Mn2  1  0.99226358  0.99613179  0.51160463  1
  Mn  Mn3  1  0.99226358  0.99613179  0.99613179  1
  Cu  Cu4  1  0.73588001  0.86794001  0.38205999  1
  Cu  Cu5  1  0.76411999  0.38205999  0.86794001  1
  Cu  Cu6  1  0.25000000  0.86794001  0.86794001  1
  Cu  Cu7  1  0.25000000  0.38205999  0.38205999  1
  Cu  Cu8  1  0.25000000  0.38205999  0.86794001  1
  Cu  Cu9  1  0.25000000  0.86794001  0.38205999  1
  Cu  Cu10  1  0.75000000  0.37500000  0.37500000  1
  Cu  Cu11  1  0.25000000  0.62500000  0.62500000  1
  Se  Se12  1  0.99817422  0.74726133  0.25091289  1
  Se  Se13  1  0.99817422  0.25091289  0.25091289  1
  Se  Se14  1  0.50182578  0.25091289  0.74726133  1
  Se  Se15  1  0.50182578  0.25091289  0.25091289  1
  Se  Se16  1  0.98902338  0.23353507  0.75548831  1
  Se  Se17  1  0.98902338  0.75548831  0.75548831  1
  Se  Se18  1  0.51097662  0.75548831  0.23353507  1
  Se  Se19  1  0.51097662  0.75548831  0.75548831  1
