# generated using pymatgen
data_La3Fe4AgO12
_symmetry_space_group_name_H-M   'P 1'
_cell_length_a   5.54405093
_cell_length_b   5.56155786
_cell_length_c   7.90506817
_cell_angle_alpha   90.00000000
_cell_angle_beta   90.00000000
_cell_angle_gamma   89.79207976
_symmetry_Int_Tables_number   1
_chemical_formula_structural   La3Fe4AgO12
_chemical_formula_sum   'La3 Fe4 Ag1 O12'
_cell_volume   243.73978908
_cell_formula_units_Z   1
loop_
 _symmetry_equiv_pos_site_id
 _symmetry_equiv_pos_as_xyz
  1  'x, y, z'
loop_
 _atom_site_type_symbol
 _atom_site_label
 _atom_site_symmetry_multiplicity
 _atom_site_fract_x
 _atom_site_fract_y
 _atom_site_fract_z
 _atom_site_occupancy
  La  La0  1  0.99160132  0.03143059  0.25000000  1
  La  La1  1  0.49236064  0.46736255  0.75000000  1
  La  La2  1  0.00285785  0.96986144  0.75000000  1
  Fe  Fe3  1  0.49845313  0.99498676  0.00556124  1
  Fe  Fe4  1  0.99969492  0.50177078  0.49505699  1
  Fe  Fe5  1  0.49845313  0.99498676  0.49443876  1
  Fe  Fe6  1  0.99969492  0.50177078  0.00494301  1
  Ag  Ag7  1  0.50229772  0.51888637  0.25000000  1
  O  O8  1  0.42790477  0.97726741  0.25000000  1
  O  O9  1  0.07529991  0.48759900  0.25000000  1
  O  O10  1  0.56378124  0.01570385  0.75000000  1
  O  O11  1  0.92792980  0.50588552  0.75000000  1
  O  O12  1  0.79638220  0.79564706  0.02477278  1
  O  O13  1  0.72203375  0.27899355  0.46514786  1
  O  O14  1  0.21684442  0.21734105  0.53826376  1
  O  O15  1  0.27457496  0.72426243  0.94992745  1
  O  O16  1  0.21684442  0.21734105  0.96173624  1
  O  O17  1  0.27457496  0.72426243  0.55007255  1
  O  O18  1  0.79638220  0.79564706  0.47522722  1
  O  O19  1  0.72203375  0.27899355  0.03485214  1
