# generated using pymatgen
data_LaY
_symmetry_space_group_name_H-M   'P 1'
_cell_length_a   3.67622104
_cell_length_b   3.67597588
_cell_length_c   11.91262190
_cell_angle_alpha   90.00000000
_cell_angle_beta   90.00000000
_cell_angle_gamma   60.00219512
_symmetry_Int_Tables_number   1
_chemical_formula_structural   LaY
_chemical_formula_sum   'La2 Y2'
_cell_volume   139.41896834
_cell_formula_units_Z   2
loop_
 _symmetry_equiv_pos_site_id
 _symmetry_equiv_pos_as_xyz
  1  'x, y, z'
loop_
 _atom_site_type_symbol
 _atom_site_label
 _atom_site_symmetry_multiplicity
 _atom_site_fract_x
 _atom_site_fract_y
 _atom_site_fract_z
 _atom_site_occupancy
  La  La0  1  0.33337140  0.33331430  0.75000000  1
  La  La1  1  0.66662860  0.66668570  0.25000000  1
  Y  Y2  1  -0.00000000  0.00000000  0.50000000  1
  Y  Y3  1  -0.00000000  0.00000000  0.00000000  1
