# generated using pymatgen
data_Li3MnCoNiO6
_symmetry_space_group_name_H-M   'P 1'
_cell_length_a   5.09424246
_cell_length_b   5.09424272
_cell_length_c   5.11958407
_cell_angle_alpha   80.80193791
_cell_angle_beta   99.19807921
_cell_angle_gamma   59.30462770
_symmetry_Int_Tables_number   1
_chemical_formula_structural   Li3MnCoNiO6
_chemical_formula_sum   'Li3 Mn1 Co1 Ni1 O6'
_cell_volume   108.11788356
_cell_formula_units_Z   1
loop_
 _symmetry_equiv_pos_site_id
 _symmetry_equiv_pos_as_xyz
  1  'x, y, z'
loop_
 _atom_site_type_symbol
 _atom_site_label
 _atom_site_symmetry_multiplicity
 _atom_site_fract_x
 _atom_site_fract_y
 _atom_site_fract_z
 _atom_site_occupancy
  Li  Li0  1  0.83347415  0.83347415  0.50000000  1
  Li  Li1  1  0.50042710  0.50042710  0.50000000  1
  Li  Li2  1  0.16565787  0.16565787  0.50000000  1
  Mn  Mn3  1  0.66606236  0.66606236  -0.00000000  1
  Co  Co4  1  0.33530560  0.33530560  -0.00000000  1
  Ni  Ni5  1  0.00008424  0.00008424  -0.00000000  1
  O  O6  1  0.73502048  0.28033563  0.23087962  1
  O  O7  1  0.42907755  0.91019852  0.22583403  1
  O  O8  1  0.06730685  0.57704965  0.22551940  1
  O  O9  1  0.91019852  0.42907755  0.77416597  1
  O  O10  1  0.57704966  0.06730685  0.77448060  1
  O  O11  1  0.28033563  0.73502048  0.76912038  1
