# generated using pymatgen
data_Lu3Ga10Ni
_symmetry_space_group_name_H-M   'P 1'
_cell_length_a   4.19225630
_cell_length_b   8.28661466
_cell_length_c   8.03912320
_cell_angle_alpha   82.73253742
_cell_angle_beta   105.11402855
_cell_angle_gamma   75.34764604
_symmetry_Int_Tables_number   1
_chemical_formula_structural   Lu3Ga10Ni
_chemical_formula_sum   'Lu3 Ga10 Ni1'
_cell_volume   255.24961936
_cell_formula_units_Z   1
loop_
 _symmetry_equiv_pos_site_id
 _symmetry_equiv_pos_as_xyz
  1  'x, y, z'
loop_
 _atom_site_type_symbol
 _atom_site_label
 _atom_site_symmetry_multiplicity
 _atom_site_fract_x
 _atom_site_fract_y
 _atom_site_fract_z
 _atom_site_occupancy
  Lu  Lu0  1  0.01164953  0.67048403  0.69378310  1
  Lu  Lu1  1  0.00163583  0.31452031  0.31779197  1
  Lu  Lu2  1  0.99480447  0.00902955  0.99863849  1
  Ga  Ga3  1  0.28077065  0.55506210  0.11660340  1
  Ga  Ga4  1  0.74372554  0.41095545  0.89840654  1
  Ga  Ga5  1  0.72421294  0.12500809  0.57343398  1
  Ga  Ga6  1  0.27047038  0.87953637  0.42047713  1
  Ga  Ga7  1  0.50141601  0.49789955  0.50073157  1
  Ga  Ga8  1  0.20986420  0.29209100  0.71181940  1
  Ga  Ga9  1  0.79639809  0.70916294  0.30195912  1
  Ga  Ga10  1  0.62383620  0.72242046  0.97009285  1
  Ga  Ga11  1  0.60000763  0.05666927  0.25668454  1
  Ga  Ga12  1  0.37730537  0.96700590  0.72161665  1
  Ni  Ni13  1  0.36390314  0.29015497  0.01796126  1
