# generated using pymatgen
data_Li4SiGe3O10
_symmetry_space_group_name_H-M   'P 1'
_cell_length_a   5.08091223
_cell_length_b   6.23148996
_cell_length_c   8.13034732
_cell_angle_alpha   90.15968762
_cell_angle_beta   71.41883105
_cell_angle_gamma   89.63680838
_symmetry_Int_Tables_number   1
_chemical_formula_structural   Li4SiGe3O10
_chemical_formula_sum   'Li4 Si1 Ge3 O10'
_cell_volume   243.99370398
_cell_formula_units_Z   1
loop_
 _symmetry_equiv_pos_site_id
 _symmetry_equiv_pos_as_xyz
  1  'x, y, z'
loop_
 _atom_site_type_symbol
 _atom_site_label
 _atom_site_symmetry_multiplicity
 _atom_site_fract_x
 _atom_site_fract_y
 _atom_site_fract_z
 _atom_site_occupancy
  Li  Li0  1  0.59704531  0.35653294  0.89062842  1
  Li  Li1  1  0.48031105  0.64628529  0.10900126  1
  Li  Li2  1  0.09447887  0.63973399  0.88477411  1
  Li  Li3  1  0.98811151  0.35136955  0.09976753  1
  Si  Si4  1  0.05766076  0.15487335  0.70980472  1
  Ge  Ge5  1  0.76789005  0.84257753  0.29090703  1
  Ge  Ge6  1  0.56178748  0.84899054  0.70862267  1
  Ge  Ge7  1  0.26140238  0.15902013  0.29825832  1
  O  O8  1  0.72627396  0.09356984  0.73413632  1
  O  O9  1  0.43060825  0.90241760  0.26870842  1
  O  O10  1  0.20572707  0.92488169  0.73674232  1
  O  O11  1  0.92965244  0.10025947  0.26820854  1
  O  O12  1  0.03245726  0.33586241  0.85376005  1
  O  O13  1  0.89007559  0.65490380  0.13022703  1
  O  O14  1  0.51720845  0.65725652  0.86502758  1
  O  O15  1  0.38910262  0.34524759  0.13876148  1
  O  O16  1  0.21447012  0.24576143  0.51268194  1
  O  O17  1  0.73173683  0.74045633  0.49998226  1
