# generated using pymatgen
data_La2Mn3Sb3O14
_symmetry_space_group_name_H-M   'P 1'
_cell_length_a   7.43894705
_cell_length_b   7.35204793
_cell_length_c   7.44445495
_cell_angle_alpha   90.00000000
_cell_angle_beta   59.97550425
_cell_angle_gamma   119.99844469
_symmetry_Int_Tables_number   1
_chemical_formula_structural   La2Mn3Sb3O14
_chemical_formula_sum   'La2 Mn3 Sb3 O14'
_cell_volume   287.79750466
_cell_formula_units_Z   1
loop_
 _symmetry_equiv_pos_site_id
 _symmetry_equiv_pos_as_xyz
  1  'x, y, z'
loop_
 _atom_site_type_symbol
 _atom_site_label
 _atom_site_symmetry_multiplicity
 _atom_site_fract_x
 _atom_site_fract_y
 _atom_site_fract_z
 _atom_site_occupancy
  La  La0  1  0.50000000  0.50000000  0.00000000  1
  La  La1  1  0.50000000  -0.00000000  0.00000000  1
  Mn  Mn2  1  -0.00000000  -0.00000000  0.50000000  1
  Mn  Mn3  1  -0.00000000  -0.00000000  0.00000000  1
  Mn  Mn4  1  0.50000000  -0.00000000  0.50000000  1
  Sb  Sb5  1  0.50000000  0.50000000  0.50000000  1
  Sb  Sb6  1  -0.00000000  0.50000000  0.00000000  1
  Sb  Sb7  1  -0.00000000  0.50000000  0.50000000  1
  O  O8  1  0.21593363  0.11051946  0.14203318  1
  O  O9  1  0.78406637  0.88948054  0.85796682  1
  O  O10  1  0.64338377  0.82350561  0.42830812  1
  O  O11  1  0.84566836  0.42945680  0.82716582  1
  O  O12  1  0.24275690  0.81969202  0.83819594  1
  O  O13  1  0.25281752  0.42469194  0.42256120  1
  O  O14  1  0.25281752  0.42469194  0.82462128  1
  O  O15  1  0.24275690  0.81969202  0.41904717  1
  O  O16  1  0.35661623  0.17649439  0.57169188  1
  O  O17  1  0.15433164  0.57054320  0.17283418  1
  O  O18  1  0.75724310  0.18030798  0.16180406  1
  O  O19  1  0.74718248  0.57530806  0.57743880  1
  O  O20  1  0.74718248  0.57530806  0.17537872  1
  O  O21  1  0.75724310  0.18030798  0.58095283  1
