# generated using pymatgen
data_K2PtI5
_symmetry_space_group_name_H-M   'P 1'
_cell_length_a   7.90662336
_cell_length_b   7.90662336
_cell_length_c   11.52497834
_cell_angle_alpha   90.00000000
_cell_angle_beta   90.00000000
_cell_angle_gamma   108.73990171
_symmetry_Int_Tables_number   1
_chemical_formula_structural   K2PtI5
_chemical_formula_sum   'K4 Pt2 I10'
_cell_volume   682.28548336
_cell_formula_units_Z   2
loop_
 _symmetry_equiv_pos_site_id
 _symmetry_equiv_pos_as_xyz
  1  'x, y, z'
loop_
 _atom_site_type_symbol
 _atom_site_label
 _atom_site_symmetry_multiplicity
 _atom_site_fract_x
 _atom_site_fract_y
 _atom_site_fract_z
 _atom_site_occupancy
  K  K0  1  0.92241177  0.53580243  0.25248638  1
  K  K1  1  0.46419757  0.07758823  0.75248638  1
  K  K2  1  0.07758823  0.46419757  0.75248638  1
  K  K3  1  0.53580243  0.92241177  0.25248638  1
  Pt  Pt4  1  0.99987475  0.99987475  0.50277533  1
  Pt  Pt5  1  0.00012525  0.00012525  0.00277533  1
  I  I6  1  0.29231953  0.29231953  0.52418521  1
  I  I7  1  0.70740074  0.70740074  0.48086349  1
  I  I8  1  0.29259926  0.29259926  0.98086349  1
  I  I9  1  0.70768047  0.70768047  0.02418521  1
  I  I10  1  0.79065093  0.20915017  0.50257368  1
  I  I11  1  0.79084983  0.20934907  0.00257368  1
  I  I12  1  0.20915017  0.79065093  0.50257368  1
  I  I13  1  0.20934907  0.79084983  0.00257368  1
  I  I14  1  0.03402937  0.03402937  0.25285585  1
  I  I15  1  0.96597063  0.96597063  0.75285585  1
