# generated using pymatgen
data_La3Si(Mo2O7)2
_symmetry_space_group_name_H-M   'P 1'
_cell_length_a   6.11773217
_cell_length_b   10.91170399
_cell_length_c   18.28395325
_cell_angle_alpha   90.00000000
_cell_angle_beta   90.00000000
_cell_angle_gamma   90.00000000
_symmetry_Int_Tables_number   1
_chemical_formula_structural   La3Si(Mo2O7)2
_chemical_formula_sum   'La12 Si4 Mo16 O56'
_cell_volume   1220.54315137
_cell_formula_units_Z   4
loop_
 _symmetry_equiv_pos_site_id
 _symmetry_equiv_pos_as_xyz
  1  'x, y, z'
loop_
 _atom_site_type_symbol
 _atom_site_label
 _atom_site_symmetry_multiplicity
 _atom_site_fract_x
 _atom_site_fract_y
 _atom_site_fract_z
 _atom_site_occupancy
  La  La0  1  0.24676766  0.79657141  0.02972147  1
  La  La1  1  0.24676766  0.70342859  0.52972147  1
  La  La2  1  0.74676766  0.20342859  0.97027853  1
  La  La3  1  0.74676766  0.29657141  0.47027853  1
  La  La4  1  0.25328889  0.01995395  0.84187046  1
  La  La5  1  0.25328889  0.48004605  0.34187046  1
  La  La6  1  0.75328889  0.98004605  0.15812954  1
  La  La7  1  0.75328889  0.51995395  0.65812954  1
  La  La8  1  0.25040863  0.37129995  0.83285194  1
  La  La9  1  0.25040863  0.12870005  0.33285194  1
  La  La10  1  0.75040863  0.62870005  0.16714806  1
  La  La11  1  0.75040863  0.87129995  0.66714806  1
  Si  Si12  1  0.24760660  0.39968571  0.55613769  1
  Si  Si13  1  0.24760660  0.10031429  0.05613769  1
  Si  Si14  1  0.74760660  0.60031429  0.44386231  1
  Si  Si15  1  0.74760660  0.89968571  0.94386231  1
  Mo  Mo16  1  0.25148790  0.63205649  0.70294445  1
  Mo  Mo17  1  0.25148790  0.86794351  0.20294445  1
  Mo  Mo18  1  0.75148790  0.36794351  0.29705555  1
  Mo  Mo19  1  0.75148790  0.13205649  0.79705555  1
  Mo  Mo20  1  0.99041378  0.67811573  0.84741733  1
  Mo  Mo21  1  0.50868309  0.81786330  0.34359730  1
  Mo  Mo22  1  0.49041378  0.32188427  0.15258267  1
  Mo  Mo23  1  0.00868309  0.18213670  0.65640270  1
  Mo  Mo24  1  0.00868309  0.31786330  0.15640270  1
  Mo  Mo25  1  0.49041378  0.17811573  0.65258267  1
  Mo  Mo26  1  0.50868309  0.68213670  0.84359730  1
  Mo  Mo27  1  0.99041378  0.82188427  0.34741733  1
  Mo  Mo28  1  0.24857451  0.49483212  0.00385413  1
  Mo  Mo29  1  0.74857451  0.50516788  0.99614587  1
  Mo  Mo30  1  0.74857451  0.99483212  0.49614587  1
  Mo  Mo31  1  0.24857451  0.00516788  0.50385413  1
  O  O32  1  0.75942954  0.09239488  0.59517375  1
  O  O33  1  0.75942954  0.40760512  0.09517375  1
  O  O34  1  0.25942954  0.90760512  0.40482625  1
  O  O35  1  0.25942954  0.59239488  0.90482625  1
  O  O36  1  0.01801287  0.32286771  0.57371306  1
  O  O37  1  0.47657850  0.17705123  0.07205993  1
  O  O38  1  0.51801287  0.67713229  0.42628694  1
  O  O39  1  0.97657850  0.82294877  0.92794007  1
  O  O40  1  0.97657850  0.67705123  0.42794007  1
  O  O41  1  0.51801287  0.82286771  0.92628694  1
  O  O42  1  0.47657850  0.32294877  0.57205993  1
  O  O43  1  0.01801287  0.17713229  0.07371306  1
  O  O44  1  0.25560504  0.73351914  0.29025288  1
  O  O45  1  0.25560504  0.76648086  0.79025288  1
  O  O46  1  0.75560504  0.26648086  0.70974712  1
  O  O47  1  0.75560504  0.23351914  0.20974712  1
  O  O48  1  0.24600130  0.45876449  0.47421611  1
  O  O49  1  0.24600130  0.04123551  0.97421611  1
  O  O50  1  0.74600130  0.54123551  0.52578389  1
  O  O51  1  0.74600130  0.95876449  0.02578389  1
  O  O52  1  0.99800990  0.70245997  0.64704725  1
  O  O53  1  0.50348040  0.79959720  0.14609258  1
  O  O54  1  0.49800990  0.29754003  0.35295275  1
  O  O55  1  0.00348040  0.20040280  0.85390742  1
  O  O56  1  0.00348040  0.29959720  0.35390742  1
  O  O57  1  0.49800990  0.20245997  0.85295275  1
  O  O58  1  0.50348040  0.70040280  0.64609258  1
  O  O59  1  0.99800990  0.79754003  0.14704725  1
  O  O60  1  0.00002519  0.88727953  0.54106723  1
  O  O61  1  0.49824513  0.60733143  0.04414993  1
  O  O62  1  0.50002519  0.11272047  0.45893277  1
  O  O63  1  0.99824513  0.39266857  0.95585007  1
  O  O64  1  0.99824513  0.10733143  0.45585007  1
  O  O65  1  0.50002519  0.38727953  0.95893277  1
  O  O66  1  0.49824513  0.89266857  0.54414993  1
  O  O67  1  0.00002519  0.61272047  0.04106723  1
  O  O68  1  0.73906367  0.76437699  0.78466478  1
  O  O69  1  0.73906367  0.73562301  0.28466478  1
  O  O70  1  0.23906367  0.23562301  0.21533522  1
  O  O71  1  0.23906367  0.26437699  0.71533522  1
  O  O72  1  0.52408733  0.46414416  0.23568297  1
  O  O73  1  0.98059258  0.03671088  0.73579040  1
  O  O74  1  0.02408733  0.53585584  0.76431703  1
  O  O75  1  0.48059258  0.96328912  0.26420960  1
  O  O76  1  0.48059258  0.53671088  0.76420960  1
  O  O77  1  0.02408733  0.96414416  0.26431703  1
  O  O78  1  0.98059258  0.46328912  0.23579040  1
  O  O79  1  0.52408733  0.03585584  0.73568297  1
  O  O80  1  0.24390947  0.51523930  0.61300646  1
  O  O81  1  0.24390947  0.98476070  0.11300646  1
  O  O82  1  0.74390947  0.48476070  0.38699354  1
  O  O83  1  0.74390947  0.01523930  0.88699354  1
  O  O84  1  0.73392800  0.91093447  0.40090218  1
  O  O85  1  0.73392800  0.58906553  0.90090218  1
  O  O86  1  0.23392800  0.08906553  0.59909782  1
  O  O87  1  0.23392800  0.41093447  0.09909782  1
