# generated using pymatgen
data_K2Zn3GeAs4
_symmetry_space_group_name_H-M   'P 1'
_cell_length_a   5.84491133
_cell_length_b   5.83328312
_cell_length_c   7.85671144
_cell_angle_alpha   90.00000000
_cell_angle_beta   68.16287177
_cell_angle_gamma   90.00000000
_symmetry_Int_Tables_number   1
_chemical_formula_structural   K2Zn3GeAs4
_chemical_formula_sum   'K2 Zn3 Ge1 As4'
_cell_volume   248.65339647
_cell_formula_units_Z   1
loop_
 _symmetry_equiv_pos_site_id
 _symmetry_equiv_pos_as_xyz
  1  'x, y, z'
loop_
 _atom_site_type_symbol
 _atom_site_label
 _atom_site_symmetry_multiplicity
 _atom_site_fract_x
 _atom_site_fract_y
 _atom_site_fract_z
 _atom_site_occupancy
  K  K0  1  0.50000000  0.50257161  0.00000000  1
  K  K1  1  0.00000000  0.99742839  0.00000000  1
  Zn  Zn2  1  0.50000000  0.25000000  0.50000000  1
  Zn  Zn3  1  0.50000000  0.75000000  0.50000000  1
  Zn  Zn4  1  -0.00000000  0.25000000  0.50000000  1
  Ge  Ge5  1  -0.00000000  0.75000000  0.50000000  1
  As  As6  1  0.34978664  0.99301749  0.28590008  1
  As  As7  1  0.86431328  0.50698251  0.28590008  1
  As  As8  1  0.13568672  0.50698251  0.71409992  1
  As  As9  1  0.65021336  0.99301749  0.71409992  1
