# generated using pymatgen
data_KCa2Ta3O10
_symmetry_space_group_name_H-M   'P 1'
_cell_length_a   3.94086437
_cell_length_b   3.94552385
_cell_length_c   15.25730083
_cell_angle_alpha   82.57088289
_cell_angle_beta   90.00000000
_cell_angle_gamma   90.00000000
_symmetry_Int_Tables_number   1
_chemical_formula_structural   KCa2Ta3O10
_chemical_formula_sum   'K1 Ca2 Ta3 O10'
_cell_volume   235.24090066
_cell_formula_units_Z   1
loop_
 _symmetry_equiv_pos_site_id
 _symmetry_equiv_pos_as_xyz
  1  'x, y, z'
loop_
 _atom_site_type_symbol
 _atom_site_label
 _atom_site_symmetry_multiplicity
 _atom_site_fract_x
 _atom_site_fract_y
 _atom_site_fract_z
 _atom_site_occupancy
  K  K0  1  -0.00000000  0.75847835  0.48304331  1
  Ca  Ca1  1  -0.00000000  0.92470231  0.15059537  1
  Ca  Ca2  1  0.00000000  0.07655925  0.84688149  1
  Ta  Ta3  1  0.50000000  0.64156892  0.71686217  1
  Ta  Ta4  1  0.50000000  0.35841236  0.28317528  1
  Ta  Ta5  1  0.50000000  0.50006144  0.99987712  1
  O  O6  1  -0.00000000  0.62750209  0.74499582  1
  O  O7  1  -0.00000000  0.37187890  0.25624220  1
  O  O8  1  0.50000000  0.87191872  0.25616256  1
  O  O9  1  0.50000000  0.12723272  0.74553456  1
  O  O10  1  0.50000000  0.70062630  0.59874740  1
  O  O11  1  0.50000000  0.29881239  0.40237522  1
  O  O12  1  0.50000000  0.56483386  0.87033229  1
  O  O13  1  0.50000000  0.43452069  0.13095862  1
  O  O14  1  -0.00000000  0.49950490  0.00099020  1
  O  O15  1  0.50000000  0.99948680  0.00102640  1
