# generated using pymatgen
data_InCuO3
_symmetry_space_group_name_H-M   'P 1'
_cell_length_a   3.44733401
_cell_length_b   3.44763249
_cell_length_c   6.04482915
_cell_angle_alpha   89.99999968
_cell_angle_beta   106.58138885
_cell_angle_gamma   59.99713684
_symmetry_Int_Tables_number   1
_chemical_formula_structural   InCuO3
_chemical_formula_sum   'In1 Cu1 O3'
_cell_volume   58.74142448
_cell_formula_units_Z   1
loop_
 _symmetry_equiv_pos_site_id
 _symmetry_equiv_pos_as_xyz
  1  'x, y, z'
loop_
 _atom_site_type_symbol
 _atom_site_label
 _atom_site_symmetry_multiplicity
 _atom_site_fract_x
 _atom_site_fract_y
 _atom_site_fract_z
 _atom_site_occupancy
  In  In0  1  0.00433858  0.49783071  0.50686824  1
  Cu  Cu1  1  0.99420027  0.00289986  0.99120138  1
  O  O2  1  0.77644716  0.11177642  0.66463132  1
  O  O3  1  0.21330072  0.89334964  0.32012342  1
  O  O4  1  0.31391326  0.34304337  0.97037563  1
