# generated using pymatgen
data_Ga3Co4Ge
_symmetry_space_group_name_H-M   'P 1'
_cell_length_a   4.64835108
_cell_length_b   4.64835108
_cell_length_c   4.64835108
_cell_angle_alpha   89.32414053
_cell_angle_beta   90.67585947
_cell_angle_gamma   89.32414053
_symmetry_Int_Tables_number   1
_chemical_formula_structural   Ga3Co4Ge
_chemical_formula_sum   'Ga3 Co4 Ge1'
_cell_volume   100.41657217
_cell_formula_units_Z   1
loop_
 _symmetry_equiv_pos_site_id
 _symmetry_equiv_pos_as_xyz
  1  'x, y, z'
loop_
 _atom_site_type_symbol
 _atom_site_label
 _atom_site_symmetry_multiplicity
 _atom_site_fract_x
 _atom_site_fract_y
 _atom_site_fract_z
 _atom_site_occupancy
  Ga  Ga0  1  0.34653121  0.66046100  0.15755587  1
  Ga  Ga1  1  0.65755587  0.15346879  0.33953900  1
  Ga  Ga2  1  0.83953900  0.84244413  0.84653121  1
  Co  Co3  1  0.86358440  0.63641560  0.36358440  1
  Co  Co4  1  0.63924173  0.36131424  0.85550956  1
  Co  Co5  1  0.35550956  0.86075827  0.63868576  1
  Co  Co6  1  0.13868576  0.14449044  0.13924173  1
  Ge  Ge7  1  0.15935247  0.34064753  0.65935247  1
