# generated using pymatgen
data_Fe6BC
_symmetry_space_group_name_H-M   'P 1'
_cell_length_a   4.44879067
_cell_length_b   5.21218303
_cell_length_c   6.66029552
_cell_angle_alpha   90.00000000
_cell_angle_beta   90.00000000
_cell_angle_gamma   90.00000000
_symmetry_Int_Tables_number   1
_chemical_formula_structural   Fe6BC
_chemical_formula_sum   'Fe12 B2 C2'
_cell_volume   154.43834131
_cell_formula_units_Z   2
loop_
 _symmetry_equiv_pos_site_id
 _symmetry_equiv_pos_as_xyz
  1  'x, y, z'
loop_
 _atom_site_type_symbol
 _atom_site_label
 _atom_site_symmetry_multiplicity
 _atom_site_fract_x
 _atom_site_fract_y
 _atom_site_fract_z
 _atom_site_occupancy
  Fe  Fe0  1  0.86831053  0.52287097  0.25000000  1
  Fe  Fe1  1  0.63168947  0.02287097  0.25000000  1
  Fe  Fe2  1  0.15748308  0.46454667  0.75000000  1
  Fe  Fe3  1  0.34251692  0.96454667  0.75000000  1
  Fe  Fe4  1  0.34538540  0.67906096  0.05653227  1
  Fe  Fe5  1  0.15461460  0.17906096  0.44346773  1
  Fe  Fe6  1  0.66214150  0.32518994  0.56484629  1
  Fe  Fe7  1  0.83785850  0.82518994  0.93515371  1
  Fe  Fe8  1  0.66214150  0.32518994  0.93515371  1
  Fe  Fe9  1  0.83785850  0.82518994  0.56484629  1
  Fe  Fe10  1  0.34538540  0.67906096  0.44346773  1
  Fe  Fe11  1  0.15461460  0.17906096  0.05653227  1
  B  B12  1  0.06955924  0.88146226  0.25000000  1
  B  B13  1  0.43044076  0.38146226  0.25000000  1
  C  C14  1  0.93531980  0.12261830  0.75000000  1
  C  C15  1  0.56468020  0.62261830  0.75000000  1
