# generated using pymatgen
data_GdTiFe11C
_symmetry_space_group_name_H-M   'P 1'
_cell_length_a   4.87841938
_cell_length_b   6.49490094
_cell_length_c   6.49490094
_cell_angle_alpha   97.58417948
_cell_angle_beta   112.05877839
_cell_angle_gamma   67.94122161
_symmetry_Int_Tables_number   1
_chemical_formula_structural   GdTiFe11C
_chemical_formula_sum   'Gd1 Ti1 Fe11 C1'
_cell_volume   176.75479590
_cell_formula_units_Z   1
loop_
 _symmetry_equiv_pos_site_id
 _symmetry_equiv_pos_as_xyz
  1  'x, y, z'
loop_
 _atom_site_type_symbol
 _atom_site_label
 _atom_site_symmetry_multiplicity
 _atom_site_fract_x
 _atom_site_fract_y
 _atom_site_fract_z
 _atom_site_occupancy
  Gd  Gd0  1  0.00813076  0.99186924  0.00813076  1
  Ti  Ti1  1  0.63371104  0.36628896  0.63371104  1
  Fe  Fe2  1  0.72587994  0.77412006  0.22587994  1
  Fe  Fe3  1  0.27662296  0.22337704  0.77662296  1
  Fe  Fe4  1  0.49747470  0.78164687  0.77659628  1
  Fe  Fe5  1  0.49747470  0.22340372  0.21835313  1
  Fe  Fe6  1  0.49997036  0.99762848  0.49882738  1
  Fe  Fe7  1  0.00122854  0.99762848  0.49882738  1
  Fe  Fe8  1  0.49997036  0.50117262  0.00237152  1
  Fe  Fe9  1  0.00122854  0.50117262  0.00237152  1
  Fe  Fe10  1  0.35727594  0.64272406  0.35727594  1
  Fe  Fe11  1  0.99978856  0.35909873  0.35867586  1
  Fe  Fe12  1  0.99978856  0.64132414  0.64090127  1
  C  C13  1  0.50145502  -0.00145502  0.00145502  1
