# generated using pymatgen
data_GdCu4Pd
_symmetry_space_group_name_H-M   'P 1'
_cell_length_a   5.01934963
_cell_length_b   5.01934963
_cell_length_c   5.16369300
_cell_angle_alpha   90.00000000
_cell_angle_beta   60.92046566
_cell_angle_gamma   120.00000000
_symmetry_Int_Tables_number   1
_chemical_formula_structural   GdCu4Pd
_chemical_formula_sum   'Gd1 Cu4 Pd1'
_cell_volume   93.24906839
_cell_formula_units_Z   1
loop_
 _symmetry_equiv_pos_site_id
 _symmetry_equiv_pos_as_xyz
  1  'x, y, z'
loop_
 _atom_site_type_symbol
 _atom_site_label
 _atom_site_symmetry_multiplicity
 _atom_site_fract_x
 _atom_site_fract_y
 _atom_site_fract_z
 _atom_site_occupancy
  Gd  Gd0  1  0.00136050  0.00068025  0.99795925  1
  Cu  Cu1  1  0.24686084  0.37434061  0.37879855  1
  Cu  Cu2  1  0.24686084  0.87252024  0.37879855  1
  Cu  Cu3  1  0.74868122  0.37434061  0.37879855  1
  Cu  Cu4  1  0.50543137  0.75271569  0.74185294  1
  Pd  Pd5  1  0.75080522  0.37540261  0.87379217  1
