# generated using pymatgen
data_FeCu2GeS4
_symmetry_space_group_name_H-M   'P 1'
_cell_length_a   5.31272820
_cell_length_b   5.31272820
_cell_length_c   6.49375494
_cell_angle_alpha   65.85392330
_cell_angle_beta   65.85392330
_cell_angle_gamma   90.00000000
_symmetry_Int_Tables_number   1
_chemical_formula_structural   FeCu2GeS4
_chemical_formula_sum   'Fe1 Cu2 Ge1 S4'
_cell_volume   149.50320138
_cell_formula_units_Z   1
loop_
 _symmetry_equiv_pos_site_id
 _symmetry_equiv_pos_as_xyz
  1  'x, y, z'
loop_
 _atom_site_type_symbol
 _atom_site_label
 _atom_site_symmetry_multiplicity
 _atom_site_fract_x
 _atom_site_fract_y
 _atom_site_fract_z
 _atom_site_occupancy
  Fe  Fe0  1  0.25000000  0.75000000  0.50000000  1
  Cu  Cu1  1  0.75000000  0.25000000  0.50000000  1
  Cu  Cu2  1  0.00000000  -0.00000000  -0.00000000  1
  Ge  Ge3  1  0.50000000  0.50000000  -0.00000000  1
  S  S4  1  0.37575208  0.87386420  0.74780618  1
  S  S5  1  0.87644174  0.37832962  0.74780618  1
  S  S6  1  0.12613580  0.12355826  0.25219382  1
  S  S7  1  0.62167038  0.62424792  0.25219382  1
