# generated using pymatgen
data_FePO4
_symmetry_space_group_name_H-M   'P 1'
_cell_length_a   6.39968380
_cell_length_b   7.91109632
_cell_length_c   9.40586726
_cell_angle_alpha   105.07755784
_cell_angle_beta   107.73696182
_cell_angle_gamma   100.75521824
_symmetry_Int_Tables_number   1
_chemical_formula_structural   FePO4
_chemical_formula_sum   'Fe6 P6 O24'
_cell_volume   419.25591921
_cell_formula_units_Z   6
loop_
 _symmetry_equiv_pos_site_id
 _symmetry_equiv_pos_as_xyz
  1  'x, y, z'
loop_
 _atom_site_type_symbol
 _atom_site_label
 _atom_site_symmetry_multiplicity
 _atom_site_fract_x
 _atom_site_fract_y
 _atom_site_fract_z
 _atom_site_occupancy
  Fe  Fe0  1  0.01894278  0.00149350  0.01980444  1
  Fe  Fe1  1  0.05483358  0.72438918  0.51568172  1
  Fe  Fe2  1  0.95292129  0.27858054  0.46898424  1
  Fe  Fe3  1  0.61951440  0.55314926  0.89407501  1
  Fe  Fe4  1  0.39107518  0.47956273  0.13369872  1
  Fe  Fe5  1  0.71019400  0.18867158  0.70241979  1
  P  P6  1  0.60429548  0.76909362  0.62946337  1
  P  P7  1  0.38993350  0.22887320  0.36548955  1
  P  P8  1  0.22648935  0.14420576  0.77344976  1
  P  P9  1  0.77676150  0.85471593  0.23552147  1
  P  P10  1  0.08862273  0.58912628  0.82728943  1
  P  P11  1  0.90650243  0.40119930  0.16124483  1
  O  O12  1  0.01687501  0.19192501  0.66575394  1
  O  O13  1  0.98330274  0.81699891  0.34259791  1
  O  O14  1  0.22385227  0.19520773  0.94520972  1
  O  O15  1  0.78492718  0.81202800  0.06068040  1
  O  O16  1  0.57208205  0.64188024  0.72554055  1
  O  O17  1  0.46833942  0.37802114  0.30166299  1
  O  O18  1  0.30846501  0.54244374  0.91458865  1
  O  O19  1  0.68527168  0.45139332  0.07747473  1
  O  O20  1  0.87407585  0.45363388  0.83209342  1
  O  O21  1  0.11301705  0.52347054  0.15186756  1
  O  O22  1  0.76114585  0.72456570  0.54196162  1
  O  O23  1  0.24883146  0.27748817  0.46671988  1
  O  O24  1  0.25738636  0.05005515  0.22282200  1
  O  O25  1  0.72471221  0.97139859  0.75904961  1
  O  O26  1  0.09153121  0.78306306  0.90773904  1
  O  O27  1  0.88006510  0.19898102  0.07800199  1
  O  O28  1  0.06241452  0.54441238  0.65036259  1
  O  O29  1  0.93055528  0.44443316  0.33913964  1
  O  O30  1  0.45498311  0.25898212  0.77034662  1
  O  O31  1  0.54931136  0.73669406  0.22238476  1
  O  O32  1  0.20558213  0.94446956  0.70782187  1
  O  O33  1  0.79029115  0.05721471  0.29409668  1
  O  O34  1  0.37117807  0.76018264  0.51641648  1
  O  O35  1  0.61517769  0.21356627  0.48956505  1
