# generated using pymatgen
data_CoNiGe
_symmetry_space_group_name_H-M   'P 1'
_cell_length_a   3.99411111
_cell_length_b   3.99411111
_cell_length_c   5.08233750
_cell_angle_alpha   90.00000000
_cell_angle_beta   90.00000000
_cell_angle_gamma   119.99985569
_symmetry_Int_Tables_number   1
_chemical_formula_structural   CoNiGe
_chemical_formula_sum   'Co2 Ni2 Ge2'
_cell_volume   70.21583238
_cell_formula_units_Z   2
loop_
 _symmetry_equiv_pos_site_id
 _symmetry_equiv_pos_as_xyz
  1  'x, y, z'
loop_
 _atom_site_type_symbol
 _atom_site_label
 _atom_site_symmetry_multiplicity
 _atom_site_fract_x
 _atom_site_fract_y
 _atom_site_fract_z
 _atom_site_occupancy
  Co  Co0  1  -0.00000000  -0.00000000  0.50000000  1
  Co  Co1  1  -0.00000000  -0.00000000  0.00000000  1
  Ni  Ni2  1  0.66668869  0.33331131  0.25000000  1
  Ni  Ni3  1  0.33331131  0.66668869  0.75000000  1
  Ge  Ge4  1  0.66668030  0.33331970  0.75000000  1
  Ge  Ge5  1  0.33331970  0.66668030  0.25000000  1
