# generated using pymatgen
data_GdCo4Si
_symmetry_space_group_name_H-M   'P 1'
_cell_length_a   3.71209432
_cell_length_b   5.07752811
_cell_length_c   5.07446679
_cell_angle_alpha   59.99584272
_cell_angle_beta   90.00000000
_cell_angle_gamma   90.00000000
_symmetry_Int_Tables_number   1
_chemical_formula_structural   GdCo4Si
_chemical_formula_sum   'Gd1 Co4 Si1'
_cell_volume   82.82743077
_cell_formula_units_Z   1
loop_
 _symmetry_equiv_pos_site_id
 _symmetry_equiv_pos_as_xyz
  1  'x, y, z'
loop_
 _atom_site_type_symbol
 _atom_site_label
 _atom_site_symmetry_multiplicity
 _atom_site_fract_x
 _atom_site_fract_y
 _atom_site_fract_z
 _atom_site_occupancy
  Gd  Gd0  1  0.00000000  0.00008111  -0.00000556  1
  Co  Co1  1  -0.00000000  0.66667891  0.66680461  1
  Co  Co2  1  0.50000000  0.49992804  0.50000101  1
  Co  Co3  1  0.50000000  0.49989195  0.00007463  1
  Co  Co4  1  0.50000000  -0.00019138  0.50006693  1
  Si  Si5  1  -0.00000000  0.33351137  0.33315837  1
