# generated using pymatgen
data_Er2MnGa3
_symmetry_space_group_name_H-M   'P 1'
_cell_length_a   4.36619841
_cell_length_b   5.65964598
_cell_length_c   5.70864359
_cell_angle_alpha   93.91280078
_cell_angle_beta   112.48366628
_cell_angle_gamma   67.31088409
_symmetry_Int_Tables_number   1
_chemical_formula_structural   Er2MnGa3
_chemical_formula_sum   'Er2 Mn1 Ga3'
_cell_volume   119.73611952
_cell_formula_units_Z   1
loop_
 _symmetry_equiv_pos_site_id
 _symmetry_equiv_pos_as_xyz
  1  'x, y, z'
loop_
 _atom_site_type_symbol
 _atom_site_label
 _atom_site_symmetry_multiplicity
 _atom_site_fract_x
 _atom_site_fract_y
 _atom_site_fract_z
 _atom_site_occupancy
  Er  Er0  1  0.75074981  0.70716347  0.20866308  1
  Er  Er1  1  0.25239603  0.29261796  0.79741001  1
  Mn  Mn2  1  0.54995170  0.28366633  0.38356974  1
  Ga  Ga3  1  0.45284165  0.70443039  0.61011369  1
  Ga  Ga4  1  0.04593489  0.12145719  0.21332697  1
  Ga  Ga5  1  0.94812592  0.89066467  0.78691652  1
