# generated using pymatgen
data_CsMg30MnO32
_symmetry_space_group_name_H-M   'P 1'
_cell_length_a   8.72616174
_cell_length_b   8.64735763
_cell_length_c   8.64735763
_cell_angle_alpha   90.00000000
_cell_angle_beta   90.00000000
_cell_angle_gamma   90.00000000
_symmetry_Int_Tables_number   1
_chemical_formula_structural   CsMg30MnO32
_chemical_formula_sum   'Cs1 Mg30 Mn1 O32'
_cell_volume   652.51439868
_cell_formula_units_Z   1
loop_
 _symmetry_equiv_pos_site_id
 _symmetry_equiv_pos_as_xyz
  1  'x, y, z'
loop_
 _atom_site_type_symbol
 _atom_site_label
 _atom_site_symmetry_multiplicity
 _atom_site_fract_x
 _atom_site_fract_y
 _atom_site_fract_z
 _atom_site_occupancy
  Cs  Cs0  1  0.00000000  0.50000000  0.50000000  1
  Mg  Mg1  1  0.00000000  0.00000000  0.50000000  1
  Mg  Mg2  1  0.00000000  0.50000000  0.00000000  1
  Mg  Mg3  1  0.50000000  0.00000000  0.00000000  1
  Mg  Mg4  1  0.50000000  0.00000000  0.50000000  1
  Mg  Mg5  1  0.50000000  0.50000000  0.00000000  1
  Mg  Mg6  1  0.50000000  0.50000000  0.50000000  1
  Mg  Mg7  1  0.00000000  0.24812594  0.24812594  1
  Mg  Mg8  1  0.00000000  0.24812594  0.75187406  1
  Mg  Mg9  1  0.00000000  0.75187406  0.24812594  1
  Mg  Mg10  1  0.00000000  0.75187406  0.75187406  1
  Mg  Mg11  1  0.50000000  0.25056412  0.25056412  1
  Mg  Mg12  1  0.50000000  0.25056412  0.74943588  1
  Mg  Mg13  1  0.50000000  0.74943588  0.25056412  1
  Mg  Mg14  1  0.50000000  0.74943588  0.74943588  1
  Mg  Mg15  1  0.25492535  0.00000000  0.24973690  1
  Mg  Mg16  1  0.25492535  0.00000000  0.75026310  1
  Mg  Mg17  1  0.25601382  0.50000000  0.24616943  1
  Mg  Mg18  1  0.25601382  0.50000000  0.75383057  1
  Mg  Mg19  1  0.74507465  0.00000000  0.24973690  1
  Mg  Mg20  1  0.74507465  0.00000000  0.75026310  1
  Mg  Mg21  1  0.74398618  0.50000000  0.24616943  1
  Mg  Mg22  1  0.74398618  0.50000000  0.75383057  1
  Mg  Mg23  1  0.25492535  0.24973690  0.00000000  1
  Mg  Mg24  1  0.25601382  0.24616943  0.50000000  1
  Mg  Mg25  1  0.25492535  0.75026310  0.00000000  1
  Mg  Mg26  1  0.25601382  0.75383057  0.50000000  1
  Mg  Mg27  1  0.74507465  0.24973690  0.00000000  1
  Mg  Mg28  1  0.74398618  0.24616943  0.50000000  1
  Mg  Mg29  1  0.74507465  0.75026310  0.00000000  1
  Mg  Mg30  1  0.74398618  0.75383057  0.50000000  1
  Mn  Mn31  1  0.00000000  0.00000000  0.00000000  1
  O  O32  1  0.25886782  0.00000000  0.00000000  1
  O  O33  1  0.25528041  0.00000000  0.50000000  1
  O  O34  1  0.25528041  0.50000000  0.00000000  1
  O  O35  1  0.28511908  0.50000000  0.50000000  1
  O  O36  1  0.74113218  0.00000000  0.00000000  1
  O  O37  1  0.74471959  0.00000000  0.50000000  1
  O  O38  1  0.74471959  0.50000000  0.00000000  1
  O  O39  1  0.71488092  0.50000000  0.50000000  1
  O  O40  1  0.24871262  0.24953125  0.24953125  1
  O  O41  1  0.24871262  0.24953125  0.75046875  1
  O  O42  1  0.24871262  0.75046875  0.24953125  1
  O  O43  1  0.24871262  0.75046875  0.75046875  1
  O  O44  1  0.75128738  0.24953125  0.24953125  1
  O  O45  1  0.75128738  0.24953125  0.75046875  1
  O  O46  1  0.75128738  0.75046875  0.24953125  1
  O  O47  1  0.75128738  0.75046875  0.75046875  1
  O  O48  1  0.00000000  0.00000000  0.23203331  1
  O  O49  1  0.00000000  0.00000000  0.76796669  1
  O  O50  1  0.00000000  0.50000000  0.21393095  1
  O  O51  1  0.00000000  0.50000000  0.78606905  1
  O  O52  1  0.50000000  0.00000000  0.24887181  1
  O  O53  1  0.50000000  0.00000000  0.75112819  1
  O  O54  1  0.50000000  0.50000000  0.24256050  1
  O  O55  1  0.50000000  0.50000000  0.75743950  1
  O  O56  1  0.00000000  0.23203331  0.00000000  1
  O  O57  1  0.00000000  0.21393095  0.50000000  1
  O  O58  1  0.00000000  0.76796669  0.00000000  1
  O  O59  1  0.00000000  0.78606905  0.50000000  1
  O  O60  1  0.50000000  0.24887181  0.00000000  1
  O  O61  1  0.50000000  0.24256050  0.50000000  1
  O  O62  1  0.50000000  0.75112819  0.00000000  1
  O  O63  1  0.50000000  0.75743950  0.50000000  1
