# generated using pymatgen
data_CsP8(WO5)8
_symmetry_space_group_name_H-M   'P 1'
_cell_length_a   5.41513783
_cell_length_b   12.52385865
_cell_length_c   13.36835451
_cell_angle_alpha   90.00000000
_cell_angle_beta   90.13443317
_cell_angle_gamma   90.00000000
_symmetry_Int_Tables_number   1
_chemical_formula_structural   CsP8(WO5)8
_chemical_formula_sum   'Cs1 P8 W8 O40'
_cell_volume   906.61819586
_cell_formula_units_Z   1
loop_
 _symmetry_equiv_pos_site_id
 _symmetry_equiv_pos_as_xyz
  1  'x, y, z'
loop_
 _atom_site_type_symbol
 _atom_site_label
 _atom_site_symmetry_multiplicity
 _atom_site_fract_x
 _atom_site_fract_y
 _atom_site_fract_z
 _atom_site_occupancy
  Cs  Cs0  1  0.25422779  0.25000000  0.79686383  1
  P  P1  1  0.26516111  0.36979805  0.51818482  1
  P  P2  1  0.76457272  0.12991989  0.98071473  1
  P  P3  1  0.73647934  0.86878792  0.48062699  1
  P  P4  1  0.23506200  0.63122949  0.01998950  1
  P  P5  1  0.73647934  0.63121208  0.48062699  1
  P  P6  1  0.23506200  0.86877051  0.01998950  1
  P  P7  1  0.26516111  0.13020195  0.51818482  1
  P  P8  1  0.76457272  0.37008011  0.98071473  1
  W  W9  1  0.24805983  0.90265461  0.65178143  1
  W  W10  1  0.74788179  0.59939686  0.84971087  1
  W  W11  1  0.75469708  0.40239142  0.34786830  1
  W  W12  1  0.25402568  0.09796997  0.14993579  1
  W  W13  1  0.75469708  0.09760858  0.34786830  1
  W  W14  1  0.25402568  0.40203003  0.14993579  1
  W  W15  1  0.24805983  0.59734539  0.65178143  1
  W  W16  1  0.74788179  0.90060314  0.84971087  1
  O  O17  1  0.01474616  0.57245228  0.75952722  1
  O  O18  1  0.51561067  0.92782306  0.73348102  1
  O  O19  1  0.98296891  0.07697849  0.24352314  1
  O  O20  1  0.48592516  0.42139444  0.26680736  1
  O  O21  1  0.98296891  0.42302151  0.24352314  1
  O  O22  1  0.48592516  0.07860556  0.26680736  1
  O  O23  1  0.01474616  0.92754772  0.75952722  1
  O  O24  1  0.51561067  0.57217694  0.73348102  1
  O  O25  1  0.24967903  0.25000000  0.56205510  1
  O  O26  1  0.74517907  0.25000000  0.93407186  1
  O  O27  1  0.75606093  0.75000000  0.43430379  1
  O  O28  1  0.25479860  0.75000000  0.06627460  1
  O  O29  1  0.95217525  0.61415814  0.55213128  1
  O  O30  1  0.44524107  0.88540052  0.94726378  1
  O  O31  1  0.04989644  0.11585649  0.44602561  1
  O  O32  1  0.55526746  0.38337487  0.05374241  1
  O  O33  1  0.04989644  0.38414351  0.44602561  1
  O  O34  1  0.55526746  0.11662513  0.05374241  1
  O  O35  1  0.95217525  0.88584186  0.55213128  1
  O  O36  1  0.44524107  0.61459948  0.94726378  1
  O  O37  1  0.23341335  0.43284576  0.61500303  1
  O  O38  1  0.73262763  0.06449360  0.88448872  1
  O  O39  1  0.76534111  0.94062004  0.38775561  1
  O  O40  1  0.26409168  0.55944509  0.11333411  1
  O  O41  1  0.76534111  0.55937996  0.38775561  1
  O  O42  1  0.26409168  0.94055491  0.11333411  1
  O  O43  1  0.23341335  0.06715424  0.61500303  1
  O  O44  1  0.73262763  0.43550640  0.88448872  1
  O  O45  1  0.48268254  0.61900002  0.52713067  1
  O  O46  1  0.97876309  0.88197627  0.97517823  1
  O  O47  1  0.51896744  0.11844079  0.47062717  1
  O  O48  1  0.02286066  0.37996791  0.02426555  1
  O  O49  1  0.51896744  0.38155921  0.47062717  1
  O  O50  1  0.02286066  0.12003209  0.02426555  1
  O  O51  1  0.48268254  0.88099998  0.52713067  1
  O  O52  1  0.97876309  0.61802373  0.97517823  1
  O  O53  1  0.22582511  0.75000000  0.67001916  1
  O  O54  1  0.73733287  0.75000000  0.83580883  1
  O  O55  1  0.76074703  0.25000000  0.33469968  1
  O  O56  1  0.25811324  0.25000000  0.16590848  1
