# generated using pymatgen
data_Er3Ga8Ni3
_symmetry_space_group_name_H-M   'P 1'
_cell_length_a   4.18162287
_cell_length_b   8.07134057
_cell_length_c   7.97184236
_cell_angle_alpha   80.64814089
_cell_angle_beta   105.20506693
_cell_angle_gamma   74.98681204
_symmetry_Int_Tables_number   1
_chemical_formula_structural   Er3Ga8Ni3
_chemical_formula_sum   'Er3 Ga8 Ni3'
_cell_volume   242.99331043
_cell_formula_units_Z   1
loop_
 _symmetry_equiv_pos_site_id
 _symmetry_equiv_pos_as_xyz
  1  'x, y, z'
loop_
 _atom_site_type_symbol
 _atom_site_label
 _atom_site_symmetry_multiplicity
 _atom_site_fract_x
 _atom_site_fract_y
 _atom_site_fract_z
 _atom_site_occupancy
  Er  Er0  1  0.99307674  0.70316922  0.68932270  1
  Er  Er1  1  0.99517655  0.31688432  0.30723742  1
  Er  Er2  1  0.00366980  0.98704278  0.99438238  1
  Ga  Ga3  1  0.20778943  0.29058268  0.70616154  1
  Ga  Ga4  1  0.78309330  0.71551639  0.28170299  1
  Ga  Ga5  1  0.26191177  0.58300993  0.10683346  1
  Ga  Ga6  1  0.72583001  0.42948249  0.88114252  1
  Ga  Ga7  1  0.73206292  0.11403363  0.57815948  1
  Ga  Ga8  1  0.26216061  0.89779865  0.42211986  1
  Ga  Ga9  1  0.49788369  0.50142516  0.49719253  1
  Ga  Ga10  1  0.39705394  0.25751152  0.05161940  1
  Ni  Ni11  1  0.62744364  0.71277658  0.96766387  1
  Ni  Ni12  1  0.64250866  0.01486256  0.29987988  1
  Ni  Ni13  1  0.37033895  0.97590408  0.71658198  1
