# generated using pymatgen
data_CoNiTe4
_symmetry_space_group_name_H-M   'P 1'
_cell_length_a   6.35275820
_cell_length_b   6.34810739
_cell_length_c   6.35851601
_cell_angle_alpha   90.84241014
_cell_angle_beta   90.00000000
_cell_angle_gamma   90.00000000
_symmetry_Int_Tables_number   1
_chemical_formula_structural   CoNiTe4
_chemical_formula_sum   'Co2 Ni2 Te8'
_cell_volume   256.39846254
_cell_formula_units_Z   2
loop_
 _symmetry_equiv_pos_site_id
 _symmetry_equiv_pos_as_xyz
  1  'x, y, z'
loop_
 _atom_site_type_symbol
 _atom_site_label
 _atom_site_symmetry_multiplicity
 _atom_site_fract_x
 _atom_site_fract_y
 _atom_site_fract_z
 _atom_site_occupancy
  Co  Co0  1  0.50000000  0.00000000  0.50000000  1
  Co  Co1  1  0.00000000  0.50000000  0.50000000  1
  Ni  Ni2  1  0.50000000  0.50000000  0.00000000  1
  Ni  Ni3  1  0.00000000  -0.00000000  0.00000000  1
  Te  Te4  1  0.86722766  0.36844878  0.13950680  1
  Te  Te5  1  0.36722766  0.13155122  0.86049320  1
  Te  Te6  1  0.13730943  0.86134243  0.37007104  1
  Te  Te7  1  0.63730943  0.63865757  0.62992896  1
  Te  Te8  1  0.13277234  0.63155122  0.86049320  1
  Te  Te9  1  0.63277234  0.86844878  0.13950680  1
  Te  Te10  1  0.86269057  0.13865757  0.62992896  1
  Te  Te11  1  0.36269057  0.36134243  0.37007104  1
