# generated using pymatgen
data_Cr3NiB6
_symmetry_space_group_name_H-M   'P 1'
_cell_length_a   2.95664000
_cell_length_b   2.98939479
_cell_length_c   9.03528131
_cell_angle_alpha   80.47784136
_cell_angle_beta   90.00000000
_cell_angle_gamma   90.00000000
_symmetry_Int_Tables_number   1
_chemical_formula_structural   Cr3NiB6
_chemical_formula_sum   'Cr3 Ni1 B6'
_cell_volume   78.75859370
_cell_formula_units_Z   1
loop_
 _symmetry_equiv_pos_site_id
 _symmetry_equiv_pos_as_xyz
  1  'x, y, z'
loop_
 _atom_site_type_symbol
 _atom_site_label
 _atom_site_symmetry_multiplicity
 _atom_site_fract_x
 _atom_site_fract_y
 _atom_site_fract_z
 _atom_site_occupancy
  Cr  Cr0  1  0.75000000  0.20352918  0.59294164  1
  Cr  Cr1  1  0.25000000  0.07083239  0.85833522  1
  Cr  Cr2  1  0.75000000  0.92801044  0.14397912  1
  Ni  Ni3  1  0.25000000  0.79781031  0.40437937  1
  B  B4  1  0.25000000  0.47540713  0.04918575  1
  B  B5  1  0.75000000  0.52374095  0.95251811  1
  B  B6  1  0.25000000  0.67502859  0.64994282  1
  B  B7  1  0.75000000  0.32572335  0.34855330  1
  B  B8  1  0.25000000  0.37902455  0.24195089  1
  B  B9  1  0.75000000  0.62089310  0.75821380  1
