# generated using pymatgen
data_Er6Ag(GeS7)2
_symmetry_space_group_name_H-M   'P 1'
_cell_length_a   5.86646295
_cell_length_b   9.74913618
_cell_length_c   9.75337239
_cell_angle_alpha   60.00776643
_cell_angle_beta   89.99569623
_cell_angle_gamma   89.99933595
_symmetry_Int_Tables_number   1
_chemical_formula_structural   Er6Ag(GeS7)2
_chemical_formula_sum   'Er6 Ag1 Ge2 S14'
_cell_volume   483.12764418
_cell_formula_units_Z   1
loop_
 _symmetry_equiv_pos_site_id
 _symmetry_equiv_pos_as_xyz
  1  'x, y, z'
loop_
 _atom_site_type_symbol
 _atom_site_label
 _atom_site_symmetry_multiplicity
 _atom_site_fract_x
 _atom_site_fract_y
 _atom_site_fract_z
 _atom_site_occupancy
  Er  Er0  1  0.25458453  0.78318153  0.85901802  1
  Er  Er1  1  0.25467985  0.35779813  0.78300612  1
  Er  Er2  1  0.25430398  0.85909666  0.35795283  1
  Er  Er3  1  0.75390842  0.21710724  0.14090016  1
  Er  Er4  1  0.75397469  0.64211680  0.21722301  1
  Er  Er5  1  0.75378676  0.14072590  0.64203897  1
  Ag  Ag6  1  0.54295547  0.00008468  0.99992774  1
  Ge  Ge7  1  0.17907081  0.33332866  0.33332721  1
  Ge  Ge8  1  0.67660549  0.66665189  0.66668643  1
  S  S9  1  0.80662322  0.84497782  0.89551528  1
  S  S10  1  0.80659782  0.25952625  0.84495366  1
  S  S11  1  0.80708315  0.89537994  0.25979687  1
  S  S12  1  0.30909495  0.15431417  0.10714789  1
  S  S13  1  0.30902477  0.73850951  0.15438090  1
  S  S14  1  0.30886029  0.10718788  0.73822327  1
  S  S15  1  0.55699395  0.33336403  0.33327042  1
  S  S16  1  0.05521283  0.66661815  0.66674899  1
  S  S17  1  0.51373549  0.90524316  0.57299372  1
  S  S18  1  0.51377092  0.52181785  0.90520203  1
  S  S19  1  0.51373112  0.57293862  0.52183027  1
  S  S20  1  0.01631253  0.09461349  0.42673417  1
  S  S21  1  0.01644902  0.47853885  0.09462101  1
  S  S22  1  0.01625994  0.42687878  0.47850102  1
