# generated using pymatgen
data_CeZnAgP2
_symmetry_space_group_name_H-M   'P 1'
_cell_length_a   4.17035231
_cell_length_b   4.17035222
_cell_length_c   6.74151170
_cell_angle_alpha   90.00197216
_cell_angle_beta   90.00197215
_cell_angle_gamma   60.00605410
_symmetry_Int_Tables_number   1
_chemical_formula_structural   CeZnAgP2
_chemical_formula_sum   'Ce1 Zn1 Ag1 P2'
_cell_volume   101.54531634
_cell_formula_units_Z   1
loop_
 _symmetry_equiv_pos_site_id
 _symmetry_equiv_pos_as_xyz
  1  'x, y, z'
loop_
 _atom_site_type_symbol
 _atom_site_label
 _atom_site_symmetry_multiplicity
 _atom_site_fract_x
 _atom_site_fract_y
 _atom_site_fract_z
 _atom_site_occupancy
  Ce  Ce0  1  0.00001146  0.00001146  0.99303304  1
  Zn  Zn1  1  0.33333250  0.33333250  0.36956427  1
  Ag  Ag2  1  0.66663292  0.66663292  0.63591422  1
  P  P3  1  0.66666667  0.66666667  0.24774541  1
  P  P4  1  0.33335645  0.33335645  0.75374307  1
