# generated using pymatgen
data_CeZr3O8
_symmetry_space_group_name_H-M   'P 1'
_cell_length_a   5.32757662
_cell_length_b   5.35312954
_cell_length_c   5.50218951
_cell_angle_alpha   90.33668870
_cell_angle_beta   99.02036760
_cell_angle_gamma   89.41208526
_symmetry_Int_Tables_number   1
_chemical_formula_structural   CeZr3O8
_chemical_formula_sum   'Ce1 Zr3 O8'
_cell_volume   154.96782251
_cell_formula_units_Z   1
loop_
 _symmetry_equiv_pos_site_id
 _symmetry_equiv_pos_as_xyz
  1  'x, y, z'
loop_
 _atom_site_type_symbol
 _atom_site_label
 _atom_site_symmetry_multiplicity
 _atom_site_fract_x
 _atom_site_fract_y
 _atom_site_fract_z
 _atom_site_occupancy
  Ce  Ce0  1  0.26906219  0.46716598  0.70822483  1
  Zr  Zr1  1  0.72554915  0.96481693  0.79611239  1
  Zr  Zr2  1  0.72288425  0.54871766  0.28306690  1
  Zr  Zr3  1  0.27782358  0.04204968  0.21221246  1
  O  O4  1  0.46907537  0.75799562  0.98674064  1
  O  O5  1  0.55472909  0.23615315  0.52257358  1
  O  O6  1  0.55106832  0.25540993  0.03486776  1
  O  O7  1  0.45004158  0.76113773  0.46980710  1
  O  O8  1  0.06250775  0.16074767  0.85995145  1
  O  O9  1  0.91182390  0.67890752  0.63722740  1
  O  O10  1  0.94924840  0.80988626  0.14456504  1
  O  O11  1  0.05618642  0.31701185  0.34465046  1
