# generated using pymatgen
data_CrH8C4NO10
_symmetry_space_group_name_H-M   'P 1'
_cell_length_a   4.98775401
_cell_length_b   4.98775401
_cell_length_c   10.45754045
_cell_angle_alpha   90.16394689
_cell_angle_beta   90.16394689
_cell_angle_gamma   93.40667475
_symmetry_Int_Tables_number   1
_chemical_formula_structural   CrH8C4NO10
_chemical_formula_sum   'Cr1 H8 C4 N1 O10'
_cell_volume   259.69746444
_cell_formula_units_Z   1
loop_
 _symmetry_equiv_pos_site_id
 _symmetry_equiv_pos_as_xyz
  1  'x, y, z'
loop_
 _atom_site_type_symbol
 _atom_site_label
 _atom_site_symmetry_multiplicity
 _atom_site_fract_x
 _atom_site_fract_y
 _atom_site_fract_z
 _atom_site_occupancy
  Cr  Cr0  1  0.49976278  0.49976278  0.49989375  1
  H  H1  1  0.95350667  0.72598024  0.59788955  1
  H  H2  1  0.72598024  0.95350667  0.59788955  1
  H  H3  1  0.04760926  0.27457019  0.40127456  1
  H  H4  1  0.27457019  0.04760926  0.40127456  1
  H  H5  1  0.13372941  0.13372941  0.96172883  1
  H  H6  1  0.89864655  0.89864655  0.91598719  1
  H  H7  1  0.07936217  0.84784158  0.04737826  1
  H  H8  1  0.84784158  0.07936217  0.04737826  1
  C  C9  1  0.74110246  0.52646739  0.25524538  1
  C  C10  1  0.52646739  0.74110246  0.25524538  1
  C  C11  1  0.25908178  0.47357962  0.74478500  1
  C  C12  1  0.47357962  0.25908178  0.74478500  1
  N  N13  1  0.99093223  0.99093223  0.99364402  1
  O  O14  1  0.75448714  0.39263298  0.36318303  1
  O  O15  1  0.39263298  0.75448714  0.36318303  1
  O  O16  1  0.24492248  0.60773567  0.63708204  1
  O  O17  1  0.60773567  0.24492248  0.63708204  1
  O  O18  1  0.78273719  0.78273719  0.55797568  1
  O  O19  1  0.21637176  0.21637176  0.44264816  1
  O  O20  1  0.88357408  0.49344467  0.16125371  1
  O  O21  1  0.49344467  0.88357408  0.16125371  1
  O  O22  1  0.11671926  0.50320243  0.83896966  1
  O  O23  1  0.50320243  0.11671926  0.83896966  1
