# generated using pymatgen
data_CeZnAgAs2
_symmetry_space_group_name_H-M   'P 1'
_cell_length_a   4.33098623
_cell_length_b   4.33000992
_cell_length_c   6.91345491
_cell_angle_alpha   90.00000003
_cell_angle_beta   89.93574780
_cell_angle_gamma   119.99255254
_symmetry_Int_Tables_number   1
_chemical_formula_structural   CeZnAgAs2
_chemical_formula_sum   'Ce1 Zn1 Ag1 As2'
_cell_volume   112.28808701
_cell_formula_units_Z   1
loop_
 _symmetry_equiv_pos_site_id
 _symmetry_equiv_pos_as_xyz
  1  'x, y, z'
loop_
 _atom_site_type_symbol
 _atom_site_label
 _atom_site_symmetry_multiplicity
 _atom_site_fract_x
 _atom_site_fract_y
 _atom_site_fract_z
 _atom_site_occupancy
  Ce  Ce0  1  0.99980010  0.99990005  0.99157561  1
  Zn  Zn1  1  0.66657203  0.33328602  0.37197950  1
  Ag  Ag2  1  0.33384710  0.66692355  0.63731318  1
  As  As3  1  0.33322587  0.66661293  0.24348190  1
  As  As4  1  0.66655490  0.33327745  0.75564981  1
