# generated using pymatgen
data_CdCuP2O7
_symmetry_space_group_name_H-M   'P 1'
_cell_length_a   4.61789089
_cell_length_b   5.57273126
_cell_length_c   5.57273126
_cell_angle_alpha   102.88963814
_cell_angle_beta   100.29301374
_cell_angle_gamma   100.29301374
_symmetry_Int_Tables_number   1
_chemical_formula_structural   CdCuP2O7
_chemical_formula_sum   'Cd1 Cu1 P2 O7'
_cell_volume   133.92841768
_cell_formula_units_Z   1
loop_
 _symmetry_equiv_pos_site_id
 _symmetry_equiv_pos_as_xyz
  1  'x, y, z'
loop_
 _atom_site_type_symbol
 _atom_site_label
 _atom_site_symmetry_multiplicity
 _atom_site_fract_x
 _atom_site_fract_y
 _atom_site_fract_z
 _atom_site_occupancy
  Cd  Cd0  1  0.50000000  0.69238970  0.30761030  1
  Cu  Cu1  1  0.50000000  0.30972310  0.69027690  1
  P  P2  1  0.90956591  0.21104357  0.19831475  1
  P  P3  1  0.09043409  0.80168525  0.78895643  1
  O  O4  1  0.71786441  0.08005027  0.34537716  1
  O  O5  1  0.28213559  0.65462284  0.91994973  1
  O  O6  1  -0.00000000  0.01260982  0.98739018  1
  O  O7  1  0.74190936  0.37065179  0.05237526  1
  O  O8  1  0.25809064  0.94762474  0.62934821  1
  O  O9  1  0.21298525  0.36460891  0.37960999  1
  O  O10  1  0.78701475  0.62039001  0.63539109  1
