# generated using pymatgen
data_Ca6Co3RhO12
_symmetry_space_group_name_H-M   'P 1'
_cell_length_a   6.38298214
_cell_length_b   6.38298214
_cell_length_c   6.38298229
_cell_angle_alpha   91.76102479
_cell_angle_beta   91.76102479
_cell_angle_gamma   91.76103458
_symmetry_Int_Tables_number   1
_chemical_formula_structural   Ca6Co3RhO12
_chemical_formula_sum   'Ca6 Co3 Rh1 O12'
_cell_volume   259.68219317
_cell_formula_units_Z   1
loop_
 _symmetry_equiv_pos_site_id
 _symmetry_equiv_pos_as_xyz
  1  'x, y, z'
loop_
 _atom_site_type_symbol
 _atom_site_label
 _atom_site_symmetry_multiplicity
 _atom_site_fract_x
 _atom_site_fract_y
 _atom_site_fract_z
 _atom_site_occupancy
  Ca  Ca0  1  0.61764085  0.88079048  0.25399774  1
  Ca  Ca1  1  0.88079048  0.25399774  0.61764085  1
  Ca  Ca2  1  0.25399774  0.61764085  0.88079048  1
  Ca  Ca3  1  0.11920952  0.74600226  0.38235915  1
  Ca  Ca4  1  0.74600226  0.38235915  0.11920952  1
  Ca  Ca5  1  0.38235915  0.11920952  0.74600226  1
  Co  Co6  1  0.25614421  0.25614421  0.25614421  1
  Co  Co7  1  0.74385579  0.74385579  0.74385579  1
  Co  Co8  1  0.50000000  0.50000000  0.50000000  1
  Rh  Rh9  1  -0.00000000  -0.00000000  0.00000000  1
  O  O10  1  0.54014778  0.21199609  0.40868449  1
  O  O11  1  0.21199609  0.40868449  0.54014778  1
  O  O12  1  0.40868449  0.54014778  0.21199609  1
  O  O13  1  0.03289059  0.89769372  0.69857472  1
  O  O14  1  0.89769372  0.69857472  0.03289059  1
  O  O15  1  0.69857472  0.03289059  0.89769372  1
  O  O16  1  0.45985222  0.78800391  0.59131551  1
  O  O17  1  0.78800391  0.59131551  0.45985222  1
  O  O18  1  0.59131551  0.45985222  0.78800391  1
  O  O19  1  0.96710941  0.10230628  0.30142528  1
  O  O20  1  0.10230628  0.30142528  0.96710941  1
  O  O21  1  0.30142528  0.96710941  0.10230628  1
