# generated using pymatgen
data_CaYAlO4
_symmetry_space_group_name_H-M   'P 1'
_cell_length_a   3.68242482
_cell_length_b   3.68242482
_cell_length_c   6.48929179
_cell_angle_alpha   73.51699843
_cell_angle_beta   73.51699843
_cell_angle_gamma   90.00000000
_symmetry_Int_Tables_number   1
_chemical_formula_structural   CaYAlO4
_chemical_formula_sum   'Ca1 Y1 Al1 O4'
_cell_volume   80.60173696
_cell_formula_units_Z   1
loop_
 _symmetry_equiv_pos_site_id
 _symmetry_equiv_pos_as_xyz
  1  'x, y, z'
loop_
 _atom_site_type_symbol
 _atom_site_label
 _atom_site_symmetry_multiplicity
 _atom_site_fract_x
 _atom_site_fract_y
 _atom_site_fract_z
 _atom_site_occupancy
  Ca  Ca0  1  0.35624059  0.35624059  0.28751882  1
  Y  Y1  1  0.64139064  0.64139064  0.71721872  1
  Al  Al2  1  0.99467038  0.99467038  0.01065923  1
  O  O3  1  0.16730513  0.16730513  0.66538975  1
  O  O4  1  0.82981224  0.82981224  0.34037552  1
  O  O5  1  0.50529051  0.00529051  0.98941898  1
  O  O6  1  0.00529051  0.50529051  0.98941898  1
