# generated using pymatgen
data_Ca4Al3CrSiBO14
_symmetry_space_group_name_H-M   'P 1'
_cell_length_a   5.04790729
_cell_length_b   7.70186234
_cell_length_c   7.71327921
_cell_angle_alpha   89.56550586
_cell_angle_beta   90.42280778
_cell_angle_gamma   90.31259548
_symmetry_Int_Tables_number   1
_chemical_formula_structural   Ca4Al3CrSiBO14
_chemical_formula_sum   'Ca4 Al3 Cr1 Si1 B1 O14'
_cell_volume   299.85792323
_cell_formula_units_Z   1
loop_
 _symmetry_equiv_pos_site_id
 _symmetry_equiv_pos_as_xyz
  1  'x, y, z'
loop_
 _atom_site_type_symbol
 _atom_site_label
 _atom_site_symmetry_multiplicity
 _atom_site_fract_x
 _atom_site_fract_y
 _atom_site_fract_z
 _atom_site_occupancy
  Ca  Ca0  1  0.50762820  0.33127426  0.14327082  1
  Ca  Ca1  1  0.49015700  0.16223799  0.68024992  1
  Ca  Ca2  1  0.50999591  0.65552566  0.82252542  1
  Ca  Ca3  1  0.47789649  0.83733995  0.35771060  1
  Al  Al4  1  0.99779107  0.49452512  0.51179020  1
  Al  Al5  1  0.99800306  0.01288332  0.99580857  1
  Al  Al6  1  0.95671840  0.85761744  0.64507052  1
  Cr  Cr7  1  0.03983414  0.63877938  0.13743565  1
  Si  Si8  1  0.94915521  0.14573385  0.35643127  1
  B  B9  1  0.05289876  0.35349951  0.85418932  1
  O  O10  1  0.18060310  0.48900875  0.98303173  1
  O  O11  1  0.81755322  0.00982321  0.49681337  1
  O  O12  1  0.80807259  0.33220099  0.40360577  1
  O  O13  1  0.18982494  0.18640142  0.91182165  1
  O  O14  1  0.79332347  0.66438363  0.57881406  1
  O  O15  1  0.20314479  0.84582532  0.08926250  1
  O  O16  1  0.20572078  0.57958853  0.34206978  1
  O  O17  1  0.79673253  0.91228623  0.84000321  1
  O  O18  1  0.18345804  0.40376018  0.68476020  1
  O  O19  1  0.80528918  0.09105321  0.17098334  1
  O  O20  1  0.26961371  0.14564872  0.35398359  1
  O  O21  1  0.77029733  0.35155798  0.85768445  1
  O  O22  1  0.29864108  0.86124759  0.64067866  1
  O  O23  1  0.69764700  0.63779776  0.14200542  1
