# generated using pymatgen
data_BeZn3S4
_symmetry_space_group_name_H-M   'P 1'
_cell_length_a   3.75161336
_cell_length_b   3.75161336
_cell_length_c   12.48649085
_cell_angle_alpha   81.35992464
_cell_angle_beta   98.64007536
_cell_angle_gamma   120.00000000
_symmetry_Int_Tables_number   1
_chemical_formula_structural   BeZn3S4
_chemical_formula_sum   'Be1 Zn3 S4'
_cell_volume   149.89001995
_cell_formula_units_Z   1
loop_
 _symmetry_equiv_pos_site_id
 _symmetry_equiv_pos_as_xyz
  1  'x, y, z'
loop_
 _atom_site_type_symbol
 _atom_site_label
 _atom_site_symmetry_multiplicity
 _atom_site_fract_x
 _atom_site_fract_y
 _atom_site_fract_z
 _atom_site_occupancy
  Be  Be0  1  0.25060353  0.74939647  0.75181058  1
  Zn  Zn1  1  0.99710191  0.00289809  0.99130573  1
  Zn  Zn2  1  0.75016476  0.24983524  0.25049429  1
  Zn  Zn3  1  0.50342764  0.49657236  0.51028293  1
  S  S4  1  0.06051109  0.93948891  0.18153327  1
  S  S5  1  0.81359551  0.18640449  0.44078652  1
  S  S6  1  0.56715187  0.43284813  0.70145560  1
  S  S7  1  0.30744369  0.69255631  0.92233108  1
