# generated using pymatgen
data_BaLa4Ti4O15
_symmetry_space_group_name_H-M   'P 1'
_cell_length_a   5.62966611
_cell_length_b   5.62966561
_cell_length_c   22.22690203
_cell_angle_alpha   89.99921537
_cell_angle_beta   89.99921536
_cell_angle_gamma   60.00004775
_symmetry_Int_Tables_number   1
_chemical_formula_structural   BaLa4Ti4O15
_chemical_formula_sum   'Ba2 La8 Ti8 O30'
_cell_volume   610.06346018
_cell_formula_units_Z   2
loop_
 _symmetry_equiv_pos_site_id
 _symmetry_equiv_pos_as_xyz
  1  'x, y, z'
loop_
 _atom_site_type_symbol
 _atom_site_label
 _atom_site_symmetry_multiplicity
 _atom_site_fract_x
 _atom_site_fract_y
 _atom_site_fract_z
 _atom_site_occupancy
  Ba  Ba0  1  0.00000485  0.99999515  0.75000000  1
  Ba  Ba1  1  0.99999515  0.00000485  0.25000000  1
  La  La2  1  0.33333227  0.33334577  0.96052194  1
  La  La3  1  0.33334577  0.33333227  0.46052194  1
  La  La4  1  0.66666773  0.66665423  0.03947806  1
  La  La5  1  0.66665423  0.66666773  0.53947806  1
  La  La6  1  0.66666991  0.66667339  0.85844090  1
  La  La7  1  0.66667339  0.66666991  0.35844090  1
  La  La8  1  0.33333009  0.33332661  0.14155910  1
  La  La9  1  0.33332661  0.33333009  0.64155910  1
  Ti  Ti10  1  0.33333705  0.33332365  0.80243871  1
  Ti  Ti11  1  0.33332365  0.33333705  0.30243871  1
  Ti  Ti12  1  0.66666295  0.66667635  0.19756129  1
  Ti  Ti13  1  0.66667635  0.66666295  0.69756129  1
  Ti  Ti14  1  0.99999693  0.00000314  0.91123906  1
  Ti  Ti15  1  0.00000314  0.99999693  0.41123906  1
  Ti  Ti16  1  0.00000307  0.99999686  0.08876094  1
  Ti  Ti17  1  0.99999686  0.00000307  0.58876094  1
  O  O18  1  0.11253057  0.65774330  0.85321589  1
  O  O19  1  0.22971800  0.11253233  0.85321477  1
  O  O20  1  0.65774597  0.22972472  0.85321554  1
  O  O21  1  0.65774330  0.11253057  0.35321589  1
  O  O22  1  0.22972472  0.65774597  0.35321554  1
  O  O23  1  0.11253233  0.22971800  0.35321477  1
  O  O24  1  0.88746943  0.34225670  0.14678411  1
  O  O25  1  0.77028200  0.88746767  0.14678523  1
  O  O26  1  0.34225403  0.77027528  0.14678446  1
  O  O27  1  0.34225670  0.88746943  0.64678411  1
  O  O28  1  0.77027528  0.34225403  0.64678446  1
  O  O29  1  0.88746767  0.77028200  0.64678523  1
  O  O30  1  -0.00000014  0.47986805  0.74999923  1
  O  O31  1  0.52013195  0.00000014  0.75000077  1
  O  O32  1  0.47987072  0.52012928  0.75000000  1
  O  O33  1  0.47986805  -0.00000014  0.24999923  1
  O  O34  1  0.52012928  0.47987072  0.25000000  1
  O  O35  1  0.00000014  0.52013195  0.25000077  1
  O  O36  1  0.23775322  0.10217152  0.05238019  1
  O  O37  1  0.66006591  0.23775819  0.05238094  1
  O  O38  1  0.10217196  0.66006502  0.05238120  1
  O  O39  1  0.10217152  0.23775322  0.55238019  1
  O  O40  1  0.66006502  0.10217196  0.55238120  1
  O  O41  1  0.23775819  0.66006591  0.55238094  1
  O  O42  1  0.76224678  0.89782848  0.94761981  1
  O  O43  1  0.33993409  0.76224181  0.94761906  1
  O  O44  1  0.89782804  0.33993498  0.94761880  1
  O  O45  1  0.89782848  0.76224678  0.44761981  1
  O  O46  1  0.33993498  0.89782804  0.44761880  1
  O  O47  1  0.76224181  0.33993409  0.44761906  1
