# generated using pymatgen
data_Ca2V2PbO8
_symmetry_space_group_name_H-M   'P 1'
_cell_length_a   5.72964880
_cell_length_b   5.72964944
_cell_length_c   7.25822012
_cell_angle_alpha   66.75269385
_cell_angle_beta   113.24730426
_cell_angle_gamma   119.99999816
_symmetry_Int_Tables_number   1
_chemical_formula_structural   Ca2V2PbO8
_chemical_formula_sum   'Ca2 V2 Pb1 O8'
_cell_volume   183.67780730
_cell_formula_units_Z   1
loop_
 _symmetry_equiv_pos_site_id
 _symmetry_equiv_pos_as_xyz
  1  'x, y, z'
loop_
 _atom_site_type_symbol
 _atom_site_label
 _atom_site_symmetry_multiplicity
 _atom_site_fract_x
 _atom_site_fract_y
 _atom_site_fract_z
 _atom_site_occupancy
  Ca  Ca0  1  0.19479459  0.80520541  0.58438378  1
  Ca  Ca1  1  0.99982980  0.00017020  0.99948941  1
  V  V2  1  0.59624857  0.40375143  0.78874570  1
  V  V3  1  0.40203828  0.59796172  0.20611484  1
  Pb  Pb4  1  0.80470410  0.19529590  0.41411231  1
  O  O5  1  0.26469152  0.73530848  0.29645044  1
  O  O6  1  0.76706739  0.73530848  0.29645044  1
  O  O7  1  0.26469152  0.23293261  0.29645044  1
  O  O8  1  0.73840773  0.26159227  0.70881239  1
  O  O9  1  0.23199693  0.26159227  0.70881239  1
  O  O10  1  0.73840773  0.76800307  0.70881239  1
  O  O11  1  0.68376101  0.31623899  0.05128303  1
  O  O12  1  0.31336081  0.68663919  0.94008244  1
