# generated using pymatgen
data_Ba6Ca3Cu6Hg3O19
_symmetry_space_group_name_H-M   'P 1'
_cell_length_a   5.45576303
_cell_length_b   8.66252052
_cell_length_c   13.45943936
_cell_angle_alpha   97.40223679
_cell_angle_beta   78.30661551
_cell_angle_gamma   71.64485309
_symmetry_Int_Tables_number   1
_chemical_formula_structural   Ba6Ca3Cu6Hg3O19
_chemical_formula_sum   'Ba6 Ca3 Cu6 Hg3 O19'
_cell_volume   578.36808546
_cell_formula_units_Z   1
loop_
 _symmetry_equiv_pos_site_id
 _symmetry_equiv_pos_as_xyz
  1  'x, y, z'
loop_
 _atom_site_type_symbol
 _atom_site_label
 _atom_site_symmetry_multiplicity
 _atom_site_fract_x
 _atom_site_fract_y
 _atom_site_fract_z
 _atom_site_occupancy
  Ba  Ba0  1  0.30505332  0.59748499  0.79240737  1
  Ba  Ba1  1  0.97936414  0.26058019  0.78069153  1
  Ba  Ba2  1  0.64660447  0.92634221  0.78044984  1
  Ba  Ba3  1  0.68672953  0.40699179  0.21955016  1
  Ba  Ba4  1  0.35396886  0.07275281  0.21930847  1
  Ba  Ba5  1  0.02827968  0.73584801  0.20759263  1
  Ca  Ca6  1  0.49886365  0.50061329  0.50165941  1
  Ca  Ca7  1  0.16666700  0.16666700  0.50000000  1
  Ca  Ca8  1  0.83446935  0.83271971  0.49834059  1
  Cu  Cu9  1  0.25217287  0.87318667  0.62246658  1
  Cu  Cu10  1  0.91749816  0.54131595  0.62368773  1
  Cu  Cu11  1  0.58457737  0.20838533  0.62246093  1
  Cu  Cu12  1  0.41583484  0.79201705  0.37631227  1
  Cu  Cu13  1  0.08116013  0.46014633  0.37753342  1
  Cu  Cu14  1  0.74875663  0.12494867  0.37753907  1
  Hg  Hg15  1  0.66666700  0.66666700  0.00000000  1
  Hg  Hg16  1  0.32846224  0.34306387  0.00001065  1
  Hg  Hg17  1  0.00487076  0.99026913  0.99998935  1
  O  O18  1  0.08322815  0.70872091  0.62106579  1
  O  O19  1  0.75505341  0.37226973  0.62100159  1
  O  O20  1  0.41873771  0.04058955  0.62227299  1
  O  O21  1  0.58698515  0.70872091  0.62106579  1
  O  O22  1  0.25167627  0.37226973  0.62100159  1
  O  O23  1  0.91839875  0.04058955  0.62227299  1
  O  O24  1  0.25010485  0.62461209  0.37893421  1
  O  O25  1  0.91459529  0.29274345  0.37772701  1
  O  O26  1  0.57828059  0.96106427  0.37899841  1
  O  O27  1  0.74634785  0.62461209  0.37893421  1
  O  O28  1  0.41493425  0.29274345  0.37772701  1
  O  O29  1  0.08165773  0.96106427  0.37899841  1
  O  O30  1  0.10189619  0.95461723  0.84159140  1
  O  O31  1  0.77310470  0.61347506  0.84031453  1
  O  O32  1  0.44259937  0.27317855  0.84162271  1
  O  O33  1  0.56022830  0.71985794  0.15968547  1
  O  O34  1  0.23143781  0.37871677  0.15840860  1
  O  O35  1  0.89073363  0.06015445  0.15837729  1
  O  O36  1  0.16666700  0.66666700  -0.00000000  1
