# generated using pymatgen
data_Ba8Y4(Cu4O9)3
_symmetry_space_group_name_H-M   'P 1'
_cell_length_a   7.89341457
_cell_length_b   12.53176127
_cell_length_c   8.66717741
_cell_angle_alpha   105.90446757
_cell_angle_beta   62.91174535
_cell_angle_gamma   90.00000000
_symmetry_Int_Tables_number   1
_chemical_formula_structural   Ba8Y4(Cu4O9)3
_chemical_formula_sum   'Ba8 Y4 Cu12 O27'
_cell_volume   726.24122243
_cell_formula_units_Z   1
loop_
 _symmetry_equiv_pos_site_id
 _symmetry_equiv_pos_as_xyz
  1  'x, y, z'
loop_
 _atom_site_type_symbol
 _atom_site_label
 _atom_site_symmetry_multiplicity
 _atom_site_fract_x
 _atom_site_fract_y
 _atom_site_fract_z
 _atom_site_occupancy
  Ba  Ba0  1  0.83187951  0.18887734  0.83624097  1
  Ba  Ba1  1  0.57365421  0.18896972  0.35269158  1
  Ba  Ba2  1  0.32961241  0.18291322  0.84077517  1
  Ba  Ba3  1  0.07895688  0.18282505  0.34208623  1
  Ba  Ba4  1  0.66812049  0.81112266  0.16375903  1
  Ba  Ba5  1  0.42104312  0.81717495  0.65791377  1
  Ba  Ba6  1  0.17038759  0.81708678  0.15922483  1
  Ba  Ba7  1  0.92634579  0.81103028  0.64730842  1
  Y  Y8  1  0.49993804  0.50079628  0.50012392  1
  Y  Y9  1  0.00006196  0.49920372  0.49987608  1
  Y  Y10  1  0.25000000  0.50000000  -0.00000000  1
  Y  Y11  1  0.75000000  0.50000000  -0.00000000  1
  Cu  Cu12  1  0.66061005  0.35709445  0.67859437  1
  Cu  Cu13  1  0.16079558  0.35709445  0.67859437  1
  Cu  Cu14  1  0.41099821  0.35772497  0.17887229  1
  Cu  Cu15  1  0.91012950  0.35772497  0.17887229  1
  Cu  Cu16  1  0.58987050  0.64227503  0.82112771  1
  Cu  Cu17  1  0.08900179  0.64227503  0.82112771  1
  Cu  Cu18  1  0.33920442  0.64290555  0.32140563  1
  Cu  Cu19  1  0.83938995  0.64290555  0.32140563  1
  Cu  Cu20  1  0.75000000  -0.00000000  0.50000000  1
  Cu  Cu21  1  0.25000000  -0.00000000  0.50000000  1
  Cu  Cu22  1  0.49002621  1.00000000  1.00000000  1
  Cu  Cu23  1  0.00997379  0.00000000  0.00000000  1
  O  O24  1  0.40543415  0.37872675  0.68913170  1
  O  O25  1  0.90525208  0.37842990  0.68949584  1
  O  O26  1  0.15542029  0.37833881  0.18915941  1
  O  O27  1  0.65500998  0.37982859  0.18998004  1
  O  O28  1  0.34457971  0.62166119  0.81084059  1
  O  O29  1  0.84499002  0.62017141  0.81001996  1
  O  O30  1  0.09456585  0.62127325  0.31086830  1
  O  O31  1  0.59474792  0.62157010  0.31050416  1
  O  O32  1  0.78012425  0.37970551  0.43989330  1
  O  O33  1  0.27998245  0.37970551  0.43989330  1
  O  O34  1  0.52991561  0.37970145  0.93987400  1
  O  O35  1  0.03021039  0.37970145  0.93987400  1
  O  O36  1  0.71987575  0.62029449  0.56010670  1
  O  O37  1  0.22001755  0.62029449  0.56010670  1
  O  O38  1  0.46978961  0.62029855  0.06012600  1
  O  O39  1  0.97008439  0.62029855  0.06012600  1
  O  O40  1  0.71034585  0.15859358  0.57930917  1
  O  O41  1  0.21034497  0.15859358  0.57930917  1
  O  O42  1  0.47880462  0.15232348  0.07613382  1
  O  O43  1  0.94506157  0.15232348  0.07613382  1
  O  O44  1  0.55493843  0.84767652  0.92386618  1
  O  O45  1  0.02119538  0.84767652  0.92386618  1
  O  O46  1  0.28965503  0.84140642  0.42069083  1
  O  O47  1  0.78965415  0.84140642  0.42069083  1
  O  O48  1  0.50146513  0.99998388  0.49706974  1
  O  O49  1  0.25000000  -0.00000000  -0.00000000  1
  O  O50  1  0.99853487  0.00001612  0.50293026  1
