# generated using pymatgen
data_BeZn3O4
_symmetry_space_group_name_H-M   'P 1'
_cell_length_a   4.42766845
_cell_length_b   4.42766845
_cell_length_c   5.39693172
_cell_angle_alpha   65.78244527
_cell_angle_beta   65.78244527
_cell_angle_gamma   90.00000000
_symmetry_Int_Tables_number   1
_chemical_formula_structural   BeZn3O4
_chemical_formula_sum   'Be1 Zn3 O4'
_cell_volume   86.18011166
_cell_formula_units_Z   1
loop_
 _symmetry_equiv_pos_site_id
 _symmetry_equiv_pos_as_xyz
  1  'x, y, z'
loop_
 _atom_site_type_symbol
 _atom_site_label
 _atom_site_symmetry_multiplicity
 _atom_site_fract_x
 _atom_site_fract_y
 _atom_site_fract_z
 _atom_site_occupancy
  Be  Be0  1  0.75000000  0.25000000  0.50000000  1
  Zn  Zn1  1  0.25000000  0.75000000  0.50000000  1
  Zn  Zn2  1  0.50000000  0.50000000  -0.00000000  1
  Zn  Zn3  1  0.00000000  -0.00000000  -0.00000000  1
  O  O4  1  0.64278263  0.57940325  0.27781412  1
  O  O5  1  0.07940325  0.14278263  0.27781412  1
  O  O6  1  0.42059675  0.92059675  0.72218588  1
  O  O7  1  0.85721737  0.35721737  0.72218588  1
