# generated using pymatgen
data_Mg30CrBO32
_symmetry_space_group_name_H-M   'P 1'
_cell_length_a   8.52733164
_cell_length_b   8.53535174
_cell_length_c   8.53535174
_cell_angle_alpha   90.00000000
_cell_angle_beta   90.00000000
_cell_angle_gamma   90.00000000
_symmetry_Int_Tables_number   1
_chemical_formula_structural   Mg30CrBO32
_chemical_formula_sum   'Mg30 Cr1 B1 O32'
_cell_volume   621.23512017
_cell_formula_units_Z   1
loop_
 _symmetry_equiv_pos_site_id
 _symmetry_equiv_pos_as_xyz
  1  'x, y, z'
loop_
 _atom_site_type_symbol
 _atom_site_label
 _atom_site_symmetry_multiplicity
 _atom_site_fract_x
 _atom_site_fract_y
 _atom_site_fract_z
 _atom_site_occupancy
  Mg  Mg0  1  0.00000000  0.00000000  0.50000000  1
  Mg  Mg1  1  0.00000000  0.50000000  0.00000000  1
  Mg  Mg2  1  0.50000000  0.00000000  0.00000000  1
  Mg  Mg3  1  0.50000000  0.00000000  0.50000000  1
  Mg  Mg4  1  0.50000000  0.50000000  0.00000000  1
  Mg  Mg5  1  0.50000000  0.50000000  0.50000000  1
  Mg  Mg6  1  0.00000000  0.25486286  0.25486286  1
  Mg  Mg7  1  0.00000000  0.25486286  0.74513714  1
  Mg  Mg8  1  0.00000000  0.74513714  0.25486286  1
  Mg  Mg9  1  0.00000000  0.74513714  0.74513714  1
  Mg  Mg10  1  0.50000000  0.25130970  0.25130970  1
  Mg  Mg11  1  0.50000000  0.25130970  0.74869030  1
  Mg  Mg12  1  0.50000000  0.74869030  0.25130970  1
  Mg  Mg13  1  0.50000000  0.74869030  0.74869030  1
  Mg  Mg14  1  0.25081161  0.00000000  0.25248298  1
  Mg  Mg15  1  0.25081161  0.00000000  0.74751702  1
  Mg  Mg16  1  0.24788924  0.50000000  0.25310151  1
  Mg  Mg17  1  0.24788924  0.50000000  0.74689849  1
  Mg  Mg18  1  0.74918839  0.00000000  0.25248298  1
  Mg  Mg19  1  0.74918839  0.00000000  0.74751702  1
  Mg  Mg20  1  0.75211076  0.50000000  0.25310151  1
  Mg  Mg21  1  0.75211076  0.50000000  0.74689849  1
  Mg  Mg22  1  0.25081161  0.25248298  0.00000000  1
  Mg  Mg23  1  0.24788924  0.25310151  0.50000000  1
  Mg  Mg24  1  0.25081161  0.74751702  -0.00000000  1
  Mg  Mg25  1  0.24788924  0.74689849  0.50000000  1
  Mg  Mg26  1  0.74918839  0.25248298  -0.00000000  1
  Mg  Mg27  1  0.75211076  0.25310151  0.50000000  1
  Mg  Mg28  1  0.74918839  0.74751702  -0.00000000  1
  Mg  Mg29  1  0.75211076  0.74689849  0.50000000  1
  Cr  Cr30  1  0.00000000  0.00000000  0.00000000  1
  B  B31  1  0.00000000  0.50000000  0.50000000  1
  O  O32  1  0.24316662  0.00000000  0.00000000  1
  O  O33  1  0.25050017  0.00000000  0.50000000  1
  O  O34  1  0.25050017  0.50000000  -0.00000000  1
  O  O35  1  0.26402215  0.50000000  0.50000000  1
  O  O36  1  0.75683338  0.00000000  -0.00000000  1
  O  O37  1  0.74949983  0.00000000  0.50000000  1
  O  O38  1  0.74949983  0.50000000  0.00000000  1
  O  O39  1  0.73597785  0.50000000  0.50000000  1
  O  O40  1  0.24904435  0.24955604  0.24955604  1
  O  O41  1  0.24904435  0.24955604  0.75044396  1
  O  O42  1  0.24904435  0.75044396  0.24955604  1
  O  O43  1  0.24904435  0.75044396  0.75044396  1
  O  O44  1  0.75095565  0.24955604  0.24955604  1
  O  O45  1  0.75095565  0.24955604  0.75044396  1
  O  O46  1  0.75095565  0.75044396  0.24955604  1
  O  O47  1  0.75095565  0.75044396  0.75044396  1
  O  O48  1  0.00000000  0.00000000  0.24064426  1
  O  O49  1  0.00000000  0.00000000  0.75935574  1
  O  O50  1  0.00000000  0.50000000  0.23358255  1
  O  O51  1  0.00000000  0.50000000  0.76641745  1
  O  O52  1  0.50000000  0.00000000  0.24715471  1
  O  O53  1  0.50000000  0.00000000  0.75284529  1
  O  O54  1  0.50000000  0.50000000  0.24709901  1
  O  O55  1  0.50000000  0.50000000  0.75290099  1
  O  O56  1  0.00000000  0.24064426  -0.00000000  1
  O  O57  1  0.00000000  0.23358255  0.50000000  1
  O  O58  1  0.00000000  0.75935574  -0.00000000  1
  O  O59  1  0.00000000  0.76641745  0.50000000  1
  O  O60  1  0.50000000  0.24715471  0.00000000  1
  O  O61  1  0.50000000  0.24709901  0.50000000  1
  O  O62  1  0.50000000  0.75284529  -0.00000000  1
  O  O63  1  0.50000000  0.75290099  0.50000000  1
