# generated using pymatgen
data_Nb3Si
_symmetry_space_group_name_H-M   'P 1'
_cell_length_a   5.21819610
_cell_length_b   10.27364452
_cell_length_c   10.27364452
_cell_angle_alpha   90.00000000
_cell_angle_beta   90.00000000
_cell_angle_gamma   90.00000000
_symmetry_Int_Tables_number   1
_chemical_formula_structural   Nb3Si
_chemical_formula_sum   'Nb24 Si8'
_cell_volume   550.76897077
_cell_formula_units_Z   8
loop_
 _symmetry_equiv_pos_site_id
 _symmetry_equiv_pos_as_xyz
  1  'x, y, z'
loop_
 _atom_site_type_symbol
 _atom_site_label
 _atom_site_symmetry_multiplicity
 _atom_site_fract_x
 _atom_site_fract_y
 _atom_site_fract_z
 _atom_site_occupancy
  Nb  Nb0  1  0.78197281  0.84739011  0.16516009  1
  Nb  Nb1  1  0.78197281  0.65260989  0.33483991  1
  Nb  Nb2  1  0.28197281  0.66516009  0.15260989  1
  Nb  Nb3  1  0.28197281  0.83483991  0.34739011  1
  Nb  Nb4  1  0.21802719  0.15260989  0.83483991  1
  Nb  Nb5  1  0.21802719  0.34739011  0.66516009  1
  Nb  Nb6  1  0.71802719  0.33483991  0.84739011  1
  Nb  Nb7  1  0.71802719  0.16516009  0.65260989  1
  Nb  Nb8  1  0.97735515  0.23400028  0.10390611  1
  Nb  Nb9  1  0.97735515  0.26599972  0.39609389  1
  Nb  Nb10  1  0.47735515  0.60390611  0.76599972  1
  Nb  Nb11  1  0.47735515  0.89609389  0.73400028  1
  Nb  Nb12  1  0.02264485  0.76599972  0.89609389  1
  Nb  Nb13  1  0.02264485  0.73400028  0.60390611  1
  Nb  Nb14  1  0.52264485  0.39609389  0.23400028  1
  Nb  Nb15  1  0.52264485  0.10390611  0.26599972  1
  Nb  Nb16  1  0.26371338  0.96387740  0.06019594  1
  Nb  Nb17  1  0.26371338  0.53612260  0.43980406  1
  Nb  Nb18  1  0.76371338  0.56019594  0.03612260  1
  Nb  Nb19  1  0.76371338  0.93980406  0.46387740  1
  Nb  Nb20  1  0.73628662  0.03612260  0.93980406  1
  Nb  Nb21  1  0.73628662  0.46387740  0.56019594  1
  Nb  Nb22  1  0.23628662  0.43980406  0.96387740  1
  Nb  Nb23  1  0.23628662  0.06019594  0.53612260  1
  Si  Si24  1  0.47104874  0.22186078  0.04410984  1
  Si  Si25  1  0.47104874  0.27813922  0.45589016  1
  Si  Si26  1  0.97104874  0.54410984  0.77813922  1
  Si  Si27  1  0.97104874  0.95589016  0.72186078  1
  Si  Si28  1  0.52895126  0.77813922  0.95589016  1
  Si  Si29  1  0.52895126  0.72186078  0.54410984  1
  Si  Si30  1  0.02895126  0.45589016  0.22186078  1
  Si  Si31  1  0.02895126  0.04410984  0.27813922  1
