# generated using pymatgen
data_Ta3Co3C
_symmetry_space_group_name_H-M   'P 1'
_cell_length_a   7.99583188
_cell_length_b   7.99583188
_cell_length_c   7.99583188
_cell_angle_alpha   59.99999999
_cell_angle_beta   59.99999999
_cell_angle_gamma   60.00000002
_symmetry_Int_Tables_number   1
_chemical_formula_structural   Ta3Co3C
_chemical_formula_sum   'Ta12 Co12 C4'
_cell_volume   361.47308379
_cell_formula_units_Z   4
loop_
 _symmetry_equiv_pos_site_id
 _symmetry_equiv_pos_as_xyz
  1  'x, y, z'
loop_
 _atom_site_type_symbol
 _atom_site_label
 _atom_site_symmetry_multiplicity
 _atom_site_fract_x
 _atom_site_fract_y
 _atom_site_fract_z
 _atom_site_occupancy
  C  C0  1  0.00000000  0.50000000  0.00000000  1
  C  C1  1  0.00000000  0.00000000  0.50000000  1
  C  C2  1  0.50000000  0.00000000  0.00000000  1
  C  C3  1  0.00000000  0.00000000  0.00000000  1
  Co  Co4  1  0.50000000  0.00000000  0.50000000  1
  Co  Co5  1  0.29619986  0.29619986  0.61140043  1
  Co  Co6  1  0.61140043  0.29619986  0.29619986  1
  Co  Co7  1  0.70380014  0.70380014  0.70380014  1
  Co  Co8  1  0.38859957  0.70380014  0.70380014  1
  Co  Co9  1  0.70380014  0.38859957  0.70380014  1
  Co  Co10  1  0.70380014  0.70380014  0.38859957  1
  Co  Co11  1  0.29619986  0.29619986  0.29619986  1
  Co  Co12  1  0.00000000  0.50000000  0.50000000  1
  Co  Co13  1  0.50000000  0.50000000  0.00000000  1
  Co  Co14  1  0.50000000  0.50000000  0.50000000  1
  Co  Co15  1  0.29619986  0.61140043  0.29619986  1
  Ta  Ta16  1  0.92664178  0.32335822  0.92664178  1
  Ta  Ta17  1  0.32335822  0.92664178  0.32335822  1
  Ta  Ta18  1  0.07335822  0.67664178  0.07335822  1
  Ta  Ta19  1  0.07335822  0.07335822  0.67664178  1
  Ta  Ta20  1  0.67664178  0.67664178  0.07335822  1
  Ta  Ta21  1  0.67664178  0.07335822  0.67664178  1
  Ta  Ta22  1  0.32335822  0.92664178  0.92664178  1
  Ta  Ta23  1  0.07335822  0.67664178  0.67664178  1
  Ta  Ta24  1  0.92664178  0.32335822  0.32335822  1
  Ta  Ta25  1  0.92664178  0.92664178  0.32335822  1
  Ta  Ta26  1  0.67664178  0.07335822  0.07335822  1
  Ta  Ta27  1  0.32335822  0.32335822  0.92664178  1
