# generated using pymatgen
data_AsPRu
_symmetry_space_group_name_H-M   'P 1'
_cell_length_a   2.96155586
_cell_length_b   5.32735748
_cell_length_c   6.10365836
_cell_angle_alpha   91.92363215
_cell_angle_beta   90.00000000
_cell_angle_gamma   90.00000000
_symmetry_Int_Tables_number   1
_chemical_formula_structural   AsPRu
_chemical_formula_sum   'As2 P2 Ru2'
_cell_volume   96.24477741
_cell_formula_units_Z   2
loop_
 _symmetry_equiv_pos_site_id
 _symmetry_equiv_pos_as_xyz
  1  'x, y, z'
loop_
 _atom_site_type_symbol
 _atom_site_label
 _atom_site_symmetry_multiplicity
 _atom_site_fract_x
 _atom_site_fract_y
 _atom_site_fract_z
 _atom_site_occupancy
  As  As0  1  0.50000000  0.67125355  0.13672420  1
  As  As1  1  0.50000000  0.32874645  0.86327580  1
  P  P2  1  0.00000000  0.16338268  0.37315159  1
  P  P3  1  0.00000000  0.83661732  0.62684841  1
  Ru  Ru4  1  0.50000000  0.50000000  0.50000000  1
  Ru  Ru5  1  0.00000000  -0.00000000  -0.00000000  1
