# generated using pymatgen
data_LaMnSbO
_symmetry_space_group_name_H-M   'P 1'
_cell_length_a   4.32252511
_cell_length_b   4.32252511
_cell_length_c   9.74492776
_cell_angle_alpha   90.00000000
_cell_angle_beta   90.00000000
_cell_angle_gamma   90.00000000
_symmetry_Int_Tables_number   1
_chemical_formula_structural   LaMnSbO
_chemical_formula_sum   'La2 Mn2 Sb2 O2'
_cell_volume   182.07640657
_cell_formula_units_Z   2
loop_
 _symmetry_equiv_pos_site_id
 _symmetry_equiv_pos_as_xyz
  1  'x, y, z'
loop_
 _atom_site_type_symbol
 _atom_site_label
 _atom_site_symmetry_multiplicity
 _atom_site_fract_x
 _atom_site_fract_y
 _atom_site_fract_z
 _atom_site_occupancy
  O  O0  1  0.25000044  0.74999895  0.00000000  1
  O  O1  1  0.74999895  0.25000044  0.00000000  1
  Mn  Mn2  1  0.25000044  0.74999895  0.50000040  1
  Mn  Mn3  1  0.74999895  0.25000044  0.50000040  1
  Sb  Sb4  1  0.74999895  0.74999895  0.31140266  1
  Sb  Sb5  1  0.25000044  0.25000044  0.68859710  1
  La  La6  1  0.74999895  0.74999895  0.88550782  1
  La  La7  1  0.25000044  0.25000044  0.11449195  1
