# generated using pymatgen
data_Ba2Sr3Nb10O30
_symmetry_space_group_name_H-M   'P 1'
_cell_length_a   4.06416813
_cell_length_b   12.66354358
_cell_length_c   12.66059609
_cell_angle_alpha   90.34355774
_cell_angle_beta   90.00000000
_cell_angle_gamma   90.00000000
_symmetry_Int_Tables_number   1
_chemical_formula_structural   Ba2Sr3Nb10O30
_chemical_formula_sum   'Ba2 Sr3 Nb10 O30'
_cell_volume   651.58827571
_cell_formula_units_Z   1
loop_
 _symmetry_equiv_pos_site_id
 _symmetry_equiv_pos_as_xyz
  1  'x, y, z'
loop_
 _atom_site_type_symbol
 _atom_site_label
 _atom_site_symmetry_multiplicity
 _atom_site_fract_x
 _atom_site_fract_y
 _atom_site_fract_z
 _atom_site_occupancy
  Ba  Ba0  1  0.48663368  0.67669450  0.83133461  1
  Ba  Ba1  1  0.48663368  0.32330550  0.16866539  1
  Sr  Sr2  1  0.50597762  0.83170757  0.32074796  1
  Sr  Sr3  1  0.50597762  0.16829243  0.67925204  1
  Sr  Sr4  1  0.48787405  0.50000000  0.50000000  1
  Nb  Nb5  1  0.99496440  0.28874731  0.42012470  1
  Nb  Nb6  1  0.99496440  0.71125269  0.57987530  1
  Nb  Nb7  1  0.00366813  0.20413770  0.92726104  1
  Nb  Nb8  1  0.00366813  0.79586230  0.07273896  1
  Nb  Nb9  1  0.99642079  0.41664915  0.71120990  1
  Nb  Nb10  1  0.99642079  0.58335085  0.28879010  1
  Nb  Nb11  1  0.00325430  0.92812233  0.79417500  1
  Nb  Nb12  1  0.00325430  0.07187767  0.20582500  1
  Nb  Nb13  1  0.00365920  0.00000000  0.50000000  1
  Nb  Nb14  1  0.00441777  0.50000000  -0.00000000  1
  O  O15  1  0.95583663  0.43511153  0.36162909  1
  O  O16  1  0.95583663  0.56488847  0.63837091  1
  O  O17  1  0.95040887  0.06774789  0.85483661  1
  O  O18  1  0.95040887  0.93225211  0.14516339  1
  O  O19  1  0.95325832  0.36545177  0.56335753  1
  O  O20  1  0.95325832  0.63454823  0.43664247  1
  O  O21  1  0.95756768  0.85189169  0.93133613  1
  O  O22  1  0.95756768  0.14810831  0.06866387  1
  O  O23  1  0.95431112  0.15918056  0.50881956  1
  O  O24  1  0.95431112  0.84081944  0.49118044  1
  O  O25  1  0.95576028  0.34404380  0.00167156  1
  O  O26  1  0.95576028  0.65595620  0.99832844  1
  O  O27  1  0.95884109  0.50493392  0.84149375  1
  O  O28  1  0.95884109  0.49506608  0.15850625  1
  O  O29  1  0.95243721  0.00614542  0.65702079  1
  O  O30  1  0.95243721  0.99385458  0.34297921  1
  O  O31  1  0.46120704  0.00000000  0.50000000  1
  O  O32  1  0.46369079  0.50000000  -0.00000000  1
  O  O33  1  0.95911039  0.22173879  0.27973339  1
  O  O34  1  0.95911039  0.77826121  0.72026661  1
  O  O35  1  0.96105115  0.27236511  0.76929394  1
  O  O36  1  0.96105115  0.72763489  0.23070606  1
  O  O37  1  0.46031103  0.29972228  0.41872141  1
  O  O38  1  0.46031103  0.70027772  0.58127859  1
  O  O39  1  0.45926633  0.20951816  0.91031210  1
  O  O40  1  0.45926633  0.79048184  0.08968790  1
  O  O41  1  0.46132975  0.41574168  0.70071358  1
  O  O42  1  0.46132975  0.58425832  0.29928642  1
  O  O43  1  0.45876682  0.91411711  0.79101346  1
  O  O44  1  0.45876682  0.08588289  0.20898654  1
