# generated using pymatgen
data_Li2Ca2Ta3O10
_symmetry_space_group_name_H-M   'P 1'
_cell_length_a   3.98722241
_cell_length_b   3.98722241
_cell_length_c   13.56230424
_cell_angle_alpha   98.45290897
_cell_angle_beta   98.45290897
_cell_angle_gamma   90.00000008
_symmetry_Int_Tables_number   1
_chemical_formula_structural   Li2Ca2Ta3O10
_chemical_formula_sum   'Li2 Ca2 Ta3 O10'
_cell_volume   210.90232680
_cell_formula_units_Z   1
loop_
 _symmetry_equiv_pos_site_id
 _symmetry_equiv_pos_as_xyz
  1  'x, y, z'
loop_
 _atom_site_type_symbol
 _atom_site_label
 _atom_site_symmetry_multiplicity
 _atom_site_fract_x
 _atom_site_fract_y
 _atom_site_fract_z
 _atom_site_occupancy
  Li  Li0  1  0.75000000  0.25000000  0.50000000  1
  Li  Li1  1  0.25000000  0.75000000  0.50000000  1
  O  O2  1  0.85552305  0.35552305  0.71104610  1
  O  O3  1  0.77394532  0.77394532  0.54789064  1
  O  O4  1  0.22605468  0.22605468  0.45210936  1
  O  O5  1  0.00000000  0.50000000  0.00000000  1
  O  O6  1  0.35552305  0.85552305  0.71104610  1
  O  O7  1  0.50000000  0.00000000  0.00000000  1
  O  O8  1  0.92517472  0.92517472  0.85034945  1
  O  O9  1  0.07482528  0.07482528  0.14965055  1
  O  O10  1  0.64447695  0.14447695  0.28895390  1
  O  O11  1  0.14447695  0.64447695  0.28895390  1
  Ca  Ca12  1  0.41507015  0.41507015  0.83014029  1
  Ca  Ca13  1  0.58492985  0.58492985  0.16985971  1
  Ta  Ta14  1  0.84549999  0.84549999  0.69099998  1
  Ta  Ta15  1  0.00000000  0.00000000  0.00000000  1
  Ta  Ta16  1  0.15450001  0.15450001  0.30900002  1
