# generated using pymatgen
data_Ba2Nd2Co4O11
_symmetry_space_group_name_H-M   'P 1'
_cell_length_a   5.63309800
_cell_length_b   5.63309800
_cell_length_c   8.65270507
_cell_angle_alpha   71.02165151
_cell_angle_beta   71.02165151
_cell_angle_gamma   90.05280136
_symmetry_Int_Tables_number   1
_chemical_formula_structural   Ba2Nd2Co4O11
_chemical_formula_sum   'Ba2 Nd2 Co4 O11'
_cell_volume   243.77366323
_cell_formula_units_Z   1
loop_
 _symmetry_equiv_pos_site_id
 _symmetry_equiv_pos_as_xyz
  1  'x, y, z'
loop_
 _atom_site_type_symbol
 _atom_site_label
 _atom_site_symmetry_multiplicity
 _atom_site_fract_x
 _atom_site_fract_y
 _atom_site_fract_z
 _atom_site_occupancy
  Ba  Ba0  1  0.25000000  0.75000000  0.50000000  1
  Ba  Ba1  1  0.75000000  0.25000000  0.50000000  1
  Nd  Nd2  1  0.50000000  -0.00000000  0.00000000  1
  Nd  Nd3  1  -0.00000000  0.50000000  -0.00000000  1
  Co  Co4  1  0.37769440  0.37769440  0.24461121  1
  Co  Co5  1  0.87893074  0.87893074  0.24213851  1
  Co  Co6  1  0.12106926  0.12106926  0.75786149  1
  Co  Co7  1  0.62230560  0.62230560  0.75538879  1
  O  O8  1  0.63199947  0.16000040  0.20800012  1
  O  O9  1  0.16000040  0.63199947  0.20800012  1
  O  O10  1  0.36800053  0.83999960  0.79199988  1
  O  O11  1  0.83999960  0.36800053  0.79199988  1
  O  O12  1  0.16080426  0.16080426  0.20681918  1
  O  O13  1  0.63237656  0.63237656  0.20681918  1
  O  O14  1  0.83919574  0.83919574  0.79318082  1
  O  O15  1  0.36762344  0.36762344  0.79318082  1
  O  O16  1  0.23857868  0.23857868  0.52284263  1
  O  O17  1  0.76142132  0.76142132  0.47715737  1
  O  O18  1  -0.00000000  -0.00000000  0.00000000  1
