# generated using pymatgen
data_Ba6Y3Co3(Cu3O11)2
_symmetry_space_group_name_H-M   'P 1'
_cell_length_a   3.89456710
_cell_length_b   12.39036802
_cell_length_c   11.79249915
_cell_angle_alpha   108.46469005
_cell_angle_beta   90.04005366
_cell_angle_gamma   89.94326327
_symmetry_Int_Tables_number   1
_chemical_formula_structural   Ba6Y3Co3(Cu3O11)2
_chemical_formula_sum   'Ba6 Y3 Co3 Cu6 O22'
_cell_volume   539.75297635
_cell_formula_units_Z   1
loop_
 _symmetry_equiv_pos_site_id
 _symmetry_equiv_pos_as_xyz
  1  'x, y, z'
loop_
 _atom_site_type_symbol
 _atom_site_label
 _atom_site_symmetry_multiplicity
 _atom_site_fract_x
 _atom_site_fract_y
 _atom_site_fract_z
 _atom_site_occupancy
  Ba  Ba0  1  0.50450710  0.81848628  0.76900883  1
  Ba  Ba1  1  0.49957741  0.81717143  0.43900359  1
  Ba  Ba2  1  0.49516762  0.81847319  0.10976196  1
  Ba  Ba3  1  0.50042259  0.18282857  0.56099641  1
  Ba  Ba4  1  0.49549290  0.18151372  0.23099117  1
  Ba  Ba5  1  0.50483238  0.18152681  0.89023804  1
  Y  Y6  1  0.50037489  0.50124603  0.66803918  1
  Y  Y7  1  0.49962511  0.49875397  0.33196082  1
  Y  Y8  1  0.50000000  0.50000000  0.00000000  1
  Co  Co9  1  0.00795146  0.00002558  0.68212004  1
  Co  Co10  1  0.99204854  -0.00002558  0.31787996  1
  Co  Co11  1  -0.00000000  0.00000000  0.00000000  1
  Cu  Cu12  1  0.00015336  0.64667398  0.88241115  1
  Cu  Cu13  1  0.00080376  0.64047615  0.54599430  1
  Cu  Cu14  1  0.99905339  0.64070383  0.21403616  1
  Cu  Cu15  1  0.00094661  0.35929617  0.78596384  1
  Cu  Cu16  1  0.99919624  0.35952385  0.45400570  1
  Cu  Cu17  1  0.99984664  0.35332602  0.11758885  1
  O  O18  1  0.50013873  0.62006805  0.87358603  1
  O  O19  1  0.50062996  0.62062097  0.54065824  1
  O  O20  1  0.49919741  0.62093447  0.20636020  1
  O  O21  1  0.00106194  0.62362465  0.70640458  1
  O  O22  1  0.99967703  0.61992263  0.37340785  1
  O  O23  1  0.99910512  0.62234490  0.04208585  1
  O  O24  1  0.50080259  0.37906553  0.79363980  1
  O  O25  1  0.49937004  0.37937903  0.45934176  1
  O  O26  1  0.49986127  0.37993195  0.12641397  1
  O  O27  1  0.00032297  0.38007737  0.62659215  1
  O  O28  1  0.99893806  0.37637535  0.29359542  1
  O  O29  1  0.00089488  0.37765510  0.95791415  1
  O  O30  1  0.00071847  0.84235465  0.94695736  1
  O  O31  1  0.00314846  0.84743678  0.60670756  1
  O  O32  1  0.99601097  0.84733904  0.29178288  1
  O  O33  1  0.00398903  0.15266096  0.70821712  1
  O  O34  1  0.99685154  0.15256322  0.39329244  1
  O  O35  1  0.99928153  0.15764535  0.05304264  1
  O  O36  1  0.02823609  0.00071389  0.84533988  1
  O  O37  1  0.97176391  0.99928611  0.15466012  1
  O  O38  1  0.50740185  0.99997012  0.65427435  1
  O  O39  1  0.49259815  0.00002988  0.34572565  1
