# generated using pymatgen
data_CuGeO3
_symmetry_space_group_name_H-M   'P 1'
_cell_length_a   2.96563417
_cell_length_b   4.90831727
_cell_length_c   8.74789354
_cell_angle_alpha   90.00000000
_cell_angle_beta   90.00000000
_cell_angle_gamma   90.00000000
_symmetry_Int_Tables_number   1
_chemical_formula_structural   CuGeO3
_chemical_formula_sum   'Cu2 Ge2 O6'
_cell_volume   127.33673016
_cell_formula_units_Z   2
loop_
 _symmetry_equiv_pos_site_id
 _symmetry_equiv_pos_as_xyz
  1  'x, y, z'
loop_
 _atom_site_type_symbol
 _atom_site_label
 _atom_site_symmetry_multiplicity
 _atom_site_fract_x
 _atom_site_fract_y
 _atom_site_fract_z
 _atom_site_occupancy
  Cu  Cu0  1  0.00000000  0.50000000  0.50000000  1
  Cu  Cu1  1  0.00000000  0.50000000  0.00000000  1
  Ge  Ge2  1  0.50000000  0.08520389  0.25000000  1
  Ge  Ge3  1  0.50000000  0.91479611  0.75000000  1
  O  O4  1  0.00000000  0.87702974  0.25000000  1
  O  O5  1  -0.00000000  0.12297026  0.75000000  1
  O  O6  1  0.50000000  0.28674271  0.41720201  1
  O  O7  1  0.50000000  0.71325729  0.58279799  1
  O  O8  1  0.50000000  0.28674271  0.08279799  1
  O  O9  1  0.50000000  0.71325729  0.91720201  1
