# generated using pymatgen
data_BaCu2Si2O7
_symmetry_space_group_name_H-M   'P 1'
_cell_length_a   6.94281569
_cell_length_b   7.05304733
_cell_length_c   13.19087083
_cell_angle_alpha   90.00000000
_cell_angle_beta   90.00000000
_cell_angle_gamma   90.00000000
_symmetry_Int_Tables_number   1
_chemical_formula_structural   BaCu2Si2O7
_chemical_formula_sum   'Ba4 Si8 Cu8 O28'
_cell_volume   645.93066391
_cell_formula_units_Z   4
loop_
 _symmetry_equiv_pos_site_id
 _symmetry_equiv_pos_as_xyz
  1  'x, y, z'
loop_
 _atom_site_type_symbol
 _atom_site_label
 _atom_site_symmetry_multiplicity
 _atom_site_fract_x
 _atom_site_fract_y
 _atom_site_fract_z
 _atom_site_occupancy
  O  O0  1  0.81840252  0.46893337  0.55681590  1
  O  O1  1  0.31840252  0.03106663  0.94318410  1
  O  O2  1  0.68159748  0.96893337  0.44318410  1
  O  O3  1  0.18159748  0.53106663  0.05681590  1
  O  O4  1  0.18159748  0.53106663  0.44318410  1
  O  O5  1  0.68159748  0.96893337  0.05681590  1
  O  O6  1  0.31840252  0.03106663  0.55681590  1
  O  O7  1  0.81840252  0.46893337  0.94318410  1
  O  O8  1  0.07015413  0.74342169  0.61502655  1
  O  O9  1  0.57015413  0.75657831  0.88497345  1
  O  O10  1  0.42984587  0.24342169  0.38497345  1
  O  O11  1  0.92984587  0.25657831  0.11502655  1
  O  O12  1  0.92984587  0.25657831  0.38497345  1
  O  O13  1  0.42984587  0.24342169  0.11502655  1
  O  O14  1  0.57015413  0.75657831  0.61502655  1
  O  O15  1  0.07015413  0.74342169  0.88497345  1
  O  O16  1  0.17146528  0.36355320  0.63430791  1
  O  O17  1  0.67146528  0.13644680  0.86569209  1
  O  O18  1  0.32853472  0.86355320  0.36569209  1
  O  O19  1  0.82853472  0.63644680  0.13430791  1
  O  O20  1  0.90552661  0.51475831  0.75000000  1
  O  O21  1  0.40552661  0.98524169  0.75000000  1
  O  O22  1  0.59447339  0.01475831  0.25000000  1
  O  O23  1  0.09447339  0.48524169  0.25000000  1
  O  O24  1  0.17146528  0.36355320  0.86569209  1
  O  O25  1  0.67146528  0.13644680  0.63430791  1
  O  O26  1  0.32853472  0.86355320  0.13430791  1
  O  O27  1  0.82853472  0.63644680  0.36569209  1
  Si  Si28  1  0.00126291  0.52487460  0.63316105  1
  Si  Si29  1  0.50126291  0.97512540  0.86683895  1
  Si  Si30  1  0.49873709  0.02487460  0.36683895  1
  Si  Si31  1  0.99873709  0.47512540  0.13316105  1
  Si  Si32  1  0.99873709  0.47512540  0.36683895  1
  Si  Si33  1  0.49873709  0.02487460  0.13316105  1
  Si  Si34  1  0.50126291  0.97512540  0.63316105  1
  Si  Si35  1  0.00126291  0.52487460  0.86683895  1
  Cu  Cu36  1  0.77915185  0.20817673  0.50472887  1
  Cu  Cu37  1  0.27915185  0.29182327  0.99527113  1
  Cu  Cu38  1  0.72084815  0.70817673  0.49527113  1
  Cu  Cu39  1  0.22084815  0.79182327  0.00472887  1
  Cu  Cu40  1  0.22084815  0.79182327  0.49527113  1
  Cu  Cu41  1  0.72084815  0.70817673  0.00472887  1
  Cu  Cu42  1  0.27915185  0.29182327  0.50472887  1
  Cu  Cu43  1  0.77915185  0.20817673  0.99527113  1
  Ba  Ba44  1  0.98614307  0.95998280  0.25000000  1
  Ba  Ba45  1  0.48614307  0.54001720  0.25000000  1
  Ba  Ba46  1  0.51385693  0.45998280  0.75000000  1
  Ba  Ba47  1  0.01385693  0.04001720  0.75000000  1
