# generated using pymatgen
data_USiPd
_symmetry_space_group_name_H-M   'P 1'
_cell_length_a   4.18652701
_cell_length_b   7.06619013
_cell_length_c   7.51623960
_cell_angle_alpha   90.00000000
_cell_angle_beta   90.00000000
_cell_angle_gamma   90.00000000
_symmetry_Int_Tables_number   1
_chemical_formula_structural   USiPd
_chemical_formula_sum   'U4 Si4 Pd4'
_cell_volume   222.35138155
_cell_formula_units_Z   4
loop_
 _symmetry_equiv_pos_site_id
 _symmetry_equiv_pos_as_xyz
  1  'x, y, z'
loop_
 _atom_site_type_symbol
 _atom_site_label
 _atom_site_symmetry_multiplicity
 _atom_site_fract_x
 _atom_site_fract_y
 _atom_site_fract_z
 _atom_site_occupancy
  Si  Si0  1  0.25000000  0.28972589  0.88662552  1
  Si  Si1  1  0.75000000  0.71027411  0.11337448  1
  Si  Si2  1  0.25000000  0.78972589  0.61337448  1
  Si  Si3  1  0.75000000  0.21027411  0.38662552  1
  Pd  Pd4  1  0.75000000  0.83948581  0.43030724  1
  Pd  Pd5  1  0.25000000  0.16051419  0.56969276  1
  Pd  Pd6  1  0.75000000  0.33948581  0.06969276  1
  Pd  Pd7  1  0.25000000  0.66051419  0.93030724  1
  U  U8  1  0.25000000  0.50598554  0.32652214  1
  U  U9  1  0.75000000  0.49401446  0.67347786  1
  U  U10  1  0.25000000  0.00598554  0.17347786  1
  U  U11  1  0.75000000  0.99401446  0.82652214  1
