# generated using pymatgen
data_Sm3S4
_symmetry_space_group_name_H-M   'P 1'
_cell_length_a   7.34229360
_cell_length_b   7.34229360
_cell_length_c   7.34229360
_cell_angle_alpha   109.47122063
_cell_angle_beta   109.47122064
_cell_angle_gamma   109.47122066
_symmetry_Int_Tables_number   1
_chemical_formula_structural   Sm3S4
_chemical_formula_sum   'Sm6 S8'
_cell_volume   304.70062825
_cell_formula_units_Z   2
loop_
 _symmetry_equiv_pos_site_id
 _symmetry_equiv_pos_as_xyz
  1  'x, y, z'
loop_
 _atom_site_type_symbol
 _atom_site_label
 _atom_site_symmetry_multiplicity
 _atom_site_fract_x
 _atom_site_fract_y
 _atom_site_fract_z
 _atom_site_occupancy
  S  S0  1  0.64710243  0.64710243  0.64710243  1
  S  S1  1  0.35289757  0.50000000  0.00000000  1
  S  S2  1  0.50000000  0.00000000  0.35289757  1
  S  S3  1  0.00000000  0.35289757  0.50000000  1
  S  S4  1  0.50000000  0.00000000  0.85289757  1
  S  S5  1  0.00000000  0.85289757  0.50000000  1
  S  S6  1  0.14710243  0.14710243  0.14710243  1
  S  S7  1  0.85289757  0.50000000  0.00000000  1
  Sm  Sm8  1  0.75000000  0.87500000  0.12500000  1
  Sm  Sm9  1  0.62500000  0.37500000  0.25000000  1
  Sm  Sm10  1  0.87500000  0.12500000  0.75000000  1
  Sm  Sm11  1  0.12500000  0.75000000  0.87500000  1
  Sm  Sm12  1  0.37500000  0.25000000  0.62500000  1
  Sm  Sm13  1  0.25000000  0.62500000  0.37500000  1
