# generated using pymatgen
data_FeSb6(Pb2S7)2
_symmetry_space_group_name_H-M   'P 1'
_cell_length_a   4.04394283
_cell_length_b   15.97091487
_cell_length_c   19.48387442
_cell_angle_alpha   90.00000000
_cell_angle_beta   90.00000000
_cell_angle_gamma   92.23017413
_symmetry_Int_Tables_number   1
_chemical_formula_structural   FeSb6(Pb2S7)2
_chemical_formula_sum   'Fe2 Sb12 Pb8 S28'
_cell_volume   1257.42198035
_cell_formula_units_Z   2
loop_
 _symmetry_equiv_pos_site_id
 _symmetry_equiv_pos_as_xyz
  1  'x, y, z'
loop_
 _atom_site_type_symbol
 _atom_site_label
 _atom_site_symmetry_multiplicity
 _atom_site_fract_x
 _atom_site_fract_y
 _atom_site_fract_z
 _atom_site_occupancy
  S  S0  1  0.89319817  0.27976187  0.79854823  1
  S  S1  1  0.96827283  0.21509684  0.50708808  1
  S  S2  1  0.03172717  0.28490316  0.00708808  1
  S  S3  1  0.03172717  0.78490316  0.49291192  1
  S  S4  1  0.96827283  0.71509684  0.99291192  1
  S  S5  1  0.93723119  0.49991660  0.89577124  1
  S  S6  1  0.06276881  0.00008340  0.39577124  1
  S  S7  1  0.06276881  0.50008340  0.10422876  1
  S  S8  1  0.93723119  0.99991660  0.60422876  1
  S  S9  1  0.41595405  0.44996284  0.72998699  1
  S  S10  1  0.01552938  0.58221442  0.60063588  1
  S  S11  1  0.98447062  0.91778558  0.10063588  1
  S  S12  1  0.98447062  0.41778558  0.39936412  1
  S  S13  1  0.01552938  0.08221442  0.89936412  1
  S  S14  1  0.47444000  0.90705114  0.95597305  1
  S  S15  1  0.52556000  0.59294886  0.45597305  1
  S  S16  1  0.52556000  0.09294886  0.04402695  1
  S  S17  1  0.47444000  0.40705114  0.54402695  1
  S  S18  1  0.44242721  0.68426372  0.83815392  1
  S  S19  1  0.55757279  0.81573628  0.33815392  1
  S  S20  1  0.55757279  0.31573628  0.16184608  1
  S  S21  1  0.44242721  0.18426372  0.66184608  1
  S  S22  1  0.89319817  0.77976187  0.70145177  1
  S  S23  1  0.10680183  0.72023813  0.20145177  1
  S  S24  1  0.10680183  0.22023813  0.29854823  1
  S  S25  1  0.58404595  0.55003716  0.27001301  1
  S  S26  1  0.41595405  0.94996284  0.77001301  1
  S  S27  1  0.58404595  0.05003716  0.22998699  1
  Fe  Fe28  1  0.00000000  0.00000000  0.00000000  1
  Fe  Fe29  1  0.00000000  0.50000000  0.50000000  1
  Sb  Sb30  1  0.40749805  0.31714459  0.44012905  1
  Sb  Sb31  1  0.62651630  0.89613712  0.44629099  1
  Sb  Sb32  1  0.37348370  0.60386288  0.94629099  1
  Sb  Sb33  1  0.59250195  0.18285541  0.94012905  1
  Sb  Sb34  1  0.40749805  0.81714459  0.05987095  1
  Sb  Sb35  1  0.62651630  0.39613712  0.05370901  1
  Sb  Sb36  1  0.59250195  0.68285541  0.55987095  1
  Sb  Sb37  1  0.37348370  0.10386288  0.55370901  1
  Sb  Sb38  1  0.37221288  0.87247826  0.66052211  1
  Sb  Sb39  1  0.62778712  0.62752174  0.16052211  1
  Sb  Sb40  1  0.62778712  0.12752174  0.33947789  1
  Sb  Sb41  1  0.37221288  0.37247826  0.83947789  1
  Pb  Pb42  1  0.96250832  0.81740624  0.86315980  1
  Pb  Pb43  1  0.03749168  0.68259376  0.36315980  1
  Pb  Pb44  1  0.03749168  0.18259376  0.13684020  1
  Pb  Pb45  1  0.96250832  0.31740624  0.63684020  1
  Pb  Pb46  1  0.93526510  0.57495937  0.75758119  1
  Pb  Pb47  1  0.06473490  0.92504063  0.25758119  1
  Pb  Pb48  1  0.06473490  0.42504063  0.24241881  1
  Pb  Pb49  1  0.93526510  0.07495937  0.74241881  1
