# generated using pymatgen
data_U2Co3O8
_symmetry_space_group_name_H-M   'P 1'
_cell_length_a   5.15873548
_cell_length_b   6.14342751
_cell_length_c   10.39852682
_cell_angle_alpha   90.00000000
_cell_angle_beta   90.00000000
_cell_angle_gamma   90.00000000
_symmetry_Int_Tables_number   1
_chemical_formula_structural   U2Co3O8
_chemical_formula_sum   'U4 Co6 O16'
_cell_volume   329.55341314
_cell_formula_units_Z   2
loop_
 _symmetry_equiv_pos_site_id
 _symmetry_equiv_pos_as_xyz
  1  'x, y, z'
loop_
 _atom_site_type_symbol
 _atom_site_label
 _atom_site_symmetry_multiplicity
 _atom_site_fract_x
 _atom_site_fract_y
 _atom_site_fract_z
 _atom_site_occupancy
  O  O0  1  0.68178262  0.49999950  0.40271726  1
  O  O1  1  0.18178225  0.00000000  0.09728268  1
  O  O2  1  0.31821811  0.49999950  0.59728263  1
  O  O3  1  0.81821847  0.00000000  0.90271721  1
  O  O4  1  0.79769857  0.49999950  0.91200122  1
  O  O5  1  0.29769820  0.00000000  0.58799862  1
  O  O6  1  0.20230216  0.49999950  0.08799867  1
  O  O7  1  0.70230058  0.00000000  0.41200127  1
  O  O8  1  0.29429104  0.23283640  0.84907485  1
  O  O9  1  0.79429141  0.26716475  0.65092499  1
  O  O10  1  0.79429141  0.73283589  0.65092499  1
  O  O11  1  0.29429104  0.76716424  0.84907485  1
  O  O12  1  0.20570738  0.73283589  0.34907490  1
  O  O13  1  0.70570774  0.23283640  0.15092504  1
  O  O14  1  0.20570738  0.26716475  0.34907490  1
  O  O15  1  0.70570774  0.76716424  0.15092504  1
  Co  Co16  1  0.50000036  0.00000000  0.00000000  1
  Co  Co17  1  0.00000000  0.49999950  0.49999995  1
  Co  Co18  1  0.50000036  0.23769059  0.49999995  1
  Co  Co19  1  0.00000000  0.26230890  0.00000000  1
  Co  Co20  1  0.50000036  0.76231005  0.49999995  1
  Co  Co21  1  0.00000000  0.73769009  0.00000000  1
  U  U22  1  0.45775887  0.49999950  0.23339740  1
  U  U23  1  0.95775924  0.00000000  0.26660254  1
  U  U24  1  0.54223991  0.49999950  0.76660249  1
  U  U25  1  0.04223955  0.00000000  0.73339735  1
