# generated using pymatgen
data_Mo6PbSe8
_symmetry_space_group_name_H-M   'P 1'
_cell_length_a   6.89929027
_cell_length_b   6.89929027
_cell_length_c   6.89929021
_cell_angle_alpha   89.15505633
_cell_angle_beta   89.15505633
_cell_angle_gamma   89.15505740
_symmetry_Int_Tables_number   1
_chemical_formula_structural   Mo6PbSe8
_chemical_formula_sum   'Mo6 Pb1 Se8'
_cell_volume   328.30154949
_cell_formula_units_Z   1
loop_
 _symmetry_equiv_pos_site_id
 _symmetry_equiv_pos_as_xyz
  1  'x, y, z'
loop_
 _atom_site_type_symbol
 _atom_site_label
 _atom_site_symmetry_multiplicity
 _atom_site_fract_x
 _atom_site_fract_y
 _atom_site_fract_z
 _atom_site_occupancy
  Mo  Mo0  1  0.57792901  0.75964331  0.43950061  1
  Mo  Mo1  1  0.75964331  0.43950061  0.57792901  1
  Mo  Mo2  1  0.43950061  0.57792901  0.75964331  1
  Mo  Mo3  1  0.42207099  0.24035669  0.56049939  1
  Mo  Mo4  1  0.24035669  0.56049939  0.42207099  1
  Mo  Mo5  1  0.56049939  0.42207099  0.24035669  1
  Pb  Pb6  1  0.00000000  0.00000000  0.00000000  1
  Se  Se7  1  0.75677781  0.75677781  0.75677781  1
  Se  Se8  1  0.24322219  0.24322219  0.24322219  1
  Se  Se9  1  0.61861235  0.25415857  0.87787021  1
  Se  Se10  1  0.25415857  0.87787021  0.61861235  1
  Se  Se11  1  0.87787021  0.61861235  0.25415857  1
  Se  Se12  1  0.38138765  0.74584143  0.12212979  1
  Se  Se13  1  0.74584143  0.12212979  0.38138765  1
  Se  Se14  1  0.12212979  0.38138765  0.74584143  1
