# generated using pymatgen
data_LiCu(PO3)2
_symmetry_space_group_name_H-M   'P 1'
_cell_length_a   7.57894333
_cell_length_b   7.57894255
_cell_length_c   4.78514465
_cell_angle_alpha   74.49965227
_cell_angle_beta   105.50034657
_cell_angle_gamma   88.23815209
_symmetry_Int_Tables_number   1
_chemical_formula_structural   LiCu(PO3)2
_chemical_formula_sum   'Li2 Cu2 P4 O12'
_cell_volume   253.68064149
_cell_formula_units_Z   2
loop_
 _symmetry_equiv_pos_site_id
 _symmetry_equiv_pos_as_xyz
  1  'x, y, z'
loop_
 _atom_site_type_symbol
 _atom_site_label
 _atom_site_symmetry_multiplicity
 _atom_site_fract_x
 _atom_site_fract_y
 _atom_site_fract_z
 _atom_site_occupancy
  Li  Li0  1  0.22828543  0.22828543  0.75000000  1
  Li  Li1  1  0.77171457  0.77171457  0.25000000  1
  Cu  Cu2  1  0.09890197  0.09890197  0.25000000  1
  Cu  Cu3  1  0.90109803  0.90109803  0.75000000  1
  P  P4  1  0.20079470  0.62934654  0.26296596  1
  P  P5  1  0.79920530  0.37065346  0.73703404  1
  P  P6  1  0.37065346  0.79920530  0.76296596  1
  P  P7  1  0.62934654  0.20079470  0.23703404  1
  O  O8  1  0.64416535  0.29211259  0.50868106  1
  O  O9  1  0.43269481  0.18694515  0.09891507  1
  O  O10  1  0.18694515  0.43269481  0.40108493  1
  O  O11  1  0.02494208  0.76334828  0.15021728  1
  O  O12  1  0.76334828  0.02494208  0.34978272  1
  O  O13  1  0.97505792  0.23665172  0.84978272  1
  O  O14  1  0.81305485  0.56730519  0.59891507  1
  O  O15  1  0.29211259  0.64416535  0.99131894  1
  O  O16  1  0.23665172  0.97505792  0.65021728  1
  O  O17  1  0.70788741  0.35583465  0.00868106  1
  O  O18  1  0.35583465  0.70788741  0.49131894  1
  O  O19  1  0.56730519  0.81305485  0.90108493  1
