# generated using pymatgen
data_V2O5
_symmetry_space_group_name_H-M   'P 1'
_cell_length_a   8.06034269
_cell_length_b   8.06034269
_cell_length_c   10.33604576
_cell_angle_alpha   70.85631437
_cell_angle_beta   109.14368563
_cell_angle_gamma   153.84665740
_symmetry_Int_Tables_number   1
_chemical_formula_structural   V2O5
_chemical_formula_sum   'V6 O15'
_cell_volume   278.71193540
_cell_formula_units_Z   3
loop_
 _symmetry_equiv_pos_site_id
 _symmetry_equiv_pos_as_xyz
  1  'x, y, z'
loop_
 _atom_site_type_symbol
 _atom_site_label
 _atom_site_symmetry_multiplicity
 _atom_site_fract_x
 _atom_site_fract_y
 _atom_site_fract_z
 _atom_site_occupancy
  O  O0  1  0.18412819  0.81587181  0.94602495  1
  O  O1  1  0.10955827  0.89044173  0.26573331  1
  O  O2  1  0.24521840  0.75478160  0.57479676  1
  O  O3  1  0.36534032  0.63465968  0.92813965  1
  O  O4  1  0.26326674  0.73673326  0.22046996  1
  O  O5  1  0.39537975  0.60462025  0.47038067  1
  O  O6  1  0.43648583  0.56351417  0.21903656  1
  O  O7  1  0.56351417  0.43648583  0.78096344  1
  O  O8  1  0.00000000  0.00000000  0.00000000  1
  O  O9  1  0.60462025  0.39537975  0.52961933  1
  O  O10  1  0.73673326  0.26326674  0.77953004  1
  O  O11  1  0.63465968  0.36534032  0.07186035  1
  O  O12  1  0.75478160  0.24521840  0.42520324  1
  O  O13  1  0.89044173  0.10955827  0.73426669  1
  O  O14  1  0.81587181  0.18412819  0.05397505  1
  V  V15  1  0.11651229  0.88348771  0.11291982  1
  V  V16  1  0.88348771  0.11651229  0.88708018  1
  V  V17  1  0.28772243  0.71227757  0.41099565  1
  V  V18  1  0.33705499  0.66294501  0.10738650  1
  V  V19  1  0.66294501  0.33705499  0.89261350  1
  V  V20  1  0.71227757  0.28772243  0.58900435  1
