# generated using pymatgen
data_KFeCl3
_symmetry_space_group_name_H-M   'P 1'
_cell_length_a   3.89084667
_cell_length_b   8.86234639
_cell_length_c   14.29641371
_cell_angle_alpha   90.00000000
_cell_angle_beta   90.00000000
_cell_angle_gamma   90.00000000
_symmetry_Int_Tables_number   1
_chemical_formula_structural   KFeCl3
_chemical_formula_sum   'K4 Fe4 Cl12'
_cell_volume   492.96937988
_cell_formula_units_Z   4
loop_
 _symmetry_equiv_pos_site_id
 _symmetry_equiv_pos_as_xyz
  1  'x, y, z'
loop_
 _atom_site_type_symbol
 _atom_site_label
 _atom_site_symmetry_multiplicity
 _atom_site_fract_x
 _atom_site_fract_y
 _atom_site_fract_z
 _atom_site_occupancy
  Cl  Cl0  1  0.25000000  0.52042061  0.59620365  1
  Cl  Cl1  1  0.75000000  0.47957939  0.40379635  1
  Cl  Cl2  1  0.25000000  0.02042061  0.90379635  1
  Cl  Cl3  1  0.75000000  0.97957939  0.09620365  1
  Cl  Cl4  1  0.25000000  0.68261105  0.00580660  1
  Cl  Cl5  1  0.75000000  0.31738895  0.99419340  1
  Cl  Cl6  1  0.25000000  0.18261105  0.49419340  1
  Cl  Cl7  1  0.75000000  0.81738895  0.50580660  1
  Cl  Cl8  1  0.75000000  0.73235900  0.79735695  1
  Cl  Cl9  1  0.25000000  0.26764100  0.20264305  1
  Cl  Cl10  1  0.75000000  0.23235900  0.70264305  1
  Cl  Cl11  1  0.25000000  0.76764100  0.29735695  1
  K  K12  1  0.75000000  0.55742858  0.17208784  1
  K  K13  1  0.25000000  0.44257142  0.82791216  1
  K  K14  1  0.75000000  0.05742858  0.32791216  1
  K  K15  1  0.25000000  0.94257142  0.67208784  1
  Fe  Fe16  1  0.75000000  0.83829147  0.94809961  1
  Fe  Fe17  1  0.25000000  0.16170853  0.05190039  1
  Fe  Fe18  1  0.75000000  0.33829147  0.55190039  1
  Fe  Fe19  1  0.25000000  0.66170853  0.44809961  1
