# generated using pymatgen
data_Li3CuPCO7
_symmetry_space_group_name_H-M   'P 1'
_cell_length_a   5.17231724
_cell_length_b   6.19498851
_cell_length_c   8.61324832
_cell_angle_alpha   90.00000000
_cell_angle_beta   77.36647689
_cell_angle_gamma   90.00000000
_symmetry_Int_Tables_number   1
_chemical_formula_structural   Li3CuPCO7
_chemical_formula_sum   'Li6 Cu2 P2 C2 O14'
_cell_volume   269.30754968
_cell_formula_units_Z   2
loop_
 _symmetry_equiv_pos_site_id
 _symmetry_equiv_pos_as_xyz
  1  'x, y, z'
loop_
 _atom_site_type_symbol
 _atom_site_label
 _atom_site_symmetry_multiplicity
 _atom_site_fract_x
 _atom_site_fract_y
 _atom_site_fract_z
 _atom_site_occupancy
  Li  Li0  1  0.76023427  0.99358354  0.71687847  1
  Li  Li1  1  0.23976573  0.00641646  0.28312153  1
  Li  Li2  1  0.84366395  0.25000000  0.08066427  1
  Li  Li3  1  0.15633605  0.75000000  0.91933573  1
  Li  Li4  1  0.23976573  0.49358354  0.28312153  1
  Li  Li5  1  0.76023427  0.50641646  0.71687847  1
  C  C6  1  0.58812432  0.75000000  0.01930713  1
  C  C7  1  0.41187568  0.25000000  0.98069287  1
  O  O8  1  0.64688311  0.25000000  0.89113713  1
  O  O9  1  0.80097106  0.75000000  0.07876029  1
  O  O10  1  0.20652163  0.75000000  0.43092234  1
  O  O11  1  0.35311689  0.75000000  0.10886287  1
  O  O12  1  0.17377843  0.55648345  0.70040553  1
  O  O13  1  0.79347837  0.25000000  0.56907766  1
  O  O14  1  0.17377843  0.94351655  0.70040553  1
  O  O15  1  0.82622157  0.44351655  0.29959447  1
  O  O16  1  0.82622157  0.05648345  0.29959447  1
  O  O17  1  0.39762845  0.25000000  0.44285750  1
  O  O18  1  0.61812791  0.75000000  0.86671750  1
  O  O19  1  0.38187209  0.25000000  0.13328250  1
  O  O20  1  0.60237155  0.75000000  0.55714250  1
  O  O21  1  0.19902894  0.25000000  0.92123971  1
  P  P22  1  0.70761673  0.25000000  0.41038466  1
  P  P23  1  0.29238327  0.75000000  0.58961534  1
  Cu  Cu24  1  0.74863501  0.75000000  0.31858920  1
  Cu  Cu25  1  0.25136499  0.25000000  0.68141080  1
