# generated using pymatgen
data_EuScO3
_symmetry_space_group_name_H-M   'P 1'
_cell_length_a   5.60066767
_cell_length_b   5.81582535
_cell_length_c   8.02309527
_cell_angle_alpha   90.00000000
_cell_angle_beta   90.00000000
_cell_angle_gamma   90.00000000
_symmetry_Int_Tables_number   1
_chemical_formula_structural   EuScO3
_chemical_formula_sum   'Eu4 Sc4 O12'
_cell_volume   261.33231089
_cell_formula_units_Z   4
loop_
 _symmetry_equiv_pos_site_id
 _symmetry_equiv_pos_as_xyz
  1  'x, y, z'
loop_
 _atom_site_type_symbol
 _atom_site_label
 _atom_site_symmetry_multiplicity
 _atom_site_fract_x
 _atom_site_fract_y
 _atom_site_fract_z
 _atom_site_occupancy
  O  O0  1  0.69635467  0.30205252  0.55963953  1
  O  O1  1  0.19635467  0.19794748  0.44036047  1
  O  O2  1  0.80364533  0.80205252  0.94036047  1
  O  O3  1  0.30364533  0.69794748  0.05963953  1
  O  O4  1  0.30364533  0.69794748  0.44036047  1
  O  O5  1  0.80364533  0.80205252  0.55963953  1
  O  O6  1  0.19635467  0.19794748  0.05963953  1
  O  O7  1  0.69635467  0.30205252  0.94036047  1
  O  O8  1  0.88650052  0.54630895  0.25000000  1
  O  O9  1  0.38650052  0.95369105  0.75000000  1
  O  O10  1  0.61349948  0.04630895  0.25000000  1
  O  O11  1  0.11349948  0.45369105  0.75000000  1
  Sc  Sc12  1  0.00000000  0.50000000  0.50000000  1
  Sc  Sc13  1  0.50000000  0.00000000  0.50000000  1
  Sc  Sc14  1  0.50000000  0.00000000  0.00000000  1
  Sc  Sc15  1  0.00000000  0.50000000  0.00000000  1
  Eu  Eu16  1  0.98551543  0.05552273  0.75000000  1
  Eu  Eu17  1  0.48551543  0.44447727  0.25000000  1
  Eu  Eu18  1  0.51448457  0.55552273  0.75000000  1
  Eu  Eu19  1  0.01448457  0.94447727  0.25000000  1
