# generated using pymatgen
data_LiSn(PO3)4
_symmetry_space_group_name_H-M   'P 1'
_cell_length_a   13.16651897
_cell_length_b   8.38828676
_cell_length_c   9.94393159
_cell_angle_alpha   90.00000000
_cell_angle_beta   90.00000000
_cell_angle_gamma   90.00000000
_symmetry_Int_Tables_number   1
_chemical_formula_structural   LiSn(PO3)4
_chemical_formula_sum   'Li4 Sn4 P16 O48'
_cell_volume   1098.25291794
_cell_formula_units_Z   4
loop_
 _symmetry_equiv_pos_site_id
 _symmetry_equiv_pos_as_xyz
  1  'x, y, z'
loop_
 _atom_site_type_symbol
 _atom_site_label
 _atom_site_symmetry_multiplicity
 _atom_site_fract_x
 _atom_site_fract_y
 _atom_site_fract_z
 _atom_site_occupancy
  Li  Li0  1  0.00000000  0.00983225  0.25000000  1
  Li  Li1  1  0.00000000  0.99016775  0.75000000  1
  Li  Li2  1  0.50000000  0.49016775  0.75000000  1
  Li  Li3  1  0.50000000  0.50983225  0.25000000  1
  O  O4  1  0.06213289  0.17616289  0.62871185  1
  O  O5  1  0.06213289  0.82383711  0.12871185  1
  O  O6  1  0.08115951  0.44630536  0.11689441  1
  O  O7  1  0.08115951  0.55369464  0.61689441  1
  O  O8  1  0.09512593  0.09757971  0.37972237  1
  O  O9  1  0.09512593  0.90242029  0.87972237  1
  O  O10  1  0.13984936  0.38108738  0.87706348  1
  O  O11  1  0.13984936  0.61891262  0.37706348  1
  O  O12  1  0.17646728  0.34574654  0.47586045  1
  O  O13  1  0.17646728  0.65425346  0.97586045  1
  O  O14  1  0.23215806  0.08183388  0.56510355  1
  O  O15  1  0.23215806  0.91816612  0.06510355  1
  O  O16  1  0.26784194  0.41816612  0.06510355  1
  O  O17  1  0.26784194  0.58183388  0.56510355  1
  O  O18  1  0.32353272  0.15425346  0.97586045  1
  O  O19  1  0.32353272  0.84574654  0.47586045  1
  O  O20  1  0.36015064  0.11891262  0.37706348  1
  O  O21  1  0.36015064  0.88108738  0.87706348  1
  O  O22  1  0.40487407  0.40242029  0.87972237  1
  O  O23  1  0.40487407  0.59757971  0.37972237  1
  O  O24  1  0.41884049  0.05369464  0.61689441  1
  O  O25  1  0.41884049  0.94630536  0.11689441  1
  O  O26  1  0.43786711  0.32383711  0.12871185  1
  O  O27  1  0.43786711  0.67616289  0.62871185  1
  O  O28  1  0.56213289  0.32383711  0.37128815  1
  O  O29  1  0.56213289  0.67616289  0.87128815  1
  O  O30  1  0.58115951  0.05369464  0.88310559  1
  O  O31  1  0.58115951  0.94630536  0.38310559  1
  O  O32  1  0.59512593  0.40242029  0.62027763  1
  O  O33  1  0.59512593  0.59757971  0.12027763  1
  O  O34  1  0.63984936  0.11891262  0.12293652  1
  O  O35  1  0.63984936  0.88108738  0.62293652  1
  O  O36  1  0.67646728  0.15425346  0.52413955  1
  O  O37  1  0.67646728  0.84574654  0.02413955  1
  O  O38  1  0.73215806  0.41816612  0.43489645  1
  O  O39  1  0.73215806  0.58183388  0.93489645  1
  O  O40  1  0.76784194  0.08183388  0.93489645  1
  O  O41  1  0.76784194  0.91816612  0.43489645  1
  O  O42  1  0.82353272  0.34574654  0.02413955  1
  O  O43  1  0.82353272  0.65425346  0.52413955  1
  O  O44  1  0.86015064  0.38108738  0.62293652  1
  O  O45  1  0.86015064  0.61891262  0.12293652  1
  O  O46  1  0.90487407  0.09757971  0.12027763  1
  O  O47  1  0.90487407  0.90242029  0.62027763  1
  O  O48  1  0.91884049  0.44630536  0.38310559  1
  O  O49  1  0.91884049  0.55369464  0.88310559  1
  O  O50  1  0.93786711  0.17616289  0.87128815  1
  O  O51  1  0.93786711  0.82383711  0.37128815  1
  P  P52  1  0.13200342  0.16980052  0.50609016  1
  P  P53  1  0.13200342  0.83019948  0.00609016  1
  P  P54  1  0.15940327  0.46920355  0.00704643  1
  P  P55  1  0.15940327  0.53079645  0.50704643  1
  P  P56  1  0.34059673  0.03079645  0.50704643  1
  P  P57  1  0.34059673  0.96920355  0.00704643  1
  P  P58  1  0.36799658  0.33019948  0.00609016  1
  P  P59  1  0.36799658  0.66980052  0.50609016  1
  P  P60  1  0.63200342  0.33019948  0.49390984  1
  P  P61  1  0.63200342  0.66980052  0.99390984  1
  P  P62  1  0.65940327  0.03079645  0.99295357  1
  P  P63  1  0.65940327  0.96920355  0.49295357  1
  P  P64  1  0.84059673  0.46920355  0.49295357  1
  P  P65  1  0.84059673  0.53079645  0.99295357  1
  P  P66  1  0.86799658  0.16980052  0.99390984  1
  P  P67  1  0.86799658  0.83019948  0.49390984  1
  Sn  Sn68  1  0.00000000  0.38111224  0.75000000  1
  Sn  Sn69  1  0.00000000  0.61888776  0.25000000  1
  Sn  Sn70  1  0.50000000  0.11888776  0.25000000  1
  Sn  Sn71  1  0.50000000  0.88111224  0.75000000  1
