# generated using pymatgen
data_Nb2Bi2PbO9
_symmetry_space_group_name_H-M   'P 1'
_cell_length_a   3.96486139
_cell_length_b   3.96486140
_cell_length_c   12.86884760
_cell_angle_alpha   98.86230494
_cell_angle_beta   98.86230496
_cell_angle_gamma   89.99654452
_symmetry_Int_Tables_number   1
_chemical_formula_structural   Nb2Bi2PbO9
_chemical_formula_sum   'Nb2 Bi2 Pb1 O9'
_cell_volume   197.44031889
_cell_formula_units_Z   1
loop_
 _symmetry_equiv_pos_site_id
 _symmetry_equiv_pos_as_xyz
  1  'x, y, z'
loop_
 _atom_site_type_symbol
 _atom_site_label
 _atom_site_symmetry_multiplicity
 _atom_site_fract_x
 _atom_site_fract_y
 _atom_site_fract_z
 _atom_site_occupancy
  O  O0  1  0.07988226  0.57988177  0.15973322  1
  O  O1  1  0.42011823  0.92011774  0.84026678  1
  O  O2  1  0.92011774  0.42011823  0.84026678  1
  O  O3  1  0.57988177  0.07988226  0.15973322  1
  O  O4  1  0.25000363  0.74999637  0.50000000  1
  O  O5  1  0.50000000  0.50000000  0.00000000  1
  O  O6  1  0.66337810  0.66337810  0.32676575  1
  O  O7  1  0.33662190  0.33662190  0.67323425  1
  O  O8  1  0.74999637  0.25000363  0.50000000  1
  Nb  Nb9  1  0.41228297  0.41228297  0.82453227  1
  Nb  Nb10  1  0.58771703  0.58771703  0.17546773  1
  Pb  Pb11  1  0.00000000  0.00000000  0.00000000  1
  Bi  Bi12  1  0.20112101  0.20112101  0.40222972  1
  Bi  Bi13  1  0.79887899  0.79887899  0.59777028  1
