# generated using pymatgen
data_UTe5
_symmetry_space_group_name_H-M   'P 1'
_cell_length_a   4.26654904
_cell_length_b   10.50694173
_cell_length_c   17.95024096
_cell_angle_alpha   90.00000000
_cell_angle_beta   90.00000000
_cell_angle_gamma   90.00000000
_symmetry_Int_Tables_number   1
_chemical_formula_structural   UTe5
_chemical_formula_sum   'U4 Te20'
_cell_volume   804.68026147
_cell_formula_units_Z   4
loop_
 _symmetry_equiv_pos_site_id
 _symmetry_equiv_pos_as_xyz
  1  'x, y, z'
loop_
 _atom_site_type_symbol
 _atom_site_label
 _atom_site_symmetry_multiplicity
 _atom_site_fract_x
 _atom_site_fract_y
 _atom_site_fract_z
 _atom_site_occupancy
  U  U0  1  0.39529590  0.25000000  0.41374234  1
  U  U1  1  0.60470410  0.75000000  0.58625766  1
  U  U2  1  0.89529590  0.75000000  0.08625766  1
  U  U3  1  0.10470410  0.25000000  0.91374234  1
  Te  Te4  1  0.88725513  0.43047821  0.33975940  1
  Te  Te5  1  0.88087057  0.25000000  0.53850024  1
  Te  Te6  1  -0.00000000  0.50000000  -0.00000000  1
  Te  Te7  1  0.11912943  0.75000000  0.46149976  1
  Te  Te8  1  0.82365231  0.75000000  0.75619623  1
  Te  Te9  1  0.67634769  0.75000000  0.25619623  1
  Te  Te10  1  0.61912943  0.25000000  0.03850024  1
  Te  Te11  1  0.17634769  0.25000000  0.24380377  1
  Te  Te12  1  0.88725513  0.06952179  0.33975940  1
  Te  Te13  1  0.32365231  0.25000000  0.74380377  1
  Te  Te14  1  0.50000000  -0.00000000  0.50000000  1
  Te  Te15  1  0.61274487  0.43047821  0.83975940  1
  Te  Te16  1  0.50000000  0.50000000  0.50000000  1
  Te  Te17  1  0.11274487  0.56952179  0.66024060  1
  Te  Te18  1  0.38087057  0.75000000  0.96149976  1
  Te  Te19  1  -0.00000000  0.00000000  -0.00000000  1
  Te  Te20  1  0.61274487  0.06952179  0.83975940  1
  Te  Te21  1  0.38725513  0.56952179  0.16024060  1
  Te  Te22  1  0.11274487  0.93047821  0.66024060  1
  Te  Te23  1  0.38725513  0.93047821  0.16024060  1
