# generated using pymatgen
data_LiCu4(PO4)3
_symmetry_space_group_name_H-M   'P 1'
_cell_length_a   8.53499594
_cell_length_b   8.53499674
_cell_length_c   7.24084470
_cell_angle_alpha   69.50521038
_cell_angle_beta   110.49479154
_cell_angle_gamma   89.08532487
_symmetry_Int_Tables_number   1
_chemical_formula_structural   LiCu4(PO4)3
_chemical_formula_sum   'Li2 Cu8 P6 O24'
_cell_volume   457.00150059
_cell_formula_units_Z   2
loop_
 _symmetry_equiv_pos_site_id
 _symmetry_equiv_pos_as_xyz
  1  'x, y, z'
loop_
 _atom_site_type_symbol
 _atom_site_label
 _atom_site_symmetry_multiplicity
 _atom_site_fract_x
 _atom_site_fract_y
 _atom_site_fract_z
 _atom_site_occupancy
  Li  Li0  1  0.00405550  0.00405550  0.75000000  1
  Li  Li1  1  0.99594450  0.99594450  0.25000000  1
  Cu  Cu2  1  0.06130626  0.61903256  0.64536793  1
  Cu  Cu3  1  0.38096744  0.93869374  0.14536793  1
  Cu  Cu4  1  0.49346549  0.49346549  0.75000000  1
  Cu  Cu5  1  0.26609196  0.26609196  0.25000000  1
  Cu  Cu6  1  0.50653451  0.50653451  0.25000000  1
  Cu  Cu7  1  0.93869374  0.38096744  0.35463207  1
  Cu  Cu8  1  0.73390904  0.73390904  0.75000000  1
  Cu  Cu9  1  0.61903256  0.06130626  0.85463207  1
  P  P10  1  0.27797168  0.27797168  0.75000000  1
  P  P11  1  0.11217996  0.65926512  0.11643127  1
  P  P12  1  0.88782004  0.34073488  0.88356873  1
  P  P13  1  0.72202832  0.72202832  0.25000000  1
  P  P14  1  0.65926512  0.11217996  0.38356873  1
  P  P15  1  0.34073488  0.88782004  0.61643127  1
  O  O16  1  0.58980240  0.03997258  0.20849819  1
  O  O17  1  0.53184012  0.73061659  0.24232378  1
  O  O18  1  0.83175659  0.16955039  0.38949671  1
  O  O19  1  0.73591354  0.47949001  0.83307349  1
  O  O20  1  0.52050999  0.26408646  0.33307349  1
  O  O21  1  0.96002742  0.41019760  0.70849819  1
  O  O22  1  0.73061659  0.53184012  0.25767622  1
  O  O23  1  0.16955039  0.83175659  0.11050329  1
  O  O24  1  0.01699959  0.30647414  0.11278102  1
  O  O25  1  0.26938341  0.46815988  0.74232378  1
  O  O26  1  0.83044961  0.16824341  0.88949671  1
  O  O27  1  0.25207869  0.16402902  0.94966937  1
  O  O28  1  0.41019760  0.96002742  0.79150181  1
  O  O29  1  0.74792131  0.83597098  0.05033063  1
  O  O30  1  0.16402902  0.25207869  0.55033063  1
  O  O31  1  0.30647414  0.01699959  0.38721898  1
  O  O32  1  0.69352586  0.98300041  0.61278102  1
  O  O33  1  0.46815988  0.26938341  0.75767622  1
  O  O34  1  0.03997258  0.58980240  0.29150181  1
  O  O35  1  0.26408646  0.52050999  0.16692651  1
  O  O36  1  0.83597098  0.74792131  0.44966937  1
  O  O37  1  0.47949001  0.73591354  0.66692651  1
  O  O38  1  0.98300041  0.69352586  0.88721898  1
  O  O39  1  0.16824341  0.83044961  0.61050329  1
