# generated using pymatgen
data_LiCoPO4
_symmetry_space_group_name_H-M   'P 1'
_cell_length_a   8.70292171
_cell_length_b   8.01752357
_cell_length_c   15.01610105
_cell_angle_alpha   90.00000000
_cell_angle_beta   90.61751540
_cell_angle_gamma   90.00000000
_symmetry_Int_Tables_number   1
_chemical_formula_structural   LiCoPO4
_chemical_formula_sum   'Li12 Co12 P12 O48'
_cell_volume   1047.70081174
_cell_formula_units_Z   12
loop_
 _symmetry_equiv_pos_site_id
 _symmetry_equiv_pos_as_xyz
  1  'x, y, z'
loop_
 _atom_site_type_symbol
 _atom_site_label
 _atom_site_symmetry_multiplicity
 _atom_site_fract_x
 _atom_site_fract_y
 _atom_site_fract_z
 _atom_site_occupancy
  Li  Li0  1  0.18947851  0.99121592  0.94025694  1
  Li  Li1  1  0.81052209  0.00878467  0.05974341  1
  Li  Li2  1  0.78450775  0.98244773  0.41492633  1
  Li  Li3  1  0.74926941  0.15308336  0.75326184  1
  Li  Li4  1  0.75073034  0.65308302  0.74673834  1
  Li  Li5  1  0.71549277  0.48244806  0.08507341  1
  Li  Li6  1  0.68947843  0.50878433  0.44025699  1
  Li  Li7  1  0.31052217  0.49121500  0.55974336  1
  Li  Li8  1  0.28450783  0.51755252  0.91492628  1
  Li  Li9  1  0.24926911  0.34691631  0.25326200  1
  Li  Li10  1  0.25073119  0.84691598  0.24673784  1
  Li  Li11  1  0.21549286  0.01755160  0.58507335  1
  O  O12  1  0.08541032  0.05389739  0.82423347  1
  O  O13  1  0.77021708  0.86846298  0.95307607  1
  O  O14  1  0.77559922  0.77395270  0.29422966  1
  O  O15  1  0.78266766  0.74121500  0.63226205  1
  O  O16  1  0.97557414  0.42794815  0.40225626  1
  O  O17  1  0.90790113  0.71899221  0.82605083  1
  O  O18  1  0.92005506  0.78941607  0.48724796  1
  O  O19  1  0.91458913  0.94610194  0.17576687  1
  O  O20  1  0.91393137  0.63531016  0.16115136  1
  O  O21  1  0.93812228  0.22881441  0.71042132  1
  O  O22  1  0.94956555  0.21099248  0.03059320  1
  O  O23  1  0.95234649  0.12463557  0.36502281  1
  O  O24  1  0.02442531  0.57205243  0.59774408  1
  O  O25  1  0.04765296  0.87536376  0.63497753  1
  O  O26  1  0.05043390  0.78900811  0.96940714  1
  O  O27  1  0.06187716  0.77118617  0.28957835  1
  O  O28  1  0.08606807  0.36469042  0.83884898  1
  O  O29  1  0.84128537  0.56478320  0.96848131  1
  O  O30  1  0.07994554  0.21058326  0.51275239  1
  O  O31  1  0.09209947  0.28100837  0.17394885  1
  O  O32  1  0.15871407  0.43521738  0.03151837  1
  O  O33  1  0.21733179  0.25878559  0.36773829  1
  O  O34  1  0.22440138  0.22604663  0.70577002  1
  O  O35  1  0.22978353  0.13153636  0.04692428  1
  O  O36  1  0.27021678  0.63153602  0.45307623  1
  O  O37  1  0.27559815  0.72604630  0.79422960  1
  O  O38  1  0.28266735  0.75878525  0.13226154  1
  O  O39  1  0.34128623  0.93521705  0.46848147  1
  O  O40  1  0.40790083  0.78100803  0.32605099  1
  O  O41  1  0.42005514  0.71058417  0.98724790  1
  O  O42  1  0.41458921  0.55389831  0.67576682  1
  O  O43  1  0.41393146  0.86469009  0.66115130  1
  O  O44  1  0.43812198  0.27118525  0.21042148  1
  O  O45  1  0.44956563  0.28900844  0.53059315  1
  O  O46  1  0.45234657  0.37536409  0.86502276  1
  O  O47  1  0.47557422  0.07205277  0.90225621  1
  O  O48  1  0.52442523  0.92794782  0.09774346  1
  O  O49  1  0.54765287  0.62463649  0.13497692  1
  O  O50  1  0.55043382  0.71099214  0.46940719  1
  O  O51  1  0.56187746  0.72881408  0.78957886  1
  O  O52  1  0.72978383  0.36846331  0.54692412  1
  O  O53  1  0.58541139  0.44610227  0.32423353  1
  O  O54  1  0.57994546  0.28941641  0.01275245  1
  O  O55  1  0.59209862  0.21899255  0.67394935  1
  O  O56  1  0.65871438  0.06478228  0.53151887  1
  O  O57  1  0.71733209  0.24121408  0.86773813  1
  O  O58  1  0.72440130  0.27395303  0.20577008  1
  O  O59  1  0.58606799  0.13530924  0.33884904  1
  P  P60  1  0.05609454  0.25598336  0.41266624  1
  P  P61  1  0.08637094  0.22029292  0.77009788  1
  P  P62  1  0.10808571  0.26455149  0.07120958  1
  P  P63  1  0.39191459  0.76455115  0.42879093  1
  P  P64  1  0.41362858  0.72029258  0.72990241  1
  P  P65  1  0.44390461  0.75598302  0.08733359  1
  P  P66  1  0.55609484  0.24401756  0.91266675  1
  P  P67  1  0.58637086  0.27970675  0.27009793  1
  P  P68  1  0.60808601  0.23544943  0.57120942  1
  P  P69  1  0.89191373  0.73544910  0.92879076  1
  P  P70  1  0.91362850  0.77970767  0.22990246  1
  P  P71  1  0.94390491  0.74401722  0.58733343  1
  Co  Co72  1  0.94590279  0.34262285  0.59246907  1
  Co  Co73  1  0.91885319  0.16648037  0.23545327  1
  Co  Co74  1  0.90667702  0.34529090  0.92096059  1
  Co  Co75  1  0.59332273  0.84529057  0.57903959  1
  Co  Co76  1  0.58114734  0.66648004  0.26454713  1
  Co  Co77  1  0.55409811  0.84262377  0.90753112  1
  Co  Co78  1  0.44590249  0.15737681  0.09246923  1
  Co  Co79  1  0.41885211  0.33351929  0.73545321  1
  Co  Co80  1  0.40667672  0.15471002  0.42096075  1
  Co  Co81  1  0.09332243  0.65470968  0.07903908  1
  Co  Co82  1  0.08114742  0.83351896  0.76454708  1
  Co  Co83  1  0.05409781  0.65737648  0.40753061  1
