# generated using pymatgen
data_NdTiO3
_symmetry_space_group_name_H-M   'P 1'
_cell_length_a   5.50560407
_cell_length_b   5.73577544
_cell_length_c   7.85485648
_cell_angle_alpha   90.00000000
_cell_angle_beta   90.00000000
_cell_angle_gamma   90.00000000
_symmetry_Int_Tables_number   1
_chemical_formula_structural   NdTiO3
_chemical_formula_sum   'Nd4 Ti4 O12'
_cell_volume   248.04779490
_cell_formula_units_Z   4
loop_
 _symmetry_equiv_pos_site_id
 _symmetry_equiv_pos_as_xyz
  1  'x, y, z'
loop_
 _atom_site_type_symbol
 _atom_site_label
 _atom_site_symmetry_multiplicity
 _atom_site_fract_x
 _atom_site_fract_y
 _atom_site_fract_z
 _atom_site_occupancy
  O  O0  1  0.70098336  0.29552017  0.45199249  1
  O  O1  1  0.20098336  0.20447983  0.54800751  1
  O  O2  1  0.79901664  0.79552017  0.04800751  1
  O  O3  1  0.29901664  0.70447983  0.95199249  1
  O  O4  1  0.29901664  0.70447983  0.54800751  1
  O  O5  1  0.79901664  0.79552017  0.45199249  1
  O  O6  1  0.20098336  0.20447983  0.95199249  1
  O  O7  1  0.70098336  0.29552017  0.04800751  1
  O  O8  1  0.09434334  0.47300859  0.25000000  1
  O  O9  1  0.59434334  0.02699141  0.75000000  1
  O  O10  1  0.40565666  0.97300859  0.25000000  1
  O  O11  1  0.90565666  0.52699141  0.75000000  1
  Ti  Ti12  1  0.00000000  0.50000000  0.50000000  1
  Ti  Ti13  1  0.50000000  0.00000000  0.50000000  1
  Ti  Ti14  1  0.50000000  0.00000000  0.00000000  1
  Ti  Ti15  1  0.00000000  0.50000000  0.00000000  1
  Nd  Nd16  1  0.01517066  0.93938693  0.75000000  1
  Nd  Nd17  1  0.51517066  0.56061307  0.25000000  1
  Nd  Nd18  1  0.48482934  0.43938693  0.75000000  1
  Nd  Nd19  1  0.98482934  0.06061307  0.25000000  1
