# generated using pymatgen
data_Si2H6O
_symmetry_space_group_name_H-M   'P 1'
_cell_length_a   4.92915196
_cell_length_b   7.97826979
_cell_length_c   13.62339336
_cell_angle_alpha   90.00000000
_cell_angle_beta   90.00000000
_cell_angle_gamma   90.00000000
_symmetry_Int_Tables_number   1
_chemical_formula_structural   Si2H6O
_chemical_formula_sum   'Si8 H24 O4'
_cell_volume   535.75498646
_cell_formula_units_Z   4
loop_
 _symmetry_equiv_pos_site_id
 _symmetry_equiv_pos_as_xyz
  1  'x, y, z'
loop_
 _atom_site_type_symbol
 _atom_site_label
 _atom_site_symmetry_multiplicity
 _atom_site_fract_x
 _atom_site_fract_y
 _atom_site_fract_z
 _atom_site_occupancy
  H  H0  1  0.20267707  0.86884185  0.69801321  1
  H  H1  1  0.70267707  0.63115815  0.30198679  1
  H  H2  1  0.79732293  0.36884185  0.80198679  1
  H  H3  1  0.29732293  0.13115815  0.19801321  1
  H  H4  1  0.08030346  0.67172353  0.82820188  1
  H  H5  1  0.58030346  0.82827647  0.17179812  1
  H  H6  1  0.91969654  0.17172353  0.67179812  1
  H  H7  1  0.41969654  0.32827647  0.32820188  1
  H  H8  1  0.74514676  0.75075608  0.70486393  1
  H  H9  1  0.24514676  0.74924392  0.29513607  1
  H  H10  1  0.25485324  0.25075608  0.79513607  1
  H  H11  1  0.75485324  0.24924392  0.20486393  1
  H  H12  1  0.04291183  0.35385194  0.01403363  1
  H  H13  1  0.54291183  0.14614806  0.98596637  1
  H  H14  1  0.95708817  0.85385194  0.48596637  1
  H  H15  1  0.45708817  0.64614806  0.51403363  1
  H  H16  1  0.07113438  0.64907028  0.05916603  1
  H  H17  1  0.57113438  0.85092972  0.94083397  1
  H  H18  1  0.92886562  0.14907028  0.44083397  1
  H  H19  1  0.42886562  0.35092972  0.55916603  1
  H  H20  1  0.44766535  0.51425942  0.97378087  1
  H  H21  1  0.94766535  0.98574058  0.02621913  1
  H  H22  1  0.55233465  0.01425942  0.52621913  1
  H  H23  1  0.05233465  0.48574058  0.47378087  1
  O  O24  1  0.13907802  0.55688620  0.65557078  1
  O  O25  1  0.63907802  0.94311380  0.34442922  1
  O  O26  1  0.86092198  0.05688620  0.84442922  1
  O  O27  1  0.36092198  0.44311380  0.15557078  1
  Si  Si28  1  0.03846172  0.71790194  0.72335274  1
  Si  Si29  1  0.53846172  0.78209806  0.27664726  1
  Si  Si30  1  0.96153828  0.21790194  0.77664726  1
  Si  Si31  1  0.46153828  0.28209806  0.22335274  1
  Si  Si32  1  0.27201186  0.50926284  0.54770545  1
  Si  Si33  1  0.77201186  0.99073716  0.45229455  1
  Si  Si34  1  0.72798814  0.00926284  0.95229455  1
  Si  Si35  1  0.22798814  0.49073716  0.04770545  1
