# generated using pymatgen
data_Bi7RhBr8
_symmetry_space_group_name_H-M   'P 1'
_cell_length_a   9.49126731
_cell_length_b   15.43339587
_cell_length_c   16.74344548
_cell_angle_alpha   90.00000000
_cell_angle_beta   92.15729086
_cell_angle_gamma   90.00000000
_symmetry_Int_Tables_number   1
_chemical_formula_structural   Bi7RhBr8
_chemical_formula_sum   'Bi28 Rh4 Br32'
_cell_volume   2450.88322688
_cell_formula_units_Z   4
loop_
 _symmetry_equiv_pos_site_id
 _symmetry_equiv_pos_as_xyz
  1  'x, y, z'
loop_
 _atom_site_type_symbol
 _atom_site_label
 _atom_site_symmetry_multiplicity
 _atom_site_fract_x
 _atom_site_fract_y
 _atom_site_fract_z
 _atom_site_occupancy
  Br  Br0  1  0.24002587  0.94747840  0.56397171  1
  Br  Br1  1  0.25997413  0.44747840  0.93602829  1
  Br  Br2  1  0.75997413  0.05252160  0.43602829  1
  Br  Br3  1  0.74002587  0.55252160  0.06397171  1
  Br  Br4  1  0.29099697  0.88919172  0.81210058  1
  Br  Br5  1  0.20900303  0.38919172  0.68789942  1
  Br  Br6  1  0.70900303  0.11080828  0.18789942  1
  Br  Br7  1  0.79099697  0.61080828  0.31210058  1
  Br  Br8  1  0.34170870  0.63873982  0.76819591  1
  Br  Br9  1  0.15829130  0.13873982  0.73180409  1
  Br  Br10  1  0.65829130  0.36126018  0.23180409  1
  Br  Br11  1  0.84170870  0.86126018  0.26819591  1
  Br  Br12  1  0.30655439  0.65887338  0.52908980  1
  Br  Br13  1  0.19344561  0.15887338  0.97091020  1
  Br  Br14  1  0.69344561  0.34112662  0.47091020  1
  Br  Br15  1  0.22494797  0.93965861  0.10513110  1
  Br  Br16  1  0.66180203  0.78422953  0.49223453  1
  Br  Br17  1  0.83819797  0.28422953  0.00776547  1
  Br  Br18  1  0.33819797  0.21577047  0.50776547  1
  Br  Br19  1  0.16180203  0.71577047  0.99223453  1
  Br  Br20  1  0.66348517  0.92505179  0.69384071  1
  Br  Br21  1  0.83651483  0.42505179  0.80615929  1
  Br  Br22  1  0.33651483  0.07494821  0.30615929  1
  Br  Br23  1  0.16348517  0.57494821  0.19384071  1
  Br  Br24  1  0.73923476  0.68562533  0.83599546  1
  Br  Br25  1  0.76076524  0.18562533  0.66400454  1
  Br  Br26  1  0.26076524  0.31437467  0.16400454  1
  Br  Br27  1  0.23923476  0.81437467  0.33599546  1
  Br  Br28  1  0.72494797  0.56034139  0.60513110  1
  Br  Br29  1  0.77505203  0.06034139  0.89486890  1
  Br  Br30  1  0.27505203  0.43965861  0.39486890  1
  Br  Br31  1  0.80655439  0.84112662  0.02908980  1
  Rh  Rh32  1  0.99537358  0.76338425  0.66151504  1
  Rh  Rh33  1  0.50462642  0.26338425  0.83848496  1
  Rh  Rh34  1  0.00462642  0.23661575  0.33848496  1
  Rh  Rh35  1  0.49537358  0.73661575  0.16151504  1
  Bi  Bi36  1  0.95247223  0.93754801  0.63887174  1
  Bi  Bi37  1  0.21819398  0.28604722  0.84752807  1
  Bi  Bi38  1  0.71819398  0.21395278  0.34752807  1
  Bi  Bi39  1  0.78180602  0.71395278  0.15247193  1
  Bi  Bi40  1  0.70915761  0.73647676  0.67101476  1
  Bi  Bi41  1  0.79084239  0.23647676  0.82898524  1
  Bi  Bi42  1  0.29084239  0.26352324  0.32898524  1
  Bi  Bi43  1  0.20915761  0.76352324  0.17101476  1
  Bi  Bi44  1  0.95493898  0.79498000  0.50095241  1
  Bi  Bi45  1  0.54506102  0.29498000  -0.00095241  1
  Bi  Bi46  1  0.04506102  0.20502000  0.49904759  1
  Bi  Bi47  1  0.45493898  0.70502000  1.00095241  1
  Bi  Bi48  1  0.28180602  0.78604722  0.65247193  1
  Bi  Bi49  1  0.54752777  0.43754801  0.86112826  1
  Bi  Bi50  1  0.04752777  0.06245199  0.36112826  1
  Bi  Bi51  1  0.45247223  0.56245199  0.13887174  1
  Bi  Bi52  1  0.00672442  0.84076562  0.80906817  1
  Bi  Bi53  1  0.49327558  0.34076562  0.69093183  1
  Bi  Bi54  1  0.99327558  0.15923438  0.19093183  1
  Bi  Bi55  1  0.50672442  0.65923438  0.30906817  1
  Bi  Bi56  1  0.04205250  0.63970018  0.77775828  1
  Bi  Bi57  1  0.45794750  0.13970018  0.72224172  1
  Bi  Bi58  1  0.95794750  0.36029982  0.22224172  1
  Bi  Bi59  1  0.54205250  0.86029982  0.27775828  1
  Bi  Bi60  1  0.01703612  0.60957871  0.58224632  1
  Bi  Bi61  1  0.48296388  0.10957871  0.91775368  1
  Bi  Bi62  1  0.98296388  0.39042129  0.41775368  1
  Bi  Bi63  1  0.51703612  0.89042129  0.08224632  1
