# generated using pymatgen
data_LiCrP2O7
_symmetry_space_group_name_H-M   'P 1'
_cell_length_a   6.98437204
_cell_length_b   8.29639933
_cell_length_c   8.82606115
_cell_angle_alpha   90.00000000
_cell_angle_beta   111.60144757
_cell_angle_gamma   90.00000000
_symmetry_Int_Tables_number   1
_chemical_formula_structural   LiCrP2O7
_chemical_formula_sum   'Li4 Cr4 P8 O28'
_cell_volume   475.50836248
_cell_formula_units_Z   4
loop_
 _symmetry_equiv_pos_site_id
 _symmetry_equiv_pos_as_xyz
  1  'x, y, z'
loop_
 _atom_site_type_symbol
 _atom_site_label
 _atom_site_symmetry_multiplicity
 _atom_site_fract_x
 _atom_site_fract_y
 _atom_site_fract_z
 _atom_site_occupancy
  Li  Li0  1  0.12974224  0.95224968  0.84381976  1
  Li  Li1  1  0.87025869  0.04775055  0.15618128  1
  Li  Li2  1  0.62974168  0.54775005  0.34381928  1
  Li  Li3  1  0.37025771  0.45224896  0.65618017  1
  O  O4  1  0.07056380  0.88099245  0.17964281  1
  O  O5  1  0.82501540  0.10380854  0.40619680  1
  O  O6  1  0.66756292  0.24793945  0.04081106  1
  O  O7  1  0.86463064  0.40116656  0.33736496  1
  O  O8  1  0.13536874  0.59883366  0.66263563  1
  O  O9  1  0.33243801  0.75206077  0.95918884  1
  O  O10  1  0.17498398  0.89619168  0.59380265  1
  O  O11  1  0.32501597  0.39619217  0.90619727  1
  O  O12  1  0.16756194  0.25206126  0.54081108  1
  O  O13  1  0.14046748  0.65932950  0.39754295  1
  O  O14  1  0.36463121  0.09883294  0.83736430  1
  O  O15  1  0.42285387  0.73790559  0.30789615  1
  O  O16  1  0.07714660  0.23790608  0.19210437  1
  O  O17  1  0.10896705  0.58325922  0.12094703  1
  O  O18  1  0.39103187  0.08325972  0.37905304  1
  O  O19  1  0.83243745  0.74793896  0.45918951  1
  O  O20  1  0.57056272  0.61900728  0.67964288  1
  O  O21  1  0.57714706  0.26209463  0.69210375  1
  O  O22  1  0.67498496  0.60380805  0.09380263  1
  O  O23  1  0.42943667  0.38099295  0.32035657  1
  O  O24  1  0.35953298  0.15932999  0.10245757  1
  O  O25  1  0.60896751  0.91674051  0.62094755  1
  O  O26  1  0.89103234  0.41673979  0.87905243  1
  O  O27  1  0.92285279  0.76209414  0.80789622  1
  O  O28  1  0.92943713  0.11900656  0.82035709  1
  O  O29  1  0.63536972  0.90116728  0.16263560  1
  O  O30  1  0.85953344  0.34067072  0.60245809  1
  O  O31  1  0.64046640  0.84067023  0.89754189  1
  P  P32  1  0.31457798  0.22981456  0.25634992  1
  P  P33  1  0.68542295  0.77018445  0.74364998  1
  P  P34  1  0.81457690  0.27018494  0.75634999  1
  P  P35  1  0.56895384  0.76516346  0.03511796  1
  P  P36  1  0.06895440  0.73483748  0.53511844  1
  P  P37  1  0.43104554  0.23483677  0.96488263  1
  P  P38  1  0.18542248  0.72981528  0.24364946  1
  P  P39  1  0.93104652  0.26516274  0.46488260  1
  Cr  Cr40  1  0.87866153  0.42058829  0.11359230  1
  Cr  Cr41  1  0.62133884  0.92058901  0.38640712  1
  Cr  Cr42  1  0.37866209  0.07941122  0.61359278  1
  Cr  Cr43  1  0.12133786  0.57941193  0.88640715  1
