# generated using pymatgen
data_Li2Co(PO3)4
_symmetry_space_group_name_H-M   'P 1'
_cell_length_a   7.47420223
_cell_length_b   9.26218925
_cell_length_c   7.64298119
_cell_angle_alpha   90.00000000
_cell_angle_beta   110.14335700
_cell_angle_gamma   90.00000000
_symmetry_Int_Tables_number   1
_chemical_formula_structural   Li2Co(PO3)4
_chemical_formula_sum   'Li4 Co2 P8 O24'
_cell_volume   496.74106214
_cell_formula_units_Z   2
loop_
 _symmetry_equiv_pos_site_id
 _symmetry_equiv_pos_as_xyz
  1  'x, y, z'
loop_
 _atom_site_type_symbol
 _atom_site_label
 _atom_site_symmetry_multiplicity
 _atom_site_fract_x
 _atom_site_fract_y
 _atom_site_fract_z
 _atom_site_occupancy
  Li  Li0  1  0.12046183  0.65254745  0.30894547  1
  Li  Li1  1  0.87953834  0.34745231  0.69105460  1
  Li  Li2  1  0.62046262  0.84745273  0.80894640  1
  Li  Li3  1  0.37953754  0.15254703  0.19105367  1
  O  O4  1  0.39479266  0.95355401  0.75066333  1
  O  O5  1  0.95630764  0.27712323  0.31528432  1
  O  O6  1  0.04369253  0.72287653  0.68471575  1
  O  O7  1  0.10520607  0.45355359  0.74933636  1
  O  O8  1  0.21508527  0.10428862  0.92469845  1
  O  O9  1  0.15017876  0.14651290  0.58622227  1
  O  O10  1  0.34982139  0.64651332  0.91377793  1
  O  O11  1  0.28491346  0.60428904  0.57530125  1
  O  O12  1  0.15870446  0.08043008  0.26369398  1
  O  O13  1  0.67622900  0.69309906  0.58468675  1
  O  O14  1  0.45630762  0.22287719  0.81528445  1
  O  O15  1  0.17622963  0.80690112  0.08468761  1
  O  O16  1  0.32376974  0.30690070  0.41531282  1
  O  O17  1  0.78491347  0.89571114  0.07530113  1
  O  O18  1  0.65870525  0.41956926  0.76369491  1
  O  O19  1  0.89479267  0.54644617  0.25066321  1
  O  O20  1  0.82377054  0.19309864  0.91531246  1
  O  O21  1  0.54369255  0.77712257  0.18471563  1
  O  O22  1  0.60520608  0.04644683  0.24933624  1
  O  O23  1  0.84129571  0.91956968  0.73630609  1
  O  O24  1  0.71508529  0.39571180  0.42469832  1
  O  O25  1  0.65017877  0.35348644  0.08622215  1
  O  O26  1  0.84982141  0.85348686  0.41377781  1
  O  O27  1  0.34129492  0.58043050  0.23630516  1
  P  P28  1  0.69168628  0.90796928  0.22165865  1
  P  P29  1  0.83966318  0.79454836  0.60856099  1
  P  P30  1  0.19168627  0.59203090  0.72165877  1
  P  P31  1  0.16033699  0.20545140  0.39143908  1
  P  P32  1  0.30831388  0.09203048  0.77834142  1
  P  P33  1  0.33966239  0.70545182  0.10856005  1
  P  P34  1  0.66033778  0.29454794  0.89144002  1
  P  P35  1  0.80831390  0.40796886  0.27834130  1
  Co  Co36  1  0.49999938  0.50000042  0.49999914  1
  Co  Co37  1  0.00000000  0.00000000  0.00000000  1
