# generated using pymatgen
data_LiMoPO5
_symmetry_space_group_name_H-M   'P 1'
_cell_length_a   7.48074048
_cell_length_b   6.65441829
_cell_length_c   7.53868212
_cell_angle_alpha   90.00000000
_cell_angle_beta   90.00000000
_cell_angle_gamma   90.00000000
_symmetry_Int_Tables_number   1
_chemical_formula_structural   LiMoPO5
_chemical_formula_sum   'Li4 Mo4 P4 O20'
_cell_volume   375.27541706
_cell_formula_units_Z   4
loop_
 _symmetry_equiv_pos_site_id
 _symmetry_equiv_pos_as_xyz
  1  'x, y, z'
loop_
 _atom_site_type_symbol
 _atom_site_label
 _atom_site_symmetry_multiplicity
 _atom_site_fract_x
 _atom_site_fract_y
 _atom_site_fract_z
 _atom_site_occupancy
  Li  Li0  1  0.00000000  0.50000000  -0.00000000  1
  Li  Li1  1  0.00000000  -0.00000000  -0.00000000  1
  Li  Li2  1  0.50000000  -0.00000000  0.50000000  1
  Li  Li3  1  0.50000000  0.50000000  0.50000000  1
  Mo  Mo4  1  0.35677529  0.75000000  0.22919862  1
  Mo  Mo5  1  0.14322471  0.25000000  0.72919862  1
  Mo  Mo6  1  0.64322471  0.25000000  0.77080138  1
  Mo  Mo7  1  0.85677529  0.75000000  0.27080138  1
  P  P8  1  0.12733065  0.75000000  0.63358548  1
  P  P9  1  0.62733065  0.75000000  0.86641452  1
  P  P10  1  0.37266935  0.25000000  0.13358548  1
  P  P11  1  0.87266935  0.25000000  0.36641452  1
  O  O12  1  0.63181556  0.56445688  0.74178656  1
  O  O13  1  0.20311899  0.25000000  0.01258181  1
  O  O14  1  0.89827886  0.25000000  0.82552837  1
  O  O15  1  0.13181556  0.93554312  0.75821344  1
  O  O16  1  0.86818444  0.43554312  0.24178656  1
  O  O17  1  0.60172114  0.75000000  0.32552837  1
  O  O18  1  0.54694730  0.25000000  0.02514796  1
  O  O19  1  0.70311899  0.25000000  0.48741819  1
  O  O20  1  0.63181556  0.93554312  0.74178656  1
  O  O21  1  0.29688101  0.75000000  0.51258181  1
  O  O22  1  0.86818444  0.06445688  0.24178656  1
  O  O23  1  0.13181556  0.56445688  0.75821344  1
  O  O24  1  0.36818444  0.43554312  0.25821344  1
  O  O25  1  0.04694730  0.25000000  0.47485204  1
  O  O26  1  0.10172114  0.75000000  0.17447163  1
  O  O27  1  0.45305270  0.75000000  0.97485204  1
  O  O28  1  0.95305270  0.75000000  0.52514796  1
  O  O29  1  0.79688101  0.75000000  0.98741819  1
  O  O30  1  0.39827886  0.25000000  0.67447163  1
  O  O31  1  0.36818444  0.06445688  0.25821344  1
