# generated using pymatgen
data_LiMn2P3O10
_symmetry_space_group_name_H-M   'P 1'
_cell_length_a   8.32671812
_cell_length_b   8.32671811
_cell_length_c   9.08653240
_cell_angle_alpha   62.69346215
_cell_angle_beta   117.30653783
_cell_angle_gamma   116.57898569
_symmetry_Int_Tables_number   1
_chemical_formula_structural   LiMn2P3O10
_chemical_formula_sum   'Li2 Mn4 P6 O20'
_cell_volume   474.48681492
_cell_formula_units_Z   2
loop_
 _symmetry_equiv_pos_site_id
 _symmetry_equiv_pos_as_xyz
  1  'x, y, z'
loop_
 _atom_site_type_symbol
 _atom_site_label
 _atom_site_symmetry_multiplicity
 _atom_site_fract_x
 _atom_site_fract_y
 _atom_site_fract_z
 _atom_site_occupancy
  Li  Li0  1  0.58719467  0.58719489  0.75000024  1
  Li  Li1  1  0.41280560  0.41280612  0.24999990  1
  O  O2  1  0.02374133  0.55586395  0.29568762  1
  O  O3  1  0.55586366  0.02374064  0.20431278  1
  O  O4  1  0.88608734  0.09530147  0.63005596  1
  O  O5  1  0.75619109  0.53300215  0.00955800  1
  O  O6  1  0.09530149  0.88608796  0.86994446  1
  O  O7  1  0.44413619  0.97625895  0.79568778  1
  O  O8  1  0.11391252  0.90469812  0.36994460  1
  O  O9  1  0.24380877  0.46699744  0.99044256  1
  O  O10  1  0.90469879  0.11391306  0.13005567  1
  O  O11  1  0.32003847  0.55791720  0.71880911  1
  O  O12  1  0.17431050  0.21196314  0.87330019  1
  O  O13  1  0.53300168  0.75619093  0.49044209  1
  O  O14  1  0.44208370  0.67996251  0.21880885  1
  O  O15  1  0.21196303  0.17431001  0.62669954  1
  O  O16  1  0.97625894  0.44413707  0.70431252  1
  O  O17  1  0.55791615  0.32003708  0.78119170  1
  O  O18  1  0.46699818  0.24380866  0.50955846  1
  O  O19  1  0.82568935  0.78803646  0.12669927  1
  O  O20  1  0.67996317  0.44208383  0.28119159  1
  O  O21  1  0.78803683  0.82568957  0.37330102  1
  P  P22  1  0.82498168  0.57086077  0.18199895  1
  P  P23  1  0.91964494  0.91964464  0.25000024  1
  P  P24  1  0.42913939  0.17501834  0.68199923  1
  P  P25  1  0.57086047  0.82498125  0.31800133  1
  P  P26  1  0.17501817  0.42913882  0.81800160  1
  P  P27  1  0.08035492  0.08035495  0.75000032  1
  Mn  Mn28  1  0.29258316  0.75287874  0.95454812  1
  Mn  Mn29  1  0.24712095  0.70741674  0.45454781  1
  Mn  Mn30  1  0.75287890  0.29258285  0.54545275  1
  Mn  Mn31  1  0.70741711  0.24712227  0.04545202  1
