# generated using pymatgen
data_LiV3(P3O10)2
_symmetry_space_group_name_H-M   'P 1'
_cell_length_a   8.65333968
_cell_length_b   8.65333968
_cell_length_c   12.65035071
_cell_angle_alpha   90.00000000
_cell_angle_beta   90.00000000
_cell_angle_gamma   73.33195084
_symmetry_Int_Tables_number   1
_chemical_formula_structural   LiV3(P3O10)2
_chemical_formula_sum   'Li2 V6 P12 O40'
_cell_volume   907.46040967
_cell_formula_units_Z   2
loop_
 _symmetry_equiv_pos_site_id
 _symmetry_equiv_pos_as_xyz
  1  'x, y, z'
loop_
 _atom_site_type_symbol
 _atom_site_label
 _atom_site_symmetry_multiplicity
 _atom_site_fract_x
 _atom_site_fract_y
 _atom_site_fract_z
 _atom_site_occupancy
  Li  Li0  1  0.10597485  0.89402567  0.00000000  1
  Li  Li1  1  0.60597437  0.39402520  0.49999970  1
  O  O2  1  0.07351601  0.13291895  0.43430100  1
  O  O3  1  0.01370404  0.66867780  0.78391257  1
  O  O4  1  0.06352000  0.66262175  0.26359680  1
  O  O5  1  0.33737865  0.93647983  0.73640339  1
  O  O6  1  0.34956710  0.93763461  0.41536683  1
  O  O7  1  0.06236511  0.65043315  0.58463336  1
  O  O8  1  0.21259382  0.73105226  0.10326005  1
  O  O9  1  0.26894777  0.78740598  0.89674014  1
  O  O10  1  0.32545837  0.71850066  0.29387314  1
  O  O11  1  0.28149909  0.67454188  0.70612705  1
  O  O12  1  0.58378607  0.79054955  0.30515861  1
  O  O13  1  0.70945092  0.91621376  0.80515831  1
  O  O14  1  0.08378675  0.29054935  0.19484188  1
  O  O15  1  0.82545871  0.21850139  0.20612656  1
  O  O16  1  0.03161701  0.17148167  0.69260742  1
  O  O17  1  0.32851799  0.46838346  0.19260772  1
  O  O18  1  0.53161633  0.67148187  0.80739247  1
  O  O19  1  0.82851848  0.96838366  0.30739277  1
  O  O20  1  0.33132266  0.98629567  0.21608761  1
  O  O21  1  0.36708082  0.42648477  0.93430070  1
  O  O22  1  0.57351568  0.63291794  0.06569870  1
  O  O23  1  0.86708131  0.92648497  0.56569919  1
  O  O24  1  0.29911296  0.23896630  0.36852872  1
  O  O25  1  0.26103380  0.20088737  0.86852841  1
  O  O26  1  0.79911228  0.73896650  0.13147098  1
  O  O27  1  0.76103428  0.70088757  0.63147147  1
  O  O28  1  0.85460619  0.69308104  0.44364238  1
  O  O29  1  0.30691979  0.14539401  0.55635701  1
  O  O30  1  0.80691911  0.64539421  0.94364287  1
  O  O31  1  0.35460570  0.19308084  0.05635732  1
  O  O32  1  0.51370472  0.16867732  0.71608731  1
  O  O33  1  0.83132217  0.48629520  0.28391288  1
  O  O34  1  0.83737817  0.43647935  0.76359650  1
  O  O35  1  0.56352068  0.16262128  0.23640369  1
  O  O36  1  0.56236544  0.15043389  0.91536652  1
  O  O37  1  0.84956627  0.43763535  0.08463287  1
  O  O38  1  0.71259415  0.23105300  0.39674045  1
  O  O39  1  0.76894729  0.28740550  0.60325974  1
  O  O40  1  0.78149860  0.17454141  0.79387284  1
  O  O41  1  0.20945044  0.41621356  0.69484158  1
  P  P42  1  0.13619306  0.59518107  0.70021393  1
  P  P43  1  0.40481965  0.86380713  0.29978626  1
  P  P44  1  0.22445582  0.63963593  0.21229008  1
  P  P45  1  0.36036388  0.77554457  0.78771011  1
  P  P46  1  0.75389022  0.62393526  0.05448743  1
  P  P47  1  0.87606444  0.74611042  0.55448712  1
  P  P48  1  0.37606395  0.24611022  0.94551276  1
  P  P49  1  0.25388939  0.12393627  0.44551307  1
  P  P50  1  0.90481882  0.36380787  0.20021423  1
  P  P51  1  0.86036305  0.27554531  0.71228978  1
  P  P52  1  0.72445499  0.13963667  0.28770962  1
  P  P53  1  0.63619258  0.09518060  0.79978596  1
  V  V54  1  0.38208236  0.61791717  0.00000000  1
  V  V55  1  0.27207168  0.17525107  0.71074173  1
  V  V56  1  0.32474887  0.22792791  0.21074204  1
  V  V57  1  0.77207217  0.67525127  0.78925815  1
  V  V58  1  0.82474819  0.72792811  0.28925766  1
  V  V59  1  0.88208304  0.11791669  0.49999970  1
