# generated using pymatgen
data_LiCr2(PO3)5
_symmetry_space_group_name_H-M   'P 1'
_cell_length_a   12.98744527
_cell_length_b   8.83963826
_cell_length_c   5.43158217
_cell_angle_alpha   90.00000000
_cell_angle_beta   95.43513582
_cell_angle_gamma   90.00000000
_symmetry_Int_Tables_number   1
_chemical_formula_structural   LiCr2(PO3)5
_chemical_formula_sum   'Li2 Cr4 P10 O30'
_cell_volume   620.76556237
_cell_formula_units_Z   2
loop_
 _symmetry_equiv_pos_site_id
 _symmetry_equiv_pos_as_xyz
  1  'x, y, z'
loop_
 _atom_site_type_symbol
 _atom_site_label
 _atom_site_symmetry_multiplicity
 _atom_site_fract_x
 _atom_site_fract_y
 _atom_site_fract_z
 _atom_site_occupancy
  Li  Li0  1  0.43887898  0.00266543  0.60836536  1
  Li  Li1  1  0.93887892  0.99733460  0.10836638  1
  O  O2  1  0.33438511  0.87433226  0.41643573  1
  O  O3  1  0.94355955  0.53845451  0.21966861  1
  O  O4  1  0.56291183  0.53634997  0.27914192  1
  O  O5  1  0.96684973  0.85938098  0.38716238  1
  O  O6  1  0.03309840  0.14587384  0.60554923  1
  O  O7  1  0.03831851  0.16612558  0.13352659  1
  O  O8  1  0.06291190  0.46365006  0.77914274  1
  O  O9  1  0.14585133  0.34149286  0.40860213  1
  O  O10  1  0.14400023  0.62261925  0.44523775  1
  O  O11  1  0.17286641  0.85971776  0.09182445  1
  O  O12  1  0.19471440  0.06920041  0.41963081  1
  O  O13  1  0.25323869  0.46194043  0.74422524  1
  O  O14  1  0.30646785  0.06450991  0.06752334  1
  O  O15  1  0.95844883  0.83575513  0.86650480  1
  O  O16  1  0.36055060  0.61913699  0.05341610  1
  O  O17  1  0.35737821  0.33780340  0.08212695  1
  O  O18  1  0.44355961  0.46154438  0.71966758  1
  O  O19  1  0.46684979  0.14061905  0.88716136  1
  O  O20  1  0.86055002  0.38086304  0.55341601  1
  O  O21  1  0.53831870  0.83387445  0.63352667  1
  O  O22  1  0.53309834  0.85412618  0.10555026  1
  O  O23  1  0.85737841  0.66219663  0.58212702  1
  O  O24  1  0.64585152  0.65850716  0.90860220  1
  O  O25  1  0.64400043  0.37738077  0.94523782  1
  O  O26  1  0.67286660  0.14028227  0.59182452  1
  O  O27  1  0.69471460  0.93079962  0.91963088  1
  O  O28  1  0.75323862  0.53805960  0.24422442  1
  O  O29  1  0.80646804  0.93549012  0.56752342  1
  O  O30  1  0.83438531  0.12566777  0.91643580  1
  O  O31  1  0.45844864  0.16424489  0.36650472  1
  P  P32  1  0.59303535  0.82321069  0.89205439  1
  P  P33  1  0.64337449  0.51847522  0.09748938  1
  P  P34  1  0.75024359  0.04859427  0.74816638  1
  P  P35  1  0.86166065  0.52042368  0.39740221  1
  P  P36  1  0.09303515  0.17678934  0.39205432  1
  P  P37  1  0.14337457  0.48152481  0.59749021  1
  P  P38  1  0.25024340  0.95140576  0.24816631  1
  P  P39  1  0.36166072  0.47957635  0.89740119  1
  P  P40  1  0.40763753  0.17205088  0.10479643  1
  P  P41  1  0.90763772  0.82794915  0.60479650  1
  Cr  Cr42  1  0.95177786  0.29296907  0.84979478  1
  Cr  Cr43  1  0.55515098  0.29590005  0.64035501  1
  Cr  Cr44  1  0.45177767  0.70703096  0.34979470  1
  Cr  Cr45  1  0.05515078  0.70409998  0.14035494  1
