# generated using pymatgen
data_LiCoP2O7
_symmetry_space_group_name_H-M   'P 1'
_cell_length_a   12.66190979
_cell_length_b   5.03629878
_cell_length_c   8.54252629
_cell_angle_alpha   90.00000000
_cell_angle_beta   103.02427664
_cell_angle_gamma   90.00000000
_symmetry_Int_Tables_number   1
_chemical_formula_structural   LiCoP2O7
_chemical_formula_sum   'Li4 Co4 P8 O28'
_cell_volume   530.73586329
_cell_formula_units_Z   4
loop_
 _symmetry_equiv_pos_site_id
 _symmetry_equiv_pos_as_xyz
  1  'x, y, z'
loop_
 _atom_site_type_symbol
 _atom_site_label
 _atom_site_symmetry_multiplicity
 _atom_site_fract_x
 _atom_site_fract_y
 _atom_site_fract_z
 _atom_site_occupancy
  Li  Li0  1  0.82413381  0.24692002  0.86861352  1
  Li  Li1  1  0.41986125  0.77407550  0.91160133  1
  Li  Li2  1  0.91986125  0.72592450  0.41160133  1
  Li  Li3  1  0.32413381  0.25307998  0.36861352  1
  Co  Co4  1  0.03150045  0.24883647  0.26244902  1
  Co  Co5  1  0.53150045  0.25116353  0.76244902  1
  Co  Co6  1  0.48004236  0.74560804  0.25065096  1
  Co  Co7  1  0.98004236  0.75439196  0.75065096  1
  P  P8  1  0.86064600  0.23859172  0.52855575  1
  P  P9  1  0.88260253  0.74367023  0.07002261  1
  P  P10  1  0.38260253  0.75632977  0.57002261  1
  P  P11  1  0.11519774  0.26121702  0.92976001  1
  P  P12  1  0.64213665  0.74345102  0.97469024  1
  P  P13  1  0.36064600  0.26140828  0.02855575  1
  P  P14  1  0.14213665  0.75654898  0.47469024  1
  P  P15  1  0.61519774  0.23878298  0.42976001  1
  O  O16  1  0.62661596  0.94817385  0.83653767  1
  O  O17  1  0.88416732  0.86599374  0.90603880  1
  O  O18  1  0.64599608  0.45798742  0.91487089  1
  O  O19  1  0.08311022  0.55634739  0.89926237  1
  O  O20  1  0.44614754  0.60181864  0.71624958  1
  O  O21  1  0.40770655  0.05405468  0.57969477  1
  O  O22  1  0.23968973  0.23140438  0.91717510  1
  O  O23  1  0.55499081  0.40929331  0.29235286  1
  O  O24  1  0.11022024  0.16963006  0.09760780  1
  O  O25  1  0.92918180  0.33304810  0.41226280  1
  O  O26  1  0.75951207  0.78882151  0.09325169  1
  O  O27  1  0.37106665  0.55837013  0.07067927  1
  O  O28  1  0.12661596  0.55182615  0.33653767  1
  O  O29  1  0.55978531  0.79860068  0.07434528  1
  O  O30  1  0.38416732  0.63400626  0.40603880  1
  O  O31  1  0.90770655  0.44594532  0.07969477  1
  O  O32  1  0.58311022  0.94365261  0.39926237  1
  O  O33  1  0.73968973  0.26859562  0.41717510  1
  O  O34  1  0.37267497  0.08314814  0.17729066  1
  O  O35  1  0.87106665  0.94162987  0.57067927  1
  O  O36  1  0.14599608  0.04201258  0.41487089  1
  O  O37  1  0.94614754  0.89818136  0.21624958  1
  O  O38  1  0.05978531  0.70139932  0.57434528  1
  O  O39  1  0.42918180  0.16695190  0.91226280  1
  O  O40  1  0.87267497  0.41685186  0.67729066  1
  O  O41  1  0.61022024  0.33036994  0.59760780  1
  O  O42  1  0.05499081  0.09070669  0.79235286  1
  O  O43  1  0.25951207  0.71117849  0.59325169  1
