# generated using pymatgen
data_Li4Ni7(PO4)6
_symmetry_space_group_name_H-M   'P 1'
_cell_length_a   8.68280354
_cell_length_b   8.68280354
_cell_length_c   6.53484014
_cell_angle_alpha   80.32004628
_cell_angle_beta   99.67995368
_cell_angle_gamma   72.77503345
_symmetry_Int_Tables_number   1
_chemical_formula_structural   Li4Ni7(PO4)6
_chemical_formula_sum   'Li4 Ni7 P6 O24'
_cell_volume   451.27502640
_cell_formula_units_Z   1
loop_
 _symmetry_equiv_pos_site_id
 _symmetry_equiv_pos_as_xyz
  1  'x, y, z'
loop_
 _atom_site_type_symbol
 _atom_site_label
 _atom_site_symmetry_multiplicity
 _atom_site_fract_x
 _atom_site_fract_y
 _atom_site_fract_z
 _atom_site_occupancy
  Li  Li0  1  0.35505805  0.64494260  0.67146867  1
  Li  Li1  1  0.43663301  0.34371263  0.49020481  1
  Li  Li2  1  0.65628861  0.56336653  0.49020519  1
  Li  Li3  1  0.98485738  0.01514260  0.49547646  1
  O  O4  1  0.20287052  0.79712947  0.13362401  1
  O  O5  1  0.96952488  0.35515436  0.48675534  1
  O  O6  1  0.80469186  0.19530812  0.85987755  1
  O  O7  1  0.38558201  0.03412839  0.12892346  1
  O  O8  1  0.96587124  0.61441882  0.12892319  1
  O  O9  1  0.75703154  0.42445809  0.06046635  1
  O  O10  1  0.57554214  0.24296938  0.06046620  1
  O  O11  1  0.05039269  0.64587918  0.51551079  1
  O  O12  1  0.35412101  0.94960718  0.51551086  1
  O  O13  1  0.64484544  0.03047587  0.48675512  1
  O  O14  1  0.25909978  0.56558171  0.93389333  1
  O  O15  1  0.43441874  0.74089931  0.93389363  1
  O  O16  1  0.05608022  0.37532555  0.87467753  1
  O  O17  1  0.62467514  0.94391975  0.87467769  1
  O  O18  1  0.91193672  0.88887684  0.76389160  1
  O  O19  1  0.11112297  0.08806326  0.76389157  1
  O  O20  1  0.28098912  0.26174857  0.30015318  1
  O  O21  1  0.73788337  0.71616818  0.70531480  1
  O  O22  1  0.45744581  0.54255414  0.28774911  1
  O  O23  1  0.55121095  0.44878913  0.71763633  1
  O  O24  1  0.09425335  0.10365409  0.23119386  1
  O  O25  1  0.89634512  0.90574776  0.23119343  1
  O  O26  1  0.73825195  0.71900968  0.30015357  1
  O  O27  1  0.28383172  0.26211691  0.70531471  1
  P  P28  1  0.92265695  0.71546701  0.30331405  1
  P  P29  1  0.28453306  0.07734274  0.30331414  1
  P  P30  1  0.67338451  0.32661455  0.92077571  1
  P  P31  1  0.33824879  0.66175163  0.08676218  1
  P  P32  1  0.72412537  0.90365116  0.69746649  1
  P  P33  1  0.09634908  0.27587464  0.69746654  1
  Ni  Ni34  1  0.00298891  0.99701117  0.99735689  1
  Ni  Ni35  1  0.36719201  0.99257499  0.81403763  1
  Ni  Ni36  1  0.00742475  0.63280771  0.81403764  1
  Ni  Ni37  1  0.00534145  0.35819771  0.18765403  1
  Ni  Ni38  1  0.64180131  0.99465800  0.18765393  1
  Ni  Ni39  1  0.32984349  0.31581389  0.00158583  1
  Ni  Ni40  1  0.68418533  0.67015599  0.00158577  1
