# generated using pymatgen
data_LiFeP2O7
_symmetry_space_group_name_H-M   'P 1'
_cell_length_a   5.31501225
_cell_length_b   5.31501225
_cell_length_c   9.11211253
_cell_angle_alpha   80.98715222
_cell_angle_beta   99.01284780
_cell_angle_gamma   76.75240254
_symmetry_Int_Tables_number   1
_chemical_formula_structural   LiFeP2O7
_chemical_formula_sum   'Li2 Fe2 P4 O14'
_cell_volume   242.45303756
_cell_formula_units_Z   2
loop_
 _symmetry_equiv_pos_site_id
 _symmetry_equiv_pos_as_xyz
  1  'x, y, z'
loop_
 _atom_site_type_symbol
 _atom_site_label
 _atom_site_symmetry_multiplicity
 _atom_site_fract_x
 _atom_site_fract_y
 _atom_site_fract_z
 _atom_site_occupancy
  Li  Li0  1  0.28844100  0.32093567  0.50993985  1
  Li  Li1  1  0.67906363  0.71156023  0.00993976  1
  O  O2  1  0.38818494  0.93522091  0.10983074  1
  O  O3  1  0.66081700  0.02821158  0.39079160  1
  O  O4  1  0.06477835  0.61181548  0.60983054  1
  O  O5  1  0.35921188  0.93033356  0.60952915  1
  O  O6  1  0.37202500  0.62149625  0.85663756  1
  O  O7  1  0.62981453  0.39474365  0.64693577  1
  O  O8  1  0.06966611  0.64078754  0.10952926  1
  O  O9  1  0.60525661  0.37018673  0.14693577  1
  O  O10  1  0.37850259  0.62797432  0.35663761  1
  O  O11  1  0.90042878  0.39089508  0.38966250  1
  O  O12  1  0.02824182  0.03777835  0.24486029  1
  O  O13  1  0.60910477  0.09957113  0.88966240  1
  O  O14  1  0.97178950  0.33918118  0.89079177  1
  O  O15  1  0.96222194  0.97175677  0.74486035  1
  P  P16  1  0.22128401  0.79364084  0.20108257  1
  P  P17  1  0.78985854  0.21283119  0.79662486  1
  P  P18  1  0.20635914  0.77871655  0.70108352  1
  P  P19  1  0.78716895  0.21014071  0.29662503  1
  Fe  Fe20  1  0.69380881  0.66602887  0.49410473  1
  Fe  Fe21  1  0.33397229  0.30619273  0.99410460  1
