# generated using pymatgen
data_Li2CrP4O13
_symmetry_space_group_name_H-M   'P 1'
_cell_length_a   5.07643559
_cell_length_b   7.93339450
_cell_length_c   13.15083732
_cell_angle_alpha   76.62290605
_cell_angle_beta   90.46996534
_cell_angle_gamma   81.96018345
_symmetry_Int_Tables_number   1
_chemical_formula_structural   Li2CrP4O13
_chemical_formula_sum   'Li4 Cr2 P8 O26'
_cell_volume   509.74196861
_cell_formula_units_Z   2
loop_
 _symmetry_equiv_pos_site_id
 _symmetry_equiv_pos_as_xyz
  1  'x, y, z'
loop_
 _atom_site_type_symbol
 _atom_site_label
 _atom_site_symmetry_multiplicity
 _atom_site_fract_x
 _atom_site_fract_y
 _atom_site_fract_z
 _atom_site_occupancy
  Li  Li0  1  0.09515787  0.32044301  0.52719380  1
  Li  Li1  1  0.90484216  0.67955697  0.47280683  1
  Li  Li2  1  0.50881368  0.70672020  0.99641422  1
  Li  Li3  1  0.49118631  0.29327981  0.00358564  1
  O  O4  1  0.24150445  0.95928063  0.15823898  1
  O  O5  1  0.87377227  0.34561256  0.76621781  1
  O  O6  1  0.12622773  0.65438745  0.23378205  1
  O  O7  1  0.16621234  0.02684373  0.66515405  1
  O  O8  1  0.05653867  0.81497571  0.55497554  1
  O  O9  1  0.05598032  0.72399825  0.75322390  1
  O  O10  1  0.30106750  0.04028915  0.34658112  1
  O  O11  1  0.14926996  0.77190061  0.03636093  1
  O  O12  1  0.21340552  0.52384705  0.42519279  1
  O  O13  1  0.22718290  0.10926262  0.86105107  1
  O  O14  1  0.49823073  0.59065902  0.70490363  1
  O  O15  1  0.33398763  0.48573658  0.89229035  1
  O  O16  1  0.52509158  0.21518054  0.16590896  1
  O  O17  1  0.50176926  0.40934100  0.29509623  1
  O  O18  1  0.94346133  0.18502430  0.44502432  1
  O  O19  1  0.54443292  0.71220621  0.32286269  1
  O  O20  1  0.83378766  0.97315628  0.33484582  1
  O  O21  1  0.47490841  0.78481948  0.83409090  1
  O  O22  1  0.66601237  0.51426343  0.10770952  1
  O  O23  1  0.75849559  0.04071935  0.84176165  1
  O  O24  1  0.77281710  0.89073739  0.13894880  1
  O  O25  1  0.78659448  0.47615296  0.57480707  1
  O  O26  1  0.85073004  0.22809941  0.96363894  1
  O  O27  1  0.69893250  0.95971087  0.65341874  1
  O  O28  1  0.94401972  0.27600173  0.24677673  1
  O  O29  1  0.45556708  0.28779381  0.67713718  1
  P  P30  1  0.65044133  0.41876114  0.67451617  1
  P  P31  1  0.93132488  0.17672278  0.86479267  1
  P  P32  1  0.00842427  0.11378496  0.35167409  1
  P  P33  1  0.06867512  0.82327723  0.13520720  1
  P  P34  1  0.34955871  0.58123884  0.32548446  1
  P  P35  1  0.34417296  0.63882381  0.80385209  1
  P  P36  1  0.65582704  0.36117620  0.19614777  1
  P  P37  1  0.99157577  0.88621502  0.64832654  1
  Cr  Cr38  1  0.53693677  0.96428210  0.24499770  1
  Cr  Cr39  1  0.46306323  0.03571791  0.75500217  1
