# generated using pymatgen
data_MgBi2
_symmetry_space_group_name_H-M   'P 1'
_cell_length_a   9.87946190
_cell_length_b   6.25264076
_cell_length_c   6.66617330
_cell_angle_alpha   90.00000000
_cell_angle_beta   121.23174050
_cell_angle_gamma   90.00000000
_symmetry_Int_Tables_number   1
_chemical_formula_structural   MgBi2
_chemical_formula_sum   'Mg4 Bi8'
_cell_volume   352.11025287
_cell_formula_units_Z   4
loop_
 _symmetry_equiv_pos_site_id
 _symmetry_equiv_pos_as_xyz
  1  'x, y, z'
loop_
 _atom_site_type_symbol
 _atom_site_label
 _atom_site_symmetry_multiplicity
 _atom_site_fract_x
 _atom_site_fract_y
 _atom_site_fract_z
 _atom_site_occupancy
  Mg  Mg0  1  0.00000000  0.41214624  0.75000000  1
  Mg  Mg1  1  0.50000000  0.08785376  0.25000000  1
  Mg  Mg2  1  0.50000000  0.91214624  0.75000000  1
  Mg  Mg3  1  0.00000000  0.58785376  0.25000000  1
  Bi  Bi4  1  0.81052930  0.10034228  0.23404361  1
  Bi  Bi5  1  0.68947070  0.60034228  0.26595639  1
  Bi  Bi6  1  0.81052930  0.89965772  0.73404361  1
  Bi  Bi7  1  0.68947070  0.39965772  0.76595639  1
  Bi  Bi8  1  0.31052930  0.60034228  0.23404361  1
  Bi  Bi9  1  0.18947070  0.10034228  0.26595639  1
  Bi  Bi10  1  0.31052930  0.39965772  0.73404361  1
  Bi  Bi11  1  0.18947070  0.89965772  0.76595639  1
