# generated using pymatgen
data_BaLaZnRuO6
_symmetry_space_group_name_H-M   'P 1'
_cell_length_a   5.72765932
_cell_length_b   5.75361795
_cell_length_c   5.71738074
_cell_angle_alpha   60.32450205
_cell_angle_beta   59.67870430
_cell_angle_gamma   59.77125383
_symmetry_Int_Tables_number   1
_chemical_formula_structural   BaLaZnRuO6
_chemical_formula_sum   'Ba1 La1 Zn1 Ru1 O6'
_cell_volume   132.99233406
_cell_formula_units_Z   1
loop_
 _symmetry_equiv_pos_site_id
 _symmetry_equiv_pos_as_xyz
  1  'x, y, z'
loop_
 _atom_site_type_symbol
 _atom_site_label
 _atom_site_symmetry_multiplicity
 _atom_site_fract_x
 _atom_site_fract_y
 _atom_site_fract_z
 _atom_site_occupancy
  Ba  Ba0  1  0.75021064  0.75032613  0.74903245  1
  La  La1  1  0.25253488  0.26475004  0.23282757  1
  O  O2  1  0.27167097  0.67766327  0.24510938  1
  O  O3  1  0.23539387  0.27871912  0.80641416  1
  O  O4  1  0.25750707  0.83242756  0.64902433  1
  O  O5  1  0.74090100  0.21154804  0.30657972  1
  O  O6  1  0.78763776  0.69445445  0.23105171  1
  O  O7  1  0.69688459  0.29016280  0.78879956  1
  Ru  Ru8  1  0.50153461  0.49857216  0.49942137  1
  Zn  Zn9  1  0.00572462  0.00137644  0.99173976  1
