# generated using pymatgen
data_LiV(PO3)4
_symmetry_space_group_name_H-M   'P 1'
_cell_length_a   7.37029886
_cell_length_b   8.59179279
_cell_length_c   9.40789321
_cell_angle_alpha   114.50658758
_cell_angle_beta   113.06083391
_cell_angle_gamma   64.60127237
_symmetry_Int_Tables_number   1
_chemical_formula_structural   LiV(PO3)4
_chemical_formula_sum   'Li2 V2 P8 O24'
_cell_volume   472.82857629
_cell_formula_units_Z   2
loop_
 _symmetry_equiv_pos_site_id
 _symmetry_equiv_pos_as_xyz
  1  'x, y, z'
loop_
 _atom_site_type_symbol
 _atom_site_label
 _atom_site_symmetry_multiplicity
 _atom_site_fract_x
 _atom_site_fract_y
 _atom_site_fract_z
 _atom_site_occupancy
  Li  Li0  1  0.30707460  0.75000040  0.75000020  1
  Li  Li1  1  0.69292541  0.24999968  0.25000033  1
  O  O2  1  0.20540856  0.46701718  0.27564640  1
  O  O3  1  0.60322114  0.96701655  0.77564642  1
  O  O4  1  0.13950184  0.78820469  0.28670348  1
  O  O5  1  0.01054608  0.92628506  0.78637733  1
  O  O6  1  0.64100223  0.71179576  0.21329663  1
  O  O7  1  0.75204949  0.72618146  0.50847128  1
  O  O8  1  0.33517891  0.69850191  0.53878957  1
  O  O9  1  0.49489026  0.80149888  0.96121077  1
  O  O10  1  0.48711963  0.56524759  0.29274467  1
  O  O11  1  0.96975943  0.77381934  0.99152836  1
  O  O12  1  0.75962133  0.93475286  0.20725552  1
  O  O13  1  0.15045344  0.57371438  0.71362221  1
  O  O14  1  0.84954656  0.42628569  0.28637832  1
  O  O15  1  0.79459145  0.53298289  0.72435307  1
  O  O16  1  0.03024059  0.22618074  0.00847110  1
  O  O17  1  0.51288038  0.43475249  0.70725480  1
  O  O18  1  0.24037868  0.06524721  0.79274501  1
  O  O19  1  0.66482110  0.30149817  0.46120990  1
  O  O20  1  0.24795052  0.27381862  0.49152818  1
  O  O21  1  0.35899777  0.28820432  0.78670390  1
  O  O22  1  0.98945393  0.07371502  0.21362213  1
  O  O23  1  0.86049817  0.21179539  0.71329599  1
  O  O24  1  0.39677886  0.03298353  0.22435411  1
  O  O25  1  0.50510974  0.19850119  0.03878976  1
  P  P26  1  0.96839356  0.88956059  0.16189994  1
  P  P27  1  0.55243804  0.87669674  0.13928079  1
  P  P28  1  0.28985453  0.62330236  0.36071946  1
  P  P29  1  0.69605387  0.61043851  0.33809924  1
  P  P30  1  0.30394614  0.38956157  0.66190022  1
  P  P31  1  0.03160645  0.11043948  0.83809953  1
  P  P32  1  0.44756246  0.12330198  0.86071938  1
  P  P33  1  0.71014547  0.37669772  0.63928107  1
  V  V34  1  0.86367005  0.75000040  0.74999960  1
  V  V35  1  0.13632996  0.24999968  0.24999986  1
