# generated using pymatgen
data_Na2S2O3
_symmetry_space_group_name_H-M   'P 1'
_cell_length_a   6.52238156
_cell_length_b   8.24209852
_cell_length_c   8.62056326
_cell_angle_alpha   90.00000000
_cell_angle_beta   97.33667849
_cell_angle_gamma   90.00000000
_symmetry_Int_Tables_number   1
_chemical_formula_structural   Na2S2O3
_chemical_formula_sum   'Na8 S8 O12'
_cell_volume   459.63109029
_cell_formula_units_Z   4
loop_
 _symmetry_equiv_pos_site_id
 _symmetry_equiv_pos_as_xyz
  1  'x, y, z'
loop_
 _atom_site_type_symbol
 _atom_site_label
 _atom_site_symmetry_multiplicity
 _atom_site_fract_x
 _atom_site_fract_y
 _atom_site_fract_z
 _atom_site_occupancy
  O  O0  1  0.34031672  0.58784425  0.88363775  1
  O  O1  1  0.17183912  0.96376957  0.37807713  1
  O  O2  1  0.67183912  0.53623043  0.37807713  1
  O  O3  1  0.82816088  0.03623043  0.62192287  1
  O  O4  1  0.62008713  0.79842255  0.66206275  1
  O  O5  1  0.32816088  0.46376957  0.62192287  1
  O  O6  1  0.87991287  0.29842255  0.33793725  1
  O  O7  1  0.37991287  0.20157745  0.33793725  1
  O  O8  1  0.15968328  0.08784425  0.11636225  1
  O  O9  1  0.65968328  0.41215575  0.11636225  1
  O  O10  1  0.84031672  0.91215575  0.88363775  1
  O  O11  1  0.12008713  0.70157745  0.66206275  1
  Na  Na12  1  0.12378419  0.19797703  0.54595814  1
  Na  Na13  1  0.37621581  0.69797703  0.45404186  1
  Na  Na14  1  0.70783968  0.62099187  0.91386694  1
  Na  Na15  1  0.62378419  0.30202297  0.54595814  1
  Na  Na16  1  0.20783968  0.87900813  0.91386694  1
  Na  Na17  1  0.29216032  0.37900813  0.08613306  1
  Na  Na18  1  0.79216032  0.12099187  0.08613306  1
  Na  Na19  1  0.87621581  0.80202297  0.45404186  1
  S  S20  1  0.20800268  0.54835817  0.73364855  1
  S  S21  1  0.79199732  0.45164183  0.26635145  1
  S  S22  1  0.70800268  0.95164183  0.73364855  1
  S  S23  1  0.98287118  0.39686212  0.78708099  1
  S  S24  1  0.51712882  0.89686212  0.21291901  1
  S  S25  1  0.01712882  0.60313788  0.21291901  1
  S  S26  1  0.48287118  0.10313788  0.78708099  1
  S  S27  1  0.29199732  0.04835817  0.26635145  1
