# generated using pymatgen
data_KBa4Ti5O14F
_symmetry_space_group_name_H-M   'P 1'
_cell_length_a   4.00890353
_cell_length_b   4.00890353
_cell_length_c   20.33079168
_cell_angle_alpha   90.00000000
_cell_angle_beta   90.00000000
_cell_angle_gamma   90.00000000
_symmetry_Int_Tables_number   1
_chemical_formula_structural   KBa4Ti5O14F
_chemical_formula_sum   'K1 Ba4 Ti5 O14 F1'
_cell_volume   326.74240507
_cell_formula_units_Z   1
loop_
 _symmetry_equiv_pos_site_id
 _symmetry_equiv_pos_as_xyz
  1  'x, y, z'
loop_
 _atom_site_type_symbol
 _atom_site_label
 _atom_site_symmetry_multiplicity
 _atom_site_fract_x
 _atom_site_fract_y
 _atom_site_fract_z
 _atom_site_occupancy
  Ba  Ba0  1  0.00000000  0.00000000  0.99772921  1
  Ba  Ba1  1  0.00000000  0.00000000  0.19960106  1
  Ba  Ba2  1  0.00000000  0.00000000  0.40039894  1
  Ba  Ba3  1  0.00000000  0.00000000  0.60227079  1
  F  F4  1  0.50000000  0.50000000  0.80000000  1
  K  K5  1  0.00000000  0.00000000  0.80000000  1
  O  O6  1  0.00000000  0.50000000  0.10020328  1
  O  O7  1  0.00000000  0.50000000  0.30000000  1
  O  O8  1  0.00000000  0.50000000  0.49979672  1
  O  O9  1  0.00000000  0.50000000  0.69850295  1
  O  O10  1  0.00000000  0.50000000  0.90149705  1
  O  O11  1  0.50000000  0.00000000  0.10020328  1
  O  O12  1  0.50000000  0.50000000  1.00005732  1
  O  O13  1  0.50000000  0.00000000  0.30000000  1
  O  O14  1  0.50000000  0.00000000  0.49979672  1
  O  O15  1  0.50000000  0.50000000  0.40004466  1
  O  O16  1  0.50000000  0.50000000  0.19995534  1
  O  O17  1  0.50000000  0.00000000  0.69850295  1
  O  O18  1  0.50000000  0.00000000  0.90149705  1
  O  O19  1  0.50000000  0.50000000  0.59994268  1
  Ti  Ti20  1  0.50000000  0.50000000  0.10075120  1
  Ti  Ti21  1  0.50000000  0.50000000  0.49924880  1
  Ti  Ti22  1  0.50000000  0.50000000  0.30000000  1
  Ti  Ti23  1  0.50000000  0.50000000  0.90441174  1
  Ti  Ti24  1  0.50000000  0.50000000  0.69558826  1
