# generated using pymatgen
data_AgBiSe2
_symmetry_space_group_name_H-M   'P 1'
_cell_length_a   8.29070502
_cell_length_b   11.01813324
_cell_length_c   7.24400679
_cell_angle_alpha   29.15235564
_cell_angle_beta   55.10425590
_cell_angle_gamma   41.11351243
_symmetry_Int_Tables_number   1
_chemical_formula_structural   AgBiSe2
_chemical_formula_sum   'Ag2 Bi2 Se4'
_cell_volume   204.19997129
_cell_formula_units_Z   2
loop_
 _symmetry_equiv_pos_site_id
 _symmetry_equiv_pos_as_xyz
  1  'x, y, z'
loop_
 _atom_site_type_symbol
 _atom_site_label
 _atom_site_symmetry_multiplicity
 _atom_site_fract_x
 _atom_site_fract_y
 _atom_site_fract_z
 _atom_site_occupancy
  Ag  Ag0  1  0.49994051  0.00000321  0.00011214  1
  Ag  Ag1  1  0.25005949  0.49999679  0.99988786  1
  Bi  Bi2  1  0.99964829  -0.00001654  0.00073281  1
  Bi  Bi3  1  0.75035171  0.50001654  0.99926719  1
  Se  Se4  1  0.25041339  -0.00002549  0.49930562  1
  Se  Se5  1  0.74955735  0.00001510  0.50076185  1
  Se  Se6  1  0.49958661  0.50002549  0.50069438  1
  Se  Se7  1  0.00044265  0.49998490  0.49923815  1
