# generated using pymatgen
data_H2WO4
_symmetry_space_group_name_H-M   'P 1'
_cell_length_a   5.24636799
_cell_length_b   5.45552987
_cell_length_c   10.97686775
_cell_angle_alpha   90.00000000
_cell_angle_beta   90.00000000
_cell_angle_gamma   90.00000000
_symmetry_Int_Tables_number   1
_chemical_formula_structural   H2WO4
_chemical_formula_sum   'H8 W4 O16'
_cell_volume   314.17680534
_cell_formula_units_Z   4
loop_
 _symmetry_equiv_pos_site_id
 _symmetry_equiv_pos_as_xyz
  1  'x, y, z'
loop_
 _atom_site_type_symbol
 _atom_site_label
 _atom_site_symmetry_multiplicity
 _atom_site_fract_x
 _atom_site_fract_y
 _atom_site_fract_z
 _atom_site_occupancy
  H  H0  1  0.58039759  0.24999998  0.99079470  1
  H  H1  1  0.08039798  0.74999993  0.50920501  1
  H  H2  1  0.41960353  0.74999993  0.00920541  1
  H  H3  1  0.91960313  0.24999998  0.49079509  1
  H  H4  1  0.72770065  0.74999993  0.02416604  1
  H  H5  1  0.22770105  0.24999998  0.47583356  1
  H  H6  1  0.27229855  0.24999998  0.97583406  1
  H  H7  1  0.77229815  0.74999993  0.52416654  1
  O  O8  1  0.91968480  0.24999998  0.06676637  1
  O  O9  1  0.41968329  0.74999993  0.43323323  1
  O  O10  1  0.08031631  0.74999993  0.93323284  1
  O  O11  1  0.43656967  0.24999998  0.93300451  1
  O  O12  1  0.24748657  0.49966994  0.22537320  1
  O  O13  1  0.74748618  0.50032996  0.27462640  1
  O  O14  1  0.93656927  0.74999993  0.56699519  1
  O  O15  1  0.25251494  1.00032992  0.72537370  1
  O  O16  1  0.75251454  0.50032996  0.77462690  1
  O  O17  1  0.25251494  0.49966994  0.72537370  1
  O  O18  1  0.24748657  1.00032992  0.22537320  1
  O  O19  1  0.74748618  -0.00033001  0.27462640  1
  O  O20  1  0.56343145  0.74999993  0.06699559  1
  O  O21  1  0.06343185  0.24999998  0.43300401  1
  O  O22  1  0.58031592  0.24999998  0.56676687  1
  O  O23  1  0.75251454  -0.00033001  0.77462690  1
  W  W24  1  0.51252418  0.24999998  0.72469900  1
  W  W25  1  0.01252458  0.74999993  0.77530160  1
  W  W26  1  0.48747502  0.74999993  0.27530110  1
  W  W27  1  0.98747462  0.24999998  0.22469850  1
