# generated using pymatgen
data_Ca3(PO4)2
_symmetry_space_group_name_H-M   'P 1'
_cell_length_a   5.31411948
_cell_length_b   5.31411948
_cell_length_c   6.98753309
_cell_angle_alpha   67.65038340
_cell_angle_beta   67.65038340
_cell_angle_gamma   59.99999255
_symmetry_Int_Tables_number   1
_chemical_formula_structural   Ca3(PO4)2
_chemical_formula_sum   'Ca3 P2 O8'
_cell_volume   153.53566697
_cell_formula_units_Z   1
loop_
 _symmetry_equiv_pos_site_id
 _symmetry_equiv_pos_as_xyz
  1  'x, y, z'
loop_
 _atom_site_type_symbol
 _atom_site_label
 _atom_site_symmetry_multiplicity
 _atom_site_fract_x
 _atom_site_fract_y
 _atom_site_fract_z
 _atom_site_occupancy
  Ca  Ca0  1  0.00000000  -0.00000000  0.00000000  1
  Ca  Ca1  1  0.20415008  0.20415008  0.38754975  1
  Ca  Ca2  1  0.79584992  0.79584992  0.61245025  1
  P  P3  1  0.40487860  0.40487860  0.78536421  1
  P  P4  1  0.59512140  0.59512140  0.21463579  1
  O  O5  1  0.32316934  0.32316934  0.03049197  1
  O  O6  1  0.67683066  0.67683066  0.96950803  1
  O  O7  1  0.27260568  0.27260568  0.70223057  1
  O  O8  1  0.27260568  0.75255807  0.70223057  1
  O  O9  1  0.75255807  0.27260568  0.70223057  1
  O  O10  1  0.72739432  0.72739432  0.29776943  1
  O  O11  1  0.72739432  0.24744193  0.29776943  1
  O  O12  1  0.24744193  0.72739432  0.29776943  1
