# generated using pymatgen
data_CeMg
_symmetry_space_group_name_H-M   'P 1'
_cell_length_a   10.27883455
_cell_length_b   5.88299235
_cell_length_c   6.64735610
_cell_angle_alpha   90.00000000
_cell_angle_beta   124.21887844
_cell_angle_gamma   90.00000000
_symmetry_Int_Tables_number   1
_chemical_formula_structural   CeMg
_chemical_formula_sum   'Ce6 Mg6'
_cell_volume   332.38517235
_cell_formula_units_Z   6
loop_
 _symmetry_equiv_pos_site_id
 _symmetry_equiv_pos_as_xyz
  1  'x, y, z'
loop_
 _atom_site_type_symbol
 _atom_site_label
 _atom_site_symmetry_multiplicity
 _atom_site_fract_x
 _atom_site_fract_y
 _atom_site_fract_z
 _atom_site_occupancy
  Ce  Ce0  1  -0.00000000  0.66438769  -0.00000000  1
  Ce  Ce1  1  0.33404225  0.49863476  0.50436083  1
  Ce  Ce2  1  0.66595775  0.49863476  0.49563917  1
  Ce  Ce3  1  0.50000000  0.16438769  -0.00000000  1
  Ce  Ce4  1  0.83404225  0.99863476  0.50436083  1
  Ce  Ce5  1  0.16595775  0.99863476  0.49563917  1
  Mg  Mg6  1  0.66978912  0.67073312  0.99832874  1
  Mg  Mg7  1  0.33021088  0.67073312  0.00167126  1
  Mg  Mg8  1  -0.00000000  0.49687755  0.50000000  1
  Mg  Mg9  1  0.16978912  0.17073312  0.99832874  1
  Mg  Mg10  1  0.83021088  0.17073312  0.00167126  1
  Mg  Mg11  1  0.50000000  0.99687755  0.50000000  1
