# generated using pymatgen
data_Y2Cu2O5
_symmetry_space_group_name_H-M   'P 1'
_cell_length_a   6.26558928
_cell_length_b   7.19304331
_cell_length_c   11.24612508
_cell_angle_alpha   90.00000000
_cell_angle_beta   90.00000000
_cell_angle_gamma   90.00000000
_symmetry_Int_Tables_number   1
_chemical_formula_structural   Y2Cu2O5
_chemical_formula_sum   'Y8 Cu8 O20'
_cell_volume   506.84773192
_cell_formula_units_Z   4
loop_
 _symmetry_equiv_pos_site_id
 _symmetry_equiv_pos_as_xyz
  1  'x, y, z'
loop_
 _atom_site_type_symbol
 _atom_site_label
 _atom_site_symmetry_multiplicity
 _atom_site_fract_x
 _atom_site_fract_y
 _atom_site_fract_z
 _atom_site_occupancy
  Y  Y0  1  0.24999784  0.88016499  0.97864648  1
  Y  Y1  1  0.74999784  0.61983501  0.52135352  1
  Y  Y2  1  0.25000216  0.38016499  0.02135352  1
  Y  Y3  1  0.75000216  0.11983501  0.47864648  1
  Y  Y4  1  0.75000216  0.11983501  0.02135352  1
  Y  Y5  1  0.25000216  0.38016499  0.47864648  1
  Y  Y6  1  0.74999784  0.61983501  0.97864648  1
  Y  Y7  1  0.24999784  0.88016499  0.52135352  1
  Cu  Cu8  1  0.92858037  0.84882213  0.75000000  1
  Cu  Cu9  1  0.42858037  0.65117787  0.75000000  1
  Cu  Cu10  1  0.57141963  0.34882213  0.25000000  1
  Cu  Cu11  1  0.07141963  0.15117787  0.25000000  1
  Cu  Cu12  1  0.41166050  0.12739697  0.75000000  1
  Cu  Cu13  1  0.91166050  0.37260303  0.75000000  1
  Cu  Cu14  1  0.08833950  0.62739697  0.25000000  1
  Cu  Cu15  1  0.58833950  0.87260303  0.25000000  1
  O  O16  1  0.24549067  0.88063268  0.75000000  1
  O  O17  1  0.74549067  0.61936732  0.75000000  1
  O  O18  1  0.25450933  0.38063268  0.25000000  1
  O  O19  1  0.75450933  0.11936732  0.25000000  1
  O  O20  1  0.90385092  0.88609867  0.91166934  1
  O  O21  1  0.40385092  0.61390133  0.58833066  1
  O  O22  1  0.59614908  0.38609867  0.08833066  1
  O  O23  1  0.09614908  0.11390133  0.41166934  1
  O  O24  1  0.09614908  0.11390133  0.08833066  1
  O  O25  1  0.59614908  0.38609867  0.41166934  1
  O  O26  1  0.40385092  0.61390133  0.91166934  1
  O  O27  1  0.90385092  0.88609867  0.58833066  1
  O  O28  1  0.42979451  0.14327305  0.91405220  1
  O  O29  1  0.92979451  0.35672695  0.58594780  1
  O  O30  1  0.07020549  0.64327305  0.08594780  1
  O  O31  1  0.57020549  0.85672695  0.41405220  1
  O  O32  1  0.57020549  0.85672695  0.08594780  1
  O  O33  1  0.07020549  0.64327305  0.41405220  1
  O  O34  1  0.92979451  0.35672695  0.91405220  1
  O  O35  1  0.42979451  0.14327305  0.58594780  1
