# generated using pymatgen
data_SrLa7TiGa7O24
_symmetry_space_group_name_H-M   'P 1'
_cell_length_a   5.57701731
_cell_length_b   5.58696787
_cell_length_c   31.42748823
_cell_angle_alpha   90.00000000
_cell_angle_beta   89.99475999
_cell_angle_gamma   90.00000000
_symmetry_Int_Tables_number   1
_chemical_formula_structural   SrLa7TiGa7O24
_chemical_formula_sum   'Sr2 La14 Ti2 Ga14 O48'
_cell_volume   979.23705029
_cell_formula_units_Z   2
loop_
 _symmetry_equiv_pos_site_id
 _symmetry_equiv_pos_as_xyz
  1  'x, y, z'
loop_
 _atom_site_type_symbol
 _atom_site_label
 _atom_site_symmetry_multiplicity
 _atom_site_fract_x
 _atom_site_fract_y
 _atom_site_fract_z
 _atom_site_occupancy
  Sr  Sr0  1  0.01466785  0.99531085  0.06081593  1
  Sr  Sr1  1  0.48533215  0.49531085  0.18918407  1
  La  La2  1  0.02432265  0.99528954  0.31247296  1
  La  La3  1  0.02691099  0.99272628  0.56259045  1
  La  La4  1  0.02718428  0.99271285  0.81243803  1
  La  La5  1  0.47281572  0.49271285  0.43756197  1
  La  La6  1  0.47308901  0.49272628  0.68740955  1
  La  La7  1  0.47567735  0.49528954  0.93752704  1
  La  La8  1  0.52050507  0.50704071  0.05954798  1
  La  La9  1  0.52584087  0.50850075  0.31227366  1
  La  La10  1  0.52738796  0.50847789  0.81236289  1
  La  La11  1  0.52689338  0.50771746  0.56255445  1
  La  La12  1  0.97949493  0.00704071  0.19045202  1
  La  La13  1  0.97310662  0.00771746  0.68744555  1
  La  La14  1  0.97415913  0.00850075  0.93772634  1
  La  La15  1  0.97261204  0.00847789  0.43763711  1
  Ti  Ti16  1  0.00161730  0.50319157  0.12448100  1
  Ti  Ti17  1  0.49838270  0.00319157  0.12551900  1
  Ga  Ga18  1  0.99916492  0.50259970  0.99953755  1
  Ga  Ga19  1  0.00287891  0.49820247  0.25030761  1
  Ga  Ga20  1  0.99982992  0.50159232  0.37522963  1
  Ga  Ga21  1  0.99997975  0.50015121  0.62499761  1
  Ga  Ga22  1  0.00011584  0.50025439  0.74987154  1
  Ga  Ga23  1  0.00067121  0.50027439  0.87475664  1
  Ga  Ga24  1  0.49712109  0.99820247  0.99969239  1
  Ga  Ga25  1  0.49932879  0.00027439  0.37524336  1
  Ga  Ga26  1  0.50002025  0.00015121  0.62500239  1
  Ga  Ga27  1  0.50083508  0.00259970  0.25046245  1
  Ga  Ga28  1  0.50008743  0.00052004  0.74986655  1
  Ga  Ga29  1  0.50017008  0.00159232  0.87477037  1
  Ga  Ga30  1  0.49988416  0.00025439  0.50012846  1
  Ga  Ga31  1  0.99991257  0.50052004  0.50013345  1
  O  O32  1  0.00503383  0.56920450  0.18633569  1
  O  O33  1  0.01354175  0.57921126  0.43762370  1
  O  O34  1  0.01373957  0.57860154  0.68744682  1
  O  O35  1  0.01296804  0.57805077  0.93712029  1
  O  O36  1  0.22297909  0.22116013  0.24093568  1
  O  O37  1  0.22864090  0.22466986  0.13380732  1
  O  O38  1  0.22155859  0.22281584  0.38581681  1
  O  O39  1  0.22252622  0.22327740  0.73925110  1
  O  O40  1  0.22230193  0.22299792  0.63557155  1
  O  O41  1  0.22211786  0.22326073  0.48951330  1
  O  O42  1  0.22123379  0.22264200  0.88550613  1
  O  O43  1  0.22696060  0.22829957  0.99000117  1
  O  O44  1  0.27876621  0.72264200  0.36449387  1
  O  O45  1  0.27135910  0.72466986  0.11619268  1
  O  O46  1  0.27702091  0.72116013  0.00906432  1
  O  O47  1  0.27303940  0.72829957  0.25999883  1
  O  O48  1  0.27769807  0.72299792  0.61442845  1
  O  O49  1  0.27747378  0.72327740  0.51074890  1
  O  O50  1  0.27844141  0.72281584  0.86418319  1
  O  O51  1  0.27788214  0.72326073  0.76048670  1
  O  O52  1  0.49496617  0.06920450  0.06366431  1
  O  O53  1  0.48703196  0.07805077  0.31287971  1
  O  O54  1  0.48645825  0.07921126  0.81237630  1
  O  O55  1  0.48626043  0.07860154  0.56255318  1
  O  O56  1  0.50946024  0.94122499  0.18638812  1
  O  O57  1  0.51383149  0.92191554  0.43766553  1
  O  O58  1  0.51372499  0.92181602  0.68744291  1
  O  O59  1  0.51209506  0.92550496  0.93703325  1
  O  O60  1  0.73944485  0.25521153  0.13326171  1
  O  O61  1  0.73618514  0.26412755  0.24110228  1
  O  O62  1  0.72210701  0.27765674  0.48950884  1
  O  O63  1  0.72185736  0.27810238  0.38570534  1
  O  O64  1  0.72249091  0.27739701  0.73922354  1
  O  O65  1  0.72234593  0.27726628  0.63556666  1
  O  O66  1  0.72479814  0.27279938  0.99061277  1
  O  O67  1  0.72247687  0.27822566  0.88557559  1
  O  O68  1  0.77520186  0.77279938  0.25938723  1
  O  O69  1  0.76055515  0.75521153  0.11673829  1
  O  O70  1  0.76381486  0.76412755  0.00889772  1
  O  O71  1  0.77752313  0.77822566  0.36442441  1
  O  O72  1  0.77765407  0.77726628  0.61443334  1
  O  O73  1  0.77814264  0.77810238  0.86429466  1
  O  O74  1  0.77750909  0.77739701  0.51077646  1
  O  O75  1  0.77789299  0.77765674  0.76049116  1
  O  O76  1  0.98790494  0.42550496  0.31296675  1
  O  O77  1  0.99053976  0.44122499  0.06361188  1
  O  O78  1  0.98616851  0.42191554  0.81233447  1
  O  O79  1  0.98627501  0.42181602  0.56255709  1
