# generated using pymatgen
data_Cu2H3ClO3
_symmetry_space_group_name_H-M   'P 1'
_cell_length_a   6.08607306
_cell_length_b   6.93562356
_cell_length_c   9.11364183
_cell_angle_alpha   90.00000000
_cell_angle_beta   90.00000000
_cell_angle_gamma   90.00000000
_symmetry_Int_Tables_number   1
_chemical_formula_structural   Cu2H3ClO3
_chemical_formula_sum   'Cu8 H12 Cl4 O12'
_cell_volume   384.69330785
_cell_formula_units_Z   4
loop_
 _symmetry_equiv_pos_site_id
 _symmetry_equiv_pos_as_xyz
  1  'x, y, z'
loop_
 _atom_site_type_symbol
 _atom_site_label
 _atom_site_symmetry_multiplicity
 _atom_site_fract_x
 _atom_site_fract_y
 _atom_site_fract_z
 _atom_site_occupancy
  Cu  Cu0  1  0.18639366  0.24999900  0.25930483  1
  Cu  Cu1  1  0.31360634  0.75000000  0.75930483  1
  Cu  Cu2  1  0.68639266  0.24999900  0.24069417  1
  Cu  Cu3  1  0.81360734  0.75000000  0.74069417  1
  Cu  Cu4  1  0.00000000  -0.00000000  0.00000000  1
  Cu  Cu5  1  0.50000000  -0.00000000  0.50000000  1
  Cu  Cu6  1  0.50000000  0.49999900  0.50000000  1
  Cu  Cu7  1  -0.00000000  0.49999900  0.00000000  1
  H  H8  1  0.42059599  0.95210609  0.22472111  1
  H  H9  1  0.07940301  0.04789091  0.72472111  1
  H  H10  1  0.92059599  0.54789191  0.27527789  1
  H  H11  1  0.57940301  0.45210709  0.77527889  1
  H  H12  1  0.57940301  0.04789091  0.77527889  1
  H  H13  1  0.92059599  0.95210609  0.27527789  1
  H  H14  1  0.07940301  0.45210709  0.72472111  1
  H  H15  1  0.42059599  0.54789191  0.22472111  1
  H  H16  1  0.29690532  0.24999900  0.95334755  1
  H  H17  1  0.20309568  0.75000000  0.45334755  1
  H  H18  1  0.79690532  0.24999900  0.54665245  1
  H  H19  1  0.70309568  0.75000000  0.04665245  1
  Cl  Cl20  1  0.36451912  0.75000000  0.06344302  1
  Cl  Cl21  1  0.13548088  0.24999900  0.56344302  1
  Cl  Cl22  1  0.86452012  0.75000000  0.43655698  1
  Cl  Cl23  1  0.63547988  0.24999900  0.93655698  1
  O  O24  1  0.43648174  0.06477391  0.29205100  1
  O  O25  1  0.06351826  0.93522709  0.79205100  1
  O  O26  1  0.93648074  0.43522709  0.20794800  1
  O  O27  1  0.56351926  0.56477191  0.70794900  1
  O  O28  1  0.56351926  0.93522709  0.70794900  1
  O  O29  1  0.93648074  0.06477391  0.20794800  1
  O  O30  1  0.06351826  0.56477191  0.79205100  1
  O  O31  1  0.43648174  0.43522709  0.29205100  1
  O  O32  1  0.14869775  0.24999900  0.99834036  1
  O  O33  1  0.35130225  0.75000000  0.49834036  1
  O  O34  1  0.64869775  0.24999900  0.50165964  1
  O  O35  1  0.85130125  0.75000000  0.00166064  1
