# generated using pymatgen
data_RbIn(WO4)2
_symmetry_space_group_name_H-M   'P 1'
_cell_length_a   5.97877697
_cell_length_b   5.97877717
_cell_length_c   7.90659282
_cell_angle_alpha   90.00000000
_cell_angle_beta   90.00000000
_cell_angle_gamma   120.00000448
_symmetry_Int_Tables_number   1
_chemical_formula_structural   RbIn(WO4)2
_chemical_formula_sum   'Rb1 In1 W2 O8'
_cell_volume   244.76240190
_cell_formula_units_Z   1
loop_
 _symmetry_equiv_pos_site_id
 _symmetry_equiv_pos_as_xyz
  1  'x, y, z'
loop_
 _atom_site_type_symbol
 _atom_site_label
 _atom_site_symmetry_multiplicity
 _atom_site_fract_x
 _atom_site_fract_y
 _atom_site_fract_z
 _atom_site_occupancy
  O  O0  1  0.83460284  0.16539716  0.83458898  1
  O  O1  1  0.83460284  0.66920768  0.83458898  1
  O  O2  1  0.33079332  0.16539716  0.83458898  1
  O  O3  1  0.66920668  0.83460284  0.16541102  1
  O  O4  1  0.33333400  0.66666700  0.46025015  1
  O  O5  1  0.66666600  0.33333400  0.53974985  1
  O  O6  1  0.16539616  0.33079332  0.16541102  1
  O  O7  1  0.16539616  0.83460284  0.16541102  1
  Rb  Rb8  1  0.00000000  0.00000000  0.50000100  1
  In  In9  1  0.00000000  0.00000000  0.00000000  1
  W  W10  1  0.33333400  0.66666700  0.23564953  1
  W  W11  1  0.66666600  0.33333400  0.76435047  1
