# generated using pymatgen
data_Li4Mg23B54
_symmetry_space_group_name_H-M   'P 1'
_cell_length_a   3.06427075
_cell_length_b   3.06427083
_cell_length_c   95.06446101
_cell_angle_alpha   90.00000000
_cell_angle_beta   90.00000000
_cell_angle_gamma   119.99999927
_symmetry_Int_Tables_number   1
_chemical_formula_structural   Li4Mg23B54
_chemical_formula_sum   'Li4 Mg23 B54'
_cell_volume   773.04203063
_cell_formula_units_Z   1
loop_
 _symmetry_equiv_pos_site_id
 _symmetry_equiv_pos_as_xyz
  1  'x, y, z'
loop_
 _atom_site_type_symbol
 _atom_site_label
 _atom_site_symmetry_multiplicity
 _atom_site_fract_x
 _atom_site_fract_y
 _atom_site_fract_z
 _atom_site_occupancy
  B  B0  1  0.33333300  0.66666700  0.01834418  1
  B  B1  1  0.33333300  0.66666700  0.09253686  1
  B  B2  1  0.33333300  0.66666700  0.05543668  1
  B  B3  1  0.33333300  0.66666700  0.16668985  1
  B  B4  1  0.33333300  0.66666700  0.12962330  1
  B  B5  1  0.33333300  0.66666700  0.20371794  1
  B  B6  1  0.33333300  0.66666700  0.24075920  1
  B  B7  1  0.33333300  0.66666700  0.27778215  1
  B  B8  1  0.33333300  0.66666700  0.31481085  1
  B  B9  1  0.33333300  0.66666700  0.35183380  1
  B  B10  1  0.33333300  0.66666700  0.38887506  1
  B  B11  1  0.33333300  0.66666700  0.42590315  1
  B  B12  1  0.33333300  0.66666700  0.50005614  1
  B  B13  1  0.33333300  0.66666700  0.46296970  1
  B  B14  1  0.33333300  0.66666700  0.57424882  1
  B  B15  1  0.33333300  0.66666700  0.53715632  1
  B  B16  1  0.33333300  0.66666700  0.61137788  1
  B  B17  1  0.33333300  0.66666700  0.68514183  1
  B  B18  1  0.33333300  0.66666700  0.64789459  1
  B  B19  1  0.33333300  0.66666700  0.72243311  1
  B  B20  1  0.33333300  0.66666700  0.79629600  1
  B  B21  1  0.33333300  0.66666700  0.75910459  1
  B  B22  1  0.33333300  0.66666700  0.87015889  1
  B  B23  1  0.33333300  0.66666700  0.83348741  1
  B  B24  1  0.33333300  0.66666700  0.90745017  1
  B  B25  1  0.33333300  0.66666700  0.94469741  1
  B  B26  1  0.33333300  0.66666700  0.98121412  1
  B  B27  1  0.66666700  0.33333300  0.01834418  1
  B  B28  1  0.66666700  0.33333300  0.05543668  1
  B  B29  1  0.66666700  0.33333300  0.09253686  1
  B  B30  1  0.66666700  0.33333300  0.12962330  1
  B  B31  1  0.66666700  0.33333300  0.16668985  1
  B  B32  1  0.66666700  0.33333300  0.20371794  1
  B  B33  1  0.66666700  0.33333300  0.27778215  1
  B  B34  1  0.66666700  0.33333300  0.31481085  1
  B  B35  1  0.66666700  0.33333300  0.24075920  1
  B  B36  1  0.66666700  0.33333300  0.35183380  1
  B  B37  1  0.66666700  0.33333300  0.38887506  1
  B  B38  1  0.66666700  0.33333300  0.42590315  1
  B  B39  1  0.66666700  0.33333300  0.46296970  1
  B  B40  1  0.66666700  0.33333300  0.50005614  1
  B  B41  1  0.66666700  0.33333300  0.53715632  1
  B  B42  1  0.66666700  0.33333300  0.57424882  1
  B  B43  1  0.66666700  0.33333300  0.61137788  1
  B  B44  1  0.66666700  0.33333300  0.64789459  1
  B  B45  1  0.66666700  0.33333300  0.68514183  1
  B  B46  1  0.66666700  0.33333300  0.72243311  1
  B  B47  1  0.66666700  0.33333300  0.75910459  1
  B  B48  1  0.66666700  0.33333300  0.79629600  1
  B  B49  1  0.66666700  0.33333300  0.83348741  1
  B  B50  1  0.66666700  0.33333300  0.87015889  1
  B  B51  1  0.66666700  0.33333300  0.90745017  1
  B  B52  1  0.66666700  0.33333300  0.94469741  1
  B  B53  1  0.66666700  0.33333300  0.98121412  1
  Li  Li54  1  0.00000000  0.00000000  0.85186279  1
  Li  Li55  1  0.00000000  0.00000000  0.62963869  1
  Li  Li56  1  0.00000000  0.00000000  0.74073021  1
  Li  Li57  1  0.00000000  0.00000000  0.96295431  1
  Mg  Mg58  1  0.00000000  0.00000000  0.99956838  1
  Mg  Mg59  1  0.00000000  0.00000000  0.55567852  1
  Mg  Mg60  1  0.00000000  0.00000000  0.70410128  1
  Mg  Mg61  1  0.00000000  0.00000000  0.25927434  1
  Mg  Mg62  1  0.00000000  0.00000000  0.40740634  1
  Mg  Mg63  1  0.00000000  0.00000000  0.51858666  1
  Mg  Mg64  1  0.00000000  0.00000000  0.81518309  1
  Mg  Mg65  1  0.00000000  0.00000000  0.92633558  1
  Mg  Mg66  1  0.00000000  0.00000000  0.03691448  1
  Mg  Mg67  1  0.00000000  0.00000000  0.07400634  1
  Mg  Mg68  1  0.00000000  0.00000000  0.11108284  1
  Mg  Mg69  1  0.00000000  0.00000000  0.14817764  1
  Mg  Mg70  1  0.00000000  0.00000000  0.18518566  1
  Mg  Mg71  1  0.00000000  0.00000000  0.22222939  1
  Mg  Mg72  1  0.00000000  0.00000000  0.29629600  1
  Mg  Mg73  1  0.00000000  0.00000000  0.33331766  1
  Mg  Mg74  1  0.00000000  0.00000000  0.37036261  1
  Mg  Mg75  1  0.00000000  0.00000000  0.44441436  1
  Mg  Mg76  1  0.00000000  0.00000000  0.48150916  1
  Mg  Mg77  1  0.00000000  0.00000000  0.59302462  1
  Mg  Mg78  1  0.00000000  0.00000000  0.66625742  1
  Mg  Mg79  1  0.00000000  0.00000000  0.77740991  1
  Mg  Mg80  1  0.00000000  0.00000000  0.88849172  1
