# generated using pymatgen
data_Sb(PO3)4
_symmetry_space_group_name_H-M   'P 1'
_cell_length_a   7.15356817
_cell_length_b   8.47060051
_cell_length_c   7.54064270
_cell_angle_alpha   90.00000000
_cell_angle_beta   91.49916851
_cell_angle_gamma   90.00000000
_symmetry_Int_Tables_number   1
_chemical_formula_structural   Sb(PO3)4
_chemical_formula_sum   'Sb2 P8 O24'
_cell_volume   456.76897806
_cell_formula_units_Z   2
loop_
 _symmetry_equiv_pos_site_id
 _symmetry_equiv_pos_as_xyz
  1  'x, y, z'
loop_
 _atom_site_type_symbol
 _atom_site_label
 _atom_site_symmetry_multiplicity
 _atom_site_fract_x
 _atom_site_fract_y
 _atom_site_fract_z
 _atom_site_occupancy
  O  O0  1  0.01134887  0.19210760  0.79115955  1
  O  O1  1  0.00062715  0.30738237  0.09252857  1
  O  O2  1  0.02712253  0.20078083  0.45268507  1
  O  O3  1  0.08375127  0.98278660  0.17934738  1
  O  O4  1  0.18402968  0.98517661  0.64408840  1
  O  O5  1  0.16789258  0.48963066  0.39372375  1
  O  O6  1  0.30184762  0.76970763  0.07507493  1
  O  O7  1  0.33698907  0.46645150  0.06324914  1
  O  O8  1  0.39979584  0.06367265  0.39663138  1
  O  O9  1  0.40515237  0.14753337  0.04379928  1
  O  O10  1  0.47528326  0.14072381  0.71747582  1
  O  O11  1  0.48747697  0.84928442  0.62329300  1
  O  O12  1  0.51252303  0.34928442  0.37670700  1
  O  O13  1  0.52471674  0.64072381  0.28252418  1
  O  O14  1  0.59484763  0.64753337  0.95620072  1
  O  O15  1  0.60020416  0.56367265  0.60336862  1
  O  O16  1  0.66301093  0.96645150  0.93675086  1
  O  O17  1  0.69815238  0.26970763  0.92492507  1
  O  O18  1  0.83210742  0.98963066  0.60627625  1
  O  O19  1  0.81597032  0.48517661  0.35591160  1
  O  O20  1  0.91624873  0.48278660  0.82065262  1
  O  O21  1  0.97287747  0.70078083  0.54731493  1
  O  O22  1  0.99937285  0.80738237  0.90747143  1
  O  O23  1  0.98865113  0.69210760  0.20884045  1
  P  P24  1  0.00383911  0.09373881  0.60970629  1
  P  P25  1  0.99616089  0.59373881  0.39029371  1
  P  P26  1  0.08597981  0.82626303  0.09302227  1
  P  P27  1  0.39589211  0.00645156  0.58482110  1
  P  P28  1  0.43776665  0.62203009  0.08270883  1
  P  P29  1  0.56223335  0.12203009  0.91729117  1
  P  P30  1  0.60410789  0.50645156  0.41517890  1
  P  P31  1  0.91402019  0.32626303  0.90697773  1
  Sb  Sb32  1  0.24997973  0.26608548  0.24845464  1
  Sb  Sb33  1  0.75002027  0.76608548  0.75154536  1
