# generated using pymatgen
data_Li2PdO3
_symmetry_space_group_name_H-M   'P 1'
_cell_length_a   5.20071869
_cell_length_b   5.19563656
_cell_length_c   31.15300481
_cell_angle_alpha   119.24482860
_cell_angle_beta   100.29628762
_cell_angle_gamma   100.44628236
_symmetry_Int_Tables_number   1
_chemical_formula_structural   Li2PdO3
_chemical_formula_sum   'Li24 Pd12 O36'
_cell_volume   686.37323752
_cell_formula_units_Z   12
loop_
 _symmetry_equiv_pos_site_id
 _symmetry_equiv_pos_as_xyz
  1  'x, y, z'
loop_
 _atom_site_type_symbol
 _atom_site_label
 _atom_site_symmetry_multiplicity
 _atom_site_fract_x
 _atom_site_fract_y
 _atom_site_fract_z
 _atom_site_occupancy
  Li  Li0  1  0.01365388  0.30550147  0.94037818  1
  Li  Li1  1  0.00641096  0.01385131  0.83857612  1
  Li  Li2  1  1.00001947  0.00551624  0.66844063  1
  Li  Li3  1  0.50925412  0.86969171  0.86720559  1
  Li  Li4  1  0.49050791  0.17698953  0.97175286  1
  Li  Li5  1  0.52036449  0.46362625  0.91442340  1
  Li  Li6  1  0.00055495  0.00513332  0.50145741  1
  Li  Li7  1  0.49886734  0.85478946  0.69891391  1
  Li  Li8  1  0.50591491  0.17844988  0.81166713  1
  Li  Li9  1  0.51439893  0.51509265  0.75388268  1
  Li  Li10  1  0.99654825  0.32505592  0.27417831  1
  Li  Li11  1  0.49333278  0.85482771  0.53169885  1
  Li  Li12  1  0.49600544  0.18341419  0.64354675  1
  Li  Li13  1  0.51266134  0.51492951  0.58826750  1
  Li  Li14  1  -0.00561817  0.35277159  0.11070238  1
  Li  Li15  1  0.49351663  0.79319558  0.35518860  1
  Li  Li16  1  0.50403630  0.17561318  0.47729320  1
  Li  Li17  1  0.50281679  0.53171913  0.42031089  1
  Li  Li18  1  0.47741037  0.81443558  0.18584150  1
  Li  Li19  1  0.49717491  0.14636530  0.29698177  1
  Li  Li20  1  0.50487412  0.46884767  0.24265953  1
  Li  Li21  1  0.46747023  0.50260415  0.08174277  1
  Li  Li22  1  0.47900610  0.14464171  0.13578445  1
  Li  Li23  1  0.01458981  0.66746638  0.05570995  1
  O  O24  1  0.24736948  0.77657856  0.96299005  1
  O  O25  1  0.25455318  0.06368831  0.90268723  1
  O  O26  1  0.24130618  0.42587091  0.84635253  1
  O  O27  1  0.23842103  0.72549805  0.78745124  1
  O  O28  1  0.23672226  0.07837728  0.73787569  1
  O  O29  1  0.23491769  0.42615718  0.67918013  1
  O  O30  1  0.23454256  0.73112959  0.62150347  1
  O  O31  1  0.23334043  0.07898464  0.57124348  1
  O  O32  1  0.23037941  0.42901682  0.51305838  1
  O  O33  1  0.23410929  0.73670299  0.45619857  1
  O  O34  1  0.77437697  0.89462641  0.93037663  1
  O  O35  1  0.75126342  0.61799369  0.99072703  1
  O  O36  1  0.23357769  0.41487110  0.34926979  1
  O  O37  1  0.22922348  0.08374023  0.40280986  1
  O  O38  1  0.23674023  0.77068914  0.29206012  1
  O  O39  1  0.76589460  0.26001347  0.87591537  1
  O  O40  1  0.77438515  0.91097185  0.76162593  1
  O  O41  1  0.78054484  0.56644337  0.82074593  1
  O  O42  1  0.23518825  0.07153807  0.23167585  1
  O  O43  1  0.22503455  0.41799112  0.18083265  1
  O  O44  1  0.22399210  0.76465844  0.12570014  1
  O  O45  1  0.76176034  0.26329612  0.71084501  1
  O  O46  1  0.76910109  0.91497097  0.59495927  1
  O  O47  1  0.76885129  0.56733607  0.65209829  1
  O  O48  1  0.26028151  0.07996825  0.06634598  1
  O  O49  1  0.22952915  0.42054091  0.01231967  1
  O  O50  1  0.75830403  0.26409797  0.54390645  1
  O  O51  1  0.76447457  0.91794706  0.42812367  1
  O  O52  1  0.76318202  0.56589233  0.48542364  1
  O  O53  1  0.76984153  0.24960968  0.37517008  1
  O  O54  1  0.76936623  0.90569193  0.26463629  1
  O  O55  1  0.76676576  0.59527046  0.32138422  1
  O  O56  1  0.76538073  0.26344463  0.20698610  1
  O  O57  1  0.70518224  0.90557567  0.09940298  1
  O  O58  1  0.76419840  0.60690015  0.15588916  1
  O  O59  1  0.75287142  0.21495848  0.03873874  1
  Pd  Pd60  1  1.00281998  0.66411287  0.72204968  1
  Pd  Pd61  1  1.00590644  0.32971368  0.77800929  1
  Pd  Pd62  1  0.99833405  0.66692329  0.55567084  1
  Pd  Pd63  1  1.00011422  0.33199924  0.61107227  1
  Pd  Pd64  1  -0.00066224  0.66568162  0.38864031  1
  Pd  Pd65  1  0.99760259  0.33587018  0.44536074  1
  Pd  Pd66  1  0.00154978  0.99643634  0.33193145  1
  Pd  Pd67  1  0.99959781  0.66819303  0.22111265  1
  Pd  Pd68  1  -0.00527451  0.99928294  0.16398132  1
  Pd  Pd69  1  0.00982434  0.66136746  0.88903996  1
  Pd  Pd70  1  0.00451514  0.00448116  0.00083342  1
  Pd  Pd71  1  0.50692743  0.83036686  0.02918409  1
