# generated using pymatgen
data_LiCuPO4
_symmetry_space_group_name_H-M   'P 1'
_cell_length_a   6.45488236
_cell_length_b   9.25373094
_cell_length_c   4.87457947
_cell_angle_alpha   90.00000000
_cell_angle_beta   96.87201793
_cell_angle_gamma   90.00000000
_symmetry_Int_Tables_number   1
_chemical_formula_structural   LiCuPO4
_chemical_formula_sum   'Li4 Cu4 P4 O16'
_cell_volume   289.07536066
_cell_formula_units_Z   4
loop_
 _symmetry_equiv_pos_site_id
 _symmetry_equiv_pos_as_xyz
  1  'x, y, z'
loop_
 _atom_site_type_symbol
 _atom_site_label
 _atom_site_symmetry_multiplicity
 _atom_site_fract_x
 _atom_site_fract_y
 _atom_site_fract_z
 _atom_site_occupancy
  Cu  Cu0  1  0.00000000  0.50000000  0.50000000  1
  Cu  Cu1  1  0.00000000  0.00000000  0.00000000  1
  Cu  Cu2  1  0.50000000  0.50000000  0.50000000  1
  Cu  Cu3  1  0.50000000  0.00000000  0.00000000  1
  Li  Li4  1  0.18143183  0.14859889  0.52598028  1
  Li  Li5  1  0.31856817  0.64859889  0.97401972  1
  Li  Li6  1  0.68143183  0.35140111  0.02598028  1
  Li  Li7  1  0.81856817  0.85140111  0.47401972  1
  O  O8  1  -0.01070035  0.38130840  0.16571366  1
  O  O9  1  0.11406845  0.90469820  0.34550405  1
  O  O10  1  0.16325578  0.34605915  0.71675696  1
  O  O11  1  0.20013899  0.16002101  0.10428013  1
  O  O12  1  0.29986101  0.66002101  0.39571987  1
  O  O13  1  0.33674422  0.84605915  0.78324304  1
  O  O14  1  0.38593155  0.40469820  0.15449595  1
  O  O15  1  0.48929965  0.11869160  0.66571366  1
  O  O16  1  0.51070035  0.88130840  0.33428634  1
  O  O17  1  0.61406845  0.59530180  0.84550405  1
  O  O18  1  0.66325578  0.15394085  0.21675696  1
  O  O19  1  0.70013899  0.33997899  0.60428013  1
  O  O20  1  0.79986101  0.83997899  0.89571987  1
  O  O21  1  0.83674422  0.65394085  0.28324304  1
  O  O22  1  0.88593155  0.09530180  0.65449595  1
  O  O23  1  1.01070035  0.61869160  0.83428634  1
  P  P24  1  0.18132095  0.32564210  0.03537727  1
  P  P25  1  0.31867905  0.82564210  0.46462273  1
  P  P26  1  0.68132095  0.17435790  0.53537727  1
  P  P27  1  0.81867905  0.67435790  0.96462273  1
