# generated using pymatgen
data_LiCrPO4
_symmetry_space_group_name_H-M   'P 1'
_cell_length_a   7.62313763
_cell_length_b   7.62609131
_cell_length_c   9.53012560
_cell_angle_alpha   90.02766323
_cell_angle_beta   89.98616307
_cell_angle_gamma   120.01281245
_symmetry_Int_Tables_number   1
_chemical_formula_structural   LiCrPO4
_chemical_formula_sum   'Li6 Cr6 P6 O24'
_cell_volume   479.74326016
_cell_formula_units_Z   6
loop_
 _symmetry_equiv_pos_site_id
 _symmetry_equiv_pos_as_xyz
  1  'x, y, z'
loop_
 _atom_site_type_symbol
 _atom_site_label
 _atom_site_symmetry_multiplicity
 _atom_site_fract_x
 _atom_site_fract_y
 _atom_site_fract_z
 _atom_site_occupancy
  Cr  Cr0  1  0.05244251  0.58317236  0.47901806  1
  Cr  Cr1  1  0.53255058  0.94879943  0.47831299  1
  Cr  Cr2  1  0.41665245  0.46835044  0.47871523  1
  Cr  Cr3  1  0.46744942  0.41624885  0.97831299  1
  Cr  Cr4  1  0.58334755  0.05169800  0.97871523  1
  Cr  Cr5  1  0.94755749  0.53072885  0.97901806  1
  Li  Li6  1  0.20652501  0.95862506  0.26018707  1
  Li  Li7  1  0.04123171  0.24792368  0.26027914  1
  Li  Li8  1  0.24798809  0.04123605  0.76023890  1
  Li  Li9  1  0.75201191  0.79324896  0.26023890  1
  Li  Li10  1  0.79347499  0.75210004  0.76018707  1
  Li  Li11  1  0.95876829  0.20669097  0.76027914  1
  O  O12  1  0.10803965  0.88613342  0.45357956  1
  O  O13  1  0.16084676  0.70320569  0.13344109  1
  O  O14  1  0.12683619  0.49193232  0.82907904  1
  O  O15  1  0.36479190  0.87331126  0.82863680  1
  O  O16  1  0.33242411  0.66627303  0.61289243  1
  O  O17  1  0.33353310  0.66665462  0.35047505  1
  O  O18  1  0.00015099  0.00008940  0.67176742  1
  O  O19  1  0.11373864  0.22192182  0.45377184  1
  O  O20  1  0.29625824  0.45750411  0.13327745  1
  O  O21  1  0.54220393  0.83874717  0.13324718  1
  O  O22  1  0.22212067  0.11380061  0.95390123  1
  O  O23  1  0.50842588  0.63559989  0.82841475  1
  O  O24  1  0.45779607  0.29654324  0.63324718  1
  O  O25  1  0.77787933  0.89168094  0.45390123  1
  O  O26  1  0.63520810  0.50851936  0.32863680  1
  O  O27  1  0.49157412  0.12717301  0.32841475  1
  O  O28  1  0.99984901  0.99993841  0.17176742  1
  O  O29  1  0.66646690  0.33312351  0.85047505  1
  O  O30  1  0.66757589  0.33384892  0.11289243  1
  O  O31  1  0.89196035  0.77809378  0.95357956  1
  O  O32  1  0.83915324  0.54235993  0.63344109  1
  O  O33  1  0.70374176  0.16124487  0.63327745  1
  O  O34  1  0.87316381  0.36509613  0.32907904  1
  O  O35  1  0.88626136  0.10818318  0.95377184  1
  P  P36  1  0.33317233  0.66681054  0.77799969  1
  P  P37  1  0.33318136  0.66653849  0.18098394  1
  P  P38  1  0.00007586  0.99996558  0.50895212  1
  P  P39  1  0.99992414  0.99989172  0.00895212  1
  P  P40  1  0.66681864  0.33335613  0.68098394  1
  P  P41  1  0.66682767  0.33363821  0.27799969  1
