# generated using pymatgen
data_LiCo(PO3)4
_symmetry_space_group_name_H-M   'P 1'
_cell_length_a   5.19977725
_cell_length_b   13.69065365
_cell_length_c   7.10841433
_cell_angle_alpha   90.00000000
_cell_angle_beta   97.40478653
_cell_angle_gamma   90.00000000
_symmetry_Int_Tables_number   1
_chemical_formula_structural   LiCo(PO3)4
_chemical_formula_sum   'Li2 Co2 P8 O24'
_cell_volume   501.81614183
_cell_formula_units_Z   2
loop_
 _symmetry_equiv_pos_site_id
 _symmetry_equiv_pos_as_xyz
  1  'x, y, z'
loop_
 _atom_site_type_symbol
 _atom_site_label
 _atom_site_symmetry_multiplicity
 _atom_site_fract_x
 _atom_site_fract_y
 _atom_site_fract_z
 _atom_site_occupancy
  Li  Li0  1  0.62192464  0.99320384  0.13664956  1
  Li  Li1  1  0.37807536  0.49320384  0.86335044  1
  Co  Co2  1  0.51713550  0.76302637  0.50567606  1
  Co  Co3  1  0.48286450  0.26302637  0.49432394  1
  P  P4  1  0.22216427  0.67819683  0.11357094  1
  P  P5  1  0.99740633  0.12308883  0.53726463  1
  P  P6  1  0.02938568  0.90181259  0.54079370  1
  P  P7  1  0.97061432  0.40181259  0.45920630  1
  P  P8  1  0.85994724  0.83063710  0.89668544  1
  P  P9  1  0.00259367  0.62308883  0.46273537  1
  P  P10  1  0.14005276  0.33063710  0.10331456  1
  P  P11  1  0.77783573  0.17819683  0.88642906  1
  O  O12  1  0.95513588  0.23958722  0.04383694  1
  O  O13  1  0.03387812  0.89456903  0.76765076  1
  O  O14  1  0.78295896  0.18247346  0.42987981  1
  O  O15  1  0.72982482  0.63652740  0.50741968  1
  O  O16  1  0.37281668  0.28916613  0.22971839  1
  O  O17  1  0.69837443  0.39345956  0.50708200  1
  O  O18  1  0.21704104  0.68247346  0.57012019  1
  O  O19  1  0.39420971  0.74764113  0.24007583  1
  O  O20  1  0.82572243  0.83465060  0.44309628  1
  O  O21  1  0.17427757  0.33465060  0.55690372  1
  O  O22  1  0.00898762  0.63190111  0.23739204  1
  O  O23  1  0.34837606  0.60007247  0.01474836  1
  O  O24  1  0.99101238  0.13190111  0.76260796  1
  O  O25  1  0.30162557  0.89345956  0.49291800  1
  O  O26  1  0.62718332  0.78916613  0.77028161  1
  O  O27  1  0.65162394  0.10007247  0.98525164  1
  O  O28  1  0.27017518  0.13652740  0.49258032  1
  O  O29  1  0.96612188  0.39456903  0.23234924  1
  O  O30  1  0.81265205  0.89047191  0.06146700  1
  O  O31  1  0.60579029  0.24764113  0.75992417  1
  O  O32  1  0.04486412  0.73958722  0.95616306  1
  O  O33  1  0.08263448  0.51036343  0.50855068  1
  O  O34  1  0.91736552  0.01036343  0.49144932  1
  O  O35  1  0.18734795  0.39047191  0.93853300  1
