# generated using pymatgen
data_K2U7O22
_symmetry_space_group_name_H-M   'P 1'
_cell_length_a   6.98241206
_cell_length_b   7.36974728
_cell_length_c   19.78731977
_cell_angle_alpha   90.00000000
_cell_angle_beta   90.00000000
_cell_angle_gamma   90.00000000
_symmetry_Int_Tables_number   1
_chemical_formula_structural   K2U7O22
_chemical_formula_sum   'K4 U14 O44'
_cell_volume   1018.22801624
_cell_formula_units_Z   2
loop_
 _symmetry_equiv_pos_site_id
 _symmetry_equiv_pos_as_xyz
  1  'x, y, z'
loop_
 _atom_site_type_symbol
 _atom_site_label
 _atom_site_symmetry_multiplicity
 _atom_site_fract_x
 _atom_site_fract_y
 _atom_site_fract_z
 _atom_site_occupancy
  K  K0  1  0.82121528  0.50000000  0.69199451  1
  K  K1  1  0.32121528  0.50000000  0.80800549  1
  K  K2  1  0.17878472  0.50000000  0.30800549  1
  K  K3  1  0.67878472  0.50000000  0.19199451  1
  U  U4  1  0.00000000  0.00000000  0.00000000  1
  U  U5  1  0.50000000  0.00000000  0.50000000  1
  U  U6  1  0.02819100  0.00000000  0.78465823  1
  U  U7  1  0.52819100  0.00000000  0.71534177  1
  U  U8  1  0.97180900  0.00000000  0.21534177  1
  U  U9  1  0.47180900  0.00000000  0.28465823  1
  U  U10  1  0.05638927  0.00000000  0.59696731  1
  U  U11  1  0.55638927  0.00000000  0.90303269  1
  U  U12  1  0.94361073  0.00000000  0.40303269  1
  U  U13  1  0.44361073  0.00000000  0.09696731  1
  U  U14  1  0.76948566  0.50000000  0.95692594  1
  U  U15  1  0.26948566  0.50000000  0.54307406  1
  U  U16  1  0.23051434  0.50000000  0.04307406  1
  U  U17  1  0.73051434  0.50000000  0.45692594  1
  O  O18  1  0.00000000  0.69256019  0.00000000  1
  O  O19  1  0.50000000  0.30743981  0.50000000  1
  O  O20  1  0.00000000  0.30743981  0.00000000  1
  O  O21  1  0.50000000  0.69256019  0.50000000  1
  O  O22  1  0.03125312  0.75077999  0.78105012  1
  O  O23  1  0.53125312  0.24922001  0.71894988  1
  O  O24  1  0.96874688  0.75077999  0.21894988  1
  O  O25  1  0.46874688  0.24922001  0.28105012  1
  O  O26  1  0.96874688  0.24922001  0.21894988  1
  O  O27  1  0.46874688  0.75077999  0.28105012  1
  O  O28  1  0.03125312  0.24922001  0.78105012  1
  O  O29  1  0.53125312  0.75077999  0.71894988  1
  O  O30  1  0.08501832  0.74228734  0.59138083  1
  O  O31  1  0.58501832  0.25771266  0.90861917  1
  O  O32  1  0.91498168  0.74228734  0.40861917  1
  O  O33  1  0.41498168  0.25771266  0.09138083  1
  O  O34  1  0.91498168  0.25771266  0.40861917  1
  O  O35  1  0.41498168  0.74228734  0.09138083  1
  O  O36  1  0.08501832  0.25771266  0.59138083  1
  O  O37  1  0.58501832  0.74228734  0.90861917  1
  O  O38  1  0.69497348  0.00000000  0.01328029  1
  O  O39  1  0.19497348  0.00000000  0.48671971  1
  O  O40  1  0.30502652  0.00000000  0.98671971  1
  O  O41  1  0.80502652  0.00000000  0.51328029  1
  O  O42  1  0.93318858  0.00000000  0.90531071  1
  O  O43  1  0.43318858  0.00000000  0.59468929  1
  O  O44  1  0.06681142  0.00000000  0.09468929  1
  O  O45  1  0.56681142  0.00000000  0.40531071  1
  O  O46  1  0.70821945  0.00000000  0.80655737  1
  O  O47  1  0.20821945  0.00000000  0.69344263  1
  O  O48  1  0.29178055  0.00000000  0.19344263  1
  O  O49  1  0.79178055  0.00000000  0.30655737  1
  O  O50  1  0.84099730  0.00000000  0.67358537  1
  O  O51  1  0.34099730  0.00000000  0.82641463  1
  O  O52  1  0.15900270  0.00000000  0.32641463  1
  O  O53  1  0.65900270  0.00000000  0.17358537  1
  O  O54  1  0.88450199  0.50000000  0.87551211  1
  O  O55  1  0.38450199  0.50000000  0.62448789  1
  O  O56  1  0.11549801  0.50000000  0.12448789  1
  O  O57  1  0.61549801  0.50000000  0.37551211  1
  O  O58  1  0.83704918  0.50000000  0.54116218  1
  O  O59  1  0.33704918  0.50000000  0.95883782  1
  O  O60  1  0.16295082  0.50000000  0.45883782  1
  O  O61  1  0.66295082  0.50000000  0.04116218  1
