# generated using pymatgen
data_LiCrPO4
_symmetry_space_group_name_H-M   'P 1'
_cell_length_a   6.50310468
_cell_length_b   9.71597341
_cell_length_c   5.99378565
_cell_angle_alpha   98.69503740
_cell_angle_beta   98.83385697
_cell_angle_gamma   70.43941983
_symmetry_Int_Tables_number   1
_chemical_formula_structural   LiCrPO4
_chemical_formula_sum   'Li4 Cr4 P4 O16'
_cell_volume   350.59231601
_cell_formula_units_Z   4
loop_
 _symmetry_equiv_pos_site_id
 _symmetry_equiv_pos_as_xyz
  1  'x, y, z'
loop_
 _atom_site_type_symbol
 _atom_site_label
 _atom_site_symmetry_multiplicity
 _atom_site_fract_x
 _atom_site_fract_y
 _atom_site_fract_z
 _atom_site_occupancy
  Li  Li0  1  0.36070383  0.67557535  0.41814586  1
  Li  Li1  1  0.83243524  0.70551451  0.41001970  1
  Li  Li2  1  0.63929617  0.32442465  0.58185414  1
  Li  Li3  1  0.16756476  0.29448549  0.58998030  1
  Cr  Cr4  1  0.36198672  0.92750428  0.79378751  1
  Cr  Cr5  1  0.90081288  0.27617295  0.01493620  1
  Cr  Cr6  1  0.63801328  0.07249572  0.20621249  1
  Cr  Cr7  1  0.09918712  0.72382705  0.98506380  1
  P  P8  1  0.81630726  0.98627224  0.70823413  1
  P  P9  1  0.18369274  0.01372876  0.29176587  1
  P  P10  1  0.72678432  0.61098794  0.84550309  1
  P  P11  1  0.27321568  0.38901206  0.15449691  1
  O  O12  1  0.74137274  0.66964655  0.09617628  1
  O  O13  1  0.94116581  0.10494373  0.20686730  1
  O  O14  1  0.79347772  0.15163088  0.73040179  1
  O  O15  1  0.49979587  0.30800219  0.28615046  1
  O  O16  1  0.66434396  0.96163363  0.86495587  1
  O  O17  1  0.33565604  0.03836637  0.13504413  1
  O  O18  1  0.24783184  0.55661646  0.19073486  1
  O  O19  1  0.20652228  0.84836912  0.26959821  1
  O  O20  1  0.50020413  0.69199781  0.71384954  1
  O  O21  1  0.05883419  0.89505627  0.79313270  1
  O  O22  1  0.24098914  0.07398989  0.53672812  1
  O  O23  1  0.75901086  0.92601011  0.46327188  1
  O  O24  1  0.75216816  0.44338354  0.80926514  1
  O  O25  1  0.08803635  0.36511939  0.27123201  1
  O  O26  1  0.91196365  0.63488061  0.72876799  1
  O  O27  1  0.25862726  0.33035345  0.90382372  1
