# generated using pymatgen
data_LiVP2O7
_symmetry_space_group_name_H-M   'P 1'
_cell_length_a   7.05801292
_cell_length_b   8.29775150
_cell_length_c   8.90089981
_cell_angle_alpha   90.00000000
_cell_angle_beta   111.57143924
_cell_angle_gamma   90.00000000
_symmetry_Int_Tables_number   1
_chemical_formula_structural   LiVP2O7
_chemical_formula_sum   'Li4 V4 P8 O28'
_cell_volume   484.77587121
_cell_formula_units_Z   4
loop_
 _symmetry_equiv_pos_site_id
 _symmetry_equiv_pos_as_xyz
  1  'x, y, z'
loop_
 _atom_site_type_symbol
 _atom_site_label
 _atom_site_symmetry_multiplicity
 _atom_site_fract_x
 _atom_site_fract_y
 _atom_site_fract_z
 _atom_site_occupancy
  Li  Li0  1  0.37316607  0.44797844  0.66959970  1
  Li  Li1  1  0.62683393  0.55202156  0.33040030  1
  Li  Li2  1  0.87316607  0.05202156  0.16959970  1
  Li  Li3  1  0.12683393  0.94797844  0.83040030  1
  V  V4  1  0.87515080  0.42236364  0.11255422  1
  V  V5  1  0.37515080  0.07763636  0.61255422  1
  V  V6  1  0.62484920  0.92236364  0.38744578  1
  V  V7  1  0.12484920  0.57763636  0.88744578  1
  P  P8  1  0.68227912  0.76272692  0.74143200  1
  P  P9  1  0.81772088  0.26272692  0.75856800  1
  P  P10  1  0.18227912  0.73727308  0.24143200  1
  P  P11  1  0.92955251  0.26772340  0.46651157  1
  P  P12  1  0.07044749  0.73227660  0.53348843  1
  P  P13  1  0.57044749  0.76772340  0.03348843  1
  P  P14  1  0.31772088  0.23727308  0.25856800  1
  P  P15  1  0.42955251  0.23227660  0.96651157  1
  O  O16  1  0.06904863  0.88952363  0.18399090  1
  O  O17  1  0.66216605  0.24760033  0.04354978  1
  O  O18  1  0.33783395  0.75239967  0.95645022  1
  O  O19  1  0.93095137  0.11047637  0.81600910  1
  O  O20  1  0.36411166  0.09630510  0.84140814  1
  O  O21  1  0.91714052  0.75175308  0.79881509  1
  O  O22  1  0.60367203  0.90647514  0.61726290  1
  O  O23  1  0.58285948  0.25175308  0.70118491  1
  O  O24  1  0.08285948  0.24824692  0.20118491  1
  O  O25  1  0.67333789  0.60482915  0.09659184  1
  O  O26  1  0.83783395  0.74760033  0.45645022  1
  O  O27  1  0.63588834  0.90369490  0.15859186  1
  O  O28  1  0.64646249  0.83546047  0.89687401  1
  O  O29  1  0.16216605  0.25239967  0.54354978  1
  O  O30  1  0.85353751  0.33546047  0.60312599  1
  O  O31  1  0.41714052  0.74824692  0.29881509  1
  O  O32  1  0.43095137  0.38952363  0.31600910  1
  O  O33  1  0.32666211  0.39517085  0.90340816  1
  O  O34  1  0.82666211  0.10482915  0.40340816  1
  O  O35  1  0.35353751  0.16453953  0.10312599  1
  O  O36  1  0.14646249  0.66453953  0.39687401  1
  O  O37  1  0.39632797  0.09352486  0.38273710  1
  O  O38  1  0.56904863  0.61047637  0.68399090  1
  O  O39  1  0.17333789  0.89517085  0.59659184  1
  O  O40  1  0.10367203  0.59352486  0.11726290  1
  O  O41  1  0.86411166  0.40369490  0.34140814  1
  O  O42  1  0.89632797  0.40647514  0.88273710  1
  O  O43  1  0.13588834  0.59630510  0.65859186  1
