# generated using pymatgen
data_Li3V2(PO4)3
_symmetry_space_group_name_H-M   'P 1'
_cell_length_a   8.60420112
_cell_length_b   8.60420073
_cell_length_c   6.38619713
_cell_angle_alpha   74.02624601
_cell_angle_beta   105.97375324
_cell_angle_gamma   86.22686424
_symmetry_Int_Tables_number   1
_chemical_formula_structural   Li3V2(PO4)3
_chemical_formula_sum   'Li6 V4 P6 O24'
_cell_volume   431.82492525
_cell_formula_units_Z   2
loop_
 _symmetry_equiv_pos_site_id
 _symmetry_equiv_pos_as_xyz
  1  'x, y, z'
loop_
 _atom_site_type_symbol
 _atom_site_label
 _atom_site_symmetry_multiplicity
 _atom_site_fract_x
 _atom_site_fract_y
 _atom_site_fract_z
 _atom_site_occupancy
  Li  Li0  1  0.71390520  0.71390520  0.75000000  1
  Li  Li1  1  0.28609480  0.28609480  0.25000000  1
  Li  Li2  1  0.50000000  0.50000000  -0.00000000  1
  Li  Li3  1  0.00930959  0.00930959  0.75000000  1
  Li  Li4  1  0.99069041  0.99069041  0.25000000  1
  Li  Li5  1  0.50000000  0.50000000  0.50000000  1
  V  V6  1  0.62016310  0.05731294  0.85739889  1
  V  V7  1  0.05731294  0.62016310  0.64260111  1
  V  V8  1  0.37983690  0.94268706  0.14260111  1
  V  V9  1  0.94268706  0.37983690  0.35739889  1
  P  P10  1  0.13737864  0.66096421  0.13746293  1
  P  P11  1  0.71550508  0.71550508  0.25000000  1
  P  P12  1  0.66096421  0.13737864  0.36253707  1
  P  P13  1  0.33903579  0.86262136  0.63746293  1
  P  P14  1  0.86262136  0.33903579  0.86253707  1
  P  P15  1  0.28449492  0.28449492  0.75000000  1
  O  O16  1  0.34113980  0.98845339  0.41075419  1
  O  O17  1  0.98845339  0.34113980  0.08924581  1
  O  O18  1  0.15750050  0.84481691  0.10954967  1
  O  O19  1  0.15518309  0.84249950  0.60954967  1
  O  O20  1  0.40002093  0.94856555  0.82858454  1
  O  O21  1  0.70383403  0.45530330  0.79735210  1
  O  O22  1  0.53894558  0.73789444  0.26746121  1
  O  O23  1  0.46105442  0.26210556  0.73253879  1
  O  O24  1  0.05143445  0.59997907  0.32858454  1
  O  O25  1  0.94856555  0.40002093  0.67141546  1
  O  O26  1  0.59997907  0.05143445  0.17141546  1
  O  O27  1  0.84481691  0.15750050  0.39045033  1
  O  O28  1  0.74440044  0.82998957  0.03339252  1
  O  O29  1  0.25559956  0.17001043  0.96660748  1
  O  O30  1  0.45530330  0.70383403  0.70264790  1
  O  O31  1  0.84249950  0.15518309  0.89045033  1
  O  O32  1  0.29616597  0.54469670  0.20264790  1
  O  O33  1  0.82998957  0.74440044  0.46660748  1
  O  O34  1  0.26210556  0.46105442  0.76746121  1
  O  O35  1  0.01154661  0.65886020  0.91075419  1
  O  O36  1  0.54469670  0.29616597  0.29735210  1
  O  O37  1  0.17001043  0.25559956  0.53339252  1
  O  O38  1  0.65886020  0.01154661  0.58924581  1
  O  O39  1  0.73789444  0.53894558  0.23253879  1
