# generated using pymatgen
data_Li2Ni5(PO4)4
_symmetry_space_group_name_H-M   'P 1'
_cell_length_a   7.90554103
_cell_length_b   8.00679522
_cell_length_c   5.14167342
_cell_angle_alpha   91.54438471
_cell_angle_beta   101.30085723
_cell_angle_gamma   109.60458331
_symmetry_Int_Tables_number   1
_chemical_formula_structural   Li2Ni5(PO4)4
_chemical_formula_sum   'Li2 Ni5 P4 O16'
_cell_volume   299.12936590
_cell_formula_units_Z   1
loop_
 _symmetry_equiv_pos_site_id
 _symmetry_equiv_pos_as_xyz
  1  'x, y, z'
loop_
 _atom_site_type_symbol
 _atom_site_label
 _atom_site_symmetry_multiplicity
 _atom_site_fract_x
 _atom_site_fract_y
 _atom_site_fract_z
 _atom_site_occupancy
  Li  Li0  1  0.05131180  0.29640661  0.60187744  1
  Li  Li1  1  0.94868820  0.70359339  0.39812256  1
  Ni  Ni2  1  0.40503824  0.67673018  0.63781777  1
  Ni  Ni3  1  0.24944603  0.77327121  0.09241741  1
  Ni  Ni4  1  0.75055397  0.22672879  0.90758259  1
  Ni  Ni5  1  -0.00000000  -0.00000000  -0.00000000  1
  Ni  Ni6  1  0.59496176  0.32326982  0.36218223  1
  P  P7  1  0.70236732  0.96560416  0.38245412  1
  P  P8  1  0.78990405  0.57394560  0.85993976  1
  P  P9  1  0.21009595  0.42605440  0.14006024  1
  P  P10  1  0.29763268  0.03439584  0.61754588  1
  O  O11  1  0.37162044  0.37563720  0.26751036  1
  O  O12  1  0.49205555  0.17776137  0.65387960  1
  O  O13  1  0.81783971  0.43298836  0.66420219  1
  O  O14  1  0.62837956  0.62436280  0.73248964  1
  O  O15  1  0.16797390  0.10581774  0.73462229  1
  O  O16  1  0.97223366  0.73825097  0.90473981  1
  O  O17  1  0.23119168  0.51667208  0.87838467  1
  O  O18  1  0.50794445  0.82223863  0.34612040  1
  O  O19  1  0.67989417  0.12868692  0.23612415  1
  O  O20  1  0.18216029  0.56701164  0.33579781  1
  O  O21  1  0.78853064  0.03456238  0.68383658  1
  O  O22  1  0.21146936  0.96543762  0.31616342  1
  O  O23  1  0.02776634  0.26174903  0.09526019  1
  O  O24  1  0.83202610  0.89418226  0.26537771  1
  O  O25  1  0.76880832  0.48332792  0.12161533  1
  O  O26  1  0.32010583  0.87131308  0.76387585  1
