# generated using pymatgen
data_BaY2CuO5
_symmetry_space_group_name_H-M   'P 1'
_cell_length_a   5.71688539
_cell_length_b   7.24591718
_cell_length_c   12.28199811
_cell_angle_alpha   90.00000000
_cell_angle_beta   90.00000000
_cell_angle_gamma   90.00000000
_symmetry_Int_Tables_number   1
_chemical_formula_structural   BaY2CuO5
_chemical_formula_sum   'Ba4 Y8 Cu4 O20'
_cell_volume   508.77044848
_cell_formula_units_Z   4
loop_
 _symmetry_equiv_pos_site_id
 _symmetry_equiv_pos_as_xyz
  1  'x, y, z'
loop_
 _atom_site_type_symbol
 _atom_site_label
 _atom_site_symmetry_multiplicity
 _atom_site_fract_x
 _atom_site_fract_y
 _atom_site_fract_z
 _atom_site_occupancy
  Ba  Ba0  1  0.75000000  0.06983947  0.09526609  1
  Ba  Ba1  1  0.25000000  0.93016053  0.90473391  1
  Ba  Ba2  1  0.25000000  0.56983947  0.40473391  1
  Ba  Ba3  1  0.75000000  0.43016053  0.59526609  1
  Y  Y4  1  0.25000000  0.11436745  0.28737144  1
  Y  Y5  1  0.75000000  0.88563255  0.71262856  1
  Y  Y6  1  0.75000000  0.61436745  0.21262856  1
  Y  Y7  1  0.25000000  0.38563255  0.78737144  1
  Y  Y8  1  0.25000000  0.39664396  0.07412092  1
  Y  Y9  1  0.75000000  0.60335604  0.92587908  1
  Y  Y10  1  0.75000000  0.89664396  0.42587908  1
  Y  Y11  1  0.25000000  0.10335604  0.57412092  1
  Cu  Cu12  1  0.75000000  0.28372203  0.33955545  1
  Cu  Cu13  1  0.25000000  0.71627797  0.66044455  1
  Cu  Cu14  1  0.25000000  0.78372203  0.16044455  1
  Cu  Cu15  1  0.75000000  0.21627797  0.83955545  1
  O  O16  1  0.50657360  0.16329238  0.43231238  1
  O  O17  1  0.00657360  0.83670762  0.56768762  1
  O  O18  1  0.49342640  0.66329238  0.06768762  1
  O  O19  1  0.99342640  0.33670762  0.93231238  1
  O  O20  1  0.49342640  0.83670762  0.56768762  1
  O  O21  1  0.99342640  0.16329238  0.43231238  1
  O  O22  1  0.50657360  0.33670762  0.93231238  1
  O  O23  1  0.00657360  0.66329238  0.06768762  1
  O  O24  1  0.50419295  0.35587751  0.22800620  1
  O  O25  1  0.00419295  0.64412249  0.77199380  1
  O  O26  1  0.49580705  0.85587751  0.27199380  1
  O  O27  1  0.99580705  0.14412249  0.72800620  1
  O  O28  1  0.49580705  0.64412249  0.77199380  1
  O  O29  1  0.99580705  0.35587751  0.22800620  1
  O  O30  1  0.50419295  0.14412249  0.72800620  1
  O  O31  1  0.00419295  0.85587751  0.27199380  1
  O  O32  1  0.25000000  0.08383786  0.10001692  1
  O  O33  1  0.75000000  0.91616214  0.89998308  1
  O  O34  1  0.75000000  0.58383786  0.39998308  1
  O  O35  1  0.25000000  0.41616214  0.60001692  1
