# generated using pymatgen
data_UTe4Br5
_symmetry_space_group_name_H-M   'P 1'
_cell_length_a   9.10406692
_cell_length_b   12.54275269
_cell_length_c   14.09616155
_cell_angle_alpha   80.68789937
_cell_angle_beta   77.01045783
_cell_angle_gamma   78.94943519
_symmetry_Int_Tables_number   1
_chemical_formula_structural   UTe4Br5
_chemical_formula_sum   'U4 Te16 Br20'
_cell_volume   1527.46184300
_cell_formula_units_Z   4
loop_
 _symmetry_equiv_pos_site_id
 _symmetry_equiv_pos_as_xyz
  1  'x, y, z'
loop_
 _atom_site_type_symbol
 _atom_site_label
 _atom_site_symmetry_multiplicity
 _atom_site_fract_x
 _atom_site_fract_y
 _atom_site_fract_z
 _atom_site_occupancy
  U  U0  1  0.41508785  0.71889193  0.23773041  1
  U  U1  1  0.58491215  0.28110807  0.76226959  1
  U  U2  1  0.86847779  0.80451692  0.30494117  1
  U  U3  1  0.13152221  0.19548308  0.69505883  1
  Te  Te4  1  0.26265645  0.32648841  0.11863529  1
  Te  Te5  1  0.73734355  0.67351159  0.88136471  1
  Te  Te6  1  0.11952975  0.39199365  0.30380720  1
  Te  Te7  1  0.88047025  0.60800635  0.69619280  1
  Te  Te8  1  0.95997293  0.22343314  0.37567524  1
  Te  Te9  1  0.04002707  0.77656686  0.62432476  1
  Te  Te10  1  0.72437098  0.35668805  0.29546323  1
  Te  Te11  1  0.27562902  0.64331195  0.70453677  1
  Te  Te12  1  0.82816796  0.32607245  0.09342310  1
  Te  Te13  1  0.17183204  0.67392755  0.90657690  1
  Te  Te14  1  0.07561181  0.17350218  0.11375377  1
  Te  Te15  1  0.92438819  0.82649782  0.88624623  1
  Te  Te16  1  0.49661234  0.20807528  0.35805474  1
  Te  Te17  1  0.50338766  0.79192472  0.64194526  1
  Te  Te18  1  0.49966889  0.15389867  0.18394643  1
  Te  Te19  1  0.50033111  0.84610133  0.81605357  1
  Br  Br20  1  0.49748557  0.51909480  0.14316560  1
  Br  Br21  1  0.50251443  0.48090520  0.85683440  1
  Br  Br22  1  0.37282663  0.58300112  0.40759491  1
  Br  Br23  1  0.62717337  0.41699888  0.59240509  1
  Br  Br24  1  0.44882542  0.86409420  0.07034537  1
  Br  Br25  1  0.55117458  0.13590580  0.92965463  1
  Br  Br26  1  0.85274184  0.97545484  0.15378553  1
  Br  Br27  1  0.14725816  0.02454516  0.84621447  1
  Br  Br28  1  0.87760160  0.62135847  0.43615925  1
  Br  Br29  1  0.12239840  0.37864153  0.56384075  1
  Br  Br30  1  0.79167921  0.92610134  0.46658443  1
  Br  Br31  1  0.20832079  0.07389866  0.53341557  1
  Br  Br32  1  0.53071338  0.85315651  0.34772710  1
  Br  Br33  1  0.46928662  0.14684349  0.65227290  1
  Br  Br34  1  0.15489776  0.87600165  0.31880625  1
  Br  Br35  1  0.84510224  0.12399835  0.68119375  1
  Br  Br36  1  0.75233053  0.67504889  0.18914197  1
  Br  Br37  1  0.24766947  0.32495111  0.81085803  1
  Br  Br38  1  0.13431932  0.68020000  0.18017103  1
  Br  Br39  1  0.86568068  0.31980000  0.81982897  1
