# generated using pymatgen
data_K2Be(CO2)4
_symmetry_space_group_name_H-M   'P 1'
_cell_length_a   6.73716964
_cell_length_b   9.15415125
_cell_length_c   13.60506604
_cell_angle_alpha   90.00000000
_cell_angle_beta   90.00000000
_cell_angle_gamma   90.00000000
_symmetry_Int_Tables_number   1
_chemical_formula_structural   K2Be(CO2)4
_chemical_formula_sum   'K8 Be4 C16 O32'
_cell_volume   839.06618863
_cell_formula_units_Z   4
loop_
 _symmetry_equiv_pos_site_id
 _symmetry_equiv_pos_as_xyz
  1  'x, y, z'
loop_
 _atom_site_type_symbol
 _atom_site_label
 _atom_site_symmetry_multiplicity
 _atom_site_fract_x
 _atom_site_fract_y
 _atom_site_fract_z
 _atom_site_occupancy
  K  K0  1  0.68947314  0.00239410  0.60452579  1
  K  K1  1  0.31052686  0.50239410  0.39547421  1
  K  K2  1  0.18947314  0.50239410  0.89547421  1
  K  K3  1  0.31052686  0.99760590  0.39547421  1
  K  K4  1  0.18947314  0.99760590  0.89547421  1
  K  K5  1  0.81052686  0.00239410  0.10452579  1
  K  K6  1  0.68947314  0.49760590  0.60452579  1
  K  K7  1  0.81052686  0.49760590  0.10452579  1
  Be  Be8  1  0.57672203  0.75000000  0.25437656  1
  Be  Be9  1  0.07672203  0.25000000  0.24562344  1
  Be  Be10  1  0.42327797  0.25000000  0.74562344  1
  Be  Be11  1  0.92327797  0.75000000  0.75437656  1
  C  C12  1  0.17603812  0.66468625  0.64268291  1
  C  C13  1  0.67603812  0.33531375  0.85731709  1
  C  C14  1  0.75856586  0.75000000  0.40675920  1
  C  C15  1  0.25856586  0.25000000  0.09324080  1
  C  C16  1  0.90907597  0.75000000  0.31950099  1
  C  C17  1  0.82396188  0.16468625  0.35731709  1
  C  C18  1  0.59092403  0.75000000  0.81950099  1
  C  C19  1  0.17603812  0.83531375  0.64268291  1
  C  C20  1  0.40907597  0.25000000  0.18049901  1
  C  C21  1  0.32396188  0.83531375  0.14268291  1
  C  C22  1  0.09092403  0.25000000  0.68049901  1
  C  C23  1  0.67603812  0.16468625  0.85731709  1
  C  C24  1  0.24143414  0.25000000  0.59324080  1
  C  C25  1  0.32396188  0.66468625  0.14268291  1
  C  C26  1  0.82396188  0.33531375  0.35731709  1
  C  C27  1  0.74143414  0.75000000  0.90675920  1
  O  O28  1  0.40916972  0.75000000  0.83192181  1
  O  O29  1  0.28900225  0.59087612  0.59128677  1
  O  O30  1  0.78900225  0.09087612  0.90871323  1
  O  O31  1  0.81174132  0.75000000  0.49373845  1
  O  O32  1  0.04054739  0.61349614  0.70253719  1
  O  O33  1  0.95945261  0.38650386  0.29746281  1
  O  O34  1  0.95945261  0.11349614  0.29746281  1
  O  O35  1  0.68346001  0.75000000  0.73508891  1
  O  O36  1  0.21099775  0.90912388  0.09128677  1
  O  O37  1  0.45945261  0.61349614  0.20253719  1
  O  O38  1  0.45945261  0.88650386  0.20253719  1
  O  O39  1  0.71099775  0.40912388  0.40871323  1
  O  O40  1  0.28900225  0.90912388  0.59128677  1
  O  O41  1  0.81653999  0.75000000  0.23508891  1
  O  O42  1  0.09083028  0.75000000  0.33192181  1
  O  O43  1  0.71099775  0.09087612  0.40871323  1
  O  O44  1  0.59083028  0.25000000  0.16807819  1
  O  O45  1  0.18346001  0.25000000  0.76491109  1
  O  O46  1  0.42445362  0.25000000  0.62536953  1
  O  O47  1  0.21099775  0.59087612  0.09128677  1
  O  O48  1  0.57554638  0.75000000  0.37463047  1
  O  O49  1  0.68825868  0.75000000  0.99373845  1
  O  O50  1  0.31653999  0.25000000  0.26491109  1
  O  O51  1  0.78900225  0.40912388  0.90871323  1
  O  O52  1  0.04054739  0.88650386  0.70253719  1
  O  O53  1  0.07554638  0.25000000  0.12536953  1
  O  O54  1  0.54054739  0.11349614  0.79746281  1
  O  O55  1  0.31174132  0.25000000  0.00626155  1
  O  O56  1  0.92445362  0.75000000  0.87463047  1
  O  O57  1  0.54054739  0.38650386  0.79746281  1
  O  O58  1  0.90916972  0.25000000  0.66807819  1
  O  O59  1  0.18825868  0.25000000  0.50626155  1
