# generated using pymatgen
data_AsSOF9
_symmetry_space_group_name_H-M   'P 1'
_cell_length_a   7.45401534
_cell_length_b   8.70426688
_cell_length_c   11.17491820
_cell_angle_alpha   90.00000000
_cell_angle_beta   90.00000000
_cell_angle_gamma   90.00000000
_symmetry_Int_Tables_number   1
_chemical_formula_structural   AsSOF9
_chemical_formula_sum   'As4 S4 O4 F36'
_cell_volume   725.04812429
_cell_formula_units_Z   4
loop_
 _symmetry_equiv_pos_site_id
 _symmetry_equiv_pos_as_xyz
  1  'x, y, z'
loop_
 _atom_site_type_symbol
 _atom_site_label
 _atom_site_symmetry_multiplicity
 _atom_site_fract_x
 _atom_site_fract_y
 _atom_site_fract_z
 _atom_site_occupancy
  As  As0  1  0.75000000  0.70754814  0.48687364  1
  As  As1  1  0.25000000  0.20754814  0.01312636  1
  As  As2  1  0.25000000  0.29245186  0.51312636  1
  As  As3  1  0.75000000  0.79245186  0.98687364  1
  S  S4  1  0.25000000  0.83397835  0.30409533  1
  S  S5  1  0.75000000  0.33397835  0.19590467  1
  S  S6  1  0.75000000  0.16602165  0.69590467  1
  S  S7  1  0.25000000  0.66602165  0.80409533  1
  O  O8  1  0.25000000  0.70466783  0.23121847  1
  O  O9  1  0.25000000  0.79533217  0.73121847  1
  O  O10  1  0.75000000  0.29533217  0.76878153  1
  O  O11  1  0.75000000  0.20466783  0.26878153  1
  F  F12  1  0.75000000  0.50620401  0.50432204  1
  F  F13  1  0.08111661  0.27122656  0.40329603  1
  F  F14  1  0.75000000  0.30884107  0.06301294  1
  F  F15  1  0.09549732  0.55597124  0.78928859  1
  F  F16  1  0.91888339  0.77122656  0.09670397  1
  F  F17  1  0.25000000  0.08971188  0.53553152  1
  F  F18  1  0.90450268  0.44402876  0.21071141  1
  F  F19  1  0.41788776  0.31027754  0.62637398  1
  F  F20  1  0.58211224  0.81027754  0.87362602  1
  F  F21  1  0.75000000  0.91028812  0.46446848  1
  F  F22  1  0.91788776  0.81027754  0.87362602  1
  F  F23  1  0.59549732  0.44402876  0.21071141  1
  F  F24  1  0.25000000  0.49379599  0.49567796  1
  F  F25  1  0.40450268  0.55597124  0.78928859  1
  F  F26  1  0.25000000  0.00620401  0.99567796  1
  F  F27  1  0.58111661  0.77122656  0.09670397  1
  F  F28  1  0.08211224  0.31027754  0.62637398  1
  F  F29  1  0.08111661  0.22877344  0.90329603  1
  F  F30  1  0.75000000  0.99379599  0.00432204  1
  F  F31  1  0.41788776  0.18972246  0.12637398  1
  F  F32  1  0.41888339  0.22877344  0.90329603  1
  F  F33  1  0.41888339  0.27122656  0.40329603  1
  F  F34  1  0.75000000  0.58971188  0.96446848  1
  F  F35  1  0.25000000  0.80884107  0.43698706  1
  F  F36  1  0.59549732  0.05597124  0.71071141  1
  F  F37  1  0.08211224  0.18972246  0.12637398  1
  F  F38  1  0.75000000  0.19115893  0.56301294  1
  F  F39  1  0.40450268  0.94402876  0.28928859  1
  F  F40  1  0.91888339  0.72877344  0.59670397  1
  F  F41  1  0.91788776  0.68972246  0.37362602  1
  F  F42  1  0.25000000  0.69115893  0.93698706  1
  F  F43  1  0.09549732  0.94402876  0.28928859  1
  F  F44  1  0.25000000  0.41028812  0.03553152  1
  F  F45  1  0.58211224  0.68972246  0.37362602  1
  F  F46  1  0.58111661  0.72877344  0.59670397  1
  F  F47  1  0.90450268  0.05597124  0.71071141  1
