# generated using pymatgen
data_Dy2O3
_symmetry_space_group_name_H-M   'P 1'
_cell_length_a   3.50684125
_cell_length_b   7.25298621
_cell_length_c   8.66399377
_cell_angle_alpha   100.04074902
_cell_angle_beta   90.00000000
_cell_angle_gamma   103.98994103
_symmetry_Int_Tables_number   1
_chemical_formula_structural   Dy2O3
_chemical_formula_sum   'Dy6 O9'
_cell_volume   210.35271498
_cell_formula_units_Z   3
loop_
 _symmetry_equiv_pos_site_id
 _symmetry_equiv_pos_as_xyz
  1  'x, y, z'
loop_
 _atom_site_type_symbol
 _atom_site_label
 _atom_site_symmetry_multiplicity
 _atom_site_fract_x
 _atom_site_fract_y
 _atom_site_fract_z
 _atom_site_occupancy
  Dy  Dy0  1  0.63478215  0.26956431  0.48816241  1
  Dy  Dy1  1  0.69160716  0.38321433  0.13759598  1
  Dy  Dy2  1  0.03213325  0.06426650  0.81387575  1
  Dy  Dy3  1  0.36521785  0.73043569  0.51183759  1
  Dy  Dy4  1  0.30839284  0.61678567  0.86240402  1
  Dy  Dy5  1  0.96786675  0.93573350  0.18612425  1
  O  O6  1  0.87203238  0.74406476  0.71784771  1
  O  O7  1  0.79412042  0.58824084  0.37688863  1
  O  O8  1  0.12796762  0.25593524  0.28215229  1
  O  O9  1  0.20587958  0.41175916  0.62311137  1
  O  O10  1  0.50000000  0.00000000  0.00000000  1
  O  O11  1  0.47118742  0.94237485  0.34305881  1
  O  O12  1  0.52881258  0.05762515  0.65694119  1
  O  O13  1  0.17469478  0.34938955  0.96985826  1
  O  O14  1  0.82530522  0.65061045  0.03014174  1
