# generated using pymatgen
data_Sr2ZnReO6
_symmetry_space_group_name_H-M   'P 1'
_cell_length_a   5.64432255
_cell_length_b   5.64464018
_cell_length_c   5.68440855
_cell_angle_alpha   119.77752314
_cell_angle_beta   119.77476833
_cell_angle_gamma   89.98647214
_symmetry_Int_Tables_number   1
_chemical_formula_structural   Sr2ZnReO6
_chemical_formula_sum   'Sr2 Zn1 Re1 O6'
_cell_volume   128.93798708
_cell_formula_units_Z   1
loop_
 _symmetry_equiv_pos_site_id
 _symmetry_equiv_pos_as_xyz
  1  'x, y, z'
loop_
 _atom_site_type_symbol
 _atom_site_label
 _atom_site_symmetry_multiplicity
 _atom_site_fract_x
 _atom_site_fract_y
 _atom_site_fract_z
 _atom_site_occupancy
  O  O0  1  0.25980589  0.25981852  0.51961951  1
  O  O1  1  0.74020330  0.74019343  0.48040180  1
  O  O2  1  0.29780630  0.22284707  0.00001399  1
  O  O3  1  0.70217475  0.77713907  0.99998919  1
  O  O4  1  0.22289379  0.70216275  0.99999491  1
  Sr  Sr5  1  0.74997167  0.24998470  0.49996677  1
  O  O6  1  0.77707918  0.29785054  0.00000666  1
  Sr  Sr7  1  0.25002227  0.75003025  0.50005248  1
  Re  Re8  1  0.50004086  0.49997879  -0.00004355  1
  Zn  Zn9  1  0.00000198  0.99999489  0.99999826  1
