# generated using pymatgen
data_SbTe(IF2)3
_symmetry_space_group_name_H-M   'P 1'
_cell_length_a   8.70661164
_cell_length_b   10.91017355
_cell_length_c   13.42343096
_cell_angle_alpha   90.00000000
_cell_angle_beta   99.73868215
_cell_angle_gamma   90.00000000
_symmetry_Int_Tables_number   1
_chemical_formula_structural   SbTe(IF2)3
_chemical_formula_sum   'Sb4 Te4 I12 F24'
_cell_volume   1256.72550784
_cell_formula_units_Z   4
loop_
 _symmetry_equiv_pos_site_id
 _symmetry_equiv_pos_as_xyz
  1  'x, y, z'
loop_
 _atom_site_type_symbol
 _atom_site_label
 _atom_site_symmetry_multiplicity
 _atom_site_fract_x
 _atom_site_fract_y
 _atom_site_fract_z
 _atom_site_occupancy
  Sb  Sb0  1  0.31598694  0.77649507  0.42216238  1
  Sb  Sb1  1  0.68401306  0.22350493  0.57783762  1
  Sb  Sb2  1  0.31598694  0.72350493  0.92216238  1
  Sb  Sb3  1  0.68401306  0.27649507  0.07783762  1
  Te  Te4  1  0.68234732  0.67622858  0.19576491  1
  Te  Te5  1  0.31765268  0.17622858  0.30423509  1
  Te  Te6  1  0.68234732  0.82377142  0.69576491  1
  Te  Te7  1  0.31765268  0.32377142  0.80423509  1
  I  I8  1  0.77938257  0.95336093  0.86626259  1
  I  I9  1  0.93522781  0.66363520  0.10317846  1
  I  I10  1  0.22061743  0.04663907  0.13373741  1
  I  I11  1  0.93522781  0.83636480  0.60317846  1
  I  I12  1  0.28037335  0.40986230  0.23775828  1
  I  I13  1  0.77938257  0.54663907  0.36626259  1
  I  I14  1  0.06477219  0.16363520  0.39682154  1
  I  I15  1  0.22061743  0.45336093  0.63373741  1
  I  I16  1  0.28037335  0.09013770  0.73775828  1
  I  I17  1  0.06477219  0.33636480  0.89682154  1
  I  I18  1  0.71962665  0.90986230  0.26224172  1
  I  I19  1  0.71962665  0.59013770  0.76224172  1
  F  F20  1  0.61074488  0.06196221  0.60666460  1
  F  F21  1  0.52030905  0.76079475  0.99707293  1
  F  F22  1  0.73997640  0.16157246  0.45429030  1
  F  F23  1  0.38063494  0.78522460  0.80119948  1
  F  F24  1  0.38925512  0.56196221  0.89333540  1
  F  F25  1  0.24273177  0.61646137  0.45087634  1
  F  F26  1  0.61936506  0.21477540  0.19880052  1
  F  F27  1  0.88608966  0.31714890  0.14987190  1
  F  F28  1  0.61936506  0.28522460  0.69880052  1
  F  F29  1  0.47969095  0.23920525  0.00292707  1
  F  F30  1  0.24273177  0.88353863  0.95087634  1
  F  F31  1  0.11391034  0.68285110  0.85012810  1
  F  F32  1  0.26002360  0.83842754  0.54570970  1
  F  F33  1  0.38925512  0.93803779  0.39333540  1
  F  F34  1  0.38063494  0.71477540  0.30119948  1
  F  F35  1  0.26002360  0.66157246  0.04570970  1
  F  F36  1  0.88608966  0.18285110  0.64987190  1
  F  F37  1  0.61074488  0.43803779  0.10666460  1
  F  F38  1  0.52030905  0.73920525  0.49707293  1
  F  F39  1  0.11391034  0.81714890  0.35012810  1
  F  F40  1  0.47969095  0.26079475  0.50292707  1
  F  F41  1  0.73997640  0.33842754  0.95429030  1
  F  F42  1  0.75726823  0.38353863  0.54912366  1
  F  F43  1  0.75726823  0.11646137  0.04912366  1
