# generated using pymatgen
data_Na2Sn(CO2)4
_symmetry_space_group_name_H-M   'P 1'
_cell_length_a   5.76384506
_cell_length_b   6.00338171
_cell_length_c   13.52147143
_cell_angle_alpha   80.80168887
_cell_angle_beta   77.69719932
_cell_angle_gamma   61.31383223
_symmetry_Int_Tables_number   1
_chemical_formula_structural   Na2Sn(CO2)4
_chemical_formula_sum   'Na4 Sn2 C8 O16'
_cell_volume   400.11960070
_cell_formula_units_Z   2
loop_
 _symmetry_equiv_pos_site_id
 _symmetry_equiv_pos_as_xyz
  1  'x, y, z'
loop_
 _atom_site_type_symbol
 _atom_site_label
 _atom_site_symmetry_multiplicity
 _atom_site_fract_x
 _atom_site_fract_y
 _atom_site_fract_z
 _atom_site_occupancy
  Na  Na0  1  0.82485362  0.32498634  0.05118034  1
  Na  Na1  1  0.17514638  0.67501366  0.94881966  1
  Na  Na2  1  0.20103906  0.17502061  0.44881394  1
  Na  Na3  1  0.79896094  0.82497939  0.55118606  1
  Sn  Sn4  1  0.82418925  0.75006786  0.24995713  1
  Sn  Sn5  1  0.17581075  0.24993214  0.75004287  1
  C  C6  1  0.33094491  0.67462757  0.63420180  1
  C  C7  1  0.36030477  0.17457643  0.13411395  1
  C  C8  1  0.63969523  0.82542357  0.86588605  1
  C  C9  1  0.41795623  0.58700923  0.38957151  1
  C  C10  1  0.58204377  0.41299077  0.61042849  1
  C  C11  1  0.66905509  0.32537243  0.36579820  1
  C  C12  1  0.39453494  0.91298260  0.11037411  1
  C  C13  1  0.60546506  0.08701740  0.88962589  1
  O  O14  1  0.52743766  0.16623259  0.18512251  1
  O  O15  1  0.17880483  0.37316388  0.09830005  1
  O  O16  1  0.20952677  0.58605643  0.44039832  1
  O  O17  1  0.47256234  0.83376741  0.81487749  1
  O  O18  1  0.40715873  0.28811030  0.85866030  1
  O  O19  1  0.82119517  0.62683612  0.90169995  1
  O  O20  1  0.55383048  0.21190602  0.64136528  1
  O  O21  1  0.76402229  0.08607779  0.94044965  1
  O  O22  1  0.59284127  0.71188970  0.14133970  1
  O  O23  1  0.23597771  0.91392221  0.05955035  1
  O  O24  1  0.44616952  0.78809398  0.35863472  1
  O  O25  1  0.12118276  0.66623429  0.68519905  1
  O  O26  1  0.87881724  0.33376571  0.31480095  1
  O  O27  1  0.34964583  0.87321673  0.59836337  1
  O  O28  1  0.65035417  0.12678327  0.40163663  1
  O  O29  1  0.79047323  0.41394357  0.55960168  1
