# generated using pymatgen
data_PrP3(HO2)6
_symmetry_space_group_name_H-M   'P 1'
_cell_length_a   6.87428969
_cell_length_b   6.87428958
_cell_length_c   6.12515098
_cell_angle_alpha   90.00000000
_cell_angle_beta   90.00000000
_cell_angle_gamma   120.00000053
_symmetry_Int_Tables_number   1
_chemical_formula_structural   PrP3(HO2)6
_chemical_formula_sum   'Pr1 P3 H6 O12'
_cell_volume   250.67041503
_cell_formula_units_Z   1
loop_
 _symmetry_equiv_pos_site_id
 _symmetry_equiv_pos_as_xyz
  1  'x, y, z'
loop_
 _atom_site_type_symbol
 _atom_site_label
 _atom_site_symmetry_multiplicity
 _atom_site_fract_x
 _atom_site_fract_y
 _atom_site_fract_z
 _atom_site_occupancy
  Pr  Pr0  1  0.33333300  0.66666700  0.00000000  1
  P  P1  1  0.06281453  0.78467843  0.50000000  1
  P  P2  1  0.21532157  0.27813610  0.50000000  1
  P  P3  1  0.72186390  0.93718547  0.50000000  1
  H  H4  1  0.84393137  0.23425700  0.12590217  1
  H  H5  1  0.76574300  0.60967437  0.12590217  1
  H  H6  1  0.39032563  0.15606863  0.87409783  1
  H  H7  1  0.39032563  0.15606863  0.12590217  1
  H  H8  1  0.76574300  0.60967437  0.87409783  1
  H  H9  1  0.84393137  0.23425700  0.87409783  1
  O  O10  1  0.81810488  0.76539932  0.50000000  1
  O  O11  1  0.92891152  0.32356184  0.00000000  1
  O  O12  1  0.39465032  0.07108848  0.00000000  1
  O  O13  1  0.31175172  0.39563892  0.28813660  1
  O  O14  1  0.23460068  0.05270556  0.50000000  1
  O  O15  1  0.31175172  0.39563892  0.71186340  1
  O  O16  1  0.60436108  0.91611280  0.28813660  1
  O  O17  1  0.94729444  0.18189512  0.50000000  1
  O  O18  1  0.08388720  0.68824828  0.28813660  1
  O  O19  1  0.08388720  0.68824828  0.71186340  1
  O  O20  1  0.67643816  0.60534968  0.00000000  1
  O  O21  1  0.60436108  0.91611280  0.71186340  1
