# generated using pymatgen
data_Nd4Cu2O7
_symmetry_space_group_name_H-M   'P 1'
_cell_length_a   3.79788645
_cell_length_b   6.68362886
_cell_length_c   8.52856471
_cell_angle_alpha   108.60523497
_cell_angle_beta   90.00000000
_cell_angle_gamma   106.50616980
_symmetry_Int_Tables_number   1
_chemical_formula_structural   Nd4Cu2O7
_chemical_formula_sum   'Nd4 Cu2 O7'
_cell_volume   195.73590672
_cell_formula_units_Z   1
loop_
 _symmetry_equiv_pos_site_id
 _symmetry_equiv_pos_as_xyz
  1  'x, y, z'
loop_
 _atom_site_type_symbol
 _atom_site_label
 _atom_site_symmetry_multiplicity
 _atom_site_fract_x
 _atom_site_fract_y
 _atom_site_fract_z
 _atom_site_occupancy
  Nd  Nd0  1  0.34069681  0.68139361  0.68076584  1
  Nd  Nd1  1  0.65930319  0.31860639  0.31923416  1
  Nd  Nd2  1  0.64263531  0.28527062  0.83394903  1
  Nd  Nd3  1  0.35736469  0.71472938  0.16605097  1
  Cu  Cu4  1  0.00000000  0.00000000  0.00000000  1
  Cu  Cu5  1  0.00000000  0.00000000  0.50000000  1
  O  O6  1  0.01026634  0.02053268  0.29107732  1
  O  O7  1  0.27514812  0.55029624  0.38472720  1
  O  O8  1  0.50000000  0.00000000  0.00000000  1
  O  O9  1  0.74793865  0.49587730  0.11990524  1
  O  O10  1  0.72485188  0.44970376  0.61527280  1
  O  O11  1  0.25206135  0.50412270  0.88009476  1
  O  O12  1  0.98973366  0.97946732  0.70892268  1
