# generated using pymatgen
data_FeH6(CO3)2
_symmetry_space_group_name_H-M   'P 1'
_cell_length_a   7.25267249
_cell_length_b   8.87258534
_cell_length_c   9.52729730
_cell_angle_alpha   97.47510650
_cell_angle_beta   90.00000000
_cell_angle_gamma   90.00000000
_symmetry_Int_Tables_number   1
_chemical_formula_structural   FeH6(CO3)2
_chemical_formula_sum   'Fe4 H24 C8 O24'
_cell_volume   607.87087461
_cell_formula_units_Z   4
loop_
 _symmetry_equiv_pos_site_id
 _symmetry_equiv_pos_as_xyz
  1  'x, y, z'
loop_
 _atom_site_type_symbol
 _atom_site_label
 _atom_site_symmetry_multiplicity
 _atom_site_fract_x
 _atom_site_fract_y
 _atom_site_fract_z
 _atom_site_occupancy
  Fe  Fe0  1  0.00000000  0.00000000  0.00000000  1
  Fe  Fe1  1  0.50000000  0.00000000  0.50000000  1
  Fe  Fe2  1  0.50000000  0.50000000  0.00000000  1
  Fe  Fe3  1  0.00000000  0.50000000  0.50000000  1
  C  C4  1  0.77697896  0.96123827  0.72403692  1
  C  C5  1  0.27697896  0.03876173  0.77596308  1
  C  C6  1  0.22302104  0.03876173  0.27596308  1
  C  C7  1  0.72302104  0.96123827  0.22403692  1
  H  H8  1  0.71075354  0.06670919  0.77435341  1
  H  H9  1  0.21075354  0.93329081  0.72564659  1
  H  H10  1  0.28924646  0.93329081  0.22564659  1
  H  H11  1  0.78924646  0.06670919  0.27435341  1
  C  C12  1  0.38475217  0.67399204  0.56681462  1
  C  C13  1  0.88475217  0.32600796  0.93318538  1
  C  C14  1  0.61524783  0.32600796  0.43318538  1
  C  C15  1  0.11524783  0.67399204  0.06681462  1
  H  H16  1  0.52616218  0.67207062  0.61014752  1
  H  H17  1  0.02616218  0.32792938  0.88985248  1
  H  H18  1  0.47383782  0.32792938  0.38985248  1
  H  H19  1  0.97383782  0.67207062  0.11014752  1
  O  O20  1  0.89546710  0.89753908  0.79434723  1
  O  O21  1  0.39546710  0.10246092  0.70565277  1
  O  O22  1  0.10453290  0.10246092  0.20565277  1
  O  O23  1  0.60453290  0.89753908  0.29434723  1
  O  O24  1  0.72931109  0.91056484  0.59781151  1
  O  O25  1  0.22931109  0.08943516  0.90218849  1
  O  O26  1  0.27068891  0.08943516  0.40218849  1
  O  O27  1  0.77068891  0.91056484  0.09781151  1
  O  O28  1  0.28028602  0.56277152  0.58371455  1
  O  O29  1  0.78028602  0.43722848  0.91628545  1
  O  O30  1  0.71971398  0.43722848  0.41628545  1
  O  O31  1  0.21971398  0.56277152  0.08371455  1
  O  O32  1  0.33909930  0.78777647  0.50514607  1
  O  O33  1  0.83909930  0.21222353  0.99485393  1
  O  O34  1  0.66090070  0.21222353  0.49485393  1
  O  O35  1  0.16090070  0.78777647  0.00514607  1
  O  O36  1  0.52026306  0.72424655  0.93285725  1
  O  O37  1  0.02026306  0.27575345  0.56714275  1
  O  O38  1  0.47973694  0.27575345  0.06714275  1
  O  O39  1  0.97973694  0.72424655  0.43285725  1
  H  H40  1  0.60934592  0.79109878  0.99014093  1
  H  H41  1  0.10934592  0.20890122  0.50985907  1
  H  H42  1  0.39065408  0.20890122  0.00985907  1
  H  H43  1  0.89065408  0.79109878  0.49014093  1
  H  H44  1  0.39440565  0.76625003  0.95434202  1
  H  H45  1  0.89440565  0.23374997  0.54565798  1
  H  H46  1  0.60559435  0.23374997  0.04565798  1
  H  H47  1  0.10559435  0.76625003  0.45434202  1
  O  O48  1  0.89088418  0.58917539  0.69943642  1
  O  O49  1  0.39088418  0.41082461  0.80056358  1
  O  O50  1  0.10911582  0.41082461  0.30056358  1
  O  O51  1  0.60911582  0.58917539  0.19943642  1
  H  H52  1  0.90170853  0.69826104  0.73695850  1
  H  H53  1  0.40170853  0.30173896  0.76304150  1
  H  H54  1  0.09829147  0.30173896  0.26304150  1
  H  H55  1  0.59829147  0.69826104  0.23695850  1
  H  H56  1  0.85261310  0.53313637  0.77878324  1
  H  H57  1  0.35261310  0.46686363  0.72121676  1
  H  H58  1  0.14738690  0.46686363  0.22121676  1
  H  H59  1  0.64738690  0.53313637  0.27878324  1
