# generated using pymatgen
data_WSNCl5
_symmetry_space_group_name_H-M   'P 1'
_cell_length_a   6.28812929
_cell_length_b   9.55590104
_cell_length_c   15.75879446
_cell_angle_alpha   90.00000000
_cell_angle_beta   91.77615925
_cell_angle_gamma   90.00000000
_symmetry_Int_Tables_number   1
_chemical_formula_structural   WSNCl5
_chemical_formula_sum   'W4 S4 N4 Cl20'
_cell_volume   946.47116601
_cell_formula_units_Z   4
loop_
 _symmetry_equiv_pos_site_id
 _symmetry_equiv_pos_as_xyz
  1  'x, y, z'
loop_
 _atom_site_type_symbol
 _atom_site_label
 _atom_site_symmetry_multiplicity
 _atom_site_fract_x
 _atom_site_fract_y
 _atom_site_fract_z
 _atom_site_occupancy
  W  W0  1  0.50654572  0.85290664  0.40953567  1
  W  W1  1  0.00654572  0.64709336  0.90953567  1
  W  W2  1  0.49345428  0.14709336  0.59046433  1
  W  W3  1  0.99345428  0.35290664  0.09046433  1
  S  S4  1  0.68363120  0.28796400  0.25575579  1
  S  S5  1  0.18363120  0.21203600  0.75575579  1
  S  S6  1  0.81636880  0.78796400  0.24424421  1
  S  S7  1  0.31636880  0.71203600  0.74424421  1
  N  N8  1  0.32801313  0.18447208  0.67785469  1
  N  N9  1  0.17198687  0.68447208  0.82214531  1
  N  N10  1  0.67198687  0.81552792  0.32214531  1
  N  N11  1  0.82801313  0.31552792  0.17785469  1
  Cl  Cl12  1  0.73850430  0.32606014  0.60881046  1
  Cl  Cl13  1  0.69911819  0.91627195  0.14878503  1
  Cl  Cl14  1  0.21589721  0.50656726  0.16257603  1
  Cl  Cl15  1  0.71589721  0.99343274  0.66257603  1
  Cl  Cl16  1  0.80088181  0.41627195  0.35121497  1
  Cl  Cl17  1  0.19911819  0.58372805  0.64878503  1
  Cl  Cl18  1  0.78434920  0.55833453  0.04356247  1
  Cl  Cl19  1  0.23850430  0.17393986  0.10881046  1
  Cl  Cl20  1  0.19142122  0.77368998  0.01146356  1
  Cl  Cl21  1  0.26149570  0.67393986  0.39118954  1
  Cl  Cl22  1  0.69142122  0.72631002  0.51146356  1
  Cl  Cl23  1  0.21565080  0.44166547  0.95643753  1
  Cl  Cl24  1  0.71565080  0.05833453  0.45643753  1
  Cl  Cl25  1  0.76149570  0.82606014  0.89118954  1
  Cl  Cl26  1  0.78410279  0.49343274  0.83742397  1
  Cl  Cl27  1  0.28434920  0.94166547  0.54356247  1
  Cl  Cl28  1  0.30088181  0.08372805  0.85121497  1
  Cl  Cl29  1  0.30857878  0.27368998  0.48853644  1
  Cl  Cl30  1  0.28410279  0.00656726  0.33742397  1
  Cl  Cl31  1  0.80857878  0.22631002  0.98853644  1
