# generated using pymatgen
data_SiO2
_symmetry_space_group_name_H-M   'P 1'
_cell_length_a   10.09109211
_cell_length_b   10.09109167
_cell_length_c   10.29627857
_cell_angle_alpha   90.00000000
_cell_angle_beta   90.00000000
_cell_angle_gamma   120.00000147
_symmetry_Int_Tables_number   1
_chemical_formula_structural   SiO2
_chemical_formula_sum   'Si12 O24'
_cell_volume   908.00289083
_cell_formula_units_Z   12
loop_
 _symmetry_equiv_pos_site_id
 _symmetry_equiv_pos_as_xyz
  1  'x, y, z'
loop_
 _atom_site_type_symbol
 _atom_site_label
 _atom_site_symmetry_multiplicity
 _atom_site_fract_x
 _atom_site_fract_y
 _atom_site_fract_z
 _atom_site_occupancy
  Si  Si0  1  0.56863854  0.13727708  0.60354483  1
  Si  Si1  1  0.43136146  0.56863854  0.10354483  1
  Si  Si2  1  0.56863854  0.43136146  0.60354483  1
  Si  Si3  1  0.86272292  0.43136146  0.60354483  1
  Si  Si4  1  0.43136146  0.56863854  0.39645517  1
  Si  Si5  1  0.13727708  0.56863854  0.39645517  1
  Si  Si6  1  0.86272292  0.43136146  0.89645517  1
  Si  Si7  1  0.43136146  0.86272292  0.39645517  1
  Si  Si8  1  0.43136146  0.86272292  0.10354483  1
  Si  Si9  1  0.56863854  0.13727708  0.89645517  1
  Si  Si10  1  0.56863854  0.43136146  0.89645517  1
  Si  Si11  1  0.13727708  0.56863854  0.10354483  1
  O  O12  1  0.24576694  0.49153388  0.08349908  1
  O  O13  1  0.53243236  0.46756764  0.75000000  1
  O  O14  1  0.75423306  0.50846612  0.91650092  1
  O  O15  1  0.50846612  0.75423306  0.08349908  1
  O  O16  1  0.75423306  0.24576694  0.58349908  1
  O  O17  1  0.50000000  0.50000000  0.50000000  1
  O  O18  1  0.53243236  0.06486471  0.75000000  1
  O  O19  1  0.24576694  0.49153388  0.41650092  1
  O  O20  1  0.24576694  0.75423306  0.08349908  1
  O  O21  1  0.49153388  0.24576694  0.58349908  1
  O  O22  1  0.46756764  0.93513529  0.25000000  1
  O  O23  1  0.50846612  0.75423306  0.41650092  1
  O  O24  1  0.06486471  0.53243236  0.25000000  1
  O  O25  1  0.00000000  0.50000000  0.00000000  1
  O  O26  1  0.93513529  0.46756764  0.75000000  1
  O  O27  1  0.50000000  0.00000000  0.00000000  1
  O  O28  1  0.49153388  0.24576694  0.91650092  1
  O  O29  1  0.75423306  0.24576694  0.91650092  1
  O  O30  1  0.46756764  0.53243236  0.25000000  1
  O  O31  1  0.24576694  0.75423306  0.41650092  1
  O  O32  1  0.75423306  0.50846612  0.58349908  1
  O  O33  1  0.50000000  0.00000000  0.50000000  1
  O  O34  1  0.50000000  0.50000000  0.00000000  1
  O  O35  1  0.00000000  0.50000000  0.50000000  1
