# generated using pymatgen
data_RbMg30BO32
_symmetry_space_group_name_H-M   'P 1'
_cell_length_a   8.75714801
_cell_length_b   8.75714801
_cell_length_c   8.35961529
_cell_angle_alpha   90.00000000
_cell_angle_beta   90.00000000
_cell_angle_gamma   90.00000000
_symmetry_Int_Tables_number   1
_chemical_formula_structural   RbMg30BO32
_chemical_formula_sum   'Rb1 Mg30 B1 O32'
_cell_volume   641.07917851
_cell_formula_units_Z   1
loop_
 _symmetry_equiv_pos_site_id
 _symmetry_equiv_pos_as_xyz
  1  'x, y, z'
loop_
 _atom_site_type_symbol
 _atom_site_label
 _atom_site_symmetry_multiplicity
 _atom_site_fract_x
 _atom_site_fract_y
 _atom_site_fract_z
 _atom_site_occupancy
  Rb  Rb0  1  0.00000000  -0.00000000  -0.00000000  1
  Mg  Mg1  1  0.00000000  0.50000000  -0.00000000  1
  Mg  Mg2  1  -0.00000000  0.50000000  0.50000000  1
  Mg  Mg3  1  0.50000000  -0.00000000  -0.00000000  1
  Mg  Mg4  1  0.50000000  0.00000000  0.50000000  1
  Mg  Mg5  1  0.50000000  0.50000000  -0.00000000  1
  Mg  Mg6  1  0.50000000  0.50000000  0.50000000  1
  Mg  Mg7  1  -0.00000000  0.26564988  0.25581033  1
  Mg  Mg8  1  0.00000000  0.26564988  0.74418967  1
  Mg  Mg9  1  -0.00000000  0.73435012  0.25581033  1
  Mg  Mg10  1  0.00000000  0.73435012  0.74418967  1
  Mg  Mg11  1  0.50000000  0.25169579  0.25065802  1
  Mg  Mg12  1  0.50000000  0.25169579  0.74934198  1
  Mg  Mg13  1  0.50000000  0.74830421  0.25065802  1
  Mg  Mg14  1  0.50000000  0.74830421  0.74934198  1
  Mg  Mg15  1  0.26564988  0.00000000  0.25581033  1
  Mg  Mg16  1  0.26564988  -0.00000000  0.74418967  1
  Mg  Mg17  1  0.25169579  0.50000000  0.25065802  1
  Mg  Mg18  1  0.25169579  0.50000000  0.74934198  1
  Mg  Mg19  1  0.73435012  0.00000000  0.25581033  1
  Mg  Mg20  1  0.73435012  -0.00000000  0.74418967  1
  Mg  Mg21  1  0.74830421  0.50000000  0.25065802  1
  Mg  Mg22  1  0.74830421  0.50000000  0.74934198  1
  Mg  Mg23  1  0.25337726  0.25337726  -0.00000000  1
  Mg  Mg24  1  0.24765705  0.24765705  0.50000000  1
  Mg  Mg25  1  0.25337726  0.74662274  -0.00000000  1
  Mg  Mg26  1  0.24765705  0.75234295  0.50000000  1
  Mg  Mg27  1  0.74662274  0.25337726  -0.00000000  1
  Mg  Mg28  1  0.75234295  0.24765705  0.50000000  1
  Mg  Mg29  1  0.74662274  0.74662274  -0.00000000  1
  Mg  Mg30  1  0.75234295  0.75234295  0.50000000  1
  B  B31  1  0.00000000  0.00000000  0.50000000  1
  O  O32  1  0.27712038  -0.00000000  -0.00000000  1
  O  O33  1  0.26739385  0.00000000  0.50000000  1
  O  O34  1  0.25591854  0.50000000  -0.00000000  1
  O  O35  1  0.25310913  0.50000000  0.50000000  1
  O  O36  1  0.72287962  -0.00000000  -0.00000000  1
  O  O37  1  0.73260615  0.00000000  0.50000000  1
  O  O38  1  0.74408146  0.50000000  -0.00000000  1
  O  O39  1  0.74689087  0.50000000  0.50000000  1
  O  O40  1  0.24633695  0.24633695  0.24949526  1
  O  O41  1  0.24633695  0.24633695  0.75050474  1
  O  O42  1  0.24633695  0.75366305  0.24949526  1
  O  O43  1  0.24633695  0.75366305  0.75050474  1
  O  O44  1  0.75366305  0.24633695  0.24949526  1
  O  O45  1  0.75366305  0.24633695  0.75050474  1
  O  O46  1  0.75366305  0.75366305  0.24949526  1
  O  O47  1  0.75366305  0.75366305  0.75050474  1
  O  O48  1  -0.00000000  0.00000000  0.33893482  1
  O  O49  1  0.00000000  -0.00000000  0.66106518  1
  O  O50  1  -0.00000000  0.50000000  0.25241569  1
  O  O51  1  0.00000000  0.50000000  0.74758431  1
  O  O52  1  0.50000000  0.00000000  0.25241569  1
  O  O53  1  0.50000000  -0.00000000  0.74758431  1
  O  O54  1  0.50000000  0.50000000  0.25085612  1
  O  O55  1  0.50000000  0.50000000  0.74914388  1
  O  O56  1  -0.00000000  0.27712038  -0.00000000  1
  O  O57  1  -0.00000000  0.26739385  0.50000000  1
  O  O58  1  -0.00000000  0.72287962  -0.00000000  1
  O  O59  1  0.00000000  0.73260615  0.50000000  1
  O  O60  1  0.50000000  0.25591854  -0.00000000  1
  O  O61  1  0.50000000  0.25310913  0.50000000  1
  O  O62  1  0.50000000  0.74408146  -0.00000000  1
  O  O63  1  0.50000000  0.74689087  0.50000000  1
