# generated using pymatgen
data_Ba2CoReO6
_symmetry_space_group_name_H-M   'P 1'
_cell_length_a   5.79643600
_cell_length_b   5.79754708
_cell_length_c   5.79720790
_cell_angle_alpha   59.99445644
_cell_angle_beta   59.98881609
_cell_angle_gamma   59.99063617
_symmetry_Int_Tables_number   1
_chemical_formula_structural   Ba2CoReO6
_chemical_formula_sum   'Ba2 Co1 Re1 O6'
_cell_volume   137.72841672
_cell_formula_units_Z   1
loop_
 _symmetry_equiv_pos_site_id
 _symmetry_equiv_pos_as_xyz
  1  'x, y, z'
loop_
 _atom_site_type_symbol
 _atom_site_label
 _atom_site_symmetry_multiplicity
 _atom_site_fract_x
 _atom_site_fract_y
 _atom_site_fract_z
 _atom_site_occupancy
  O  O0  1  0.26477136  0.73517673  0.26486926  1
  O  O1  1  0.26469065  0.26490910  0.73526007  1
  O  O2  1  0.73528435  0.26484905  0.26473877  1
  Ba  Ba3  1  0.75000235  0.75000596  0.75000046  1
  O  O4  1  0.73530103  0.73513186  0.26471903  1
  Ba  Ba5  1  0.25003699  0.24999129  0.24998318  1
  O  O6  1  0.26469271  0.73513468  0.73525914  1
  Re  Re7  1  0.50001378  0.50000183  0.49999395  1
  Co  Co8  1  0.00000126  0.99999919  0.99999953  1
  O  O9  1  0.73520551  0.26480031  0.73517661  1
