# generated using pymatgen
data_Tl(MoO3)3
_symmetry_space_group_name_H-M   'P 1'
_cell_length_a   6.57871767
_cell_length_b   7.85105578
_cell_length_c   8.64807502
_cell_angle_alpha   116.99542474
_cell_angle_beta   92.47263563
_cell_angle_gamma   90.00000162
_symmetry_Int_Tables_number   1
_chemical_formula_structural   Tl(MoO3)3
_chemical_formula_sum   'Tl2 Mo6 O18'
_cell_volume   397.53709713
_cell_formula_units_Z   2
loop_
 _symmetry_equiv_pos_site_id
 _symmetry_equiv_pos_as_xyz
  1  'x, y, z'
loop_
 _atom_site_type_symbol
 _atom_site_label
 _atom_site_symmetry_multiplicity
 _atom_site_fract_x
 _atom_site_fract_y
 _atom_site_fract_z
 _atom_site_occupancy
  Tl  Tl0  1  0.17705215  0.30150203  0.60300406  1
  Tl  Tl1  1  0.82294785  0.69849797  0.39699594  1
  Mo  Mo2  1  0.63804205  0.11703292  0.23406584  1
  Mo  Mo3  1  0.36195795  0.88296708  0.76593416  1
  Mo  Mo4  1  0.26837761  0.79590105  0.11149361  1
  Mo  Mo5  1  0.73162239  0.68440744  0.88850639  1
  Mo  Mo6  1  0.73162239  0.20409895  0.88850639  1
  Mo  Mo7  1  0.26837761  0.31559256  0.11149361  1
  O  O8  1  1.00000000  0.74832127  1.00000000  1
  O  O9  1  0.00000000  0.25167873  0.00000000  1
  O  O10  1  0.51624898  0.21466764  0.42933529  1
  O  O11  1  0.48375102  0.78533236  0.57066471  1
  O  O12  1  0.89449155  0.14775814  0.29551627  1
  O  O13  1  0.10550845  0.85224186  0.70448373  1
  O  O14  1  0.29591467  0.53668032  0.07336063  1
  O  O15  1  0.70408533  0.46331968  0.92663937  1
  O  O16  1  0.30665461  0.03536163  0.07072325  1
  O  O17  1  0.69334539  0.96463837  0.92927675  1
  O  O18  1  0.21110424  0.90294392  0.32679918  1
  O  O19  1  0.78889576  0.57614474  0.67320082  1
  O  O20  1  0.78889576  0.09705608  0.67320082  1
  O  O21  1  0.21110424  0.42385526  0.32679918  1
  O  O22  1  0.58652656  0.84301137  0.15826474  1
  O  O23  1  0.41347344  0.68474663  0.84173526  1
  O  O24  1  0.41347344  0.15698863  0.84173526  1
  O  O25  1  0.58652656  0.31525337  0.15826474  1
