# generated using pymatgen
data_La2TiZnO6
_symmetry_space_group_name_H-M   'P 1'
_cell_length_a   5.60179623
_cell_length_b   5.70671012
_cell_length_c   7.95718039
_cell_angle_alpha   90.00000000
_cell_angle_beta   90.05733409
_cell_angle_gamma   90.00000000
_symmetry_Int_Tables_number   1
_chemical_formula_structural   La2TiZnO6
_chemical_formula_sum   'La4 Ti2 Zn2 O12'
_cell_volume   254.37364063
_cell_formula_units_Z   2
loop_
 _symmetry_equiv_pos_site_id
 _symmetry_equiv_pos_as_xyz
  1  'x, y, z'
loop_
 _atom_site_type_symbol
 _atom_site_label
 _atom_site_symmetry_multiplicity
 _atom_site_fract_x
 _atom_site_fract_y
 _atom_site_fract_z
 _atom_site_occupancy
  La  La0  1  0.00998586  0.95529684  0.75089471  1
  La  La1  1  0.49001414  0.45529684  0.74910529  1
  La  La2  1  0.99001414  0.04470316  0.24910529  1
  La  La3  1  0.50998586  0.54470316  0.25089471  1
  Ti  Ti4  1  0.00000000  0.50000000  0.50000000  1
  Ti  Ti5  1  0.50000000  0.00000000  0.00000000  1
  Zn  Zn6  1  0.00000000  0.50000000  0.00000000  1
  Zn  Zn7  1  0.50000000  0.00000000  0.50000000  1
  O  O8  1  0.30328692  0.71694615  0.95042981  1
  O  O9  1  0.21819675  0.19806788  0.95391442  1
  O  O10  1  0.08980871  0.47393811  0.26006958  1
  O  O11  1  0.41019129  0.97393811  0.23993042  1
  O  O12  1  0.28180325  0.69806788  0.54608558  1
  O  O13  1  0.19671308  0.21694615  0.54957019  1
  O  O14  1  0.80328692  0.78305385  0.45042981  1
  O  O15  1  0.71819675  0.30193212  0.45391442  1
  O  O16  1  0.69671308  0.28305385  0.04957019  1
  O  O17  1  0.91019129  0.52606189  0.73993042  1
  O  O18  1  0.78180325  0.80193212  0.04608558  1
  O  O19  1  0.58980871  0.02606189  0.76006958  1
