# generated using pymatgen
data_Si2Ag6O7
_symmetry_space_group_name_H-M   'P 1'
_cell_length_a   8.18226637
_cell_length_b   8.18226607
_cell_length_c   10.85646751
_cell_angle_alpha   76.93463659
_cell_angle_beta   76.93463711
_cell_angle_gamma   74.67012456
_symmetry_Int_Tables_number   1
_chemical_formula_structural   Si2Ag6O7
_chemical_formula_sum   'Si6 Ag18 O21'
_cell_volume   672.04455039
_cell_formula_units_Z   3
loop_
 _symmetry_equiv_pos_site_id
 _symmetry_equiv_pos_as_xyz
  1  'x, y, z'
loop_
 _atom_site_type_symbol
 _atom_site_label
 _atom_site_symmetry_multiplicity
 _atom_site_fract_x
 _atom_site_fract_y
 _atom_site_fract_z
 _atom_site_occupancy
  Si  Si0  1  0.89483276  0.89483276  0.12670075  1
  Si  Si1  1  0.10516724  0.10516724  0.87329925  1
  Si  Si2  1  0.80278803  0.80278803  0.61737171  1
  Si  Si3  1  0.34392082  0.34392082  0.87245245  1
  Si  Si4  1  0.19721197  0.19721197  0.38262829  1
  Si  Si5  1  0.65607918  0.65607918  0.12754755  1
  Ag  Ag6  1  0.44001999  0.72500489  0.86139451  1
  Ag  Ag7  1  0.55998001  0.27499511  0.13860549  1
  Ag  Ag8  1  0.10401271  0.44917070  0.62059791  1
  Ag  Ag9  1  0.54114883  0.54114883  0.63565426  1
  Ag  Ag10  1  0.63744782  0.99640690  0.86526656  1
  Ag  Ag11  1  0.55082930  0.89598729  0.37940209  1
  Ag  Ag12  1  0.16182437  0.85988542  0.65699795  1
  Ag  Ag13  1  0.36255218  0.00359310  0.13473344  1
  Ag  Ag14  1  0.85988542  0.16182437  0.65699795  1
  Ag  Ag15  1  0.89598729  0.55082930  0.37940209  1
  Ag  Ag16  1  0.72500489  0.44001999  0.86139451  1
  Ag  Ag17  1  0.00359310  0.36255218  0.13473344  1
  Ag  Ag18  1  0.45885117  0.45885117  0.36434574  1
  Ag  Ag19  1  0.27499511  0.55998001  0.13860549  1
  Ag  Ag20  1  0.44917070  0.10401271  0.62059791  1
  Ag  Ag21  1  0.14011458  0.83817563  0.34300205  1
  Ag  Ag22  1  0.83817563  0.14011458  0.34300205  1
  Ag  Ag23  1  0.99640690  0.63744782  0.86526656  1
  O  O24  1  0.24636187  0.24636187  0.22176850  1
  O  O25  1  0.52509151  0.24920507  0.92670548  1
  O  O26  1  0.62597830  0.62597830  0.28589232  1
  O  O27  1  0.75079493  0.47490849  0.07329452  1
  O  O28  1  0.01358962  0.73986285  0.57062440  1
  O  O29  1  0.75283595  0.02548188  0.21336210  1
  O  O30  1  0.47490849  0.75079493  0.07329452  1
  O  O31  1  0.97451812  0.24716405  0.78663790  1
  O  O32  1  0.29442791  0.29442791  0.45355474  1
  O  O33  1  0.24716405  0.97451812  0.78663790  1
  O  O34  1  0.26013715  0.98641038  0.42937560  1
  O  O35  1  0.24920507  0.52509151  0.92670548  1
  O  O36  1  0.79025763  0.79025763  0.06757188  1
  O  O37  1  0.70557209  0.70557209  0.54644526  1
  O  O38  1  0.75363813  0.75363813  0.77823150  1
  O  O39  1  0.20974237  0.20974237  0.93242812  1
  O  O40  1  0.37402170  0.37402170  0.71410768  1
  O  O41  1  0.02548188  0.75283595  0.21336210  1
  O  O42  1  0.00000000  0.00000000  0.00000000  1
  O  O43  1  0.73986285  0.01358962  0.57062440  1
  O  O44  1  0.98641038  0.26013715  0.42937560  1
