# generated using pymatgen
data_CuH12C4(NO)6
_symmetry_space_group_name_H-M   'P 1'
_cell_length_a   9.14677737
_cell_length_b   9.14677737
_cell_length_c   12.77044338
_cell_angle_alpha   90.00000000
_cell_angle_beta   90.00000000
_cell_angle_gamma   90.00000000
_symmetry_Int_Tables_number   1
_chemical_formula_structural   CuH12C4(NO)6
_chemical_formula_sum   'Cu4 H48 C16 N24 O24'
_cell_volume   1068.42045273
_cell_formula_units_Z   4
loop_
 _symmetry_equiv_pos_site_id
 _symmetry_equiv_pos_as_xyz
  1  'x, y, z'
loop_
 _atom_site_type_symbol
 _atom_site_label
 _atom_site_symmetry_multiplicity
 _atom_site_fract_x
 _atom_site_fract_y
 _atom_site_fract_z
 _atom_site_occupancy
  Cu  Cu0  1  0.00000000  0.50000000  0.25000000  1
  Cu  Cu1  1  0.50000000  0.50000000  0.50000000  1
  Cu  Cu2  1  0.00000000  0.00000000  0.00000000  1
  Cu  Cu3  1  0.50000000  0.00000000  0.75000000  1
  H  H4  1  0.68667363  0.82314980  0.04143249  1
  H  H5  1  0.81332637  0.32314980  0.54143249  1
  H  H6  1  0.47174422  0.37385353  0.25188618  1
  H  H7  1  0.37385353  0.52825578  0.74811382  1
  H  H8  1  0.48442388  0.14047964  0.98145603  1
  H  H9  1  0.35952036  0.01557612  0.51854397  1
  H  H10  1  0.80798783  0.80473124  0.68268493  1
  H  H11  1  0.68852092  0.64748116  0.17831961  1
  H  H12  1  0.82242613  0.70012764  0.92015954  1
  H  H13  1  0.18667363  0.67685020  0.54143249  1
  H  H14  1  0.32314980  0.18667363  0.45856751  1
  H  H15  1  0.98442388  0.35952036  0.48145603  1
  H  H16  1  0.81147908  0.14748116  0.67831961  1
  H  H17  1  0.31147908  0.35251884  0.17831961  1
  H  H18  1  0.02825578  0.87385353  0.75188618  1
  H  H19  1  0.17685020  0.68667363  0.95856751  1
  H  H20  1  0.67685020  0.81332637  0.45856751  1
  H  H21  1  0.18852092  0.85251884  0.67831961  1
  H  H22  1  0.87385353  0.97174422  0.24811382  1
  H  H23  1  0.30798783  0.69526876  0.18268493  1
  H  H24  1  0.12614647  0.02825578  0.24811382  1
  H  H25  1  0.32242613  0.79987236  0.42015954  1
  H  H26  1  0.19526876  0.80798783  0.31731507  1
  H  H27  1  0.70012764  0.17757387  0.07984046  1
  H  H28  1  0.14748116  0.18852092  0.32168039  1
  H  H29  1  0.97174422  0.12614647  0.75188618  1
  H  H30  1  0.69201217  0.30473124  0.18268493  1
  H  H31  1  0.67757387  0.20012764  0.42015954  1
  H  H32  1  0.52825578  0.62614647  0.25188618  1
  H  H33  1  0.14047964  0.51557612  0.01854397  1
  H  H34  1  0.85251884  0.81147908  0.32168039  1
  H  H35  1  0.31332637  0.17685020  0.04143249  1
  H  H36  1  0.30473124  0.30798783  0.81731507  1
  H  H37  1  0.82314980  0.31332637  0.95856751  1
  H  H38  1  0.51557612  0.85952036  0.98145603  1
  H  H39  1  0.79987236  0.67757387  0.57984046  1
  H  H40  1  0.35251884  0.68852092  0.82168039  1
  H  H41  1  0.01557612  0.64047964  0.48145603  1
  H  H42  1  0.64748116  0.31147908  0.82168039  1
  H  H43  1  0.69526876  0.69201217  0.81731507  1
  H  H44  1  0.29987236  0.82242613  0.07984046  1
  H  H45  1  0.85952036  0.48442388  0.01854397  1
  H  H46  1  0.64047964  0.98442388  0.51854397  1
  H  H47  1  0.20012764  0.32242613  0.57984046  1
  H  H48  1  0.17757387  0.29987236  0.92015954  1
  H  H49  1  0.80473124  0.19201217  0.31731507  1
  H  H50  1  0.19201217  0.19526876  0.68268493  1
  H  H51  1  0.62614647  0.47174422  0.74811382  1
  C  C52  1  0.75270746  0.49403949  0.87836127  1
  C  C53  1  0.95739706  0.74370410  0.11971280  1
  C  C54  1  0.45739706  0.75629590  0.61971280  1
  C  C55  1  0.24370410  0.45739706  0.38028720  1
  C  C56  1  0.49403949  0.24729254  0.12163873  1
  C  C57  1  0.74370410  0.04260294  0.88028720  1
  C  C58  1  0.74729254  0.99403949  0.37836127  1
  C  C59  1  0.25629590  0.95739706  0.88028720  1
  C  C60  1  0.24729254  0.50596051  0.87836127  1
  C  C61  1  0.99403949  0.25270746  0.62163873  1
  C  C62  1  0.54260294  0.24370410  0.61971280  1
  C  C63  1  0.50596051  0.75270746  0.12163873  1
  C  C64  1  0.04260294  0.25629590  0.11971280  1
  C  C65  1  0.75629590  0.54260294  0.38028720  1
  C  C66  1  0.00596051  0.74729254  0.62163873  1
  C  C67  1  0.25270746  0.00596051  0.37836127  1
  N  N68  1  0.13926415  0.25915521  0.62959264  1
  N  N69  1  0.57481589  0.82406227  0.04470994  1
  N  N70  1  0.42518411  0.17593773  0.04470994  1
  N  N71  1  0.58246676  0.67663385  0.19263382  1
  N  N72  1  0.67663385  0.41753324  0.80736618  1
  N  N73  1  0.07481589  0.67593773  0.54470994  1
  N  N74  1  0.75915521  0.63926415  0.87040736  1
  N  N75  1  0.24084479  0.36073585  0.87040736  1
  N  N76  1  0.91753324  0.17663385  0.69263382  1
  N  N77  1  0.25915521  0.86073585  0.37040736  1
  N  N78  1  0.36073585  0.75915521  0.12959264  1
  N  N79  1  0.74084479  0.13926415  0.37040736  1
  N  N80  1  0.41753324  0.32336615  0.19263382  1
  N  N81  1  0.17663385  0.08246676  0.30736618  1
  N  N82  1  0.86073585  0.74084479  0.62959264  1
  N  N83  1  0.08246676  0.82336615  0.69263382  1
  N  N84  1  0.67593773  0.92518411  0.45529006  1
  N  N85  1  0.17593773  0.57481589  0.95529006  1
  N  N86  1  0.63926415  0.24084479  0.12959264  1
  N  N87  1  0.32336615  0.58246676  0.80736618  1
  N  N88  1  0.92518411  0.32406227  0.54470994  1
  N  N89  1  0.32406227  0.07481589  0.45529006  1
  N  N90  1  0.82406227  0.42518411  0.95529006  1
  N  N91  1  0.82336615  0.91753324  0.30736618  1
  O  O92  1  0.18796963  0.90181908  0.96205620  1
  O  O93  1  0.88655476  0.60027263  0.36174110  1
  O  O94  1  0.68796963  0.59818092  0.46205620  1
  O  O95  1  0.11344524  0.39972737  0.36174110  1
  O  O96  1  0.29825827  0.55661961  0.32355572  1
  O  O97  1  0.59818092  0.31203037  0.53794380  1
  O  O98  1  0.20174173  0.05661961  0.82355572  1
  O  O99  1  0.70174173  0.44338039  0.32355572  1
  O  O100  1  0.09818092  0.18796963  0.03794380  1
  O  O101  1  0.81203037  0.09818092  0.96205620  1
  O  O102  1  0.79825827  0.94338039  0.82355572  1
  O  O103  1  0.94338039  0.20174173  0.17644428  1
  O  O104  1  0.55661961  0.70174173  0.67644428  1
  O  O105  1  0.38655476  0.89972737  0.86174110  1
  O  O106  1  0.44338039  0.29825827  0.67644428  1
  O  O107  1  0.60027263  0.11344524  0.63825890  1
  O  O108  1  0.05661961  0.79825827  0.17644428  1
  O  O109  1  0.61344524  0.10027263  0.86174110  1
  O  O110  1  0.39972737  0.88655476  0.63825890  1
  O  O111  1  0.10027263  0.38655476  0.13825890  1
  O  O112  1  0.40181908  0.68796963  0.53794380  1
  O  O113  1  0.89972737  0.61344524  0.13825890  1
  O  O114  1  0.31203037  0.40181908  0.46205620  1
  O  O115  1  0.90181908  0.81203037  0.03794380  1
