# generated using pymatgen
data_RbMg30SiO32
_symmetry_space_group_name_H-M   'P 1'
_cell_length_a   8.66213712
_cell_length_b   8.66213712
_cell_length_c   8.55714231
_cell_angle_alpha   90.00000000
_cell_angle_beta   90.00000000
_cell_angle_gamma   90.00000000
_symmetry_Int_Tables_number   1
_chemical_formula_structural   RbMg30SiO32
_chemical_formula_sum   'Rb1 Mg30 Si1 O32'
_cell_volume   642.06480283
_cell_formula_units_Z   1
loop_
 _symmetry_equiv_pos_site_id
 _symmetry_equiv_pos_as_xyz
  1  'x, y, z'
loop_
 _atom_site_type_symbol
 _atom_site_label
 _atom_site_symmetry_multiplicity
 _atom_site_fract_x
 _atom_site_fract_y
 _atom_site_fract_z
 _atom_site_occupancy
  Rb  Rb0  1  -0.00000000  0.00000000  0.50000000  1
  Mg  Mg1  1  -0.00000000  0.50000000  0.00000000  1
  Mg  Mg2  1  -0.00000000  0.50000000  0.50000000  1
  Mg  Mg3  1  0.50000000  0.00000000  0.00000000  1
  Mg  Mg4  1  0.50000000  0.00000000  0.50000000  1
  Mg  Mg5  1  0.50000000  0.50000000  0.00000000  1
  Mg  Mg6  1  0.50000000  0.50000000  0.50000000  1
  Mg  Mg7  1  -0.00000000  0.25702482  0.25061005  1
  Mg  Mg8  1  -0.00000000  0.25702482  0.74938995  1
  Mg  Mg9  1  -0.00000000  0.74297518  0.25061005  1
  Mg  Mg10  1  -0.00000000  0.74297518  0.74938995  1
  Mg  Mg11  1  0.50000000  0.25133242  0.25070429  1
  Mg  Mg12  1  0.50000000  0.25133242  0.74929571  1
  Mg  Mg13  1  0.50000000  0.74866758  0.25070429  1
  Mg  Mg14  1  0.50000000  0.74866758  0.74929571  1
  Mg  Mg15  1  0.25702482  0.00000000  0.25061005  1
  Mg  Mg16  1  0.25702482  -0.00000000  0.74938995  1
  Mg  Mg17  1  0.25133242  0.50000000  0.25070429  1
  Mg  Mg18  1  0.25133242  0.50000000  0.74929571  1
  Mg  Mg19  1  0.74297518  0.00000000  0.25061005  1
  Mg  Mg20  1  0.74297518  -0.00000000  0.74938995  1
  Mg  Mg21  1  0.74866758  0.50000000  0.25070429  1
  Mg  Mg22  1  0.74866758  0.50000000  0.74929571  1
  Mg  Mg23  1  0.25081253  0.25081253  0.00000000  1
  Mg  Mg24  1  0.25406125  0.25406125  0.50000000  1
  Mg  Mg25  1  0.25081253  0.74918747  0.00000000  1
  Mg  Mg26  1  0.25406125  0.74593875  0.50000000  1
  Mg  Mg27  1  0.74918747  0.25081253  0.00000000  1
  Mg  Mg28  1  0.74593875  0.25406125  0.50000000  1
  Mg  Mg29  1  0.74918747  0.74918747  0.00000000  1
  Mg  Mg30  1  0.74593875  0.74593875  0.50000000  1
  Si  Si31  1  -0.00000000  0.00000000  0.00000000  1
  O  O32  1  0.22658067  -0.00000000  0.00000000  1
  O  O33  1  0.27854976  0.00000000  0.50000000  1
  O  O34  1  0.24743636  0.50000000  0.00000000  1
  O  O35  1  0.25528960  0.50000000  0.50000000  1
  O  O36  1  0.77341933  0.00000000  0.00000000  1
  O  O37  1  0.72145024  0.00000000  0.50000000  1
  O  O38  1  0.75256364  0.50000000  0.00000000  1
  O  O39  1  0.74471040  0.50000000  0.50000000  1
  O  O40  1  0.24847137  0.24847137  0.24941258  1
  O  O41  1  0.24847137  0.24847137  0.75058742  1
  O  O42  1  0.24847137  0.75152863  0.24941258  1
  O  O43  1  0.24847137  0.75152863  0.75058742  1
  O  O44  1  0.75152863  0.24847137  0.24941258  1
  O  O45  1  0.75152863  0.24847137  0.75058742  1
  O  O46  1  0.75152863  0.75152863  0.24941258  1
  O  O47  1  0.75152863  0.75152863  0.75058742  1
  O  O48  1  -0.00000000  0.00000000  0.20319580  1
  O  O49  1  -0.00000000  0.00000000  0.79680420  1
  O  O50  1  -0.00000000  0.50000000  0.23978318  1
  O  O51  1  -0.00000000  0.50000000  0.76021682  1
  O  O52  1  0.50000000  0.00000000  0.23978318  1
  O  O53  1  0.50000000  0.00000000  0.76021682  1
  O  O54  1  0.50000000  0.50000000  0.24680705  1
  O  O55  1  0.50000000  0.50000000  0.75319295  1
  O  O56  1  -0.00000000  0.22658067  0.00000000  1
  O  O57  1  -0.00000000  0.27854976  0.50000000  1
  O  O58  1  -0.00000000  0.77341933  0.00000000  1
  O  O59  1  -0.00000000  0.72145024  0.50000000  1
  O  O60  1  0.50000000  0.24743636  0.00000000  1
  O  O61  1  0.50000000  0.25528960  0.50000000  1
  O  O62  1  0.50000000  0.75256364  0.00000000  1
  O  O63  1  0.50000000  0.74471040  0.50000000  1
