# generated using pymatgen
data_V2CdO6
_symmetry_space_group_name_H-M   'P 1'
_cell_length_a   4.96966935
_cell_length_b   5.85515414
_cell_length_c   14.38215693
_cell_angle_alpha   90.00000000
_cell_angle_beta   90.00000000
_cell_angle_gamma   90.00000000
_symmetry_Int_Tables_number   1
_chemical_formula_structural   V2CdO6
_chemical_formula_sum   'V8 Cd4 O24'
_cell_volume   418.49459213
_cell_formula_units_Z   4
loop_
 _symmetry_equiv_pos_site_id
 _symmetry_equiv_pos_as_xyz
  1  'x, y, z'
loop_
 _atom_site_type_symbol
 _atom_site_label
 _atom_site_symmetry_multiplicity
 _atom_site_fract_x
 _atom_site_fract_y
 _atom_site_fract_z
 _atom_site_occupancy
  V  V0  1  0.22121469  0.18271141  0.66749242  1
  V  V1  1  0.22121469  0.68271141  0.83250758  1
  V  V2  1  0.72121469  0.31728759  0.83250758  1
  V  V3  1  0.27878531  0.18271141  0.33250758  1
  V  V4  1  0.27878531  0.68271141  0.16749242  1
  V  V5  1  0.77878531  0.31728759  0.16749242  1
  V  V6  1  0.72121469  0.81728859  0.66749242  1
  V  V7  1  0.77878531  0.81728859  0.33250758  1
  Cd  Cd8  1  0.25000000  0.21802395  0.00000000  1
  Cd  Cd9  1  0.75000000  0.28197605  0.50000000  1
  Cd  Cd10  1  0.75000000  0.78197605  0.00000000  1
  Cd  Cd11  1  0.25000000  0.71802395  0.50000000  1
  O  O12  1  0.89404448  0.65089582  0.75384387  1
  O  O13  1  0.38677015  0.88031805  0.09014152  1
  O  O14  1  0.38677015  0.38031805  0.40985848  1
  O  O15  1  0.48157396  0.42198697  0.10628791  1
  O  O16  1  0.01842604  0.92198697  0.60628791  1
  O  O17  1  0.51842604  0.07801303  0.60628791  1
  O  O18  1  0.11322985  0.88031805  0.90985848  1
  O  O19  1  0.98157396  0.07801303  0.39371209  1
  O  O20  1  0.10595552  0.34910418  0.24615613  1
  O  O21  1  0.11322985  0.38031805  0.59014152  1
  O  O22  1  0.88677015  0.61968195  0.40985848  1
  O  O23  1  0.48157396  0.92198697  0.39371209  1
  O  O24  1  0.89404448  0.15089582  0.74615613  1
  O  O25  1  0.01842604  0.42198697  0.89371209  1
  O  O26  1  0.51842604  0.57801303  0.89371209  1
  O  O27  1  0.98157396  0.57801303  0.10628791  1
  O  O28  1  0.61322985  0.11968195  0.90985848  1
  O  O29  1  0.39404448  0.84910418  0.74615613  1
  O  O30  1  0.10595552  0.84910418  0.25384387  1
  O  O31  1  0.88677015  0.11968195  0.09014152  1
  O  O32  1  0.61322985  0.61968195  0.59014152  1
  O  O33  1  0.39404448  0.34910418  0.75384387  1
  O  O34  1  0.60595552  0.65089582  0.24615613  1
  O  O35  1  0.60595552  0.15089582  0.25384387  1
