# generated using pymatgen
data_Li2V2(SO4)3
_symmetry_space_group_name_H-M   'P 1'
_cell_length_a   8.01328716
_cell_length_b   8.01328775
_cell_length_c   8.85351437
_cell_angle_alpha   68.34611369
_cell_angle_beta   68.34611215
_cell_angle_gamma   66.68717125
_symmetry_Int_Tables_number   1
_chemical_formula_structural   Li2V2(SO4)3
_chemical_formula_sum   'Li4 V4 S6 O24'
_cell_volume   468.40145065
_cell_formula_units_Z   2
loop_
 _symmetry_equiv_pos_site_id
 _symmetry_equiv_pos_as_xyz
  1  'x, y, z'
loop_
 _atom_site_type_symbol
 _atom_site_label
 _atom_site_symmetry_multiplicity
 _atom_site_fract_x
 _atom_site_fract_y
 _atom_site_fract_z
 _atom_site_occupancy
  Li  Li0  1  0.32504485  0.13020620  0.45234493  1
  Li  Li1  1  0.13020620  0.32504485  0.95234493  1
  Li  Li2  1  0.86979380  0.67495515  0.04765507  1
  Li  Li3  1  0.67495515  0.86979380  0.54765507  1
  V  V4  1  0.12804102  0.62841450  0.51552488  1
  V  V5  1  0.62841450  0.12804102  0.01552488  1
  V  V6  1  0.87195898  0.37158550  0.48447512  1
  V  V7  1  0.37158550  0.87195898  0.98447512  1
  S  S8  1  0.93735057  0.06264943  0.25000000  1
  S  S9  1  0.45737816  0.24811268  0.67965002  1
  S  S10  1  0.54262184  0.75188732  0.32034998  1
  S  S11  1  0.24811268  0.45737816  0.17965002  1
  S  S12  1  0.75188732  0.54262184  0.82034998  1
  S  S13  1  0.06264943  0.93735057  0.75000000  1
  O  O14  1  0.05326601  0.12188081  0.61749369  1
  O  O15  1  0.87707223  0.50487309  0.92410798  1
  O  O16  1  0.10171393  0.78563626  0.67545439  1
  O  O17  1  0.40176754  0.65415090  0.38062857  1
  O  O18  1  0.50487309  0.87707223  0.42410798  1
  O  O19  1  0.73758241  0.61886591  0.30799038  1
  O  O20  1  0.78563626  0.10171393  0.17545439  1
  O  O21  1  0.86706326  0.54494624  0.63797748  1
  O  O22  1  0.12292777  0.49512691  0.07589202  1
  O  O23  1  0.38113409  0.26241759  0.19200962  1
  O  O24  1  0.94673399  0.87811919  0.38250631  1
  O  O25  1  0.54494624  0.86706326  0.13797748  1
  O  O26  1  0.49512691  0.12292777  0.57589202  1
  O  O27  1  0.89828607  0.21436374  0.32454561  1
  O  O28  1  0.13293674  0.45505376  0.36202252  1
  O  O29  1  0.59823246  0.34584910  0.61937143  1
  O  O30  1  0.61886591  0.73758241  0.80799038  1
  O  O31  1  0.34584910  0.59823246  0.11937143  1
  O  O32  1  0.45505376  0.13293674  0.86202252  1
  O  O33  1  0.26241759  0.38113409  0.69200962  1
  O  O34  1  0.21436374  0.89828607  0.82454561  1
  O  O35  1  0.87811919  0.94673399  0.88250631  1
  O  O36  1  0.12188081  0.05326601  0.11749369  1
  O  O37  1  0.65415090  0.40176754  0.88062857  1
