# generated using pymatgen
data_Lu3Fe5O12
_symmetry_space_group_name_H-M   'P 1'
_cell_length_a   10.73695299
_cell_length_b   10.73695306
_cell_length_c   10.73695293
_cell_angle_alpha   109.47121839
_cell_angle_beta   109.47121848
_cell_angle_gamma   109.47122263
_symmetry_Int_Tables_number   1
_chemical_formula_structural   Lu3Fe5O12
_chemical_formula_sum   'Lu12 Fe20 O48'
_cell_volume   952.84284546
_cell_formula_units_Z   4
loop_
 _symmetry_equiv_pos_site_id
 _symmetry_equiv_pos_as_xyz
  1  'x, y, z'
loop_
 _atom_site_type_symbol
 _atom_site_label
 _atom_site_symmetry_multiplicity
 _atom_site_fract_x
 _atom_site_fract_y
 _atom_site_fract_z
 _atom_site_occupancy
  Lu  Lu0  1  0.37500000  0.75000000  0.12500000  1
  Lu  Lu1  1  0.87500000  0.62500000  0.25000000  1
  Lu  Lu2  1  0.37500000  0.12500000  0.25000000  1
  Lu  Lu3  1  0.62500000  0.25000000  0.87500000  1
  Lu  Lu4  1  0.12500000  0.37500000  0.75000000  1
  Lu  Lu5  1  0.25000000  0.87500000  0.62500000  1
  Lu  Lu6  1  0.87500000  0.75000000  0.62500000  1
  Lu  Lu7  1  0.12500000  0.25000000  0.37500000  1
  Lu  Lu8  1  0.25000000  0.37500000  0.12500000  1
  Lu  Lu9  1  0.62500000  0.87500000  0.75000000  1
  Lu  Lu10  1  0.75000000  0.12500000  0.37500000  1
  Lu  Lu11  1  0.75000000  0.62500000  0.87500000  1
  Fe  Fe12  1  0.00000000  0.00000000  0.50000000  1
  Fe  Fe13  1  0.12500000  0.75000000  0.87500000  1
  Fe  Fe14  1  0.87500000  0.12500000  0.75000000  1
  Fe  Fe15  1  0.50000000  0.00000000  0.50000000  1
  Fe  Fe16  1  0.50000000  0.00000000  0.00000000  1
  Fe  Fe17  1  0.62500000  0.75000000  0.37500000  1
  Fe  Fe18  1  0.00000000  0.00000000  0.00000000  1
  Fe  Fe19  1  0.00000000  0.50000000  0.00000000  1
  Fe  Fe20  1  0.25000000  0.62500000  0.37500000  1
  Fe  Fe21  1  0.00000000  0.50000000  0.50000000  1
  Fe  Fe22  1  0.25000000  0.12500000  0.87500000  1
  Fe  Fe23  1  0.37500000  0.25000000  0.62500000  1
  Fe  Fe24  1  0.87500000  0.25000000  0.12500000  1
  Fe  Fe25  1  0.75000000  0.37500000  0.62500000  1
  Fe  Fe26  1  0.37500000  0.62500000  0.75000000  1
  Fe  Fe27  1  0.50000000  0.50000000  0.50000000  1
  Fe  Fe28  1  0.62500000  0.37500000  0.25000000  1
  Fe  Fe29  1  0.75000000  0.87500000  0.12500000  1
  Fe  Fe30  1  0.50000000  0.50000000  0.00000000  1
  Fe  Fe31  1  0.12500000  0.87500000  0.25000000  1
  O  O32  1  0.21164013  0.58393429  0.17640112  1
  O  O33  1  0.62770584  0.41606571  0.09246683  1
  O  O34  1  0.96476199  0.78835987  0.87229416  1
  O  O35  1  0.59246683  0.91606571  0.12770584  1
  O  O36  1  0.62770583  0.71164013  0.53523801  1
  O  O37  1  0.28835987  0.32359888  0.91606571  1
  O  O38  1  0.09246683  0.96476199  0.67640112  1
  O  O39  1  0.08393429  0.71164013  0.67640112  1
  O  O40  1  0.78835987  0.87229417  0.96476199  1
  O  O41  1  0.08393429  0.87229416  0.40753317  1
  O  O42  1  0.32359888  0.91606571  0.28835987  1
  O  O43  1  0.41606571  0.09246683  0.62770584  1
  O  O44  1  0.58393429  0.90753317  0.37229416  1
  O  O45  1  0.67640112  0.08393429  0.71164013  1
  O  O46  1  0.12770583  0.59246683  0.91606571  1
  O  O47  1  0.87229416  0.96476199  0.78835987  1
  O  O48  1  0.09246683  0.62770583  0.41606571  1
  O  O49  1  0.40753317  0.08393429  0.87229416  1
  O  O50  1  0.82359888  0.78835987  0.41606571  1
  O  O51  1  0.46476199  0.37229416  0.28835987  1
  O  O52  1  0.32359888  0.90753317  0.03523801  1
  O  O53  1  0.82359888  0.53523801  0.40753317  1
  O  O54  1  0.91606571  0.12770584  0.59246683  1
  O  O55  1  0.71164013  0.67640112  0.08393429  1
  O  O56  1  0.58393429  0.17640112  0.21164013  1
  O  O57  1  0.90753317  0.03523801  0.32359888  1
  O  O58  1  0.90753317  0.37229417  0.58393429  1
  O  O59  1  0.71164013  0.53523801  0.62770584  1
  O  O60  1  0.59246683  0.17640112  0.46476199  1
  O  O61  1  0.41606571  0.82359888  0.78835987  1
  O  O62  1  0.03523801  0.21164013  0.12770584  1
  O  O63  1  0.40753317  0.82359888  0.53523801  1
  O  O64  1  0.53523801  0.40753317  0.82359888  1
  O  O65  1  0.37229417  0.28835987  0.46476199  1
  O  O66  1  0.17640112  0.21164013  0.58393429  1
  O  O67  1  0.78835987  0.41606571  0.82359888  1
  O  O68  1  0.03523801  0.32359888  0.90753317  1
  O  O69  1  0.28835987  0.46476199  0.37229416  1
  O  O70  1  0.37229416  0.58393429  0.90753317  1
  O  O71  1  0.96476199  0.67640112  0.09246683  1
  O  O72  1  0.53523801  0.62770584  0.71164013  1
  O  O73  1  0.67640112  0.09246683  0.96476199  1
  O  O74  1  0.46476199  0.59246683  0.17640112  1
  O  O75  1  0.12770584  0.03523801  0.21164013  1
  O  O76  1  0.17640112  0.46476199  0.59246683  1
  O  O77  1  0.87229417  0.40753317  0.08393429  1
  O  O78  1  0.21164013  0.12770583  0.03523801  1
  O  O79  1  0.91606571  0.28835987  0.32359888  1
