# generated using pymatgen
data_Cr3CuO8
_symmetry_space_group_name_H-M   'P 1'
_cell_length_a   5.02642777
_cell_length_b   5.02655986
_cell_length_c   6.57646692
_cell_angle_alpha   86.59389384
_cell_angle_beta   86.58929978
_cell_angle_gamma   67.22108071
_symmetry_Int_Tables_number   1
_chemical_formula_structural   Cr3CuO8
_chemical_formula_sum   'Cr3 Cu1 O8'
_cell_volume   152.80835107
_cell_formula_units_Z   1
loop_
 _symmetry_equiv_pos_site_id
 _symmetry_equiv_pos_as_xyz
  1  'x, y, z'
loop_
 _atom_site_type_symbol
 _atom_site_label
 _atom_site_symmetry_multiplicity
 _atom_site_fract_x
 _atom_site_fract_y
 _atom_site_fract_z
 _atom_site_occupancy
  O  O0  1  0.79097922  0.28148629  0.27390482  1
  O  O1  1  0.22848785  0.22863819  0.94200334  1
  O  O2  1  0.28127579  0.79109743  0.27379502  1
  Cr  Cr3  1  0.34764443  0.34767504  0.73237234  1
  Cr  Cr4  1  0.65245790  0.65228212  0.26766266  1
  O  O5  1  0.76629853  0.76635867  0.46425928  1
  O  O6  1  0.71853590  0.20892792  0.72612912  1
  Cu  Cu7  1  0.00070013  0.99942080  0.99980976  1
  O  O8  1  0.23351921  0.23367376  0.53577840  1
  O  O9  1  0.20870421  0.71884238  0.72626775  1
  O  O10  1  0.77149076  0.77147514  0.05807169  1
  Cr  Cr11  1  0.99990607  0.00012226  0.49994580  1
