# generated using pymatgen
data_CdBiSe2I
_symmetry_space_group_name_H-M   'P 1'
_cell_length_a   4.24723083
_cell_length_b   7.28324317
_cell_length_c   10.37369817
_cell_angle_alpha   91.63376746
_cell_angle_beta   90.00000000
_cell_angle_gamma   106.95230371
_symmetry_Int_Tables_number   1
_chemical_formula_structural   CdBiSe2I
_chemical_formula_sum   'Cd2 Bi2 Se4 I2'
_cell_volume   306.81597486
_cell_formula_units_Z   2
loop_
 _symmetry_equiv_pos_site_id
 _symmetry_equiv_pos_as_xyz
  1  'x, y, z'
loop_
 _atom_site_type_symbol
 _atom_site_label
 _atom_site_symmetry_multiplicity
 _atom_site_fract_x
 _atom_site_fract_y
 _atom_site_fract_z
 _atom_site_occupancy
  Cd  Cd0  1  0.00000000  0.00000000  0.50000000  1
  Cd  Cd1  1  0.00000000  0.00000000  0.00000000  1
  Bi  Bi2  1  0.28560448  0.57120895  0.68446628  1
  Bi  Bi3  1  0.71439552  0.42879105  0.31553372  1
  Se  Se4  1  0.35699258  0.71398515  0.44162537  1
  Se  Se5  1  0.64300742  0.28601485  0.55837463  1
  Se  Se6  1  0.91943353  0.83886706  0.74023610  1
  Se  Se7  1  0.08056647  0.16113294  0.25976390  1
  I  I8  1  0.63840152  0.27680304  0.92443325  1
  I  I9  1  0.36159848  0.72319696  0.07556675  1
