# generated using pymatgen
data_MnSO3
_symmetry_space_group_name_H-M   'P 1'
_cell_length_a   8.04532073
_cell_length_b   8.04532063
_cell_length_c   8.04532048
_cell_angle_alpha   109.26174876
_cell_angle_beta   109.26174847
_cell_angle_gamma   109.26175429
_symmetry_Int_Tables_number   1
_chemical_formula_structural   MnSO3
_chemical_formula_sum   'Mn6 S6 O18'
_cell_volume   403.95330283
_cell_formula_units_Z   6
loop_
 _symmetry_equiv_pos_site_id
 _symmetry_equiv_pos_as_xyz
  1  'x, y, z'
loop_
 _atom_site_type_symbol
 _atom_site_label
 _atom_site_symmetry_multiplicity
 _atom_site_fract_x
 _atom_site_fract_y
 _atom_site_fract_z
 _atom_site_occupancy
  Mn  Mn0  1  0.68137703  0.36538641  0.18596400  1
  Mn  Mn1  1  0.63461359  0.81403600  0.31862297  1
  Mn  Mn2  1  0.81403600  0.31862297  0.63461359  1
  Mn  Mn3  1  0.36538641  0.18596400  0.68137703  1
  Mn  Mn4  1  0.18596400  0.68137703  0.36538641  1
  Mn  Mn5  1  0.31862297  0.63461359  0.81403600  1
  S  S6  1  0.02456269  0.21041237  0.35239712  1
  S  S7  1  0.78958763  0.64760288  0.97543731  1
  S  S8  1  0.35239712  0.02456269  0.21041237  1
  S  S9  1  0.97543731  0.78958763  0.64760288  1
  S  S10  1  0.64760288  0.97543731  0.78958763  1
  S  S11  1  0.21041237  0.35239712  0.02456269  1
  O  O12  1  0.34086722  0.55509674  0.22956391  1
  O  O13  1  0.13237774  0.87971468  0.58571688  1
  O  O14  1  0.41428312  0.86762226  0.12028532  1
  O  O15  1  0.68866984  0.01953053  0.62835888  1
  O  O16  1  0.31133016  0.98046947  0.37164112  1
  O  O17  1  0.01953053  0.62835888  0.68866984  1
  O  O18  1  0.98046947  0.37164112  0.31133016  1
  O  O19  1  0.44490326  0.77043609  0.65913278  1
  O  O20  1  0.65913278  0.44490326  0.77043609  1
  O  O21  1  0.58571688  0.13237774  0.87971468  1
  O  O22  1  0.22956391  0.34086722  0.55509674  1
  O  O23  1  0.55509674  0.22956391  0.34086722  1
  O  O24  1  0.87971468  0.58571688  0.13237774  1
  O  O25  1  0.12028532  0.41428312  0.86762226  1
  O  O26  1  0.86762226  0.12028532  0.41428312  1
  O  O27  1  0.37164112  0.31133016  0.98046947  1
  O  O28  1  0.77043609  0.65913278  0.44490326  1
  O  O29  1  0.62835888  0.68866984  0.01953053  1
