# generated using pymatgen
data_In6Se7
_symmetry_space_group_name_H-M   'P 1'
_cell_length_a   4.13432739
_cell_length_b   9.61999365
_cell_length_c   18.02767172
_cell_angle_alpha   100.91087817
_cell_angle_beta   90.00000000
_cell_angle_gamma   90.00000000
_symmetry_Int_Tables_number   1
_chemical_formula_structural   In6Se7
_chemical_formula_sum   'In12 Se14'
_cell_volume   704.03886205
_cell_formula_units_Z   2
loop_
 _symmetry_equiv_pos_site_id
 _symmetry_equiv_pos_as_xyz
  1  'x, y, z'
loop_
 _atom_site_type_symbol
 _atom_site_label
 _atom_site_symmetry_multiplicity
 _atom_site_fract_x
 _atom_site_fract_y
 _atom_site_fract_z
 _atom_site_occupancy
  In  In0  1  0.74333656  0.52635343  0.72799880  1
  In  In1  1  0.74856176  0.67169947  0.53376068  1
  In  In2  1  0.25297713  0.01565896  0.60397079  1
  In  In3  1  0.75471345  0.35266569  0.04696042  1
  In  In4  1  0.25421468  0.06877896  0.12423410  1
  In  In5  1  0.75421468  0.93122104  0.87576590  1
  In  In6  1  0.24856176  0.32830053  0.46623932  1
  In  In7  1  0.75297713  0.98434104  0.39602921  1
  In  In8  1  0.75498739  0.18076420  0.81306971  1
  In  In9  1  0.25498739  0.81923580  0.18693029  1
  In  In10  1  0.25471345  0.64733431  0.95303958  1
  In  In11  1  0.24333656  0.47364657  0.27200120  1
  Se  Se12  1  0.75409325  0.75928555  0.27312783  1
  Se  Se13  1  0.25364199  0.75383707  0.82036984  1
  Se  Se14  1  0.24653399  0.52985892  0.59265205  1
  Se  Se15  1  0.75567925  0.44390369  0.90814303  1
  Se  Se16  1  0.25409325  0.24071445  0.72687217  1
  Se  Se17  1  0.75122302  0.87910366  0.65810457  1
  Se  Se18  1  0.75364199  0.24616293  0.17963016  1
  Se  Se19  1  0.74653399  0.47014108  0.40734795  1
  Se  Se20  1  0.75313269  0.83581805  0.00617214  1
  Se  Se21  1  0.25122302  0.12089634  0.34189543  1
  Se  Se22  1  0.25567925  0.55609631  0.09185697  1
  Se  Se23  1  0.74180483  0.16913766  0.53199300  1
  Se  Se24  1  0.24180483  0.83086234  0.46800700  1
  Se  Se25  1  0.25313269  0.16418195  0.99382786  1
