# generated using pymatgen
data_MgH2
_symmetry_space_group_name_H-M   'P 1'
_cell_length_a   4.75708108
_cell_length_b   4.90515844
_cell_length_c   9.31937201
_cell_angle_alpha   90.00000000
_cell_angle_beta   90.00000000
_cell_angle_gamma   90.00000000
_symmetry_Int_Tables_number   1
_chemical_formula_structural   MgH2
_chemical_formula_sum   'Mg8 H16'
_cell_volume   217.46042967
_cell_formula_units_Z   8
loop_
 _symmetry_equiv_pos_site_id
 _symmetry_equiv_pos_as_xyz
  1  'x, y, z'
loop_
 _atom_site_type_symbol
 _atom_site_label
 _atom_site_symmetry_multiplicity
 _atom_site_fract_x
 _atom_site_fract_y
 _atom_site_fract_z
 _atom_site_occupancy
  Mg  Mg0  1  0.26938696  0.03069063  0.88327313  1
  Mg  Mg1  1  0.23061304  0.53069063  0.11672687  1
  Mg  Mg2  1  0.73061304  0.46930937  0.38327313  1
  Mg  Mg3  1  0.76938696  0.46930937  0.88327313  1
  Mg  Mg4  1  0.76938696  0.96930937  0.61672687  1
  Mg  Mg5  1  0.26938696  0.53069063  0.61672687  1
  Mg  Mg6  1  0.23061304  0.03069063  0.38327313  1
  Mg  Mg7  1  0.73061304  0.96930937  0.11672687  1
  H  H8  1  0.51253266  0.24284832  0.52605445  1
  H  H9  1  0.01253266  0.25715168  0.52605445  1
  H  H10  1  0.01253266  0.75715168  0.97394555  1
  H  H11  1  0.98746734  0.74284832  0.47394555  1
  H  H12  1  0.33390519  0.38344335  0.29858370  1
  H  H13  1  0.33390519  0.88344335  0.20141630  1
  H  H14  1  0.48746734  0.25715168  0.02605445  1
  H  H15  1  0.98746734  0.24284832  0.02605445  1
  H  H16  1  0.83390519  0.61655665  0.20141630  1
  H  H17  1  0.83390519  0.11655665  0.29858370  1
  H  H18  1  0.51253266  0.74284832  0.97394555  1
  H  H19  1  0.48746734  0.75715168  0.47394555  1
  H  H20  1  0.66609481  0.11655665  0.79858370  1
  H  H21  1  0.16609481  0.88344335  0.70141630  1
  H  H22  1  0.16609481  0.38344335  0.79858370  1
  H  H23  1  0.66609481  0.61655665  0.70141630  1
