# generated using pymatgen
data_H3ClO5
_symmetry_space_group_name_H-M   'P 1'
_cell_length_a   9.79243962
_cell_length_b   6.45749218
_cell_length_c   7.10886276
_cell_angle_alpha   90.00000000
_cell_angle_beta   90.00000000
_cell_angle_gamma   90.00000000
_symmetry_Int_Tables_number   1
_chemical_formula_structural   H3ClO5
_chemical_formula_sum   'H12 Cl4 O20'
_cell_volume   449.52610922
_cell_formula_units_Z   4
loop_
 _symmetry_equiv_pos_site_id
 _symmetry_equiv_pos_as_xyz
  1  'x, y, z'
loop_
 _atom_site_type_symbol
 _atom_site_label
 _atom_site_symmetry_multiplicity
 _atom_site_fract_x
 _atom_site_fract_y
 _atom_site_fract_z
 _atom_site_occupancy
  H  H0  1  0.81323872  0.25000000  0.58038025  1
  H  H1  1  0.31323872  0.25000000  0.91961975  1
  H  H2  1  0.18676128  0.75000000  0.41961975  1
  H  H3  1  0.68676128  0.75000000  0.08038025  1
  H  H4  1  0.10428977  0.75000000  0.14082978  1
  H  H5  1  0.26611936  0.75000000  0.15034170  1
  H  H6  1  0.76611936  0.75000000  0.34965830  1
  H  H7  1  0.60428977  0.75000000  0.35917022  1
  H  H8  1  0.73388064  0.25000000  0.84965830  1
  H  H9  1  0.89571023  0.25000000  0.85917022  1
  H  H10  1  0.23388064  0.25000000  0.65034170  1
  H  H11  1  0.39571023  0.25000000  0.64082978  1
  Cl  Cl12  1  0.92361091  0.25000000  0.30558658  1
  Cl  Cl13  1  0.42361091  0.25000000  0.19441342  1
  Cl  Cl14  1  0.07638909  0.75000000  0.69441342  1
  Cl  Cl15  1  0.57638909  0.75000000  0.80558658  1
  O  O16  1  0.79001622  0.25000000  0.43163686  1
  O  O17  1  0.29001622  0.25000000  0.06836314  1
  O  O18  1  0.20998378  0.75000000  0.56836314  1
  O  O19  1  0.70998378  0.75000000  0.93163686  1
  O  O20  1  0.03831766  0.25000000  0.43136453  1
  O  O21  1  0.53831766  0.25000000  0.06863547  1
  O  O22  1  0.96168234  0.75000000  0.56863547  1
  O  O23  1  0.46168234  0.75000000  0.93136453  1
  O  O24  1  0.91438857  0.06588492  0.19238201  1
  O  O25  1  0.41438857  0.43411508  0.30761799  1
  O  O26  1  0.08561143  0.56588492  0.80761799  1
  O  O27  1  0.58561143  0.93411508  0.69238201  1
  O  O28  1  0.08561143  0.93411508  0.80761799  1
  O  O29  1  0.58561143  0.56588492  0.69238201  1
  O  O30  1  0.91438857  0.43411508  0.19238201  1
  O  O31  1  0.41438857  0.06588492  0.30761799  1
  O  O32  1  0.18302811  0.75000000  0.22452574  1
  O  O33  1  0.68302811  0.75000000  0.27547426  1
  O  O34  1  0.81697189  0.25000000  0.77547426  1
  O  O35  1  0.31697189  0.25000000  0.72452574  1
