# generated using pymatgen
data_Bi4I
_symmetry_space_group_name_H-M   'P 1'
_cell_length_a   4.48431662
_cell_length_b   13.38222431
_cell_length_c   13.52519345
_cell_angle_alpha   104.52753758
_cell_angle_beta   90.00000000
_cell_angle_gamma   99.64525638
_symmetry_Int_Tables_number   1
_chemical_formula_structural   Bi4I
_chemical_formula_sum   'Bi16 I4'
_cell_volume   773.83981370
_cell_formula_units_Z   4
loop_
 _symmetry_equiv_pos_site_id
 _symmetry_equiv_pos_as_xyz
  1  'x, y, z'
loop_
 _atom_site_type_symbol
 _atom_site_label
 _atom_site_symmetry_multiplicity
 _atom_site_fract_x
 _atom_site_fract_y
 _atom_site_fract_z
 _atom_site_occupancy
  Bi  Bi0  1  0.11363483  0.22726967  0.11872389  1
  Bi  Bi1  1  0.88636517  0.77273033  0.88127611  1
  Bi  Bi2  1  0.34137058  0.68274117  0.12929542  1
  Bi  Bi3  1  0.43575780  0.87151560  0.63063923  1
  Bi  Bi4  1  0.08003359  0.16006719  0.88247464  1
  Bi  Bi5  1  0.98633441  0.97266882  0.38084610  1
  Bi  Bi6  1  0.91996641  0.83993281  0.11752536  1
  Bi  Bi7  1  0.79052557  0.58105113  0.37223125  1
  Bi  Bi8  1  0.46460756  0.92921513  0.86888660  1
  Bi  Bi9  1  0.56424220  0.12848440  0.36936077  1
  Bi  Bi10  1  0.01366559  0.02733118  0.61915390  1
  Bi  Bi11  1  0.53539244  0.07078487  0.13111340  1
  Bi  Bi12  1  0.65862942  0.31725883  0.87070458  1
  Bi  Bi13  1  0.62901732  0.25803463  0.63577591  1
  Bi  Bi14  1  0.37098268  0.74196537  0.36422409  1
  Bi  Bi15  1  0.20947443  0.41894887  0.62776875  1
  I  I16  1  0.26892946  0.53785892  0.86316228  1
  I  I17  1  0.73107054  0.46214108  0.13683772  1
  I  I18  1  0.81929041  0.63858081  0.61045904  1
  I  I19  1  0.18070959  0.36141919  0.38954096  1
