# generated using pymatgen
data_GdP2H9O11
_symmetry_space_group_name_H-M   'P 1'
_cell_length_a   6.72878343
_cell_length_b   11.48396017
_cell_length_c   12.01033947
_cell_angle_alpha   90.00000000
_cell_angle_beta   92.33639132
_cell_angle_gamma   90.00000000
_symmetry_Int_Tables_number   1
_chemical_formula_structural   GdP2H9O11
_chemical_formula_sum   'Gd4 P8 H36 O44'
_cell_volume   927.30442733
_cell_formula_units_Z   4
loop_
 _symmetry_equiv_pos_site_id
 _symmetry_equiv_pos_as_xyz
  1  'x, y, z'
loop_
 _atom_site_type_symbol
 _atom_site_label
 _atom_site_symmetry_multiplicity
 _atom_site_fract_x
 _atom_site_fract_y
 _atom_site_fract_z
 _atom_site_occupancy
  Gd  Gd0  1  0.74781326  0.58314833  0.15931839  1
  Gd  Gd1  1  0.25218674  0.41685167  0.84068161  1
  Gd  Gd2  1  0.24781326  0.91685167  0.65931839  1
  Gd  Gd3  1  0.75218674  0.08314833  0.34068161  1
  P  P4  1  0.75394865  0.54935832  0.85718533  1
  P  P5  1  0.97811845  0.63240650  0.66283994  1
  P  P6  1  0.47811845  0.86759350  0.16283994  1
  P  P7  1  0.52188155  0.13240650  0.83716006  1
  P  P8  1  0.74605135  0.04935832  0.64281467  1
  P  P9  1  0.25394865  0.95064168  0.35718533  1
  P  P10  1  0.24605135  0.45064168  0.14281467  1
  P  P11  1  0.02188155  0.36759350  0.33716006  1
  H  H12  1  0.75251587  0.60040341  0.40830148  1
  H  H13  1  0.28953537  0.65394027  0.33104272  1
  H  H14  1  0.30914801  0.01071268  0.07695222  1
  H  H15  1  0.28003305  0.21160088  0.05809200  1
  H  H16  1  0.24748413  0.39959659  0.59169852  1
  H  H17  1  0.28216263  0.11971641  0.48760956  1
  H  H18  1  0.71783737  0.88028359  0.51239044  1
  H  H19  1  0.21046463  0.15394027  0.16895728  1
  H  H20  1  0.38921538  0.65988956  0.69134224  1
  H  H21  1  0.71046463  0.34605973  0.66895728  1
  H  H22  1  0.58888347  0.73136535  0.68625376  1
  H  H23  1  0.86998286  0.21479482  0.11463899  1
  H  H24  1  0.25251587  0.89959659  0.90830148  1
  H  H25  1  0.11078462  0.15988956  0.80865776  1
  H  H26  1  0.62869541  0.33466978  0.07377701  1
  H  H27  1  0.91111653  0.23136535  0.81374624  1
  H  H28  1  0.36998286  0.28520518  0.61463899  1
  H  H29  1  0.87130459  0.83466978  0.42622299  1
  H  H30  1  0.78216263  0.38028359  0.98760956  1
  H  H31  1  0.88921538  0.84011044  0.19134224  1
  H  H32  1  0.71996695  0.78839912  0.94190800  1
  H  H33  1  0.63001714  0.71479482  0.38536101  1
  H  H34  1  0.78003305  0.28839912  0.55809200  1
  H  H35  1  0.13001714  0.78520518  0.88536101  1
  H  H36  1  0.41111653  0.26863465  0.31374624  1
  H  H37  1  0.12869541  0.16533022  0.57377701  1
  H  H38  1  0.78953537  0.84605973  0.83104272  1
  H  H39  1  0.21783737  0.61971641  0.01239044  1
  H  H40  1  0.19085199  0.51071268  0.42304778  1
  H  H41  1  0.74748413  0.10040341  0.09169852  1
  H  H42  1  0.69085199  0.98928732  0.92304778  1
  H  H43  1  0.08888347  0.76863465  0.18625376  1
  H  H44  1  0.80914801  0.48928732  0.57695222  1
  H  H45  1  0.21996695  0.71160088  0.44190800  1
  H  H46  1  0.61078462  0.34011044  0.30865776  1
  H  H47  1  0.37130459  0.66533022  0.92622299  1
  O  O48  1  0.30371427  0.34969702  0.65106681  1
  O  O49  1  0.16430070  0.35271612  0.23107477  1
  O  O50  1  0.33808803  0.92291579  0.06799703  1
  O  O51  1  0.15160753  0.55420911  0.69634852  1
  O  O52  1  0.66191197  0.07708421  0.93200297  1
  O  O53  1  0.94449663  0.76334702  0.17425647  1
  O  O54  1  0.55550337  0.26334702  0.32574353  1
  O  O55  1  0.52713455  0.74492857  0.12852908  1
  O  O56  1  0.25206627  0.12100756  0.56733325  1
  O  O57  1  0.16191197  0.42291579  0.43200297  1
  O  O58  1  0.80371427  0.15030298  0.15106681  1
  O  O59  1  0.34839247  0.05420911  0.80365148  1
  O  O60  1  0.27002037  0.13713184  0.09838169  1
  O  O61  1  0.24793373  0.62100756  0.93266675  1
  O  O62  1  0.41168247  0.04648555  0.36884345  1
  O  O63  1  0.33569930  0.85271612  0.26892523  1
  O  O64  1  0.22885871  0.87943610  0.46369366  1
  O  O65  1  0.65160753  0.94579089  0.19634852  1
  O  O66  1  0.44239924  0.49586183  0.19342586  1
  O  O67  1  0.77002037  0.36286816  0.59838169  1
  O  O68  1  0.84839247  0.44579089  0.30365148  1
  O  O69  1  0.05550337  0.23665298  0.82574353  1
  O  O70  1  0.58831753  0.95351445  0.63115655  1
  O  O71  1  0.91168247  0.45351445  0.86884345  1
  O  O72  1  0.27114129  0.37943610  0.03630634  1
  O  O73  1  0.94239924  0.00413817  0.69342586  1
  O  O74  1  0.47286545  0.25507143  0.87147092  1
  O  O75  1  0.66430070  0.14728388  0.73107477  1
  O  O76  1  0.08831753  0.54648555  0.13115655  1
  O  O77  1  0.83808803  0.57708421  0.56799703  1
  O  O78  1  0.19628573  0.84969702  0.84893319  1
  O  O79  1  0.05760076  0.99586183  0.30657414  1
  O  O80  1  0.75206627  0.37899244  0.06733325  1
  O  O81  1  0.72997963  0.86286816  0.90161831  1
  O  O82  1  0.55760076  0.50413817  0.80657414  1
  O  O83  1  0.02713455  0.75507143  0.62852908  1
  O  O84  1  0.72885871  0.62056390  0.96369366  1
  O  O85  1  0.97286545  0.24492857  0.37147092  1
  O  O86  1  0.69628573  0.65030298  0.34893319  1
  O  O87  1  0.83569930  0.64728388  0.76892523  1
  O  O88  1  0.77114129  0.12056390  0.53630634  1
  O  O89  1  0.22997963  0.63713184  0.40161831  1
  O  O90  1  0.44449663  0.73665298  0.67425647  1
  O  O91  1  0.74793373  0.87899244  0.43266675  1
