# generated using pymatgen
data_SbS8Cl5O
_symmetry_space_group_name_H-M   'P 1'
_cell_length_a   9.47358387
_cell_length_b   11.05111057
_cell_length_c   17.60945547
_cell_angle_alpha   90.00000000
_cell_angle_beta   90.00000000
_cell_angle_gamma   90.00000000
_symmetry_Int_Tables_number   1
_chemical_formula_structural   SbS8Cl5O
_chemical_formula_sum   'Sb4 S32 Cl20 O4'
_cell_volume   1843.59768942
_cell_formula_units_Z   4
loop_
 _symmetry_equiv_pos_site_id
 _symmetry_equiv_pos_as_xyz
  1  'x, y, z'
loop_
 _atom_site_type_symbol
 _atom_site_label
 _atom_site_symmetry_multiplicity
 _atom_site_fract_x
 _atom_site_fract_y
 _atom_site_fract_z
 _atom_site_occupancy
  Sb  Sb0  1  0.75000000  0.69870844  0.97428197  1
  Sb  Sb1  1  0.25000000  0.30129156  0.02571803  1
  Sb  Sb2  1  0.25000000  0.19870844  0.52571803  1
  Sb  Sb3  1  0.75000000  0.80129156  0.47428197  1
  S  S4  1  0.92519891  0.27220656  0.78097385  1
  S  S5  1  0.25000000  0.77648921  0.78779868  1
  S  S6  1  0.75000000  0.27648921  0.71220132  1
  S  S7  1  0.07480109  0.77220656  0.71902615  1
  S  S8  1  0.50341058  0.90454593  0.21775144  1
  S  S9  1  0.99658942  0.90454593  0.21775144  1
  S  S10  1  0.49658942  0.40454593  0.28224856  1
  S  S11  1  0.43141222  0.51359130  0.62233880  1
  S  S12  1  0.07480109  0.72779344  0.21902615  1
  S  S13  1  0.00341058  0.40454593  0.28224856  1
  S  S14  1  0.75000000  0.92025299  0.83019277  1
  S  S15  1  0.57480109  0.22779344  0.28097385  1
  S  S16  1  0.50341058  0.59545407  0.71775144  1
  S  S17  1  0.42519891  0.72779344  0.21902615  1
  S  S18  1  0.00341058  0.09545407  0.78224856  1
  S  S19  1  0.92519891  0.22779344  0.28097385  1
  S  S20  1  0.06858778  0.98640870  0.12233880  1
  S  S21  1  0.43141222  0.98640870  0.12233880  1
  S  S22  1  0.75000000  0.22351079  0.21220132  1
  S  S23  1  0.49658942  0.09545407  0.78224856  1
  S  S24  1  0.75000000  0.57974701  0.33019277  1
  S  S25  1  0.57480109  0.27220656  0.78097385  1
  S  S26  1  0.06858778  0.51359130  0.62233880  1
  S  S27  1  0.56858778  0.01359130  0.87766120  1
  S  S28  1  0.56858778  0.48640870  0.37766120  1
  S  S29  1  0.93141222  0.48640870  0.37766120  1
  S  S30  1  0.42519891  0.77220656  0.71902615  1
  S  S31  1  0.25000000  0.72351079  0.28779868  1
  S  S32  1  0.99658942  0.59545407  0.71775144  1
  S  S33  1  0.93141222  0.01359130  0.87766120  1
  S  S34  1  0.25000000  0.07974701  0.16980723  1
  S  S35  1  0.25000000  0.42025299  0.66980723  1
  Cl  Cl36  1  0.25000000  0.10432387  0.40529933  1
  Cl  Cl37  1  0.75000000  0.60432387  0.09470067  1
  Cl  Cl38  1  0.75000000  0.51947707  0.90047988  1
  Cl  Cl39  1  0.99938837  0.20847863  0.53325727  1
  Cl  Cl40  1  0.25000000  0.09714178  0.97453032  1
  Cl  Cl41  1  0.25000000  0.40285822  0.47453032  1
  Cl  Cl42  1  0.49938837  0.70847863  0.96674273  1
  Cl  Cl43  1  0.75000000  0.98052293  0.40047988  1
  Cl  Cl44  1  0.50061163  0.20847863  0.53325727  1
  Cl  Cl45  1  0.99938837  0.29152137  0.03325727  1
  Cl  Cl46  1  0.25000000  0.39567613  0.90529933  1
  Cl  Cl47  1  0.75000000  0.89567613  0.59470067  1
  Cl  Cl48  1  0.00061163  0.70847863  0.96674273  1
  Cl  Cl49  1  0.75000000  0.59714178  0.52546968  1
  Cl  Cl50  1  0.75000000  0.90285822  0.02546968  1
  Cl  Cl51  1  0.50061163  0.29152137  0.03325727  1
  Cl  Cl52  1  0.49938837  0.79152137  0.46674273  1
  Cl  Cl53  1  0.00061163  0.79152137  0.46674273  1
  Cl  Cl54  1  0.25000000  0.48052293  0.09952012  1
  Cl  Cl55  1  0.25000000  0.01947707  0.59952012  1
  O  O56  1  0.25000000  0.28965838  0.64034250  1
  O  O57  1  0.75000000  0.78965838  0.85965750  1
  O  O58  1  0.25000000  0.21034162  0.14034250  1
  O  O59  1  0.75000000  0.71034162  0.35965750  1
