# generated using pymatgen
data_RbCeMg30O32
_symmetry_space_group_name_H-M   'P 1'
_cell_length_a   8.70448196
_cell_length_b   8.71350891
_cell_length_c   8.71350891
_cell_angle_alpha   90.00000000
_cell_angle_beta   90.00000000
_cell_angle_gamma   90.00000000
_symmetry_Int_Tables_number   1
_chemical_formula_structural   RbCeMg30O32
_chemical_formula_sum   'Rb1 Ce1 Mg30 O32'
_cell_volume   660.88986034
_cell_formula_units_Z   1
loop_
 _symmetry_equiv_pos_site_id
 _symmetry_equiv_pos_as_xyz
  1  'x, y, z'
loop_
 _atom_site_type_symbol
 _atom_site_label
 _atom_site_symmetry_multiplicity
 _atom_site_fract_x
 _atom_site_fract_y
 _atom_site_fract_z
 _atom_site_occupancy
  Rb  Rb0  1  -0.00000000  0.50000000  0.50000000  1
  Ce  Ce1  1  -0.00000000  0.00000000  0.00000000  1
  Mg  Mg2  1  -0.00000000  -0.00000000  0.50000000  1
  Mg  Mg3  1  -0.00000000  0.50000000  -0.00000000  1
  Mg  Mg4  1  0.50000000  -0.00000000  -0.00000000  1
  Mg  Mg5  1  0.50000000  -0.00000000  0.50000000  1
  Mg  Mg6  1  0.50000000  0.50000000  -0.00000000  1
  Mg  Mg7  1  0.50000000  0.50000000  0.50000000  1
  Mg  Mg8  1  -0.00000000  0.25625341  0.25625341  1
  Mg  Mg9  1  -0.00000000  0.25625341  0.74374659  1
  Mg  Mg10  1  -0.00000000  0.74374659  0.25625341  1
  Mg  Mg11  1  -0.00000000  0.74374659  0.74374659  1
  Mg  Mg12  1  0.50000000  0.25145623  0.25145623  1
  Mg  Mg13  1  0.50000000  0.25145623  0.74854377  1
  Mg  Mg14  1  0.50000000  0.74854377  0.25145623  1
  Mg  Mg15  1  0.50000000  0.74854377  0.74854377  1
  Mg  Mg16  1  0.25779698  -0.00000000  0.25883505  1
  Mg  Mg17  1  0.25779698  -0.00000000  0.74116495  1
  Mg  Mg18  1  0.25355271  0.50000000  0.24844042  1
  Mg  Mg19  1  0.25355271  0.50000000  0.75155958  1
  Mg  Mg20  1  0.74220302  -0.00000000  0.25883505  1
  Mg  Mg21  1  0.74220302  -0.00000000  0.74116495  1
  Mg  Mg22  1  0.74644729  0.50000000  0.24844042  1
  Mg  Mg23  1  0.74644729  0.50000000  0.75155958  1
  Mg  Mg24  1  0.25779698  0.25883505  0.00000000  1
  Mg  Mg25  1  0.25355271  0.24844042  0.50000000  1
  Mg  Mg26  1  0.25779698  0.74116495  0.00000000  1
  Mg  Mg27  1  0.25355271  0.75155958  0.50000000  1
  Mg  Mg28  1  0.74220302  0.25883505  -0.00000000  1
  Mg  Mg29  1  0.74644729  0.24844042  0.50000000  1
  Mg  Mg30  1  0.74220302  0.74116495  0.00000000  1
  Mg  Mg31  1  0.74644729  0.75155958  0.50000000  1
  O  O32  1  0.26509191  0.00000000  0.00000000  1
  O  O33  1  0.25744770  0.00000000  0.50000000  1
  O  O34  1  0.25744770  0.50000000  0.00000000  1
  O  O35  1  0.27898313  0.50000000  0.50000000  1
  O  O36  1  0.73490809  0.00000000  0.00000000  1
  O  O37  1  0.74255230  -0.00000000  0.50000000  1
  O  O38  1  0.74255230  0.50000000  -0.00000000  1
  O  O39  1  0.72101687  0.50000000  0.50000000  1
  O  O40  1  0.24889393  0.24922052  0.24922052  1
  O  O41  1  0.24889393  0.24922052  0.75077948  1
  O  O42  1  0.24889393  0.75077948  0.24922052  1
  O  O43  1  0.24889393  0.75077948  0.75077948  1
  O  O44  1  0.75110607  0.24922052  0.24922052  1
  O  O45  1  0.75110607  0.24922052  0.75077948  1
  O  O46  1  0.75110607  0.75077948  0.24922052  1
  O  O47  1  0.75110607  0.75077948  0.75077948  1
  O  O48  1  -0.00000000  -0.00000000  0.26062880  1
  O  O49  1  -0.00000000  -0.00000000  0.73937120  1
  O  O50  1  -0.00000000  0.50000000  0.22229233  1
  O  O51  1  -0.00000000  0.50000000  0.77770767  1
  O  O52  1  0.50000000  -0.00000000  0.25046867  1
  O  O53  1  0.50000000  0.00000000  0.74953133  1
  O  O54  1  0.50000000  0.50000000  0.24418142  1
  O  O55  1  0.50000000  0.50000000  0.75581858  1
  O  O56  1  -0.00000000  0.26062880  0.00000000  1
  O  O57  1  -0.00000000  0.22229233  0.50000000  1
  O  O58  1  -0.00000000  0.73937120  -0.00000000  1
  O  O59  1  -0.00000000  0.77770767  0.50000000  1
  O  O60  1  0.50000000  0.25046867  0.00000000  1
  O  O61  1  0.50000000  0.24418142  0.50000000  1
  O  O62  1  0.50000000  0.74953133  -0.00000000  1
  O  O63  1  0.50000000  0.75581858  0.50000000  1
