# generated using pymatgen
data_K2SbF5
_symmetry_space_group_name_H-M   'P 1'
_cell_length_a   7.30810312
_cell_length_b   7.36429623
_cell_length_c   11.80199619
_cell_angle_alpha   98.11244129
_cell_angle_beta   90.00000000
_cell_angle_gamma   90.00000000
_symmetry_Int_Tables_number   1
_chemical_formula_structural   K2SbF5
_chemical_formula_sum   'K8 Sb4 F20'
_cell_volume   628.81591839
_cell_formula_units_Z   4
loop_
 _symmetry_equiv_pos_site_id
 _symmetry_equiv_pos_as_xyz
  1  'x, y, z'
loop_
 _atom_site_type_symbol
 _atom_site_label
 _atom_site_symmetry_multiplicity
 _atom_site_fract_x
 _atom_site_fract_y
 _atom_site_fract_z
 _atom_site_occupancy
  K  K0  1  0.24459036  0.50042038  0.56116449  1
  K  K1  1  0.24667826  0.40936928  0.90744473  1
  K  K2  1  0.74459036  0.99957962  0.93883551  1
  K  K3  1  0.25540964  0.00042038  0.06116449  1
  K  K4  1  0.75332174  0.59063072  0.09255527  1
  K  K5  1  0.74667826  0.09063072  0.59255527  1
  K  K6  1  0.25332174  0.90936928  0.40744473  1
  K  K7  1  0.75540964  0.49957962  0.43883551  1
  Sb  Sb8  1  0.24503250  0.93213214  0.74598043  1
  Sb  Sb9  1  0.75496750  0.06786786  0.25401957  1
  Sb  Sb10  1  0.25496750  0.43213214  0.24598043  1
  Sb  Sb11  1  0.74503250  0.56786786  0.75401957  1
  F  F12  1  0.07110787  0.57528255  0.36620453  1
  F  F13  1  0.03897934  0.86811468  0.61677089  1
  F  F14  1  0.05932962  0.06910614  0.86715697  1
  F  F15  1  0.96102066  0.13188532  0.38322911  1
  F  F16  1  0.55932962  0.43089386  0.63284303  1
  F  F17  1  0.46102066  0.36811468  0.11677089  1
  F  F18  1  0.76061573  0.82903217  0.31165940  1
  F  F19  1  0.57110787  0.92471745  0.13379547  1
  F  F20  1  0.53897934  0.63188532  0.88322911  1
  F  F21  1  0.92889213  0.42471745  0.63379547  1
  F  F22  1  0.94067038  0.93089386  0.13284303  1
  F  F23  1  0.44067038  0.56910614  0.36715697  1
  F  F24  1  0.42889213  0.07528255  0.86620453  1
  F  F25  1  0.73938427  0.32903217  0.81165940  1
  F  F26  1  0.26061573  0.67096783  0.18834060  1
  F  F27  1  0.54967751  0.12304918  0.38408319  1
  F  F28  1  0.04967751  0.37695082  0.11591681  1
  F  F29  1  0.23938427  0.17096783  0.68834060  1
  F  F30  1  0.95032249  0.62304918  0.88408319  1
  F  F31  1  0.45032249  0.87695082  0.61591681  1
