# generated using pymatgen
data_Nd3SeBrN2
_symmetry_space_group_name_H-M   'P 1'
_cell_length_a   4.13532470
_cell_length_b   12.85339072
_cell_length_c   13.31319045
_cell_angle_alpha   90.00000000
_cell_angle_beta   90.00000000
_cell_angle_gamma   90.00000000
_symmetry_Int_Tables_number   1
_chemical_formula_structural   Nd3SeBrN2
_chemical_formula_sum   'Nd12 Se4 Br4 N8'
_cell_volume   707.63526809
_cell_formula_units_Z   4
loop_
 _symmetry_equiv_pos_site_id
 _symmetry_equiv_pos_as_xyz
  1  'x, y, z'
loop_
 _atom_site_type_symbol
 _atom_site_label
 _atom_site_symmetry_multiplicity
 _atom_site_fract_x
 _atom_site_fract_y
 _atom_site_fract_z
 _atom_site_occupancy
  Nd  Nd0  1  0.25000000  0.88641760  0.41060283  1
  Nd  Nd1  1  0.75000000  0.38717065  0.47997418  1
  Nd  Nd2  1  0.25000000  0.61282935  0.52002582  1
  Nd  Nd3  1  0.75000000  0.84462111  0.80241682  1
  Nd  Nd4  1  0.75000000  0.38641760  0.08939717  1
  Nd  Nd5  1  0.25000000  0.15537889  0.19758318  1
  Nd  Nd6  1  0.25000000  0.34462111  0.69758318  1
  Nd  Nd7  1  0.75000000  0.11282935  0.97997418  1
  Nd  Nd8  1  0.75000000  0.11358240  0.58939717  1
  Nd  Nd9  1  0.25000000  0.61358240  0.91060283  1
  Nd  Nd10  1  0.75000000  0.65537889  0.30241682  1
  Nd  Nd11  1  0.25000000  0.88717065  0.02002582  1
  Se  Se12  1  0.75000000  0.64114122  0.06461839  1
  Se  Se13  1  0.25000000  0.14114122  0.43538161  1
  Se  Se14  1  0.75000000  0.85885878  0.56461839  1
  Se  Se15  1  0.25000000  0.35885878  0.93538161  1
  Br  Br16  1  0.25000000  0.43505508  0.25696307  1
  Br  Br17  1  0.75000000  0.93505508  0.24303693  1
  Br  Br18  1  0.75000000  0.56494492  0.74303693  1
  Br  Br19  1  0.25000000  0.06494492  0.75696307  1
  N  N20  1  0.75000000  0.93423969  0.94613083  1
  N  N21  1  0.25000000  0.43423969  0.55386917  1
  N  N22  1  0.75000000  0.22525422  0.14170582  1
  N  N23  1  0.25000000  0.77474578  0.85829418  1
  N  N24  1  0.25000000  0.06576031  0.05386917  1
  N  N25  1  0.75000000  0.27474578  0.64170582  1
  N  N26  1  0.25000000  0.72525422  0.35829418  1
  N  N27  1  0.75000000  0.56576031  0.44613083  1
