# generated using pymatgen
data_CuAg3S2
_symmetry_space_group_name_H-M   'P 1'
_cell_length_a   8.58476049
_cell_length_b   8.58476049
_cell_length_c   8.58476048
_cell_angle_alpha   92.16868618
_cell_angle_beta   118.75590749
_cell_angle_gamma   118.75590750
_symmetry_Int_Tables_number   1
_chemical_formula_structural   CuAg3S2
_chemical_formula_sum   'Cu4 Ag12 S8'
_cell_volume   455.43240501
_cell_formula_units_Z   4
loop_
 _symmetry_equiv_pos_site_id
 _symmetry_equiv_pos_as_xyz
  1  'x, y, z'
loop_
 _atom_site_type_symbol
 _atom_site_label
 _atom_site_symmetry_multiplicity
 _atom_site_fract_x
 _atom_site_fract_y
 _atom_site_fract_z
 _atom_site_occupancy
  S  S0  1  0.00126754  0.78720481  0.28847235  1
  S  S1  1  0.49873246  0.78720481  0.78593727  1
  S  S2  1  0.49873246  0.71152765  0.21279519  1
  S  S3  1  0.99873246  0.78593727  0.78720481  1
  S  S4  1  0.50126754  0.28847235  0.78720481  1
  S  S5  1  0.00126754  0.21406273  0.21279519  1
  S  S6  1  0.50126754  0.21279519  0.21406273  1
  S  S7  1  0.99873246  0.21279519  0.71152765  1
  Cu  Cu8  1  0.25000000  0.47181113  0.22181113  1
  Cu  Cu9  1  0.75000000  0.22181113  0.47181113  1
  Cu  Cu10  1  0.75000000  0.52818887  0.77818887  1
  Cu  Cu11  1  0.25000000  0.77818887  0.52818887  1
  Ag  Ag12  1  0.12115037  0.56057518  0.81057518  1
  Ag  Ag13  1  0.25000000  0.81057518  0.18942482  1
  Ag  Ag14  1  0.25000000  0.43942482  0.56057518  1
  Ag  Ag15  1  0.37884963  0.18942482  0.43942482  1
  Ag  Ag16  1  0.87884963  0.43942482  0.18942482  1
  Ag  Ag17  1  0.75000000  0.18942482  0.81057518  1
  Ag  Ag18  1  0.75000000  0.56057518  0.43942482  1
  Ag  Ag19  1  0.62115037  0.81057518  0.56057518  1
  Ag  Ag20  1  0.50000000  0.50000000  0.00000000  1
  Ag  Ag21  1  0.50000000  0.00000000  0.00000000  1
  Ag  Ag22  1  0.00000000  0.00000000  0.50000000  1
  Ag  Ag23  1  0.00000000  0.00000000  0.00000000  1
