# generated using pymatgen
data_TeHO3
_symmetry_space_group_name_H-M   'P 1'
_cell_length_a   8.36142951
_cell_length_b   11.52333428
_cell_length_c   4.98984461
_cell_angle_alpha   90.00000000
_cell_angle_beta   90.07397066
_cell_angle_gamma   90.00000000
_symmetry_Int_Tables_number   1
_chemical_formula_structural   TeHO3
_chemical_formula_sum   'Te8 H8 O24'
_cell_volume   480.77884845
_cell_formula_units_Z   8
loop_
 _symmetry_equiv_pos_site_id
 _symmetry_equiv_pos_as_xyz
  1  'x, y, z'
loop_
 _atom_site_type_symbol
 _atom_site_label
 _atom_site_symmetry_multiplicity
 _atom_site_fract_x
 _atom_site_fract_y
 _atom_site_fract_z
 _atom_site_occupancy
  Te  Te0  1  0.45610261  0.61473827  0.02055177  1
  Te  Te1  1  0.54889330  0.38759028  0.52154271  1
  Te  Te2  1  0.95610261  0.88526173  0.52055177  1
  Te  Te3  1  0.04889330  0.11240972  0.02154271  1
  Te  Te4  1  0.33387222  0.90165897  0.14913455  1
  Te  Te5  1  0.66997360  0.09731793  0.65273265  1
  Te  Te6  1  0.83387222  0.59834103  0.64913455  1
  Te  Te7  1  0.16997360  0.40268207  0.15273265  1
  H  H8  1  0.21800733  0.69672258  0.75266648  1
  H  H9  1  0.68541473  0.31360390  0.10229386  1
  H  H10  1  0.71800733  0.80327742  0.25266648  1
  H  H11  1  0.18541473  0.18639610  0.60229386  1
  H  H12  1  0.48410245  0.86589876  0.55339785  1
  H  H13  1  0.49196480  0.12515671  0.02698044  1
  H  H14  1  0.98410245  0.63410124  0.05339785  1
  H  H15  1  0.99196480  0.37484329  0.52698044  1
  O  O16  1  0.26659468  0.56512824  0.20949617  1
  O  O17  1  0.74007490  0.43681318  0.70980568  1
  O  O18  1  0.76659468  0.93487176  0.70949617  1
  O  O19  1  0.24007490  0.06318682  0.20980568  1
  O  O20  1  0.41431329  0.47946826  0.77553323  1
  O  O21  1  0.59148018  0.52061678  0.27054295  1
  O  O22  1  0.91431329  0.02053174  0.27553323  1
  O  O23  1  0.09148018  0.97938322  0.77054295  1
  O  O24  1  0.33106205  0.71796867  0.78681191  1
  O  O25  1  0.67355171  0.28688107  0.28817188  1
  O  O26  1  0.83106205  0.78203133  0.28681191  1
  O  O27  1  0.17355171  0.21311893  0.78817188  1
  O  O28  1  0.35109647  0.33386215  0.34210821  1
  O  O29  1  0.64605113  0.66740524  0.81681994  1
  O  O30  1  0.85109647  0.16613785  0.84210821  1
  O  O31  1  0.14605113  0.83259476  0.31681994  1
  O  O32  1  0.44167992  0.94111224  0.48893719  1
  O  O33  1  0.55548799  0.05545256  0.98372272  1
  O  O34  1  0.94167992  0.55888776  0.98893719  1
  O  O35  1  0.05548799  0.44454744  0.48372272  1
  O  O36  1  0.48791288  0.75045450  0.23504238  1
  O  O37  1  0.54182676  0.25505154  0.75176344  1
  O  O38  1  0.98791288  0.74954550  0.73504238  1
  O  O39  1  0.04182676  0.24494846  0.25176344  1
