# generated using pymatgen
data_In9Ni13
_symmetry_space_group_name_H-M   'P 1'
_cell_length_a   6.75273114
_cell_length_b   6.75091264
_cell_length_c   8.53241914
_cell_angle_alpha   107.97608776
_cell_angle_beta   108.16196213
_cell_angle_gamma   102.43776730
_symmetry_Int_Tables_number   1
_chemical_formula_structural   In9Ni13
_chemical_formula_sum   'In9 Ni13'
_cell_volume   329.99728202
_cell_formula_units_Z   1
loop_
 _symmetry_equiv_pos_site_id
 _symmetry_equiv_pos_as_xyz
  1  'x, y, z'
loop_
 _atom_site_type_symbol
 _atom_site_label
 _atom_site_symmetry_multiplicity
 _atom_site_fract_x
 _atom_site_fract_y
 _atom_site_fract_z
 _atom_site_occupancy
  In  In0  1  0.94074064  0.16428723  0.68871471  1
  In  In1  1  0.05641571  0.82301455  0.88432505  1
  In  In2  1  0.45012251  0.70871597  0.16635563  1
  In  In3  1  0.52032236  0.74461208  0.69256745  1
  In  In4  1  0.54213384  0.28390332  0.83281228  1
  In  In5  1  0.99550854  0.49654049  0.49824782  1
  In  In6  1  0.05853323  0.82777322  0.30800110  1
  In  In7  1  0.47669458  0.24733507  0.30849672  1
  In  In8  1  0.94119851  0.17240445  0.11464608  1
  Ni  Ni9  1  0.20382184  0.93036623  0.65778789  1
  Ni  Ni10  1  0.50045092  0.99677732  0.00134812  1
  Ni  Ni11  1  0.72178450  0.45200057  0.17570184  1
  Ni  Ni12  1  0.72130740  0.44898056  0.65870856  1
  Ni  Ni13  1  0.27091345  0.54294159  0.82241298  1
  Ni  Ni14  1  0.26506243  0.26215042  0.99907475  1
  Ni  Ni15  1  0.73550289  0.73541209  0.47812651  1
  Ni  Ni16  1  0.27669457  0.54356844  0.34299810  1
  Ni  Ni17  1  0.25490637  0.25716526  0.51952679  1
  Ni  Ni18  1  0.79189868  0.05910231  0.33653290  1
  Ni  Ni19  1  0.73162461  0.73023111  0.00130094  1
  Ni  Ni20  1  0.49825910  0.99799509  0.50110362  1
  Ni  Ni21  1  0.99563032  0.49504764  0.99761915  1
