# generated using pymatgen
data_Nd11In9Pd4
_symmetry_space_group_name_H-M   'P 1'
_cell_length_a   3.76153035
_cell_length_b   13.76600292
_cell_length_c   13.76600261
_cell_angle_alpha   112.74047877
_cell_angle_beta   90.00000000
_cell_angle_gamma   90.00000000
_symmetry_Int_Tables_number   1
_chemical_formula_structural   Nd11In9Pd4
_chemical_formula_sum   'Nd11 In9 Pd4'
_cell_volume   657.40969852
_cell_formula_units_Z   1
loop_
 _symmetry_equiv_pos_site_id
 _symmetry_equiv_pos_as_xyz
  1  'x, y, z'
loop_
 _atom_site_type_symbol
 _atom_site_label
 _atom_site_symmetry_multiplicity
 _atom_site_fract_x
 _atom_site_fract_y
 _atom_site_fract_z
 _atom_site_occupancy
  Nd  Nd0  1  0.00000000  0.70612242  0.70612242  1
  Nd  Nd1  1  0.00000000  0.58585110  0.92809130  1
  Nd  Nd2  1  0.00000000  0.63739756  0.36260244  1
  Nd  Nd3  1  0.00000000  0.83937214  0.16062786  1
  Nd  Nd4  1  0.00000000  0.36260244  0.63739756  1
  Nd  Nd5  1  0.00000000  0.29387758  0.29387758  1
  Nd  Nd6  1  0.00000000  0.16062786  0.83937214  1
  Nd  Nd7  1  0.00000000  0.00000000  0.00000000  1
  Nd  Nd8  1  0.00000000  0.92809130  0.58585110  1
  Nd  Nd9  1  0.00000000  0.41414890  0.07190870  1
  Nd  Nd10  1  0.00000000  0.07190870  0.41414890  1
  In  In11  1  0.50000000  0.21540624  0.07176211  1
  In  In12  1  0.50000000  0.84333888  0.36645402  1
  In  In13  1  0.50000000  0.07176211  0.21540624  1
  In  In14  1  0.50000000  0.36645402  0.84333888  1
  In  In15  1  0.50000000  0.92823789  0.78459376  1
  In  In16  1  0.50000000  0.63354598  0.15666112  1
  In  In17  1  0.00000000  0.50000000  0.50000000  1
  In  In18  1  0.50000000  0.78459376  0.92823789  1
  In  In19  1  0.50000000  0.15666112  0.63354598  1
  Pd  Pd20  1  0.50000000  0.44726421  0.24328711  1
  Pd  Pd21  1  0.50000000  0.55273579  0.75671289  1
  Pd  Pd22  1  0.50000000  0.24328711  0.44726421  1
  Pd  Pd23  1  0.50000000  0.75671289  0.55273579  1
