# generated using pymatgen
data_Si4H2O9
_symmetry_space_group_name_H-M   'P 1'
_cell_length_a   15.73698214
_cell_length_b   15.73698214
_cell_length_c   15.74222410
_cell_angle_alpha   151.98753711
_cell_angle_beta   151.98753711
_cell_angle_gamma   40.03776014
_symmetry_Int_Tables_number   1
_chemical_formula_structural   Si4H2O9
_chemical_formula_sum   'Si16 H8 O36'
_cell_volume   858.28558551
_cell_formula_units_Z   4
loop_
 _symmetry_equiv_pos_site_id
 _symmetry_equiv_pos_as_xyz
  1  'x, y, z'
loop_
 _atom_site_type_symbol
 _atom_site_label
 _atom_site_symmetry_multiplicity
 _atom_site_fract_x
 _atom_site_fract_y
 _atom_site_fract_z
 _atom_site_occupancy
  Si  Si0  1  0.95561640  0.04438360  0.50000000  1
  Si  Si1  1  0.54416145  0.45583855  0.50000000  1
  Si  Si2  1  0.20583855  0.79416145  0.00000000  1
  Si  Si3  1  0.79438360  0.20561640  0.00000000  1
  Si  Si4  1  0.95486411  0.45567405  0.91150403  1
  Si  Si5  1  0.54432595  0.04513589  0.08849597  1
  Si  Si6  1  0.20567405  0.20486411  0.41150403  1
  Si  Si7  1  0.79513589  0.79432595  0.58849597  1
  Si  Si8  1  0.17712771  0.47829603  0.30104998  1
  Si  Si9  1  0.17649267  0.88212302  0.70565036  1
  Si  Si10  1  0.57350733  0.36787698  0.79434964  1
  Si  Si11  1  0.57287229  0.77170397  0.19895002  1
  Si  Si12  1  0.52170397  0.82287229  0.69895002  1
  Si  Si13  1  0.11787698  0.82350733  0.29434964  1
  Si  Si14  1  0.63212302  0.42649267  0.20565036  1
  Si  Si15  1  0.22829603  0.42712771  0.80104998  1
  H  H16  1  0.10298588  0.31886930  0.21638097  1
  H  H17  1  0.13462154  0.08837170  0.95397986  1
  H  H18  1  0.61537846  0.16162830  0.54602014  1
  H  H19  1  0.64701412  0.93113070  0.28361903  1
  H  H20  1  0.68113070  0.89701412  0.78361903  1
  H  H21  1  0.91162830  0.86537846  0.04602014  1
  H  H22  1  0.83837170  0.38462154  0.45397986  1
  H  H23  1  0.06886930  0.35298588  0.71638097  1
  O  O24  1  0.13351203  0.30216697  0.16944553  1
  O  O25  1  0.13218601  0.95568312  0.82468831  1
  O  O26  1  0.61781399  0.29431688  0.67531169  1
  O  O27  1  0.61648797  0.94783303  0.33055447  1
  O  O28  1  0.69783303  0.86648797  0.83055447  1
  O  O29  1  0.04431688  0.86781399  0.17531169  1
  O  O30  1  0.70568312  0.38218601  0.32468831  1
  O  O31  1  0.05216697  0.38351203  0.66944553  1
  O  O32  1  0.21735891  0.63097103  0.93427037  1
  O  O33  1  0.69706577  0.27990322  0.06349501  1
  O  O34  1  0.05293423  0.97009678  0.43650499  1
  O  O35  1  0.53264109  0.61902897  0.56572963  1
  O  O36  1  0.21317884  0.28080876  0.58157081  1
  O  O37  1  0.69456834  0.63271698  0.41208885  1
  O  O38  1  0.05543166  0.61728302  0.08791115  1
  O  O39  1  0.53682116  0.96919124  0.91842919  1
  O  O40  1  0.36902897  0.78264109  0.06572963  1
  O  O41  1  0.72009678  0.30293423  0.93650499  1
  O  O42  1  0.02990322  0.94706577  0.56349501  1
  O  O43  1  0.38097103  0.46735891  0.43427037  1
  O  O44  1  0.36728302  0.30543166  0.58791115  1
  O  O45  1  0.71919124  0.78682116  0.41842919  1
  O  O46  1  0.03080876  0.46317884  0.08157081  1
  O  O47  1  0.38271698  0.94456834  0.91208885  1
  O  O48  1  0.33891378  0.84144838  0.49953999  1
  O  O49  1  0.41108622  0.40855162  0.00046001  1
  O  O50  1  0.15855162  0.66108622  0.50046001  1
  O  O51  1  0.59144838  0.58891378  -0.00046001  1
  O  O52  1  0.01447837  0.24996719  0.23655362  1
  O  O53  1  0.01335346  0.77515006  0.76277983  1
  O  O54  1  0.73664654  0.47484994  0.73722017  1
  O  O55  1  0.73552163  0.00003281  0.26344638  1
  O  O56  1  0.75003281  0.98552163  0.76344638  1
  O  O57  1  0.22484994  0.98664654  0.23722017  1
  O  O58  1  0.52515006  0.26335346  0.26277983  1
  O  O59  1  -0.00003281  0.26447837  0.73655362  1
