# generated using pymatgen
data_RbNaMg30O31
_symmetry_space_group_name_H-M   'P 1'
_cell_length_a   8.63476946
_cell_length_b   8.68838776
_cell_length_c   8.67226325
_cell_angle_alpha   90.00000000
_cell_angle_beta   90.00000000
_cell_angle_gamma   90.00000000
_symmetry_Int_Tables_number   1
_chemical_formula_structural   RbNaMg30O31
_chemical_formula_sum   'Rb1 Na1 Mg30 O31'
_cell_volume   650.61248729
_cell_formula_units_Z   1
loop_
 _symmetry_equiv_pos_site_id
 _symmetry_equiv_pos_as_xyz
  1  'x, y, z'
loop_
 _atom_site_type_symbol
 _atom_site_label
 _atom_site_symmetry_multiplicity
 _atom_site_fract_x
 _atom_site_fract_y
 _atom_site_fract_z
 _atom_site_occupancy
  Rb  Rb0  1  0.98735933  -0.00000000  0.50000000  1
  Na  Na1  1  0.99093061  -0.00000000  -0.00000000  1
  Mg  Mg2  1  0.99449947  0.50000000  -0.00000000  1
  Mg  Mg3  1  0.99737051  0.50000000  0.50000000  1
  Mg  Mg4  1  0.51510582  -0.00000000  -0.00000000  1
  Mg  Mg5  1  0.49630475  -0.00000000  0.50000000  1
  Mg  Mg6  1  0.50283314  0.50000000  -0.00000000  1
  Mg  Mg7  1  0.50094823  0.50000000  0.50000000  1
  Mg  Mg8  1  0.00334937  0.25058817  0.24545620  1
  Mg  Mg9  1  0.00334937  0.25058817  0.75454380  1
  Mg  Mg10  1  0.00334937  0.74941183  0.24545620  1
  Mg  Mg11  1  0.00334937  0.74941183  0.75454380  1
  Mg  Mg12  1  0.49874665  0.25022568  0.24882757  1
  Mg  Mg13  1  0.49874665  0.25022568  0.75117243  1
  Mg  Mg14  1  0.49874665  0.74977432  0.24882757  1
  Mg  Mg15  1  0.49874665  0.74977432  0.75117243  1
  Mg  Mg16  1  0.25062667  -0.00000000  0.27192978  1
  Mg  Mg17  1  0.25062667  -0.00000000  0.72807022  1
  Mg  Mg18  1  0.24955868  0.50000000  0.25334897  1
  Mg  Mg19  1  0.24955868  0.50000000  0.74665103  1
  Mg  Mg20  1  0.74755462  -0.00000000  0.24618813  1
  Mg  Mg21  1  0.74755462  -0.00000000  0.75381187  1
  Mg  Mg22  1  0.75144737  0.50000000  0.25050761  1
  Mg  Mg23  1  0.75144737  0.50000000  0.74949239  1
  Mg  Mg24  1  0.24599821  0.27324311  -0.00000000  1
  Mg  Mg25  1  0.25021159  0.25742698  0.50000000  1
  Mg  Mg26  1  0.24599821  0.72675689  -0.00000000  1
  Mg  Mg27  1  0.25021159  0.74257302  0.50000000  1
  Mg  Mg28  1  0.75522901  0.24873250  -0.00000000  1
  Mg  Mg29  1  0.74621198  0.25289196  0.50000000  1
  Mg  Mg30  1  0.75522901  0.75126750  -0.00000000  1
  Mg  Mg31  1  0.74621198  0.74710804  0.50000000  1
  O  O32  1  0.27526333  -0.00000000  0.50000000  1
  O  O33  1  0.25600248  0.50000000  -0.00000000  1
  O  O34  1  0.25754651  0.50000000  0.50000000  1
  O  O35  1  0.73938166  -0.00000000  -0.00000000  1
  O  O36  1  0.71358656  -0.00000000  0.50000000  1
  O  O37  1  0.74493504  0.50000000  -0.00000000  1
  O  O38  1  0.74381106  0.50000000  0.50000000  1
  O  O39  1  0.25223578  0.24946358  0.24558247  1
  O  O40  1  0.25223578  0.24946358  0.75441753  1
  O  O41  1  0.25223578  0.75053642  0.24558247  1
  O  O42  1  0.25223578  0.75053642  0.75441753  1
  O  O43  1  0.75035891  0.24595140  0.24907950  1
  O  O44  1  0.75035891  0.24595140  0.75092050  1
  O  O45  1  0.75035891  0.75404860  0.24907950  1
  O  O46  1  0.75035891  0.75404860  0.75092050  1
  O  O47  1  0.02365761  -0.00000000  0.22889248  1
  O  O48  1  0.02365761  -0.00000000  0.77110752  1
  O  O49  1  0.00038607  0.50000000  0.24574433  1
  O  O50  1  0.00038607  0.50000000  0.75425567  1
  O  O51  1  0.48902703  -0.00000000  0.23712097  1
  O  O52  1  0.48902703  -0.00000000  0.76287903  1
  O  O53  1  0.50103444  0.50000000  0.24706458  1
  O  O54  1  0.50103444  0.50000000  0.75293542  1
  O  O55  1  0.00339774  0.26636091  -0.00000000  1
  O  O56  1  0.00372251  0.27898473  0.50000000  1
  O  O57  1  0.00339774  0.73363909  -0.00000000  1
  O  O58  1  0.00372251  0.72101527  0.50000000  1
  O  O59  1  0.49204684  0.24568664  -0.00000000  1
  O  O60  1  0.49756895  0.25485245  0.50000000  1
  O  O61  1  0.49204684  0.75431336  -0.00000000  1
  O  O62  1  0.49756895  0.74514755  0.50000000  1
