# generated using pymatgen
data_Al(HO)3
_symmetry_space_group_name_H-M   'P 1'
_cell_length_a   8.85289774
_cell_length_b   5.00549865
_cell_length_c   9.59730106
_cell_angle_alpha   90.36977446
_cell_angle_beta   92.08534673
_cell_angle_gamma   87.64432665
_symmetry_Int_Tables_number   1
_chemical_formula_structural   Al(HO)3
_chemical_formula_sum   'Al8 H24 O24'
_cell_volume   424.64076201
_cell_formula_units_Z   8
loop_
 _symmetry_equiv_pos_site_id
 _symmetry_equiv_pos_as_xyz
  1  'x, y, z'
loop_
 _atom_site_type_symbol
 _atom_site_label
 _atom_site_symmetry_multiplicity
 _atom_site_fract_x
 _atom_site_fract_y
 _atom_site_fract_z
 _atom_site_occupancy
  Al  Al0  1  0.32442307  0.99720528  0.49756300  1
  Al  Al1  1  0.83860473  0.50156124  0.99447019  1
  Al  Al2  1  0.66840452  0.98120152  0.49432983  1
  Al  Al3  1  0.17509318  0.51616517  0.98939658  1
  Al  Al4  1  0.16285525  0.50929660  0.50124077  1
  Al  Al5  1  0.66567958  0.02151876  0.99807417  1
  Al  Al6  1  0.83396001  0.47831438  0.49763108  1
  Al  Al7  1  0.33258103  0.98469770  0.99308333  1
  H  H8  1  0.31513315  0.69214620  0.71410967  1
  H  H9  1  0.92354362  0.89104686  0.11409303  1
  H  H10  1  0.68655562  0.29102315  0.29566140  1
  H  H11  1  0.19436513  0.20053479  0.79275847  1
  H  H12  1  0.90150360  0.01004649  0.61071166  1
  H  H13  1  0.40602665  0.42978253  0.11291913  1
  H  H14  1  0.07374865  0.92874867  0.38341312  1
  H  H15  1  0.57282689  0.64074287  0.88078182  1
  H  H16  1  0.00115302  0.61832072  0.70846349  1
  H  H17  1  0.50488067  0.90199919  0.20509536  1
  H  H18  1  0.99908984  0.37350208  0.29403389  1
  H  H19  1  0.44667085  0.34807303  0.88838561  1
  H  H20  1  0.50491775  0.35800852  0.60428794  1
  H  H21  1  0.50122057  0.13708341  0.72668713  1
  H  H22  1  0.04196862  0.18611224  0.10126122  1
  H  H23  1  0.48953491  0.66470201  0.39973870  1
  H  H24  1  0.98854095  0.84648715  0.88649101  1
  H  H25  1  0.10011546  0.09005801  0.61890438  1
  H  H26  1  0.60895707  0.47495849  0.11733593  1
  H  H27  1  0.80331448  0.79076621  0.28598869  1
  H  H28  1  0.69512032  0.68570360  0.70645755  1
  H  H29  1  0.19147078  0.81475496  0.20400987  1
  H  H30  1  0.31012866  0.31514436  0.29649385  1
  H  H31  1  0.81020036  0.18689834  0.78864136  1
  O  O32  1  0.31637323  0.68952197  0.60764108  1
  O  O33  1  0.82181432  0.82183174  0.10774687  1
  O  O34  1  0.67493439  0.30005764  0.39763759  1
  O  O35  1  0.17924914  0.18580018  0.89378362  1
  O  O36  1  0.82328849  0.15625117  0.61113712  1
  O  O37  1  0.31959972  0.31498876  0.11398908  1
  O  O38  1  0.16991616  0.82267580  0.38903009  1
  O  O39  1  0.67606193  0.70556611  0.88784378  1
  O  O40  1  0.99616211  0.64267766  0.60551219  1
  O  O41  1  0.51109062  0.86437467  0.10398889  1
  O  O42  1  0.00050410  0.34936463  0.39666287  1
  O  O43  1  0.48968175  0.15918078  0.88445637  1
  O  O44  1  0.50448890  0.16159583  0.61780219  1
  O  O45  1  0.01064967  0.37518466  0.10457145  1
  O  O46  1  0.48891003  0.86084810  0.39709367  1
  O  O47  1  0.99356921  0.65090458  0.88627238  1
  O  O48  1  0.19102405  0.19436380  0.61450776  1
  O  O49  1  0.69020914  0.33531126  0.10909578  1
  O  O50  1  0.80533229  0.78972995  0.38926614  1
  O  O51  1  0.32812772  0.66941868  0.89320353  1
  O  O52  1  0.68372304  0.66848845  0.60363353  1
  O  O53  1  0.17831350  0.83757554  0.10190275  1
  O  O54  1  0.31478111  0.32127455  0.40048924  1
  O  O55  1  0.81229439  0.18723093  0.89291081  1
