# generated using pymatgen
data_H7NO6
_symmetry_space_group_name_H-M   'P 1'
_cell_length_a   9.87771955
_cell_length_b   14.22042723
_cell_length_c   3.59130001
_cell_angle_alpha   90.01432814
_cell_angle_beta   90.02639395
_cell_angle_gamma   89.99984731
_symmetry_Int_Tables_number   1
_chemical_formula_structural   H7NO6
_chemical_formula_sum   'H28 N4 O24'
_cell_volume   504.45329517
_cell_formula_units_Z   4
loop_
 _symmetry_equiv_pos_site_id
 _symmetry_equiv_pos_as_xyz
  1  'x, y, z'
loop_
 _atom_site_type_symbol
 _atom_site_label
 _atom_site_symmetry_multiplicity
 _atom_site_fract_x
 _atom_site_fract_y
 _atom_site_fract_z
 _atom_site_occupancy
  H  H0  1  0.56466746  0.69434480  0.27178914  1
  H  H1  1  0.63579588  0.62827268  0.96054728  1
  H  H2  1  0.93542240  0.30562919  0.77181274  1
  H  H3  1  0.86426554  0.37168628  0.46048991  1
  H  H4  1  0.06465538  0.80564024  0.72815695  1
  H  H5  1  0.13575640  0.87171958  0.03959569  1
  H  H6  1  0.43573424  0.19434350  0.22727202  1
  H  H7  1  0.36429825  0.12839122  0.53827085  1
  H  H8  1  0.59451662  0.96325083  0.08706233  1
  H  H9  1  0.43336536  0.94056999  0.13366876  1
  H  H10  1  0.47812879  0.05727507  0.18859164  1
  H  H11  1  0.90571692  0.03666177  0.58733479  1
  H  H12  1  0.06692840  0.05928372  0.63302440  1
  H  H13  1  0.02207337  0.94262625  0.68914077  1
  H  H14  1  0.09442188  0.53658636  0.91288043  1
  H  H15  1  0.97798684  0.44259035  0.81085387  1
  H  H16  1  0.93330166  0.55932048  0.86653917  1
  H  H17  1  0.40549802  0.46337721  0.41247695  1
  H  H18  1  0.52198556  0.55731863  0.31081878  1
  H  H19  1  0.56663366  0.44063947  0.36625753  1
  H  H20  1  0.26895049  0.91577459  0.51958101  1
  H  H21  1  0.30642530  0.81617074  0.38075444  1
  H  H22  1  0.23232755  0.08419348  0.01757609  1
  H  H23  1  0.19391096  0.18371755  0.87991888  1
  H  H24  1  0.80646324  0.68380771  0.61959248  1
  H  H25  1  0.76886178  0.58425588  0.48054568  1
  H  H26  1  0.73110061  0.41580296  0.98057076  1
  H  H27  1  0.69358825  0.31620510  0.11923099  1
  N  N28  1  0.72161119  0.83298947  0.33625264  1
  N  N29  1  0.77843804  0.16700641  0.83642002  1
  N  N30  1  0.22161071  0.66697834  0.66358431  1
  N  N31  1  0.27850707  0.33293614  0.16327778  1
  O  O32  1  0.60343270  0.80443920  0.42171593  1
  O  O33  1  0.89660520  0.19562137  0.92210721  1
  O  O34  1  0.10342711  0.69556555  0.57807517  1
  O  O35  1  0.39670458  0.30446821  0.07750925  1
  O  O36  1  0.82499339  0.78262853  0.40304770  1
  O  O37  1  0.67502336  0.21736116  0.90303362  1
  O  O38  1  0.32500020  0.71733356  0.59694222  1
  O  O39  1  0.17519225  0.28244879  0.09674448  1
  O  O40  1  0.73719260  0.91242027  0.18321748  1
  O  O41  1  0.76289858  0.08756316  0.68343063  1
  O  O42  1  0.23719874  0.58753170  0.81648767  1
  O  O43  1  0.26281501  0.41235742  0.31630002  1
  O  O44  1  0.55864276  0.63300323  0.13681855  1
  O  O45  1  0.94150122  0.36693009  0.63668938  1
  O  O46  1  0.05857518  0.86696432  0.86325236  1
  O  O47  1  0.44157652  0.13302571  0.36233532  1
  O  O48  1  0.49909880  0.98862256  0.03626664  1
  O  O49  1  0.00103800  0.01122476  0.53632749  1
  O  O50  1  0.99905588  0.51122268  0.96365179  1
  O  O51  1  0.50090483  0.48874014  0.46336801  1
  O  O52  1  0.29134520  0.88348346  0.28879297  1
  O  O53  1  0.20911560  0.11646579  0.78733054  1
  O  O54  1  0.79134757  0.61650308  0.71144502  1
  O  O55  1  0.70869290  0.38351626  0.21131646  1
