# generated using pymatgen
data_Ca(H8O5)2
_symmetry_space_group_name_H-M   'P 1'
_cell_length_a   6.50160243
_cell_length_b   6.24734993
_cell_length_c   10.87061378
_cell_angle_alpha   90.78098883
_cell_angle_beta   91.79016720
_cell_angle_gamma   86.27204296
_symmetry_Int_Tables_number   1
_chemical_formula_structural   Ca(H8O5)2
_chemical_formula_sum   'Ca2 H32 O20'
_cell_volume   440.36113909
_cell_formula_units_Z   2
loop_
 _symmetry_equiv_pos_site_id
 _symmetry_equiv_pos_as_xyz
  1  'x, y, z'
loop_
 _atom_site_type_symbol
 _atom_site_label
 _atom_site_symmetry_multiplicity
 _atom_site_fract_x
 _atom_site_fract_y
 _atom_site_fract_z
 _atom_site_occupancy
  Ca  Ca0  1  0.97931762  0.98192413  0.23891905  1
  Ca  Ca1  1  0.99963513  0.02986969  0.76721793  1
  H  H2  1  0.23039408  0.28623658  0.34662151  1
  H  H3  1  0.02306989  0.42458219  0.37236480  1
  H  H4  1  0.75158058  0.61473430  0.33878095  1
  H  H5  1  0.86835261  0.68165204  0.46449757  1
  H  H6  1  0.53549222  0.02526735  0.36313229  1
  H  H7  1  0.69084741  0.14666525  0.45046294  1
  H  H8  1  0.36579266  0.72927741  0.34354522  1
  H  H9  1  0.29152086  0.86243973  0.46239122  1
  H  H10  1  0.71999273  0.38344877  0.86135259  1
  H  H11  1  0.87480709  0.31065295  0.97710734  1
  H  H12  1  0.28064026  0.64435186  0.84241838  1
  H  H13  1  0.12351877  0.70561396  0.95006495  1
  H  H14  1  0.38346433  0.29423926  0.85630723  1
  H  H15  1  0.45247113  0.04901119  0.87348340  1
  H  H16  1  0.62446079  0.73376037  0.84856490  1
  H  H17  1  0.69560506  0.89392794  0.95642743  1
  H  H18  1  0.71953849  0.61949319  0.64264046  1
  H  H19  1  0.96093174  0.57828202  0.64777485  1
  H  H20  1  0.28753461  0.37605280  0.65053430  1
  H  H21  1  0.13807325  0.28478392  0.54542956  1
  H  H22  1  0.37892351  0.71441328  0.64274820  1
  H  H23  1  0.35254061  0.97665685  0.65585264  1
  H  H24  1  0.64223964  0.03359399  0.62701619  1
  H  H25  1  0.63162268  0.29415370  0.64039147  1
  H  H26  1  0.03823945  0.54828390  0.11584698  1
  H  H27  1  0.27060187  0.63424318  0.12339029  1
  H  H28  1  0.15000482  0.26648222  0.14307469  1
  H  H29  1  0.77444857  0.40687944  0.13496028  1
  H  H30  1  0.57428707  0.02599100  0.13595225  1
  H  H31  1  0.60524865  0.76238902  0.13326681  1
  H  H32  1  0.30382226  0.15493374  0.05476842  1
  H  H33  1  0.55402281  0.36432560  0.28913791  1
  O  O34  1  0.09801092  0.27987385  0.38648542  1
  O  O35  1  0.88619113  0.66244749  0.37297185  1
  O  O36  1  0.65233764  0.12181974  0.36196453  1
  O  O37  1  0.30870817  0.87238226  0.37123084  1
  O  O38  1  0.85377371  0.30231703  0.88376258  1
  O  O39  1  0.14512516  0.72509763  0.86108566  1
  O  O40  1  0.32912548  0.15222608  0.87919843  1
  O  O41  1  0.67908724  0.88049763  0.86493531  1
  O  O42  1  0.85219791  0.68566875  0.62023608  1
  O  O43  1  0.15450842  0.30269560  0.63605969  1
  O  O44  1  0.29078407  0.85265877  0.61764522  1
  O  O45  1  0.72027564  0.15866631  0.61144488  1
  O  O46  1  0.11844075  0.68294091  0.11244778  1
  O  O47  1  0.90729696  0.32477023  0.12482565  1
  O  O48  1  0.67740397  0.90957845  0.11793311  1
  O  O49  1  0.27447316  0.16124795  0.14379101  1
  O  O50  1  0.52370338  0.52279028  0.28092269  1
  O  O51  1  0.50072068  0.51422129  0.81176723  1
  O  O52  1  0.50499893  0.50358501  0.67413905  1
  O  O53  1  0.51716445  0.56185593  0.14654203  1
