# generated using pymatgen
data_Al(HO)3
_symmetry_space_group_name_H-M   'P 1'
_cell_length_a   8.78018374
_cell_length_b   5.23747881
_cell_length_c   9.42376371
_cell_angle_alpha   90.00000000
_cell_angle_beta   90.00000000
_cell_angle_gamma   90.00000000
_symmetry_Int_Tables_number   1
_chemical_formula_structural   Al(HO)3
_chemical_formula_sum   'Al8 H24 O24'
_cell_volume   433.36144568
_cell_formula_units_Z   8
loop_
 _symmetry_equiv_pos_site_id
 _symmetry_equiv_pos_as_xyz
  1  'x, y, z'
loop_
 _atom_site_type_symbol
 _atom_site_label
 _atom_site_symmetry_multiplicity
 _atom_site_fract_x
 _atom_site_fract_y
 _atom_site_fract_z
 _atom_site_occupancy
  Al  Al0  1  0.83059786  0.01691717  0.49820165  1
  Al  Al1  1  0.33059786  0.48308283  0.50179835  1
  Al  Al2  1  0.16940214  0.51691717  0.00179835  1
  Al  Al3  1  0.66940214  0.98308283  0.99820165  1
  Al  Al4  1  0.16940214  0.98308283  0.50179835  1
  Al  Al5  1  0.66940214  0.51691717  0.49820165  1
  Al  Al6  1  0.83059786  0.48308283  0.99820165  1
  Al  Al7  1  0.33059786  0.01691717  0.00179835  1
  H  H8  1  0.48763918  0.80184324  0.61388315  1
  H  H9  1  0.98763918  0.69815676  0.38611685  1
  H  H10  1  0.51236082  0.30184324  0.88611685  1
  H  H11  1  0.01236082  0.19815676  0.11388315  1
  H  H12  1  0.51236082  0.19815676  0.38611685  1
  H  H13  1  0.01236082  0.30184324  0.61388315  1
  H  H14  1  0.48763918  0.69815676  0.11388315  1
  H  H15  1  0.98763918  0.80184324  0.88611685  1
  H  H16  1  0.85346599  0.67700982  0.69465772  1
  H  H17  1  0.35346599  0.82299018  0.30534228  1
  H  H18  1  0.14653401  0.17700982  0.80534228  1
  H  H19  1  0.64653401  0.32299018  0.19465772  1
  H  H20  1  0.14653401  0.32299018  0.30534228  1
  H  H21  1  0.64653401  0.17700982  0.69465772  1
  H  H22  1  0.85346599  0.82299018  0.19465772  1
  H  H23  1  0.35346599  0.67700982  0.80534228  1
  H  H24  1  0.36491325  0.14547746  0.69874794  1
  H  H25  1  0.86491325  0.35452254  0.30125206  1
  H  H26  1  0.63508675  0.64547746  0.80125206  1
  H  H27  1  0.13508675  0.85452254  0.19874794  1
  H  H28  1  0.63508675  0.85452254  0.30125206  1
  H  H29  1  0.13508675  0.64547746  0.69874794  1
  H  H30  1  0.36491325  0.35452254  0.19874794  1
  H  H31  1  0.86491325  0.14547746  0.80125206  1
  O  O32  1  0.49562975  0.61618578  0.61753482  1
  O  O33  1  0.99562975  0.88381422  0.38246518  1
  O  O34  1  0.50437025  0.11618578  0.88246518  1
  O  O35  1  0.00437025  0.38381422  0.11753482  1
  O  O36  1  0.50437025  0.38381422  0.38246518  1
  O  O37  1  0.00437025  0.11618578  0.61753482  1
  O  O38  1  0.49562975  0.88381422  0.11753482  1
  O  O39  1  0.99562975  0.61618578  0.88246518  1
  O  O40  1  0.80772022  0.71646591  0.60367388  1
  O  O41  1  0.30772022  0.78353409  0.39632612  1
  O  O42  1  0.19227978  0.21646591  0.89632612  1
  O  O43  1  0.69227978  0.28353409  0.10367388  1
  O  O44  1  0.19227978  0.28353409  0.39632612  1
  O  O45  1  0.69227978  0.21646591  0.60367388  1
  O  O46  1  0.80772022  0.78353409  0.10367388  1
  O  O47  1  0.30772022  0.71646591  0.89632612  1
  O  O48  1  0.32226465  0.17017369  0.60433120  1
  O  O49  1  0.82226465  0.32982631  0.39566880  1
  O  O50  1  0.67773535  0.67017369  0.89566880  1
  O  O51  1  0.17773535  0.82982631  0.10433120  1
  O  O52  1  0.67773535  0.82982631  0.39566880  1
  O  O53  1  0.17773535  0.67017369  0.60433120  1
  O  O54  1  0.32226465  0.32982631  0.10433120  1
  O  O55  1  0.82226465  0.17017369  0.89566880  1
