# generated using pymatgen
data_Pb3O5
_symmetry_space_group_name_H-M   'P 1'
_cell_length_a   8.01634953
_cell_length_b   11.07681506
_cell_length_c   22.99084687
_cell_angle_alpha   90.00000000
_cell_angle_beta   90.00424421
_cell_angle_gamma   90.00000000
_symmetry_Int_Tables_number   1
_chemical_formula_structural   Pb3O5
_chemical_formula_sum   'Pb48 O80'
_cell_volume   2041.48652460
_cell_formula_units_Z   16
loop_
 _symmetry_equiv_pos_site_id
 _symmetry_equiv_pos_as_xyz
  1  'x, y, z'
loop_
 _atom_site_type_symbol
 _atom_site_label
 _atom_site_symmetry_multiplicity
 _atom_site_fract_x
 _atom_site_fract_y
 _atom_site_fract_z
 _atom_site_occupancy
  Pb  Pb0  1  0.74977254  0.00000776  0.01055993  1
  Pb  Pb1  1  0.75051519  0.50002694  0.99020037  1
  Pb  Pb2  1  0.75024974  0.50002198  0.16972640  1
  Pb  Pb3  1  0.49835832  0.75064981  0.08699148  1
  Pb  Pb4  1  0.99835832  0.24935019  0.08699148  1
  Pb  Pb5  1  0.25076157  0.50051032  0.67005158  1
  Pb  Pb6  1  0.49988315  0.75024627  0.25002982  1
  Pb  Pb7  1  0.24968040  0.00003486  0.50970860  1
  Pb  Pb8  1  0.75063559  0.49960821  0.33115021  1
  Pb  Pb9  1  0.50206386  0.24776222  0.91412956  1
  Pb  Pb10  1  0.25024974  0.49997802  0.16972640  1
  Pb  Pb11  1  0.74897828  0.99958632  0.16887424  1
  Pb  Pb12  1  0.50052284  0.74875818  0.41303852  1
  Pb  Pb13  1  0.49972282  0.24384532  0.07696245  1
  Pb  Pb14  1  0.25061537  0.49955954  0.83180582  1
  Pb  Pb15  1  0.74887624  0.99853427  0.82928281  1
  Pb  Pb16  1  0.50056254  0.74295125  0.92352566  1
  Pb  Pb17  1  0.99983357  0.74862836  0.58602291  1
  Pb  Pb18  1  0.99981191  0.24275111  0.57650797  1
  Pb  Pb19  1  0.49981191  0.75724889  0.57650797  1
  Pb  Pb20  1  0.74941595  0.99989892  0.33064691  1
  Pb  Pb21  1  0.25051519  0.49997306  0.99020037  1
  Pb  Pb22  1  0.75076157  0.49948968  0.67005158  1
  Pb  Pb23  1  0.24941595  0.00010108  0.33064691  1
  Pb  Pb24  1  0.00005788  0.24996994  0.74997699  1
  Pb  Pb25  1  0.24897828  0.00041368  0.16887424  1
  Pb  Pb26  1  0.99987314  0.75006447  0.25002127  1
  Pb  Pb27  1  0.25063559  0.50039179  0.33115021  1
  Pb  Pb28  1  0.50109801  0.25077426  0.75016834  1
  Pb  Pb29  1  0.24977254  -0.00000776  0.01055993  1
  Pb  Pb30  1  0.99988315  0.24975373  0.25002982  1
  Pb  Pb31  1  0.99972282  0.75615468  0.07696245  1
  Pb  Pb32  1  0.00109801  0.74922574  0.75016834  1
  Pb  Pb33  1  0.74997917  0.50001169  0.48954192  1
  Pb  Pb34  1  0.74968040  0.99996514  0.50970860  1
  Pb  Pb35  1  0.00052284  0.25124182  0.41303852  1
  Pb  Pb36  1  0.50005788  0.75003006  0.74997699  1
  Pb  Pb37  1  0.00056254  0.25704775  0.92352566  1
  Pb  Pb38  1  0.24887624  0.00146573  0.82928281  1
  Pb  Pb39  1  0.00001750  0.74383063  0.42306746  1
  Pb  Pb40  1  0.24997917  0.49998831  0.48954192  1
  Pb  Pb41  1  0.24957871  0.99981873  0.66806051  1
  Pb  Pb42  1  0.74957871  0.00018127  0.66806051  1
  Pb  Pb43  1  0.50001750  0.25616937  0.42306746  1
  Pb  Pb44  1  0.00206386  0.75223778  0.91412956  1
  Pb  Pb45  1  0.75061537  0.50044046  0.83180582  1
  Pb  Pb46  1  0.49983357  0.25137164  0.58602291  1
  Pb  Pb47  1  0.49987314  0.24993553  0.25002127  1
  O  O48  1  0.27194541  0.87485469  0.59239797  1
  O  O49  1  0.70395035  0.13749088  0.44557753  1
  O  O50  1  0.20438958  0.63863131  0.05371013  1
  O  O51  1  0.20243563  0.13762409  0.94692793  1
  O  O52  1  0.00055075  0.67348970  0.16267280  1
  O  O53  1  0.78382217  0.62663356  0.26019544  1
  O  O54  1  0.72816623  0.62506696  0.90753217  1
  O  O55  1  0.77194541  0.12514531  0.59239797  1
  O  O56  1  0.99953319  0.14288009  0.32575876  1
  O  O57  1  0.00087217  0.41242535  0.32851252  1
  O  O58  1  0.21843912  0.62861846  0.26044232  1
  O  O59  1  0.49994841  0.64296919  0.17460933  1
  O  O60  1  0.72720418  0.87475787  0.59249943  1
  O  O61  1  0.49875562  0.91306809  0.17150133  1
  O  O62  1  0.49973339  0.08588121  0.00469188  1
  O  O63  1  0.29744729  0.86123602  0.94741623  1
  O  O64  1  0.20395035  0.86250912  0.44557753  1
  O  O65  1  0.00052941  0.64293428  0.67429176  1
  O  O66  1  0.71665227  0.12699654  0.23985088  1
  O  O67  1  0.49963542  0.91683028  0.50505468  1
  O  O68  1  0.50052941  0.35706572  0.67429176  1
  O  O69  1  0.49920463  0.17325646  0.33737521  1
  O  O70  1  0.99994841  0.35703081  0.17460933  1
  O  O71  1  0.99963542  0.08316972  0.50505468  1
  O  O72  1  0.79790494  0.36217191  0.55302550  1
  O  O73  1  0.78062928  0.12830301  0.73936571  1
  O  O74  1  0.28382217  0.37336644  0.26019544  1
  O  O75  1  0.49953319  0.85711991  0.32575876  1
  O  O76  1  0.22720418  0.12524213  0.59249943  1
  O  O77  1  0.99988162  0.85706706  0.82547768  1
  O  O78  1  0.28146772  0.62774510  0.76047535  1
  O  O79  1  0.28062928  0.87169699  0.73936571  1
  O  O80  1  0.50081786  0.41489077  0.82895436  1
  O  O81  1  0.28047153  0.12900718  0.23960826  1
  O  O82  1  0.00081786  0.58510923  0.82895436  1
  O  O83  1  0.79644418  0.63739078  0.05429338  1
  O  O84  1  0.99921848  0.32554015  0.66245993  1
  O  O85  1  0.50055075  0.32651030  0.16267280  1
  O  O86  1  0.99973339  0.91411879  0.00469188  1
  O  O87  1  0.78047153  0.87099282  0.23960826  1
  O  O88  1  0.77554340  0.62396620  0.40655918  1
  O  O89  1  0.71971412  0.62841323  0.76045019  1
  O  O90  1  0.29546025  0.13833073  0.44600181  1
  O  O91  1  0.29644418  0.36260922  0.05429338  1
  O  O92  1  0.79744729  0.13876398  0.94741623  1
  O  O93  1  0.49988162  0.14293294  0.82547768  1
  O  O94  1  0.20147679  0.36245888  0.55308295  1
  O  O95  1  0.71843912  0.37138154  0.26044232  1
  O  O96  1  0.72522178  0.37565711  0.40666494  1
  O  O97  1  0.00049305  0.41620755  0.99521434  1
  O  O98  1  0.99920463  0.82674354  0.33737521  1
  O  O99  1  0.22522178  0.62434289  0.40666494  1
  O  O100  1  0.49947202  0.08490575  0.67074708  1
  O  O101  1  0.72461002  0.12423893  0.09350909  1
  O  O102  1  0.49998211  0.41365703  0.49551519  1
  O  O103  1  0.22816623  0.37493304  0.90753217  1
  O  O104  1  0.49921848  0.67445985  0.66245993  1
  O  O105  1  0.99875562  0.08693191  0.17150133  1
  O  O106  1  0.99998211  0.58634297  0.49551519  1
  O  O107  1  0.27352684  0.62504614  0.90723544  1
  O  O108  1  0.27554340  0.37603380  0.40655918  1
  O  O109  1  0.70147679  0.63754112  0.55308295  1
  O  O110  1  0.22461002  0.87576107  0.09350909  1
  O  O111  1  0.70438958  0.36136869  0.05371013  1
  O  O112  1  0.27403786  0.12441647  0.09334167  1
  O  O113  1  0.00143514  0.17436190  0.83749739  1
  O  O114  1  0.71811354  0.87246259  0.73935652  1
  O  O115  1  0.50143514  0.82563810  0.83749739  1
  O  O116  1  0.77403786  0.87558353  0.09334167  1
  O  O117  1  0.50087217  0.58757465  0.32851252  1
  O  O118  1  0.78146772  0.37225490  0.76047535  1
  O  O119  1  0.21665227  0.87300346  0.23985088  1
  O  O120  1  0.77352684  0.37495386  0.90723544  1
  O  O121  1  0.29790494  0.63782809  0.55302550  1
  O  O122  1  0.50049305  0.58379245  0.99521434  1
  O  O123  1  0.21811354  0.12753741  0.73935652  1
  O  O124  1  0.99947202  0.91509425  0.67074708  1
  O  O125  1  0.79546025  0.86166927  0.44600181  1
  O  O126  1  0.70243563  0.86237591  0.94692793  1
  O  O127  1  0.21971412  0.37158677  0.76045019  1
