# generated using pymatgen
data_Al17(NO7)3
_symmetry_space_group_name_H-M   'P 1'
_cell_length_a   5.70718167
_cell_length_b   16.94287408
_cell_length_c   9.85873993
_cell_angle_alpha   29.91056735
_cell_angle_beta   54.21857859
_cell_angle_gamma   59.47119602
_symmetry_Int_Tables_number   1
_chemical_formula_structural   Al17(NO7)3
_chemical_formula_sum   'Al17 N3 O21'
_cell_volume   385.63702735
_cell_formula_units_Z   1
loop_
 _symmetry_equiv_pos_site_id
 _symmetry_equiv_pos_as_xyz
  1  'x, y, z'
loop_
 _atom_site_type_symbol
 _atom_site_label
 _atom_site_symmetry_multiplicity
 _atom_site_fract_x
 _atom_site_fract_y
 _atom_site_fract_z
 _atom_site_occupancy
  Al  Al0  1  0.00312670  0.99447707  0.00055461  1
  Al  Al1  1  0.24689356  0.00595030  0.24922206  1
  Al  Al2  1  0.00111286  0.33065637  0.99305597  1
  Al  Al3  1  0.10855680  0.00888393  0.62317932  1
  Al  Al4  1  0.24940264  0.33992091  0.24841453  1
  Al  Al5  1  0.99396219  0.66411641  0.99861646  1
  Al  Al6  1  0.63176151  0.17288847  0.11583207  1
  Al  Al7  1  0.62194397  0.01002833  0.62015095  1
  Al  Al8  1  0.13592938  0.32699284  0.63233854  1
  Al  Al9  1  0.25750221  0.66868180  0.25165815  1
  Al  Al10  1  0.64117313  0.49043246  0.13601559  1
  Al  Al11  1  0.63183872  0.32439112  0.62767590  1
  Al  Al12  1  0.12636581  0.66549389  0.62703385  1
  Al  Al13  1  0.63172036  0.50196285  0.61639497  1
  Al  Al14  1  0.61177133  0.84164384  0.11660060  1
  Al  Al15  1  0.62638334  0.66658100  0.62514553  1
  Al  Al16  1  0.62709067  0.82841441  0.63666463  1
  N  N17  1  0.38585613  0.66615216  0.38787121  1
  N  N18  1  0.86372726  0.33687666  0.85716042  1
  N  N19  1  0.86675401  0.66726455  0.86198961  1
  O  O20  1  0.37635215  0.15924227  0.38520664  1
  O  O21  1  0.38477356  0.99043844  0.87841073  1
  O  O22  1  0.36668749  0.35220421  0.36061470  1
  O  O23  1  0.89494996  0.15239281  0.37939808  1
  O  O24  1  0.38612435  0.49037980  0.38092246  1
  O  O25  1  0.36840767  0.17771090  0.86956337  1
  O  O26  1  0.88136875  0.98260993  0.89004749  1
  O  O27  1  0.86835302  0.34175189  0.37157391  1
  O  O28  1  0.39912088  0.32920435  0.87127194  1
  O  O29  1  0.86673214  0.48999579  0.39450931  1
  O  O30  1  0.38702588  0.51130228  0.85349387  1
  O  O31  1  0.87004015  0.17112622  0.86905605  1
  O  O32  1  0.38690666  0.83067674  0.37637338  1
  O  O33  1  0.85760810  0.66960959  0.38044624  1
  O  O34  1  0.39177550  0.00108746  0.38298986  1
  O  O35  1  0.39240561  0.67300061  0.85619766  1
  O  O36  1  0.86226843  0.50577839  0.87209332  1
  O  O37  1  0.85833836  0.82608663  0.39499078  1
  O  O38  1  0.38159557  0.84701400  0.84589473  1
  O  O39  1  0.84817664  0.00107607  0.38196262  1
  O  O40  1  0.87315858  0.84669224  0.85890488  1
