# generated using pymatgen
data_LaSiAs3
_symmetry_space_group_name_H-M   'P 1'
_cell_length_a   5.95093921
_cell_length_b   6.07905599
_cell_length_c   26.60325174
_cell_angle_alpha   90.00007441
_cell_angle_beta   90.00000000
_cell_angle_gamma   90.00000000
_symmetry_Int_Tables_number   1
_chemical_formula_structural   LaSiAs3
_chemical_formula_sum   'La8 Si8 As24'
_cell_volume   962.40169976
_cell_formula_units_Z   8
loop_
 _symmetry_equiv_pos_site_id
 _symmetry_equiv_pos_as_xyz
  1  'x, y, z'
loop_
 _atom_site_type_symbol
 _atom_site_label
 _atom_site_symmetry_multiplicity
 _atom_site_fract_x
 _atom_site_fract_y
 _atom_site_fract_z
 _atom_site_occupancy
  La  La0  1  0.50241639  0.00001526  0.40903699  1
  La  La1  1  0.50241911  0.50003077  0.09096379  1
  La  La2  1  0.49758089  0.49996923  0.90903621  1
  La  La3  1  0.99758089  0.50003077  0.59096379  1
  La  La4  1  0.49758361  -0.00001526  0.59096301  1
  La  La5  1  0.00241911  0.49996923  0.40903621  1
  La  La6  1  0.00241639  -0.00001526  0.09096301  1
  La  La7  1  0.99758361  0.00001526  0.90903699  1
  Si  Si8  1  0.42088468  0.41371611  0.29329490  1
  Si  Si9  1  0.07911532  0.41371611  0.79329490  1
  Si  Si10  1  0.42088467  0.91371514  0.20670528  1
  Si  Si11  1  0.57911533  0.08628486  0.79329472  1
  Si  Si12  1  0.92088468  0.58628389  0.20670510  1
  Si  Si13  1  0.57911532  0.58628389  0.70670510  1
  Si  Si14  1  0.92088467  0.08628486  0.29329472  1
  Si  Si15  1  0.07911533  0.91371514  0.70670528  1
  As  As16  1  0.75333441  0.74727820  0.99970193  1
  As  As17  1  0.52354463  0.53959516  0.21145322  1
  As  As18  1  0.02354463  0.46040484  0.28854678  1
  As  As19  1  0.52354497  0.03959456  0.28854657  1
  As  As20  1  0.99498409  0.00442686  0.62368563  1
  As  As21  1  0.99498418  0.50442632  0.87631444  1
  As  As22  1  0.74666559  0.74727820  0.49970193  1
  As  As23  1  0.24666594  0.75272136  0.49970187  1
  As  As24  1  0.97645537  0.53959516  0.71145322  1
  As  As25  1  0.00501582  0.49557368  0.12368556  1
  As  As26  1  0.24666559  0.25272180  0.00029807  1
  As  As27  1  0.49498418  0.49557368  0.62368556  1
  As  As28  1  0.50501591  0.00442686  0.12368563  1
  As  As29  1  0.02354497  0.96040544  0.21145343  1
  As  As30  1  0.47645537  0.46040484  0.78854678  1
  As  As31  1  0.25333441  0.25272180  0.50029807  1
  As  As32  1  0.00501591  0.99557314  0.37631437  1
  As  As33  1  0.50501582  0.50442632  0.37631444  1
  As  As34  1  0.97645503  0.03959456  0.78854657  1
  As  As35  1  0.47645503  0.96040544  0.71145343  1
  As  As36  1  0.49498409  0.99557314  0.87631437  1
  As  As37  1  0.74666594  0.24727864  0.00029813  1
  As  As38  1  0.75333406  0.24727864  0.50029813  1
  As  As39  1  0.25333406  0.75272136  0.99970187  1
