# generated using pymatgen
data_As4Pb8Cl6O11
_symmetry_space_group_name_H-M   'P 1'
_cell_length_a   6.77606709
_cell_length_b   11.44672154
_cell_length_c   35.19397376
_cell_angle_alpha   90.00000000
_cell_angle_beta   94.02285660
_cell_angle_gamma   90.00000000
_symmetry_Int_Tables_number   1
_chemical_formula_structural   As4Pb8Cl6O11
_chemical_formula_sum   'As16 Pb32 Cl24 O44'
_cell_volume   2723.05091409
_cell_formula_units_Z   4
loop_
 _symmetry_equiv_pos_site_id
 _symmetry_equiv_pos_as_xyz
  1  'x, y, z'
loop_
 _atom_site_type_symbol
 _atom_site_label
 _atom_site_symmetry_multiplicity
 _atom_site_fract_x
 _atom_site_fract_y
 _atom_site_fract_z
 _atom_site_occupancy
  As  As0  1  0.69870818  0.62284739  0.84612411  1
  As  As1  1  0.72389864  0.37148065  0.44562678  1
  As  As2  1  0.73385999  0.87998672  0.44331789  1
  As  As3  1  0.26614001  0.37998672  0.05668211  1
  As  As4  1  0.31708904  0.62792365  0.65273906  1
  As  As5  1  0.27610136  0.62851935  0.55437322  1
  As  As6  1  0.68291096  0.12792365  0.84726094  1
  As  As7  1  0.73385999  0.62001328  0.94331789  1
  As  As8  1  0.30129182  0.12284739  0.65387589  1
  As  As9  1  0.31708904  0.87207635  0.15273906  1
  As  As10  1  0.72389864  0.12851935  0.94562678  1
  As  As11  1  0.27610136  0.87148065  0.05437322  1
  As  As12  1  0.69870818  0.87715261  0.34612411  1
  As  As13  1  0.26614001  0.12001328  0.55668211  1
  As  As14  1  0.68291096  0.37207635  0.34726094  1
  As  As15  1  0.30129182  0.37715261  0.15387589  1
  Pb  Pb16  1  0.20160463  0.12956138  0.99171939  1
  Pb  Pb17  1  0.80521089  0.37195506  0.01434230  1
  Pb  Pb18  1  0.28467893  0.37972833  0.71048434  1
  Pb  Pb19  1  0.16129840  0.61799493  0.82055442  1
  Pb  Pb20  1  0.01478481  0.36422489  0.91142058  1
  Pb  Pb21  1  0.01478481  0.13577511  0.41142058  1
  Pb  Pb22  1  0.93729515  0.07904799  0.09580135  1
  Pb  Pb23  1  0.79839537  0.87043862  0.00828061  1
  Pb  Pb24  1  0.82621634  0.61746416  0.66998694  1
  Pb  Pb25  1  0.19478911  0.62804494  0.98565770  1
  Pb  Pb26  1  0.80521089  0.12804494  0.51434230  1
  Pb  Pb27  1  0.06270485  0.57904799  0.40419865  1
  Pb  Pb28  1  0.71591265  0.12892745  0.28770519  1
  Pb  Pb29  1  0.17378366  0.38253584  0.33001306  1
  Pb  Pb30  1  0.17378366  0.11746416  0.83001306  1
  Pb  Pb31  1  0.82621634  0.88253584  0.16998694  1
  Pb  Pb32  1  0.16129840  0.88200507  0.32055442  1
  Pb  Pb33  1  0.28408735  0.87107255  0.71229381  1
  Pb  Pb34  1  0.06270485  0.92095201  0.90419865  1
  Pb  Pb35  1  0.98521519  0.63577511  0.08857942  1
  Pb  Pb36  1  0.71532107  0.87972833  0.78951566  1
  Pb  Pb37  1  0.98521519  0.86422489  0.58857942  1
  Pb  Pb38  1  0.71532107  0.62027167  0.28951566  1
  Pb  Pb39  1  0.28467893  0.12027167  0.21048434  1
  Pb  Pb40  1  0.83870160  0.11799493  0.67944558  1
  Pb  Pb41  1  0.83870160  0.38200507  0.17944558  1
  Pb  Pb42  1  0.20160463  0.37043862  0.49171939  1
  Pb  Pb43  1  0.79839537  0.62956138  0.50828061  1
  Pb  Pb44  1  0.71591265  0.37107255  0.78770619  1
  Pb  Pb45  1  0.19478911  0.87195506  0.48565770  1
  Pb  Pb46  1  0.93729515  0.42095201  0.59580135  1
  Pb  Pb47  1  0.28408735  0.62892745  0.21229381  1
  Cl  Cl48  1  0.37459586  0.87366700  0.96407407  1
  Cl  Cl49  1  0.35522093  0.12989706  0.31901069  1
  Cl  Cl50  1  0.64006099  0.86094527  0.54159094  1
  Cl  Cl51  1  0.64477907  0.87010294  0.68098931  1
  Cl  Cl52  1  0.35522093  0.37010294  0.81901069  1
  Cl  Cl53  1  0.47162948  0.88014544  0.24829919  1
  Cl  Cl54  1  0.27349375  0.88558380  0.39359723  1
  Cl  Cl55  1  0.65442671  0.13435987  0.18211363  1
  Cl  Cl56  1  0.64006099  0.63905473  0.04159094  1
  Cl  Cl57  1  0.64477907  0.62989706  0.18098931  1
  Cl  Cl58  1  0.62540414  0.12633300  0.03592593  1
  Cl  Cl59  1  0.52837052  0.11985456  0.75170081  1
  Cl  Cl60  1  0.35993901  0.36094527  0.95840906  1
  Cl  Cl61  1  0.35993901  0.13905473  0.45840906  1
  Cl  Cl62  1  0.27349375  0.61441620  0.89359723  1
  Cl  Cl63  1  0.34557329  0.86564013  0.81788637  1
  Cl  Cl64  1  0.72650625  0.11441620  0.60640277  1
  Cl  Cl65  1  0.47162948  0.61985456  0.74829919  1
  Cl  Cl66  1  0.72650625  0.38558380  0.10640277  1
  Cl  Cl67  1  0.37459586  0.62633300  0.46407407  1
  Cl  Cl68  1  0.62540414  0.37366700  0.53592593  1
  Cl  Cl69  1  0.65442671  0.36564013  0.68211363  1
  Cl  Cl70  1  0.34557329  0.63435987  0.31788637  1
  Cl  Cl71  1  0.52837052  0.38014544  0.25170081  1
  O  O72  1  0.16608127  0.99812572  0.16283134  1
  O  O73  1  0.90110800  0.00135125  0.45726074  1
  O  O74  1  0.18888985  0.13138818  0.60561571  1
  O  O75  1  0.14635711  0.49707216  0.16851517  1
  O  O76  1  0.20703476  0.41432316  0.38967855  1
  O  O77  1  0.09996358  0.26970250  0.03689026  1
  O  O78  1  0.89577233  0.24359753  0.96191536  1
  O  O79  1  0.10344059  0.50997685  0.54334400  1
  O  O80  1  0.20703476  0.08567684  0.88967855  1
  O  O81  1  0.16608127  0.50187428  0.66283134  1
  O  O82  1  0.09996358  0.23029750  0.53689026  1
  O  O83  1  0.78356886  0.15639227  0.89595109  1
  O  O84  1  0.85610139  0.76651754  0.32674019  1
  O  O85  1  0.85364289  0.50292784  0.83148483  1
  O  O86  1  0.84536522  0.26574324  0.32849798  1
  O  O87  1  0.81111015  0.86861182  0.39438429  1
  O  O88  1  0.89655941  0.00997685  0.95665600  1
  O  O89  1  0.85364289  0.99707216  0.33148483  1
  O  O90  1  0.89655941  0.49002315  0.45665600  1
  O  O91  1  0.10422767  0.75640247  0.03808464  1
  O  O92  1  0.14635711  0.00292784  0.66851517  1
  O  O93  1  0.21643114  0.84360773  0.10404891  1
  O  O94  1  0.15463478  0.73425676  0.67150202  1
  O  O95  1  0.14389861  0.23348246  0.67325981  1
  O  O96  1  0.89577233  0.25640247  0.46191536  1
  O  O97  1  0.90003642  0.76970250  0.46310974  1
  O  O98  1  0.83391873  0.00187428  0.83716866  1
  O  O99  1  0.18888985  0.36861182  0.10561571  1
  O  O100  1  0.85610139  0.73348246  0.82674019  1
  O  O101  1  0.10344059  0.99002315  0.04334400  1
  O  O102  1  0.84536522  0.23425676  0.82849798  1
  O  O103  1  0.79296424  0.91432316  0.11032145  1
  O  O104  1  0.10422767  0.74359753  0.53808464  1
  O  O105  1  0.09889200  0.99864875  0.54273926  1
  O  O106  1  0.79296424  0.58567684  0.61032145  1
  O  O107  1  0.78356886  0.34360773  0.39595109  1
  O  O108  1  0.90003642  0.73029750  0.96310974  1
  O  O109  1  0.14389861  0.26651754  0.17325981  1
  O  O110  1  0.90110800  0.49864875  0.95726074  1
  O  O111  1  0.83391873  0.49812572  0.33716866  1
  O  O112  1  0.09889200  0.50135125  0.04273926  1
  O  O113  1  0.15463478  0.76574324  0.17150202  1
  O  O114  1  0.21643114  0.65639227  0.60404891  1
  O  O115  1  0.81111015  0.63138818  0.89438429  1
