# generated using pymatgen
data_Pb4SeBr6
_symmetry_space_group_name_H-M   'P 1'
_cell_length_a   4.37446151
_cell_length_b   9.75417252
_cell_length_c   9.73541288
_cell_angle_alpha   62.92374312
_cell_angle_beta   77.01997172
_cell_angle_gamma   77.20763637
_symmetry_Int_Tables_number   1
_chemical_formula_structural   Pb4SeBr6
_chemical_formula_sum   'Pb4 Se1 Br6'
_cell_volume   357.00795438
_cell_formula_units_Z   1
loop_
 _symmetry_equiv_pos_site_id
 _symmetry_equiv_pos_as_xyz
  1  'x, y, z'
loop_
 _atom_site_type_symbol
 _atom_site_label
 _atom_site_symmetry_multiplicity
 _atom_site_fract_x
 _atom_site_fract_y
 _atom_site_fract_z
 _atom_site_occupancy
  Pb  Pb0  1  0.99558520  -0.00442911  0.00577121  1
  Pb  Pb1  1  0.24847317  0.53557115  0.98145005  1
  Pb  Pb2  1  0.49567116  0.53886673  0.46226353  1
  Pb  Pb3  1  0.75585425  0.02044553  0.46691119  1
  Se  Se4  1  -0.00176255  0.71505785  0.28314029  1
  Br  Br5  1  0.36169990  0.10183714  0.16846644  1
  Br  Br6  1  0.62986190  0.83377060  0.89729158  1
  Br  Br7  1  0.12267427  0.16921175  0.58417354  1
  Br  Br8  1  0.87278223  0.41726950  0.83188514  1
  Br  Br9  1  0.30680790  0.76776043  0.61346369  1
  Br  Br10  1  0.69096559  0.38631843  0.23348033  1
