# generated using pymatgen
data_Ho2B4O9
_symmetry_space_group_name_H-M   'P 1'
_cell_length_a   4.41814932
_cell_length_b   12.81295844
_cell_length_c   24.90814456
_cell_angle_alpha   99.83573292
_cell_angle_beta   90.00000000
_cell_angle_gamma   99.92793482
_symmetry_Int_Tables_number   1
_chemical_formula_structural   Ho2B4O9
_chemical_formula_sum   'Ho20 B40 O90'
_cell_volume   1367.87913210
_cell_formula_units_Z   10
loop_
 _symmetry_equiv_pos_site_id
 _symmetry_equiv_pos_as_xyz
  1  'x, y, z'
loop_
 _atom_site_type_symbol
 _atom_site_label
 _atom_site_symmetry_multiplicity
 _atom_site_fract_x
 _atom_site_fract_y
 _atom_site_fract_z
 _atom_site_occupancy
  Ho  Ho0  1  0.01048346  0.43119993  0.12884363  1
  Ho  Ho1  1  0.38908243  0.30609005  0.46173988  1
  Ho  Ho2  1  0.68152630  0.02299129  0.67869865  1
  Ho  Ho3  1  0.65853502  0.97700871  0.82130135  1
  Ho  Ho4  1  0.34146498  0.02299129  0.17869865  1
  Ho  Ho5  1  0.18239156  0.71856502  0.20727303  1
  Ho  Ho6  1  0.85899056  0.13037728  0.07307755  1
  Ho  Ho7  1  0.61091757  0.69390995  0.53826012  1
  Ho  Ho8  1  0.72861328  0.86962272  0.42692245  1
  Ho  Ho9  1  0.14100944  0.86962272  0.92692245  1
  Ho  Ho10  1  0.53617345  0.71856502  0.70727303  1
  Ho  Ho11  1  0.81760844  0.28143498  0.79272697  1
  Ho  Ho12  1  0.31847370  0.97700871  0.32130135  1
  Ho  Ho13  1  0.98951654  0.56880007  0.87115637  1
  Ho  Ho14  1  0.08299238  0.69390995  0.03826012  1
  Ho  Ho15  1  0.27138672  0.13037728  0.57307755  1
  Ho  Ho16  1  0.57928353  0.56880007  0.37115637  1
  Ho  Ho17  1  0.46382655  0.28143498  0.29272697  1
  Ho  Ho18  1  0.42071647  0.43119993  0.62884363  1
  Ho  Ho19  1  0.91700762  0.30609005  0.96173988  1
  B  B20  1  0.58577443  0.49779873  0.21821235  1
  B  B21  1  0.96442879  0.48419268  0.53874369  1
  B  B22  1  0.04325117  0.39085586  0.36650601  1
  B  B23  1  0.15945003  0.94291112  0.06587600  1
  B  B24  1  0.22120514  0.18298855  0.87672607  1
  B  B25  1  0.77879486  0.81701145  0.12327393  1
  B  B26  1  0.87311102  0.10485019  0.27549132  1
  B  B27  1  0.15895661  0.70787848  0.33701029  1
  B  B28  1  0.12555898  0.70664873  0.44114164  1
  B  B29  1  0.12688898  0.89514981  0.72450868  1
  B  B30  1  0.03557121  0.51580732  0.46125631  1
  B  B31  1  0.84104339  0.29212152  0.66298971  1
  B  B32  1  0.34760469  0.39085586  0.86650601  1
  B  B33  1  0.27384857  0.19899130  0.69257809  1
  B  B34  1  0.41422557  0.50220127  0.78178765  1
  B  B35  1  0.51976389  0.48419268  0.03874369  1
  B  B36  1  0.07485727  0.80100870  0.80742191  1
  B  B37  1  0.45107813  0.29212152  0.16298971  1
  B  B38  1  0.92514273  0.19899130  0.19257809  1
  B  B39  1  0.77331581  0.14342216  0.46978700  1
  B  B40  1  0.95674883  0.60914414  0.63349399  1
  B  B41  1  0.54892187  0.70787848  0.83701029  1
  B  B42  1  0.23173916  0.10485019  0.77549132  1
  B  B43  1  0.08797570  0.50220127  0.28178765  1
  B  B44  1  0.62989366  0.85657784  0.03021300  1
  B  B45  1  0.84054997  0.05708888  0.93412400  1
  B  B46  1  0.72615143  0.80100870  0.30742191  1
  B  B47  1  0.91202430  0.49779873  0.71821235  1
  B  B48  1  0.03821659  0.81701145  0.62327393  1
  B  B49  1  0.21653891  0.05708888  0.43412400  1
  B  B50  1  0.48023611  0.51580732  0.96125631  1
  B  B51  1  0.76826084  0.89514981  0.22450868  1
  B  B52  1  0.78346109  0.94291112  0.56587600  1
  B  B53  1  0.41891025  0.29335127  0.05885836  1
  B  B54  1  0.65239531  0.60914414  0.13349399  1
  B  B55  1  0.96178341  0.18298855  0.37672607  1
  B  B56  1  0.22668419  0.85657784  0.53021300  1
  B  B57  1  0.87444102  0.29335127  0.55885836  1
  B  B58  1  0.37010634  0.14342216  0.96978700  1
  B  B59  1  0.58108975  0.70664873  0.94114164  1
  O  O60  1  0.38965775  0.19459927  0.74734658  1
  O  O61  1  0.19505848  0.80540073  0.75265342  1
  O  O62  1  0.78830246  0.54141062  0.58117172  1
  O  O63  1  0.27093741  0.60528994  0.63472598  1
  O  O64  1  0.85456004  0.71514527  0.63540537  1
  O  O65  1  0.31755411  0.87631480  0.02057880  1
  O  O66  1  0.02901457  0.76084093  0.29805907  1
  O  O67  1  0.90868204  0.10327993  0.77417989  1
  O  O68  1  0.80991035  0.21631402  0.42791725  1
  O  O69  1  0.03278998  0.78882629  0.48398443  1
  O  O70  1  0.75603632  0.78882629  0.98398443  1
  O  O71  1  0.78567933  0.44420962  0.48566274  1
  O  O72  1  0.22269714  0.09253000  0.65998446  1
  O  O73  1  0.91019433  0.60209424  0.44438386  1
  O  O74  1  0.79373770  0.87851574  0.61124719  1
  O  O75  1  0.25551460  0.69642169  0.94430687  1
  O  O76  1  0.21432067  0.55579038  0.51433726  1
  O  O77  1  0.26817364  0.23915907  0.20194093  1
  O  O78  1  0.25161773  0.86926004  0.66862477  1
  O  O79  1  0.79440094  0.57431340  0.68601202  1
  O  O80  1  0.65853029  0.44420962  0.98566274  1
  O  O81  1  0.74448540  0.30357831  0.05569313  1
  O  O82  1  0.78161929  0.45472285  0.25481980  1
  O  O83  1  0.08980567  0.39790576  0.55561614  1
  O  O84  1  0.80540211  0.89672007  0.72582011  1
  O  O85  1  0.67310356  0.45472285  0.75481980  1
  O  O86  1  0.32689644  0.54527715  0.24518020  1
  O  O87  1  0.29400165  0.95431232  0.41318664  1
  O  O88  1  0.61764231  0.86926004  0.16862477  1
  O  O89  1  0.21169754  0.45858938  0.41882828  1
  O  O90  1  0.66031067  0.95431232  0.91318664  1
  O  O91  1  0.96721002  0.21117371  0.51601557  1
  O  O92  1  0.96596494  0.25869041  0.60928230  1
  O  O93  1  0.09131796  0.89672007  0.22582011  1
  O  O94  1  0.77991246  0.57431340  0.18601202  1
  O  O95  1  0.72906259  0.39471006  0.36527402  1
  O  O96  1  0.59359633  0.78368598  0.07208275  1
  O  O97  1  0.61034225  0.80540073  0.25265342  1
  O  O98  1  0.74838227  0.13073996  0.33137523  1
  O  O99  1  0.24689183  0.45858938  0.91882828  1
  O  O100  1  0.14375233  0.04622428  0.95588585  1
  O  O101  1  0.85624767  0.95377572  0.04411415  1
  O  O102  1  0.77683067  0.27384751  0.16385790  1
  O  O103  1  0.70727453  0.74130959  0.89071770  1
  O  O104  1  0.67576024  1.00000000  0.25000000  1
  O  O105  1  0.29272547  0.25869041  0.10928230  1
  O  O106  1  0.13941477  0.28485473  0.86459463  1
  O  O107  1  0.20559906  0.42568660  0.31398798  1
  O  O108  1  0.80494152  0.19459927  0.24734658  1
  O  O109  1  0.44090709  0.69642169  0.44430687  1
  O  O110  1  0.68244589  0.12368520  0.97942120  1
  O  O111  1  0.50298316  0.72615249  0.33614210  1
  O  O112  1  0.86983286  0.09253000  0.15998446  1
  O  O113  1  0.44123931  0.12368520  0.47942120  1
  O  O114  1  0.33435254  0.60528994  0.13472598  1
  O  O115  1  0.70599835  0.04568768  0.58681336  1
  O  O116  1  0.66564746  0.39471006  0.86527402  1
  O  O117  1  0.08477803  0.87851574  0.11124719  1
  O  O118  1  0.22008754  0.42568660  0.81398798  1
  O  O119  1  0.19008965  0.78368598  0.57208275  1
  O  O120  1  0.77730286  0.90747000  0.34001554  1
  O  O121  1  0.21838071  0.54527715  0.74518020  1
  O  O122  1  0.03403506  0.74130959  0.39071770  1
  O  O123  1  0.49701684  0.27384751  0.66385790  1
  O  O124  1  0.54115476  0.58993487  0.82784950  1
  O  O125  1  0.30810009  0.39790576  0.05561614  1
  O  O126  1  0.40640367  0.21631402  0.92791725  1
  O  O127  1  0.86058523  0.71514527  0.13540537  1
  O  O128  1  0.45884524  0.41006513  0.17215050  1
  O  O129  1  0.97098543  0.23915907  0.70194093  1
  O  O130  1  0.22316933  0.72615249  0.83614210  1
  O  O131  1  0.38235769  0.13073996  0.83137523  1
  O  O132  1  0.20626230  0.12148426  0.38875281  1
  O  O133  1  0.75310817  0.54141062  0.08117172  1
  O  O134  1  0.55909291  0.30357831  0.55569313  1
  O  O135  1  0.19459789  0.10327993  0.27417989  1
  O  O136  1  0.33968933  0.04568768  0.08681336  1
  O  O137  1  0.04878011  0.58993487  0.32784950  1
  O  O138  1  0.91522197  0.12148426  0.88875281  1
  O  O139  1  0.69189991  0.60209424  0.94438386  1
  O  O140  1  0.95121989  0.41006513  0.67215050  1
  O  O141  1  0.09752805  0.95377572  0.54411415  1
  O  O142  1  0.13016714  0.90747000  0.84001554  1
  O  O143  1  0.24396368  0.21117371  0.01601557  1
  O  O144  1  0.55876069  0.87631480  0.52057880  1
  O  O145  1  0.14543996  0.28485473  0.36459463  1
  O  O146  1  0.32423976  0.00000000  0.75000000  1
  O  O147  1  0.34146971  0.55579038  0.01433726  1
  O  O148  1  0.73182636  0.76084093  0.79805907  1
  O  O149  1  0.90247195  0.04622428  0.45588585  1
