# generated using pymatgen
data_Nb9IrSe20
_symmetry_space_group_name_H-M   'P 1'
_cell_length_a   6.90672933
_cell_length_b   17.52432587
_cell_length_c   9.73575516
_cell_angle_alpha   44.12680404
_cell_angle_beta   111.00764717
_cell_angle_gamma   119.67668627
_symmetry_Int_Tables_number   1
_chemical_formula_structural   Nb9IrSe20
_chemical_formula_sum   'Nb9 Ir1 Se20'
_cell_volume   712.81755652
_cell_formula_units_Z   1
loop_
 _symmetry_equiv_pos_site_id
 _symmetry_equiv_pos_as_xyz
  1  'x, y, z'
loop_
 _atom_site_type_symbol
 _atom_site_label
 _atom_site_symmetry_multiplicity
 _atom_site_fract_x
 _atom_site_fract_y
 _atom_site_fract_z
 _atom_site_occupancy
  Nb  Nb0  1  0.00000000  0.80000000  -0.00000000  1
  Nb  Nb1  1  0.97349763  0.58139538  0.00143937  1
  Nb  Nb2  1  0.98472178  0.38969078  0.00088479  1
  Nb  Nb3  1  0.01527822  0.21030922  0.99911521  1
  Nb  Nb4  1  0.47816911  0.58338528  0.00023687  1
  Nb  Nb5  1  0.02650237  0.01860462  0.99856063  1
  Nb  Nb6  1  0.48688233  0.38978391  0.00137140  1
  Nb  Nb7  1  0.51311767  0.21021609  0.99862860  1
  Nb  Nb8  1  0.52183089  0.01661472  0.99976313  1
  Ir  Ir9  1  0.50000000  0.80000000  -0.00000000  1
  Se  Se10  1  0.34405160  0.96254761  0.76696266  1
  Se  Se11  1  0.17189445  0.84203424  0.23652614  1
  Se  Se12  1  0.33092433  0.75615348  0.77694440  1
  Se  Se13  1  0.16918713  0.63714131  0.23171694  1
  Se  Se14  1  0.32588471  0.56316275  0.74712743  1
  Se  Se15  1  0.83081287  0.96285869  0.76828306  1
  Se  Se16  1  0.15834890  0.42583806  0.25344047  1
  Se  Se17  1  0.66907567  0.84384652  0.22305560  1
  Se  Se18  1  0.33369276  0.37123412  0.73878395  1
  Se  Se19  1  0.82810555  0.75796576  0.76347386  1
  Se  Se20  1  0.65594840  0.63745239  0.23303734  1
  Se  Se21  1  0.16815414  0.22988864  0.26064227  1
  Se  Se22  1  0.34162587  0.17431282  0.74380572  1
  Se  Se23  1  0.82692971  0.56340698  0.74563821  1
  Se  Se24  1  0.17307029  0.03659302  0.25436179  1
  Se  Se25  1  0.65837413  0.42568718  0.25619428  1
  Se  Se26  1  0.83184586  0.37011136  0.73935773  1
  Se  Se27  1  0.66630724  0.22876588  0.26121605  1
  Se  Se28  1  0.84165110  0.17416194  0.74656053  1
  Se  Se29  1  0.67411529  0.03683725  0.25287257  1
