# generated using pymatgen
data_NiBiO3
_symmetry_space_group_name_H-M   'P 1'
_cell_length_a   5.37565652
_cell_length_b   5.73356346
_cell_length_c   7.74435325
_cell_angle_alpha   90.00287862
_cell_angle_beta   90.07289258
_cell_angle_gamma   90.01006072
_symmetry_Int_Tables_number   1
_chemical_formula_structural   NiBiO3
_chemical_formula_sum   'Ni4 Bi4 O12'
_cell_volume   238.69368636
_cell_formula_units_Z   4
loop_
 _symmetry_equiv_pos_site_id
 _symmetry_equiv_pos_as_xyz
  1  'x, y, z'
loop_
 _atom_site_type_symbol
 _atom_site_label
 _atom_site_symmetry_multiplicity
 _atom_site_fract_x
 _atom_site_fract_y
 _atom_site_fract_z
 _atom_site_occupancy
  O  O0  1  0.68199789  0.31398037  0.55992117  1
  O  O1  1  0.31800211  0.68601963  0.44007883  1
  O  O2  1  0.18323111  0.18682546  0.43753370  1
  O  O3  1  0.81676889  0.81317454  0.56246630  1
  O  O4  1  0.31649976  0.68719097  0.06260555  1
  O  O5  1  0.68350024  0.31280903  0.93739445  1
  O  O6  1  0.81825457  0.81431639  0.94019202  1
  O  O7  1  0.18174543  0.18568361  0.05980798  1
  O  O8  1  0.13042732  0.44267910  0.74986335  1
  O  O9  1  0.86957268  0.55732090  0.25013665  1
  O  O10  1  0.63087832  0.05707325  0.24987126  1
  O  O11  1  0.36912168  0.94292675  0.75012874  1
  Ni  Ni12  1  0.00000000  0.50000000  0.50000000  1
  Ni  Ni13  1  0.50000000  0.00000000  0.50000000  1
  Ni  Ni14  1  0.00000000  0.50000000  0.00000000  1
  Ni  Ni15  1  0.50000000  0.00000000  0.00000000  1
  Bi  Bi16  1  0.51870767  0.56549089  0.74865727  1
  Bi  Bi17  1  0.48129233  0.43450911  0.25134273  1
  Bi  Bi18  1  0.01862277  0.93436855  0.24867293  1
  Bi  Bi19  1  0.98137723  0.06563145  0.75132707  1
