# generated using pymatgen
data_Sm2PbS4
_symmetry_space_group_name_H-M   'P 1'
_cell_length_a   7.46772667
_cell_length_b   7.46772594
_cell_length_c   7.46772671
_cell_angle_alpha   109.40221984
_cell_angle_beta   109.40221779
_cell_angle_gamma   109.60931004
_symmetry_Int_Tables_number   1
_chemical_formula_structural   Sm2PbS4
_chemical_formula_sum   'Sm4 Pb2 S8'
_cell_volume   320.58369623
_cell_formula_units_Z   2
loop_
 _symmetry_equiv_pos_site_id
 _symmetry_equiv_pos_as_xyz
  1  'x, y, z'
loop_
 _atom_site_type_symbol
 _atom_site_label
 _atom_site_symmetry_multiplicity
 _atom_site_fract_x
 _atom_site_fract_y
 _atom_site_fract_z
 _atom_site_occupancy
  Sm  Sm0  1  0.11921717  0.75000000  0.86921717  1
  Sm  Sm1  1  0.25000000  0.61921717  0.36921717  1
  Sm  Sm2  1  0.38078283  0.25000000  0.63078283  1
  Sm  Sm3  1  0.75000000  0.88078283  0.13078283  1
  Pb  Pb4  1  0.62500000  0.37500000  0.25000000  1
  Pb  Pb5  1  0.87500000  0.12500000  0.75000000  1
  S  S6  1  0.01165580  0.85801492  0.49653155  1
  S  S7  1  0.14198508  0.13851663  0.15364088  1
  S  S8  1  0.35801492  0.51165580  0.99653155  1
  S  S9  1  0.63851663  0.64198508  0.65364088  1
  S  S10  1  0.48834420  0.98487575  0.84635912  1
  S  S11  1  0.48487575  0.98834420  0.34635912  1
  S  S12  1  0.86148337  0.51512425  0.00346845  1
  S  S13  1  0.01512425  0.36148337  0.50346845  1
