# generated using pymatgen
data_CsO2
_symmetry_space_group_name_H-M   'P 1'
_cell_length_a   4.84889376
_cell_length_b   9.71320656
_cell_length_c   8.39858666
_cell_angle_alpha   30.15650107
_cell_angle_beta   54.73588387
_cell_angle_gamma   60.05249949
_symmetry_Int_Tables_number   1
_chemical_formula_structural   CsO2
_chemical_formula_sum   'Cs2 O4'
_cell_volume   162.25031183
_cell_formula_units_Z   2
loop_
 _symmetry_equiv_pos_site_id
 _symmetry_equiv_pos_as_xyz
  1  'x, y, z'
loop_
 _atom_site_type_symbol
 _atom_site_label
 _atom_site_symmetry_multiplicity
 _atom_site_fract_x
 _atom_site_fract_y
 _atom_site_fract_z
 _atom_site_occupancy
  Cs  Cs0  1  0.00000000  0.00000000  0.00000000  1
  Cs  Cs1  1  0.00000000  0.50000000  0.00000000  1
  O  O2  1  0.44379552  0.00000000  0.44243221  1
  O  O3  1  0.32865995  0.50000000  0.55756779  1
  O  O4  1  0.67134005  0.50000000  0.44243221  1
  O  O5  1  0.55620448  0.00000000  0.55756779  1
