# generated using pymatgen
data_Al11NO15
_symmetry_space_group_name_H-M   'P 1'
_cell_length_a   5.69357011
_cell_length_b   11.20807951
_cell_length_c   9.79498418
_cell_angle_alpha   30.15362365
_cell_angle_beta   54.30745694
_cell_angle_gamma   59.48584231
_symmetry_Int_Tables_number   1
_chemical_formula_structural   Al11NO15
_chemical_formula_sum   'Al11 N1 O15'
_cell_volume   254.99265789
_cell_formula_units_Z   1
loop_
 _symmetry_equiv_pos_site_id
 _symmetry_equiv_pos_as_xyz
  1  'x, y, z'
loop_
 _atom_site_type_symbol
 _atom_site_label
 _atom_site_symmetry_multiplicity
 _atom_site_fract_x
 _atom_site_fract_y
 _atom_site_fract_z
 _atom_site_occupancy
  Al  Al0  1  0.00450159  0.98494329  0.00749571  1
  Al  Al1  1  0.24847655  0.00411632  0.24992700  1
  Al  Al2  1  0.99865821  0.49528248  0.99805844  1
  Al  Al3  1  0.24461152  0.51595659  0.24147995  1
  Al  Al4  1  0.63181416  0.25696403  0.11818032  1
  Al  Al5  1  0.13593749  0.48417095  0.63803292  1
  Al  Al6  1  0.62367385  0.74941260  0.12621686  1
  Al  Al7  1  0.63329188  0.48472755  0.62725224  1
  Al  Al8  1  0.10691165  0.01436219  0.62316051  1
  Al  Al9  1  0.63224983  0.74389664  0.63068956  1
  Al  Al10  1  0.61931685  0.01531812  0.62217666  1
  N  N11  1  0.86570711  0.50136518  0.86257000  1
  O  O12  1  0.38946106  0.99961389  0.38393098  1
  O  O13  1  0.37611577  0.24063225  0.38277427  1
  O  O14  1  0.84898192  0.00000836  0.38276817  1
  O  O15  1  0.38712366  0.97951127  0.88562955  1
  O  O16  1  0.36338561  0.52004187  0.36886714  1
  O  O17  1  0.38423870  0.73771042  0.38149965  1
  O  O18  1  0.36869812  0.26523759  0.87126670  1
  O  O19  1  0.89370223  0.22719507  0.38169683  1
  O  O20  1  0.88008640  0.98034698  0.88408431  1
  O  O21  1  0.86298179  0.51993453  0.36331019  1
  O  O22  1  0.39740380  0.50036574  0.86664464  1
  O  O23  1  0.38277252  0.77322343  0.84142869  1
  O  O24  1  0.86870560  0.25499969  0.87112364  1
  O  O25  1  0.85613001  0.73480079  0.40030436  1
  O  O26  1  0.87006212  0.76586218  0.86443070  1
