# generated using pymatgen
data_Ba4La2Ti3Nb2O18
_symmetry_space_group_name_H-M   'P 1'
_cell_length_a   14.45039148
_cell_length_b   14.45039172
_cell_length_c   14.45039116
_cell_angle_alpha   22.85870495
_cell_angle_beta   22.85870269
_cell_angle_gamma   22.85870530
_symmetry_Int_Tables_number   1
_chemical_formula_structural   Ba4La2Ti3Nb2O18
_chemical_formula_sum   'Ba4 La2 Ti3 Nb2 O18'
_cell_volume   399.55981484
_cell_formula_units_Z   1
loop_
 _symmetry_equiv_pos_site_id
 _symmetry_equiv_pos_as_xyz
  1  'x, y, z'
loop_
 _atom_site_type_symbol
 _atom_site_label
 _atom_site_symmetry_multiplicity
 _atom_site_fract_x
 _atom_site_fract_y
 _atom_site_fract_z
 _atom_site_occupancy
  Ba  Ba0  1  0.13974207  0.13974207  0.13974207  1
  Ba  Ba1  1  0.31186789  0.31186789  0.31186789  1
  Ba  Ba2  1  0.68813211  0.68813211  0.68813211  1
  Ba  Ba3  1  0.86025793  0.86025793  0.86025793  1
  La  La4  1  0.41466890  0.41466890  0.41466890  1
  La  La5  1  0.58533110  0.58533110  0.58533110  1
  Ti  Ti6  1  0.22161156  0.22161156  0.22161156  1
  Ti  Ti7  1  0.50000000  0.50000000  0.50000000  1
  Ti  Ti8  1  0.77838844  0.77838844  0.77838844  1
  Nb  Nb9  1  0.05393587  0.05393587  0.05393587  1
  Nb  Nb10  1  0.94606413  0.94606413  0.94606413  1
  O  O11  1  0.08259901  0.08259901  0.57613229  1
  O  O12  1  0.08259901  0.57613229  0.08259901  1
  O  O13  1  0.57613229  0.08259901  0.08259901  1
  O  O14  1  0.20581024  0.69003736  0.20581024  1
  O  O15  1  0.20581024  0.20581024  0.69003737  1
  O  O16  1  0.69003736  0.20581024  0.20581024  1
  O  O17  1  0.14540361  0.63523896  0.63523896  1
  O  O18  1  0.63523896  0.14540361  0.63523896  1
  O  O19  1  0.63523896  0.63523896  0.14540361  1
  O  O20  1  0.36476104  0.85459639  0.36476104  1
  O  O21  1  0.36476104  0.36476104  0.85459639  1
  O  O22  1  0.85459639  0.36476104  0.36476104  1
  O  O23  1  0.30996264  0.79418976  0.79418976  1
  O  O24  1  0.79418976  0.30996264  0.79418976  1
  O  O25  1  0.79418976  0.79418976  0.30996263  1
  O  O26  1  0.42386771  0.91740099  0.91740099  1
  O  O27  1  0.91740099  0.91740099  0.42386771  1
  O  O28  1  0.91740099  0.42386771  0.91740099  1
