# generated using pymatgen
data_Nd2Pb5F16
_symmetry_space_group_name_H-M   'P 1'
_cell_length_a   4.21884996
_cell_length_b   4.21884999
_cell_length_c   31.78359211
_cell_angle_alpha   56.68818928
_cell_angle_beta   56.68818947
_cell_angle_gamma   58.33614176
_symmetry_Int_Tables_number   1
_chemical_formula_structural   Nd2Pb5F16
_chemical_formula_sum   'Nd2 Pb5 F16'
_cell_volume   374.33767954
_cell_formula_units_Z   1
loop_
 _symmetry_equiv_pos_site_id
 _symmetry_equiv_pos_as_xyz
  1  'x, y, z'
loop_
 _atom_site_type_symbol
 _atom_site_label
 _atom_site_symmetry_multiplicity
 _atom_site_fract_x
 _atom_site_fract_y
 _atom_site_fract_z
 _atom_site_occupancy
  Nd  Nd0  1  0.97728157  0.97728157  0.69199147  1
  Nd  Nd1  1  0.12357155  0.12357155  0.84014531  1
  Pb  Pb2  1  0.08447342  0.08447342  0.98337893  1
  Pb  Pb3  1  0.04549471  0.04549471  0.12806239  1
  Pb  Pb4  1  0.00502602  0.00502602  0.26849935  1
  Pb  Pb5  1  0.02731361  0.02731361  0.54976898  1
  Pb  Pb6  1  0.06862419  0.06862419  0.41258034  1
  F  F7  1  0.27883805  0.27883805  0.16583768  1
  F  F8  1  0.80562331  0.80562331  0.09295069  1
  F  F9  1  0.27893523  0.27893523  0.30118915  1
  F  F10  1  0.79675678  0.79675678  0.23003508  1
  F  F11  1  0.52825393  0.52825393  0.37723382  1
  F  F12  1  0.66548781  0.66548781  0.45005449  1
  F  F13  1  0.24291436  0.24291436  0.59309605  1
  F  F14  1  0.78504079  0.78504079  0.51957648  1
  F  F15  1  0.43976974  0.43976974  0.74614390  1
  F  F16  1  0.30151083  0.30151083  0.69029058  1
  F  F17  1  0.76336855  0.76336855  0.64627383  1
  F  F18  1  0.34639486  0.34639486  0.88478651  1
  F  F19  1  0.66149669  0.66149669  0.78528526  1
  F  F20  1  0.80159488  0.80159488  0.84125336  1
  F  F21  1  0.32454139  0.32454139  0.01707489  1
  F  F22  1  0.86568672  0.86568672  0.94020444  1
