# generated using pymatgen
data_LiSbP2O7
_symmetry_space_group_name_H-M   'P 1'
_cell_length_a   7.23089969
_cell_length_b   9.13594986
_cell_length_c   9.26754725
_cell_angle_alpha   90.00000000
_cell_angle_beta   113.63041544
_cell_angle_gamma   90.00000000
_symmetry_Int_Tables_number   1
_chemical_formula_structural   LiSbP2O7
_chemical_formula_sum   'Li4 Sb4 P8 O28'
_cell_volume   560.88971339
_cell_formula_units_Z   4
loop_
 _symmetry_equiv_pos_site_id
 _symmetry_equiv_pos_as_xyz
  1  'x, y, z'
loop_
 _atom_site_type_symbol
 _atom_site_label
 _atom_site_symmetry_multiplicity
 _atom_site_fract_x
 _atom_site_fract_y
 _atom_site_fract_z
 _atom_site_occupancy
  Li  Li0  1  0.88763418  0.04711048  0.17631559  1
  Li  Li1  1  0.38763418  0.45288952  0.67631559  1
  Li  Li2  1  0.11236582  0.95288952  0.82368441  1
  Li  Li3  1  0.61236582  0.54711048  0.32368441  1
  Sb  Sb4  1  0.63749886  0.91081109  0.38583261  1
  Sb  Sb5  1  0.36250114  0.08918891  0.61416739  1
  Sb  Sb6  1  0.86250114  0.41081109  0.11416739  1
  Sb  Sb7  1  0.13749886  0.58918891  0.88583261  1
  P  P8  1  0.68049845  0.75568230  0.74944181  1
  P  P9  1  0.06221894  0.72480843  0.53022802  1
  P  P10  1  0.56221894  0.77519157  0.03022802  1
  P  P11  1  0.81950155  0.25568230  0.75055819  1
  P  P12  1  0.43778106  0.22480843  0.96977198  1
  P  P13  1  0.93778106  0.27519157  0.46977198  1
  P  P14  1  0.31950155  0.24431770  0.25055819  1
  P  P15  1  0.18049845  0.74431770  0.24944181  1
  O  O16  1  0.36810260  0.37352986  0.89657886  1
  O  O17  1  0.63189740  0.62647014  0.10342114  1
  O  O18  1  0.08352557  0.24548961  0.19530246  1
  O  O19  1  0.65061703  0.82011076  0.90276453  1
  O  O20  1  0.41968206  0.38923561  0.29847403  1
  O  O21  1  0.91968206  0.11076439  0.79847403  1
  O  O22  1  0.41647443  0.74548961  0.30469754  1
  O  O23  1  0.17323861  0.28115809  0.55643179  1
  O  O24  1  0.36226481  0.09571930  0.85167655  1
  O  O25  1  0.58352557  0.25451039  0.69530246  1
  O  O26  1  0.13773519  0.59571930  0.64832345  1
  O  O27  1  0.86810260  0.12647014  0.39657886  1
  O  O28  1  0.08031794  0.88923561  0.20152597  1
  O  O29  1  0.39777723  0.11889259  0.37205105  1
  O  O30  1  0.60222277  0.88110741  0.62794895  1
  O  O31  1  0.13189740  0.87352986  0.60342114  1
  O  O32  1  0.84938297  0.32011076  0.59723547  1
  O  O33  1  0.91647443  0.75451039  0.80469754  1
  O  O34  1  0.58031794  0.61076439  0.70152597  1
  O  O35  1  0.63773519  0.90428070  0.14832345  1
  O  O36  1  0.82676139  0.71884191  0.44356821  1
  O  O37  1  0.32676139  0.78115809  0.94356821  1
  O  O38  1  0.34938297  0.17988924  0.09723547  1
  O  O39  1  0.10222277  0.61889259  0.12794895  1
  O  O40  1  0.86226481  0.40428070  0.35167655  1
  O  O41  1  0.67323861  0.21884191  0.05643179  1
  O  O42  1  0.89777723  0.38110741  0.87205105  1
  O  O43  1  0.15061703  0.67988924  0.40276553  1
