# generated using pymatgen
data_Tb14(PbSe8)3
_symmetry_space_group_name_H-M   'P 1'
_cell_length_a   7.64666778
_cell_length_b   7.64666778
_cell_length_c   22.93753128
_cell_angle_alpha   109.35258959
_cell_angle_beta   109.29485889
_cell_angle_gamma   109.77096246
_symmetry_Int_Tables_number   1
_chemical_formula_structural   Tb14(PbSe8)3
_chemical_formula_sum   'Tb14 Pb3 Se24'
_cell_volume   1032.37401668
_cell_formula_units_Z   1
loop_
 _symmetry_equiv_pos_site_id
 _symmetry_equiv_pos_as_xyz
  1  'x, y, z'
loop_
 _atom_site_type_symbol
 _atom_site_label
 _atom_site_symmetry_multiplicity
 _atom_site_fract_x
 _atom_site_fract_y
 _atom_site_fract_z
 _atom_site_occupancy
  Tb  Tb0  1  0.12754454  0.75593611  0.96250817  1
  Tb  Tb1  1  0.24843219  0.62011029  0.79010314  1
  Tb  Tb2  1  0.11956410  0.74901820  0.62198555  1
  Tb  Tb3  1  0.38306156  0.25360746  0.87801445  1
  Tb  Tb4  1  0.23975796  0.60772699  0.44894562  1
  Tb  Tb5  1  0.10812069  0.74896175  0.28894845  1
  Tb  Tb6  1  0.74980188  0.87812378  0.70989686  1
  Tb  Tb7  1  0.36841060  0.24001904  0.53749183  1
  Tb  Tb8  1  0.25717753  0.63808165  0.12774398  1
  Tb  Tb9  1  0.61839192  0.37087817  0.41315888  1
  Tb  Tb10  1  0.75484972  0.87394560  0.37225602  1
  Tb  Tb11  1  0.38211739  0.24127634  0.21105155  1
  Tb  Tb12  1  0.63140255  0.37891629  0.08684112  1
  Tb  Tb13  1  0.76088913  0.89292010  0.05105438  1
  Pb  Pb14  1  0.62526771  0.37526771  0.75000000  1
  Pb  Pb15  1  0.87668356  0.12511962  0.91772044  1
  Pb  Pb16  1  0.87195929  0.12352323  0.58227956  1
  Se  Se17  1  0.01436478  0.85966153  0.83280549  1
  Se  Se18  1  0.01996811  0.36820790  0.83789165  1
  Se  Se19  1  0.00021491  0.84843090  0.49656018  1
  Se  Se20  1  0.99722639  0.36261577  0.49567916  1
  Se  Se21  1  0.13972933  0.13775392  0.71711279  1
  Se  Se22  1  0.35453195  0.50629217  0.66210835  1
  Se  Se23  1  0.63808088  0.64623763  0.88542994  1
  Se  Se24  1  0.00386382  0.85232869  0.16777329  1
  Se  Se25  1  0.49573027  0.00278005  0.95635837  1
  Se  Se26  1  0.48994780  0.98179105  0.61457006  1
  Se  Se27  1  0.48909536  0.99348869  0.44808700  1
  Se  Se28  1  0.48641455  0.98838997  0.78288721  1
  Se  Se29  1  0.00605577  0.36852913  0.16575476  1
  Se  Se30  1  0.15136876  0.14905454  0.38390655  1
  Se  Se31  1  0.37126586  0.50879250  0.33424524  1
  Se  Se32  1  0.63370393  0.62665416  0.54364163  1
  Se  Se33  1  0.48846027  0.99162314  0.28707444  1
  Se  Se34  1  0.86124405  0.51594729  0.66719451  1
  Se  Se35  1  0.14922667  0.14483335  0.05191300  1
  Se  Se36  1  0.37557830  0.51018892  0.00432084  1
  Se  Se37  1  0.63040083  0.62723796  0.21292556  1
  Se  Se38  1  0.84900981  0.50054494  0.33222671  1
  Se  Se39  1  0.49733490  0.99964912  0.11609345  1
  Se  Se40  1  0.85875036  0.51053437  0.00343982  1
