# generated using pymatgen
data_MgTi3Nb2(PbO3)6
_symmetry_space_group_name_H-M   'P 1'
_cell_length_a   24.15145294
_cell_length_b   5.68833587
_cell_length_c   5.68833586
_cell_angle_alpha   60.00000008
_cell_angle_beta   45.04242046
_cell_angle_gamma   45.04242060
_symmetry_Int_Tables_number   1
_chemical_formula_structural   MgTi3Nb2(PbO3)6
_chemical_formula_sum   'Mg1 Ti3 Nb2 Pb6 O18'
_cell_volume   391.31443018
_cell_formula_units_Z   1
loop_
 _symmetry_equiv_pos_site_id
 _symmetry_equiv_pos_as_xyz
  1  'x, y, z'
loop_
 _atom_site_type_symbol
 _atom_site_label
 _atom_site_symmetry_multiplicity
 _atom_site_fract_x
 _atom_site_fract_y
 _atom_site_fract_z
 _atom_site_occupancy
  Mg  Mg0  1  0.75000000  0.50000000  0.50000000  1
  Ti  Ti1  1  0.08709422  0.49247757  0.49247757  1
  Ti  Ti2  1  0.25000000  0.50000000  0.50000000  1
  Ti  Ti3  1  0.41290578  0.50752243  0.50752243  1
  Nb  Nb4  1  0.58616125  0.49434351  0.49434351  1
  Nb  Nb5  1  0.91383875  0.50565649  0.50565649  1
  Pb  Pb6  1  0.00254522  0.99490956  0.99490956  1
  Pb  Pb7  1  0.16952917  0.99427566  0.99427566  1
  Pb  Pb8  1  0.33047083  0.00572434  0.00572434  1
  Pb  Pb9  1  0.49745478  0.00509044  0.00509044  1
  Pb  Pb10  1  0.66582666  0.00168068  0.00168068  1
  Pb  Pb11  1  0.83417334  0.99831932  0.99831932  1
  O  O12  1  0.16843719  0.99574597  0.49681643  1
  O  O13  1  0.16843719  0.49681643  0.99574597  1
  O  O14  1  0.16843719  0.49681643  0.49681643  1
  O  O15  1  0.33156281  0.00425403  0.50318357  1
  O  O16  1  0.33156281  0.50318357  0.00425403  1
  O  O17  1  0.33156281  0.50318357  0.50318357  1
  O  O18  1  0.49500373  0.01575387  0.50711189  1
  O  O19  1  0.49500373  0.50711189  0.01575387  1
  O  O20  1  0.49500373  0.50711189  0.50711189  1
  O  O21  1  0.66237055  0.01267065  0.50655402  1
  O  O22  1  0.66237055  0.50655402  0.01267065  1
  O  O23  1  0.66237055  0.50655402  0.50655402  1
  O  O24  1  0.83762945  0.98732935  0.49344598  1
  O  O25  1  0.83762945  0.49344598  0.98732935  1
  O  O26  1  0.83762945  0.49344598  0.49344598  1
  O  O27  1  0.00499627  0.98424613  0.49288811  1
  O  O28  1  0.00499627  0.49288811  0.98424613  1
  O  O29  1  0.00499627  0.49288811  0.49288811  1
