# generated using pymatgen
data_LiCuP2O7
_symmetry_space_group_name_H-M   'P 1'
_cell_length_a   8.25370083
_cell_length_b   13.34858550
_cell_length_c   4.91335095
_cell_angle_alpha   90.00000000
_cell_angle_beta   92.87428441
_cell_angle_gamma   90.00000000
_symmetry_Int_Tables_number   1
_chemical_formula_structural   LiCuP2O7
_chemical_formula_sum   'Li4 Cu4 P8 O28'
_cell_volume   540.64856523
_cell_formula_units_Z   4
loop_
 _symmetry_equiv_pos_site_id
 _symmetry_equiv_pos_as_xyz
  1  'x, y, z'
loop_
 _atom_site_type_symbol
 _atom_site_label
 _atom_site_symmetry_multiplicity
 _atom_site_fract_x
 _atom_site_fract_y
 _atom_site_fract_z
 _atom_site_occupancy
  Li  Li0  1  0.63865630  0.62921759  0.66915101  1
  Li  Li1  1  0.86134370  0.12921759  0.83084899  1
  Li  Li2  1  0.13865630  0.87078241  0.16915101  1
  Li  Li3  1  0.36134370  0.37078241  0.33084899  1
  Cu  Cu4  1  0.26092501  0.15129391  0.19500287  1
  Cu  Cu5  1  0.23907499  0.65129391  0.30499713  1
  Cu  Cu6  1  0.76092501  0.34870609  0.69500287  1
  Cu  Cu7  1  0.73907499  0.84870609  0.80499713  1
  P  P8  1  0.46861814  0.16863108  0.72256688  1
  P  P9  1  0.53138186  0.83136892  0.27743312  1
  P  P10  1  0.22317824  0.02589329  0.70714242  1
  P  P11  1  0.77682176  0.97410671  0.29285758  1
  P  P12  1  0.27682176  0.52589329  0.79285758  1
  P  P13  1  0.96861814  0.33136892  0.22256688  1
  P  P14  1  0.03138186  0.66863108  0.77743312  1
  P  P15  1  0.72317824  0.47410671  0.20714242  1
  O  O16  1  0.41800895  0.05136249  0.73349166  1
  O  O17  1  0.30344351  0.42249541  0.69418992  1
  O  O18  1  0.84861923  0.28382291  0.00293946  1
  O  O19  1  0.65138077  0.78382291  0.49706054  1
  O  O20  1  0.15138077  0.71617709  0.99706054  1
  O  O21  1  0.85543827  0.67834895  0.83293912  1
  O  O22  1  0.32840941  0.54228930  0.10092868  1
  O  O23  1  0.14212460  0.11086758  0.87626547  1
  O  O24  1  0.19655649  0.92249541  0.80581008  1
  O  O25  1  0.85787540  0.88913242  0.12373453  1
  O  O26  1  0.67159059  0.45771070  0.89907132  1
  O  O27  1  0.07228303  0.71465143  0.49808500  1
  O  O28  1  0.58199105  0.94863751  0.26650834  1
  O  O29  1  0.35543827  0.82165105  0.33293912  1
  O  O30  1  0.42771697  0.21465143  0.00191500  1
  O  O31  1  0.35787540  0.61086758  0.62373453  1
  O  O32  1  0.92771697  0.28534857  0.50191500  1
  O  O33  1  0.17159059  0.04228930  0.39907132  1
  O  O34  1  0.82840941  0.95771070  0.60092868  1
  O  O35  1  0.34861923  0.21617709  0.50293946  1
  O  O36  1  0.64456173  0.17834895  0.66706088  1
  O  O37  1  0.64212460  0.38913242  0.37626547  1
  O  O38  1  0.14456173  0.32165105  0.16706088  1
  O  O39  1  0.69655649  0.57750459  0.30581008  1
  O  O40  1  0.08199105  0.55136249  0.76650834  1
  O  O41  1  0.57228303  0.78534857  0.99808500  1
  O  O42  1  0.80344351  0.07750459  0.19418992  1
  O  O43  1  0.91800895  0.44863751  0.23349166  1
