# generated using pymatgen
data_V9NiO15
_symmetry_space_group_name_H-M   'P 1'
_cell_length_a   27.69496949
_cell_length_b   14.97305534
_cell_length_c   9.83272149
_cell_angle_alpha   26.23836593
_cell_angle_beta   27.37837311
_cell_angle_gamma   17.59615909
_symmetry_Int_Tables_number   1
_chemical_formula_structural   V9NiO15
_chemical_formula_sum   'V18 Ni2 O30'
_cell_volume   528.08562257
_cell_formula_units_Z   2
loop_
 _symmetry_equiv_pos_site_id
 _symmetry_equiv_pos_as_xyz
  1  'x, y, z'
loop_
 _atom_site_type_symbol
 _atom_site_label
 _atom_site_symmetry_multiplicity
 _atom_site_fract_x
 _atom_site_fract_y
 _atom_site_fract_z
 _atom_site_occupancy
  V  V0  1  0.14116419  0.14915287  0.14702198  1
  V  V1  1  0.06080785  0.34619442  0.35577190  1
  V  V2  1  0.34108672  0.14761440  0.14950156  1
  V  V3  1  0.25765101  0.35258015  0.35427283  1
  V  V4  1  0.54000360  0.14827716  0.15136691  1
  V  V5  1  0.14234899  0.64741985  0.64572717  1
  V  V6  1  0.45997278  0.35071865  0.34917740  1
  V  V7  1  0.05891328  0.85238560  0.85049844  1
  V  V8  1  0.73892948  0.15352752  0.14566006  1
  V  V9  1  0.33919215  0.65380558  0.64422810  1
  V  V10  1  0.66122228  0.35191705  0.34566212  1
  V  V11  1  0.25883581  0.85084713  0.85297802  1
  V  V12  1  0.54098920  0.65056579  0.65310332  1
  V  V13  1  0.85901080  0.34943421  0.34689668  1
  V  V14  1  0.73877772  0.64808295  0.65433788  1
  V  V15  1  0.66107052  0.84647248  0.85433994  1
  V  V16  1  0.94002722  0.64928135  0.65082260  1
  V  V17  1  0.85999640  0.85172284  0.84863309  1
  Ni  Ni18  1  0.94138537  0.14578965  0.14746017  1
  Ni  Ni19  1  0.45861463  0.85421035  0.85253983  1
  O  O20  1  0.12206803  0.05079042  0.74320920  1
  O  O21  1  0.16176359  0.44510719  0.05256367  1
  O  O22  1  0.17811511  0.25088978  0.55135103  1
  O  O23  1  0.02157916  0.74315267  0.45506513  1
  O  O24  1  0.31430017  0.05493317  0.75145211  1
  O  O25  1  0.36023857  0.44599774  0.05517661  1
  O  O26  1  0.03976143  0.55400226  0.94482339  1
  O  O27  1  0.08569983  0.94506683  0.24854789  1
  O  O28  1  0.37842084  0.25684733  0.54493487  1
  O  O29  1  0.22188489  0.74911022  0.44864897  1
  O  O30  1  0.51597057  0.05685142  0.75026703  1
  O  O31  1  0.56441407  0.43353472  0.05926739  1
  O  O32  1  0.23823641  0.55489281  0.94743633  1
  O  O33  1  0.27793197  0.94920958  0.25679080  1
  O  O34  1  0.57821285  0.24940012  0.55505569  1
  O  O35  1  0.42285002  0.74938053  0.44318993  1
  O  O36  1  0.71660374  0.05802791  0.74754725  1
  O  O37  1  0.75634008  0.45485743  0.05150373  1
  O  O38  1  0.43922899  0.55824801  0.94010267  1
  O  O39  1  0.48349664  0.94309200  0.25323290  1
  O  O40  1  0.77401578  0.24941432  0.57024283  1
  O  O41  1  0.62598422  0.75058568  0.42975717  1
  O  O42  1  0.91650336  0.05690800  0.74676710  1
  O  O43  1  0.96077101  0.44175199  0.05989733  1
  O  O44  1  0.64365992  0.54514257  0.94849627  1
  O  O45  1  0.68339626  0.94197209  0.25245275  1
  O  O46  1  0.97714998  0.25061947  0.55681007  1
  O  O47  1  0.82178715  0.75059988  0.44494431  1
  O  O48  1  0.83558593  0.56646528  0.94073261  1
  O  O49  1  0.88402943  0.94314858  0.24973297  1
