# generated using pymatgen
data_LiCr4P7O24
_symmetry_space_group_name_H-M   'P 1'
_cell_length_a   10.10565635
_cell_length_b   10.24542733
_cell_length_c   10.91570468
_cell_angle_alpha   112.67999702
_cell_angle_beta   109.13320879
_cell_angle_gamma   104.92343181
_symmetry_Int_Tables_number   1
_chemical_formula_structural   LiCr4P7O24
_chemical_formula_sum   'Li2 Cr8 P14 O48'
_cell_volume   884.48934329
_cell_formula_units_Z   2
loop_
 _symmetry_equiv_pos_site_id
 _symmetry_equiv_pos_as_xyz
  1  'x, y, z'
loop_
 _atom_site_type_symbol
 _atom_site_label
 _atom_site_symmetry_multiplicity
 _atom_site_fract_x
 _atom_site_fract_y
 _atom_site_fract_z
 _atom_site_occupancy
  Li  Li0  1  0.11916928  0.42537998  0.67118187  1
  Li  Li1  1  0.88083072  0.57462002  0.32881813  1
  Cr  Cr2  1  0.37276865  0.22088628  0.88443248  1
  Cr  Cr3  1  0.07159266  0.68696811  0.07472165  1
  Cr  Cr4  1  0.42607125  0.58143321  0.41232837  1
  Cr  Cr5  1  0.75543780  0.15072089  0.25560144  1
  Cr  Cr6  1  0.57392875  0.41856679  0.58767163  1
  Cr  Cr7  1  0.92840734  0.31303189  0.92527835  1
  Cr  Cr8  1  0.24456220  0.84927911  0.74439856  1
  Cr  Cr9  1  0.62723135  0.77911372  0.11556752  1
  P  P10  1  0.30321735  0.51034521  0.05099257  1
  P  P11  1  0.38271179  0.93716607  0.11671234  1
  P  P12  1  0.69678265  0.48965479  0.94900743  1
  P  P13  1  0.76004630  0.19235077  0.56671207  1
  P  P14  1  0.27367256  0.13140218  0.52274495  1
  P  P15  1  0.06303212  0.32126189  0.26115781  1
  P  P16  1  0.61728821  0.06283393  0.88328766  1
  P  P17  1  0.23995370  0.80764923  0.43328793  1
  P  P18  1  0.49648499  0.72238707  0.75848788  1
  P  P19  1  0.50351501  0.27761293  0.24151212  1
  P  P20  1  0.72632744  0.86859782  0.47725505  1
  P  P21  1  0.99889893  0.00552333  0.22526610  1
  P  P22  1  0.93696788  0.67873811  0.73884219  1
  P  P23  1  0.00110107  0.99447667  0.77473390  1
  O  O24  1  0.73592196  0.64744636  0.08331081  1
  O  O25  1  0.01434434  0.86938080  0.12653073  1
  O  O26  1  0.00620299  0.66309192  0.87372954  1
  O  O27  1  0.26407804  0.35255364  0.91668919  1
  O  O28  1  0.93333890  0.85273637  0.79711583  1
  O  O29  1  0.57007852  0.73128556  0.90638139  1
  O  O30  1  0.03650486  0.67687233  0.65786063  1
  O  O31  1  0.42992148  0.26871444  0.09361861  1
  O  O32  1  0.86407687  0.49030356  0.99083746  1
  O  O33  1  0.62497082  0.23458804  0.53689456  1
  O  O34  1  0.06666110  0.14726363  0.20288417  1
  O  O35  1  0.49043167  0.39735511  0.37230273  1
  O  O36  1  0.16810612  0.02202276  0.80276490  1
  O  O37  1  0.16386312  0.80955963  0.53434570  1
  O  O38  1  0.40458071  0.11195432  0.21944892  1
  O  O39  1  0.09150890  0.06229323  0.40137350  1
  O  O40  1  0.99379701  0.33690808  0.12627046  1
  O  O41  1  0.37502918  0.76541196  0.46310544  1
  O  O42  1  0.59541929  0.88804568  0.78055108  1
  O  O43  1  0.29013761  0.83927648  0.16019851  1
  O  O44  1  0.90849110  0.93770677  0.59862650  1
  O  O45  1  0.70986239  0.16072352  0.83980149  1
  O  O46  1  0.41099820  0.64050035  0.04401761  1
  O  O47  1  0.36985952  0.52638501  0.20506294  1
  O  O48  1  0.58900180  0.35949965  0.95598239  1
  O  O49  1  0.10481319  0.70739901  0.27170445  1
  O  O50  1  0.72300634  0.82051425  0.32781062  1
  O  O51  1  0.69019123  0.11031218  0.04697802  1
  O  O52  1  0.77189094  0.55843804  0.62322208  1
  O  O53  1  0.67610973  0.31107232  0.29893859  1
  O  O54  1  0.22810906  0.44156196  0.37677792  1
  O  O55  1  0.13592313  0.50969644  0.00916254  1
  O  O56  1  0.98565566  0.13061920  0.87346927  1
  O  O57  1  0.68126451  0.01057336  0.53045646  1
  O  O58  1  0.32389027  0.68892768  0.70106141  1
  O  O59  1  0.55610545  0.95758154  0.17762195  1
  O  O60  1  0.27699366  0.17948575  0.67218938  1
  O  O61  1  0.83189388  0.97797724  0.19723510  1
  O  O62  1  0.50956833  0.60264489  0.62769727  1
  O  O63  1  0.31873549  0.98942664  0.46954354  1
  O  O64  1  0.44389455  0.04241846  0.82237805  1
  O  O65  1  0.63014048  0.47361499  0.79493706  1
  O  O66  1  0.64058370  0.73919447  0.49383268  1
  O  O67  1  0.96349514  0.32312767  0.34213937  1
  O  O68  1  0.83613688  0.19044037  0.46565430  1
  O  O69  1  0.35941630  0.26080553  0.50616732  1
  O  O70  1  0.89518681  0.29260099  0.72829555  1
  O  O71  1  0.30980877  0.88968782  0.95302198  1
