# generated using pymatgen
data_CaLaMnNbO6
_symmetry_space_group_name_H-M   'P 1'
_cell_length_a   6.03295923
_cell_length_b   6.31559165
_cell_length_c   7.44761003
_cell_angle_alpha   90.00000000
_cell_angle_beta   90.01306241
_cell_angle_gamma   90.00000000
_symmetry_Int_Tables_number   1
_chemical_formula_structural   CaLaMnNbO6
_chemical_formula_sum   'Ca2 La2 Mn2 Nb2 O12'
_cell_volume   283.76664762
_cell_formula_units_Z   2
loop_
 _symmetry_equiv_pos_site_id
 _symmetry_equiv_pos_as_xyz
  1  'x, y, z'
loop_
 _atom_site_type_symbol
 _atom_site_label
 _atom_site_symmetry_multiplicity
 _atom_site_fract_x
 _atom_site_fract_y
 _atom_site_fract_z
 _atom_site_occupancy
  Ca  Ca0  1  0.51078465  0.59302282  0.70223641  1
  Ca  Ca1  1  0.01078465  0.90697718  0.20223641  1
  La  La2  1  0.01637768  0.89515689  0.70155148  1
  La  La3  1  0.51637768  0.60484311  0.20155148  1
  Mn  Mn4  1  0.01146816  0.43356103  0.45263556  1
  Mn  Mn5  1  0.51146816  0.06643897  0.95263556  1
  Nb  Nb6  1  0.45901278  0.05047049  0.44950655  1
  Nb  Nb7  1  0.95901278  0.44952951  0.94950655  1
  O  O8  1  0.25447656  0.67798936  0.45984677  1
  O  O9  1  0.08966237  0.17923720  0.94709956  1
  O  O10  1  0.12909039  0.12906540  0.45386685  1
  O  O11  1  0.21664430  0.64556683  0.93446827  1
  O  O12  1  0.41808997  0.97172576  0.70124162  1
  O  O13  1  0.39439315  0.97145869  0.19754693  1
  O  O14  1  0.75447656  0.82201064  0.95984677  1
  O  O15  1  0.58966237  0.32076280  0.44709956  1
  O  O16  1  0.62909039  0.37093460  0.95386685  1
  O  O17  1  0.71664430  0.85443317  0.43446827  1
  O  O18  1  0.91808997  0.52827424  0.20124162  1
  O  O19  1  0.89439315  0.52854131  0.69754693  1
