# generated using pymatgen
data_LiMo(PO3)4
_symmetry_space_group_name_H-M   'P 1'
_cell_length_a   7.61948734
_cell_length_b   13.21956455
_cell_length_c   9.60838805
_cell_angle_alpha   90.00000000
_cell_angle_beta   89.48806475
_cell_angle_gamma   90.00000000
_symmetry_Int_Tables_number   1
_chemical_formula_structural   LiMo(PO3)4
_chemical_formula_sum   'Li4 Mo4 P16 O48'
_cell_volume   967.77879076
_cell_formula_units_Z   4
loop_
 _symmetry_equiv_pos_site_id
 _symmetry_equiv_pos_as_xyz
  1  'x, y, z'
loop_
 _atom_site_type_symbol
 _atom_site_label
 _atom_site_symmetry_multiplicity
 _atom_site_fract_x
 _atom_site_fract_y
 _atom_site_fract_z
 _atom_site_occupancy
  Li  Li0  1  0.64750819  0.78699400  0.04792837  1
  Li  Li1  1  0.35249181  0.21300600  0.95207163  1
  Li  Li2  1  0.14750819  0.71300600  0.54792837  1
  Li  Li3  1  0.85249181  0.28699400  0.45207163  1
  Mo  Mo4  1  0.91287398  0.22372657  0.01569255  1
  Mo  Mo5  1  0.58712602  0.72372657  0.48430745  1
  Mo  Mo6  1  0.41287398  0.27627343  0.51569255  1
  Mo  Mo7  1  0.08712602  0.77627343  0.98430745  1
  P  P8  1  0.09332236  0.14212370  0.71618336  1
  P  P9  1  0.08407955  0.59133200  0.25781755  1
  P  P10  1  0.90667764  0.85787630  0.28381664  1
  P  P11  1  0.80789554  0.07799059  0.27386916  1
  P  P12  1  0.19210446  0.92200941  0.72613084  1
  P  P13  1  0.41592045  0.09133200  0.24218245  1
  P  P14  1  0.69210446  0.57799059  0.22613084  1
  P  P15  1  0.30789554  0.42200941  0.77386916  1
  P  P16  1  0.59332236  0.35787630  0.21618336  1
  P  P17  1  0.79601399  0.62899217  0.75933317  1
  P  P18  1  0.29601399  0.87100783  0.25933317  1
  P  P19  1  0.58407955  0.90866800  0.75781755  1
  P  P20  1  0.20398601  0.37100783  0.24066683  1
  P  P21  1  0.91592045  0.40866800  0.74218245  1
  P  P22  1  0.70398601  0.12899217  0.74066683  1
  P  P23  1  0.40667764  0.64212370  0.78381664  1
  O  O24  1  0.11455497  0.44662421  0.71597805  1
  O  O25  1  0.15512916  0.62791235  0.39157353  1
  O  O26  1  0.39066147  0.65293671  0.62677805  1
  O  O27  1  0.80885086  0.15224708  0.38950646  1
  O  O28  1  0.89247607  0.15066690  0.66970000  1
  O  O29  1  0.30885087  0.71777769  0.87034122  1
  O  O30  1  0.69114914  0.65224708  0.11049354  1
  O  O31  1  0.39247607  0.34933310  0.16970000  1
  O  O32  1  0.65512916  0.87208765  0.89157353  1
  O  O33  1  0.78404715  0.64611043  0.60413414  1
  O  O34  1  0.14531739  0.03236245  0.66248724  1
  O  O35  1  0.19114914  0.84775292  0.61049354  1
  O  O36  1  0.07363672  0.90483251  0.85080810  1
  O  O37  1  0.56932306  0.19005581  0.66559806  1
  O  O38  1  0.71595285  0.14611043  0.89586586  1
  O  O39  1  0.93067694  0.69005581  0.83440194  1
  O  O40  1  0.67953692  0.01228932  0.70742822  1
  O  O41  1  0.35468261  0.53236245  0.83751276  1
  O  O42  1  0.60933853  0.34706329  0.37322195  1
  O  O43  1  0.69114913  0.28222231  0.12965878  1
  O  O44  1  0.10752393  0.84933310  0.33030000  1
  O  O45  1  0.60752393  0.65066690  0.83030000  1
  O  O46  1  0.21595285  0.35388957  0.39586586  1
  O  O47  1  0.42636328  0.40483251  0.64919190  1
  O  O48  1  0.34487084  0.12791235  0.10842647  1
  O  O49  1  0.61455497  0.05337579  0.21597805  1
  O  O50  1  0.64531739  0.46763755  0.16248724  1
  O  O51  1  0.38544503  0.94662421  0.78402195  1
  O  O52  1  0.82046308  0.51228932  0.79257178  1
  O  O53  1  0.30885086  0.34775292  0.88950646  1
  O  O54  1  0.90572037  0.34341932  0.86940931  1
  O  O55  1  0.40572037  0.15658068  0.36940931  1
  O  O56  1  0.80885087  0.78222231  0.37034122  1
  O  O57  1  0.89066147  0.84706329  0.12677805  1
  O  O58  1  0.92636328  0.09516749  0.14919190  1
  O  O59  1  0.32046308  0.98771068  0.29257178  1
  O  O60  1  0.88544503  0.55337579  0.28402195  1
  O  O61  1  0.57363672  0.59516749  0.35080810  1
  O  O62  1  0.28404715  0.85388957  0.10413414  1
  O  O63  1  0.59427963  0.84341932  0.63059069  1
  O  O64  1  0.17953692  0.48771068  0.20742822  1
  O  O65  1  0.84487084  0.37208765  0.60842647  1
  O  O66  1  0.09427963  0.65658068  0.13059069  1
  O  O67  1  0.06932306  0.30994419  0.16559806  1
  O  O68  1  0.85468261  0.96763755  0.33751276  1
  O  O69  1  0.19114913  0.21777769  0.62965878  1
  O  O70  1  0.43067694  0.80994419  0.33440194  1
  O  O71  1  0.10933853  0.15293671  0.87322195  1
