# generated using pymatgen
data_K2Co2(MoO4)3
_symmetry_space_group_name_H-M   'P 1'
_cell_length_a   8.38793779
_cell_length_b   14.23245281
_cell_length_c   20.11243572
_cell_angle_alpha   105.70454496
_cell_angle_beta   90.00000000
_cell_angle_gamma   90.00000000
_symmetry_Int_Tables_number   1
_chemical_formula_structural   K2Co2(MoO4)3
_chemical_formula_sum   'K16 Co16 Mo24 O96'
_cell_volume   2311.41105479
_cell_formula_units_Z   8
loop_
 _symmetry_equiv_pos_site_id
 _symmetry_equiv_pos_as_xyz
  1  'x, y, z'
loop_
 _atom_site_type_symbol
 _atom_site_label
 _atom_site_symmetry_multiplicity
 _atom_site_fract_x
 _atom_site_fract_y
 _atom_site_fract_z
 _atom_site_occupancy
  K  K0  1  0.68017303  0.98708953  0.21748313  1
  K  K1  1  0.02279961  0.28945599  0.41556221  1
  K  K2  1  0.98577559  0.89877475  0.41184545  1
  K  K3  1  0.52279961  0.71054401  0.08443779  1
  K  K4  1  0.47720039  0.28945599  0.91556221  1
  K  K5  1  0.97720039  0.71054401  0.58443779  1
  K  K6  1  0.98302319  0.49860076  0.26444739  1
  K  K7  1  0.48577559  0.10122525  0.08815455  1
  K  K8  1  0.18017303  0.01291047  0.28251687  1
  K  K9  1  0.51697681  0.49860076  0.76444739  1
  K  K10  1  0.51422441  0.89877475  0.91184545  1
  K  K11  1  0.01422441  0.10122525  0.58815455  1
  K  K12  1  0.48302319  0.50139924  0.23555261  1
  K  K13  1  0.81982697  0.98708953  0.71748313  1
  K  K14  1  0.01697681  0.50139924  0.73555261  1
  K  K15  1  0.31982697  0.01291047  0.78251687  1
  Co  Co16  1  0.95376977  0.71013424  0.05327890  1
  Co  Co17  1  0.62436196  0.22137749  0.57010068  1
  Co  Co18  1  0.04623023  0.28986576  0.94672110  1
  Co  Co19  1  0.45376977  0.28986576  0.44672110  1
  Co  Co20  1  0.17097614  0.58591787  0.12397167  1
  Co  Co21  1  0.93230915  0.88318429  0.84178527  1
  Co  Co22  1  0.82902386  0.41408213  0.87602833  1
  Co  Co23  1  0.87563804  0.22137749  0.07010068  1
  Co  Co24  1  0.67097614  0.41408213  0.37602833  1
  Co  Co25  1  0.43230915  0.11681571  0.65821473  1
  Co  Co26  1  0.54623023  0.71013424  0.55327890  1
  Co  Co27  1  0.12436196  0.77862251  0.92989932  1
  Co  Co28  1  0.32902386  0.58591787  0.62397167  1
  Co  Co29  1  0.37563804  0.77862251  0.42989932  1
  Co  Co30  1  0.06769085  0.11681571  0.15821473  1
  Co  Co31  1  0.56769085  0.88318429  0.34178527  1
  Mo  Mo32  1  0.63948194  0.96044118  0.54986271  1
  Mo  Mo33  1  0.76417155  0.25751107  0.24411535  1
  Mo  Mo34  1  0.37356460  0.25112129  0.26782721  1
  Mo  Mo35  1  0.13948194  0.03955882  0.95013729  1
  Mo  Mo36  1  0.79756753  0.12036440  0.91233812  1
  Mo  Mo37  1  0.23572087  0.32689952  0.10250682  1
  Mo  Mo38  1  0.86051806  0.96044118  0.04986271  1
  Mo  Mo39  1  0.76427913  0.67310048  0.89749318  1
  Mo  Mo40  1  0.87356460  0.74887871  0.23217279  1
  Mo  Mo41  1  0.36051806  0.03955882  0.45013729  1
  Mo  Mo42  1  0.18759678  0.53421078  0.95294013  1
  Mo  Mo43  1  0.23582845  0.74248893  0.75588465  1
  Mo  Mo44  1  0.29756753  0.87963560  0.58766188  1
  Mo  Mo45  1  0.12643540  0.25112129  0.76782721  1
  Mo  Mo46  1  0.70243247  0.12036440  0.41233812  1
  Mo  Mo47  1  0.73572087  0.67310048  0.39749318  1
  Mo  Mo48  1  0.73582845  0.25751107  0.74411535  1
  Mo  Mo49  1  0.62643540  0.74887871  0.73217279  1
  Mo  Mo50  1  0.81240322  0.46578922  0.04705987  1
  Mo  Mo51  1  0.68759678  0.46578922  0.54705987  1
  Mo  Mo52  1  0.26427913  0.32689952  0.60250682  1
  Mo  Mo53  1  0.31240322  0.53421078  0.45294013  1
  Mo  Mo54  1  0.26417155  0.74248893  0.25588465  1
  Mo  Mo55  1  0.20243247  0.87963560  0.08766188  1
  O  O56  1  0.42936863  0.29908758  0.12431025  1
  O  O57  1  0.16833987  0.76656041  0.11153396  1
  O  O58  1  0.77028921  0.85684492  0.28806302  1
  O  O59  1  0.29745017  0.83377857  0.00285050  1
  O  O60  1  0.67435554  0.48864616  0.11350872  1
  O  O61  1  0.64703795  0.09144251  0.59843776  1
  O  O62  1  0.59168195  0.34791150  0.54053139  1
  O  O63  1  0.22971079  0.14315508  0.71193698  1
  O  O64  1  0.32839029  0.08056509  0.93398208  1
  O  O65  1  0.20750444  0.70413138  0.83229925  1
  O  O66  1  0.66833987  0.23343959  0.38846604  1
  O  O67  1  0.56175812  0.34206400  0.28835698  1
  O  O68  1  0.17261227  0.24276289  0.85400534  1
  O  O69  1  0.08747825  0.83673359  0.75917307  1
  O  O70  1  0.93824188  0.34206400  0.78835698  1
  O  O71  1  0.85296205  0.09144251  0.09843776  1
  O  O72  1  0.52537673  0.03351466  0.36455582  1
  O  O73  1  0.18340322  0.45117909  0.14640206  1
  O  O74  1  0.32738773  0.24276289  0.35400534  1
  O  O75  1  0.57974904  0.17244667  0.22486433  1
  O  O76  1  0.07063137  0.29908758  0.62431025  1
  O  O77  1  0.14703795  0.90855749  0.90156224  1
  O  O78  1  0.25816320  0.31489448  0.51032097  1
  O  O79  1  0.63892893  0.06346354  0.85922430  1
  O  O80  1  0.13892893  0.93653646  0.64077570  1
  O  O81  1  0.85503196  0.35418541  0.31531417  1
  O  O82  1  0.41252175  0.83673359  0.25917307  1
  O  O83  1  0.48357803  0.16017518  0.47654886  1
  O  O84  1  0.84043009  0.97864161  0.96326521  1
  O  O85  1  0.67160971  0.91943491  0.06601792  1
  O  O86  1  0.81659678  0.54882091  0.85359794  1
  O  O87  1  0.51642197  0.83982482  0.52345114  1
  O  O88  1  0.14496804  0.64581459  0.68468583  1
  O  O89  1  0.82738773  0.75723711  0.14599466  1
  O  O90  1  0.86107107  0.06346354  0.35922430  1
  O  O91  1  0.67261227  0.75723711  0.64599466  1
  O  O92  1  0.92936863  0.70091242  0.37568975  1
  O  O93  1  0.65956991  0.97864161  0.46326521  1
  O  O94  1  0.82839029  0.91943491  0.56601792  1
  O  O95  1  0.92025096  0.17244667  0.72486433  1
  O  O96  1  0.64496804  0.35418541  0.81531417  1
  O  O97  1  0.31659678  0.45117909  0.64640206  1
  O  O98  1  0.75816320  0.68510552  0.98967903  1
  O  O99  1  0.90284673  0.76601351  0.88171706  1
  O  O100  1  0.79249556  0.29586862  0.16770075  1
  O  O101  1  0.59715327  0.76601351  0.38171706  1
  O  O102  1  0.17160971  0.08056509  0.43398208  1
  O  O103  1  0.02537673  0.96648534  0.13544418  1
  O  O104  1  0.46133196  0.43231057  0.43398351  1
  O  O105  1  0.07974904  0.82755333  0.27513567  1
  O  O106  1  0.40284673  0.23398649  0.61828294  1
  O  O107  1  0.43824188  0.65793600  0.71164302  1
  O  O108  1  0.35503196  0.64581459  0.18468583  1
  O  O109  1  0.03866804  0.43231057  0.93398351  1
  O  O110  1  0.34043009  0.02135839  0.53673479  1
  O  O111  1  0.97462327  0.03351466  0.86455582  1
  O  O112  1  0.20525366  0.54524131  0.53214081  1
  O  O113  1  0.91252175  0.16326641  0.24082693  1
  O  O114  1  0.06175812  0.65793600  0.21164302  1
  O  O115  1  0.36107107  0.93653646  0.14077570  1
  O  O116  1  0.29474634  0.54524131  0.03214081  1
  O  O117  1  0.24183680  0.31489448  0.01032097  1
  O  O118  1  0.79474634  0.45475869  0.46785919  1
  O  O119  1  0.47462327  0.96648534  0.63544418  1
  O  O120  1  0.98357803  0.83982482  0.02345114  1
  O  O121  1  0.42025096  0.82755333  0.77513567  1
  O  O122  1  0.75217302  0.65623563  0.24780682  1
  O  O123  1  0.17435554  0.51135384  0.38649128  1
  O  O124  1  0.68340322  0.54882091  0.35359794  1
  O  O125  1  0.09715327  0.23398649  0.11828294  1
  O  O126  1  0.40831805  0.65208850  0.45946861  1
  O  O127  1  0.15956991  0.02135839  0.03673479  1
  O  O128  1  0.96133196  0.56768943  0.06601649  1
  O  O129  1  0.57063137  0.70091242  0.87568975  1
  O  O130  1  0.53866804  0.56768943  0.56601649  1
  O  O131  1  0.70254983  0.16622143  0.99714950  1
  O  O132  1  0.25217302  0.34376437  0.25219318  1
  O  O133  1  0.58747825  0.16326641  0.74082693  1
  O  O134  1  0.09168195  0.65208850  0.95946861  1
  O  O135  1  0.72971079  0.85684492  0.78806302  1
  O  O136  1  0.24782698  0.34376437  0.75219318  1
  O  O137  1  0.82564446  0.48864616  0.61350872  1
  O  O138  1  0.20254983  0.83377857  0.50285050  1
  O  O139  1  0.83166013  0.23343959  0.88846604  1
  O  O140  1  0.79745017  0.16622143  0.49714950  1
  O  O141  1  0.70750444  0.29586862  0.66770075  1
  O  O142  1  0.74183680  0.68510552  0.48967903  1
  O  O143  1  0.35296205  0.90855749  0.40156224  1
  O  O144  1  0.32564446  0.51135384  0.88649128  1
  O  O145  1  0.29249556  0.70413138  0.33229925  1
  O  O146  1  0.90831805  0.34791150  0.04053139  1
  O  O147  1  0.70525366  0.45475869  0.96785919  1
  O  O148  1  0.33166013  0.76656041  0.61153396  1
  O  O149  1  0.27028921  0.14315508  0.21193698  1
  O  O150  1  0.74782698  0.65623563  0.74780682  1
  O  O151  1  0.01642197  0.16017518  0.97654886  1
