# generated using pymatgen
data_Na2TiFe(PO4)3
_symmetry_space_group_name_H-M   'P 1'
_cell_length_a   9.90361028
_cell_length_b   9.90361028
_cell_length_c   9.90361028
_cell_angle_alpha   90.00000000
_cell_angle_beta   90.00000000
_cell_angle_gamma   90.00000000
_symmetry_Int_Tables_number   1
_chemical_formula_structural   Na2TiFe(PO4)3
_chemical_formula_sum   'Na8 Ti4 Fe4 P12 O48'
_cell_volume   971.36091779
_cell_formula_units_Z   4
loop_
 _symmetry_equiv_pos_site_id
 _symmetry_equiv_pos_as_xyz
  1  'x, y, z'
loop_
 _atom_site_type_symbol
 _atom_site_label
 _atom_site_symmetry_multiplicity
 _atom_site_fract_x
 _atom_site_fract_y
 _atom_site_fract_z
 _atom_site_occupancy
  Na  Na0  1  0.82379449  0.67620551  0.32379449  1
  Na  Na1  1  0.17620551  0.17620551  0.17620551  1
  Na  Na2  1  0.54273979  0.04273979  0.45726021  1
  Na  Na3  1  0.04273979  0.45726021  0.54273979  1
  Na  Na4  1  0.67620551  0.32379449  0.82379449  1
  Na  Na5  1  0.45726021  0.54273979  0.04273979  1
  Na  Na6  1  0.95726021  0.95726021  0.95726021  1
  Na  Na7  1  0.32379449  0.82379449  0.67620551  1
  Ti  Ti8  1  0.60860647  0.89139353  0.10860647  1
  Ti  Ti9  1  0.89139353  0.10860647  0.60860647  1
  Ti  Ti10  1  0.39139353  0.39139353  0.39139353  1
  Ti  Ti11  1  0.10860647  0.60860647  0.89139353  1
  Fe  Fe12  1  0.33645308  0.16354692  0.83645308  1
  Fe  Fe13  1  0.16354692  0.83645308  0.33645308  1
  Fe  Fe14  1  0.66354692  0.66354692  0.66354692  1
  Fe  Fe15  1  0.83645308  0.33645308  0.16354692  1
  P  P16  1  0.70914457  0.37969843  0.47481360  1
  P  P17  1  0.79085543  0.62030157  0.97481360  1
  P  P18  1  0.62030157  0.97481360  0.79085543  1
  P  P19  1  0.02518640  0.29085543  0.87969843  1
  P  P20  1  0.97481360  0.79085543  0.62030157  1
  P  P21  1  0.37969843  0.47481360  0.70914457  1
  P  P22  1  0.52518640  0.20914457  0.12030157  1
  P  P23  1  0.87969843  0.02518640  0.29085543  1
  P  P24  1  0.12030157  0.52518640  0.20914457  1
  P  P25  1  0.29085543  0.87969843  0.02518640  1
  P  P26  1  0.47481360  0.70914457  0.37969843  1
  P  P27  1  0.20914457  0.12030157  0.52518640  1
  O  O28  1  0.44013091  0.82920909  0.01539098  1
  O  O29  1  0.32764733  0.74591349  0.40446491  1
  O  O30  1  0.98460902  0.94013091  0.67079091  1
  O  O31  1  0.27069162  0.54524817  0.80029230  1
  O  O32  1  0.90446491  0.17235267  0.25408651  1
  O  O33  1  0.17079091  0.51539098  0.05986909  1
  O  O34  1  0.82920909  0.01539098  0.44013091  1
  O  O35  1  0.72930838  0.04524817  0.69970770  1
  O  O36  1  0.30029230  0.22930838  0.45475183  1
  O  O37  1  0.01002774  0.94641806  0.26441164  1
  O  O38  1  0.51539098  0.05986909  0.17079091  1
  O  O39  1  0.73558836  0.51002774  0.55358194  1
  O  O40  1  0.98997226  0.44641806  0.23558836  1
  O  O41  1  0.32920909  0.48460902  0.55986909  1
  O  O42  1  0.17235267  0.25408651  0.90446491  1
  O  O43  1  0.51002774  0.55358194  0.73558836  1
  O  O44  1  0.48997226  0.05358194  0.76441164  1
  O  O45  1  0.82764733  0.75408651  0.59553509  1
  O  O46  1  0.23558836  0.98997226  0.44641806  1
  O  O47  1  0.25408651  0.90446491  0.17235267  1
  O  O48  1  0.55986909  0.32920909  0.48460902  1
  O  O49  1  0.55358194  0.73558836  0.51002774  1
  O  O50  1  0.80029230  0.27069162  0.54524817  1
  O  O51  1  0.59553509  0.82764733  0.75408651  1
  O  O52  1  0.05986909  0.17079091  0.51539098  1
  O  O53  1  0.94013091  0.67079091  0.98460902  1
  O  O54  1  0.24591349  0.09553509  0.67235267  1
  O  O55  1  0.48460902  0.55986909  0.32920909  1
  O  O56  1  0.67079091  0.98460902  0.94013091  1
  O  O57  1  0.19970770  0.77069162  0.95475183  1
  O  O58  1  0.94641806  0.26441164  0.01002774  1
  O  O59  1  0.75408651  0.59553509  0.82764733  1
  O  O60  1  0.76441164  0.48997226  0.05358194  1
  O  O61  1  0.54524817  0.80029230  0.27069162  1
  O  O62  1  0.95475183  0.19970770  0.77069162  1
  O  O63  1  0.22930838  0.45475183  0.30029230  1
  O  O64  1  0.74591349  0.40446491  0.32764733  1
  O  O65  1  0.04524817  0.69970770  0.72930838  1
  O  O66  1  0.09553509  0.67235267  0.24591349  1
  O  O67  1  0.40446491  0.32764733  0.74591349  1
  O  O68  1  0.77069162  0.95475183  0.19970770  1
  O  O69  1  0.67235267  0.24591349  0.09553509  1
  O  O70  1  0.44641806  0.23558836  0.98997226  1
  O  O71  1  0.26441164  0.01002774  0.94641806  1
  O  O72  1  0.01539098  0.44013091  0.82920909  1
  O  O73  1  0.45475183  0.30029230  0.22930838  1
  O  O74  1  0.69970770  0.72930838  0.04524817  1
  O  O75  1  0.05358194  0.76441164  0.48997226  1
