# generated using pymatgen
data_LiCr2(PO4)3
_symmetry_space_group_name_H-M   'P 1'
_cell_length_a   8.50664535
_cell_length_b   8.60979886
_cell_length_c   8.50931619
_cell_angle_alpha   60.99221823
_cell_angle_beta   60.01038488
_cell_angle_gamma   89.99999857
_symmetry_Int_Tables_number   1
_chemical_formula_structural   LiCr2(PO4)3
_chemical_formula_sum   'Li2 Cr4 P6 O24'
_cell_volume   447.24984765
_cell_formula_units_Z   2
loop_
 _symmetry_equiv_pos_site_id
 _symmetry_equiv_pos_as_xyz
  1  'x, y, z'
loop_
 _atom_site_type_symbol
 _atom_site_label
 _atom_site_symmetry_multiplicity
 _atom_site_fract_x
 _atom_site_fract_y
 _atom_site_fract_z
 _atom_site_occupancy
  Li  Li0  1  0.35421619  0.55563698  0.61466757  1
  Li  Li1  1  0.03111624  0.05563698  0.61466757  1
  Cr  Cr2  1  0.84912808  0.57554521  0.79063509  1
  Cr  Cr3  1  0.36023683  0.07554521  0.79063509  1
  Cr  Cr4  1  0.64869054  0.93127656  0.20069199  1
  Cr  Cr5  1  0.15061847  0.43127656  0.20069199  1
  P  P6  1  0.75147248  0.24288389  0.71972945  1
  P  P7  1  0.52879807  0.74288389  0.71972945  1
  P  P8  1  0.47375048  0.25930932  0.27734950  1
  P  P9  1  0.24890002  0.75930932  0.27734950  1
  P  P10  1  0.03837741  0.25307167  0.00021804  1
  P  P11  1  0.96140455  0.75307167  0.00021804  1
  O  O12  1  0.94532705  0.76606676  0.82001185  1
  O  O13  1  0.58639039  0.23793378  0.69093258  1
  O  O14  1  0.05725768  0.24961762  0.17435327  1
  O  O15  1  0.93860765  0.27923476  0.51511374  1
  O  O16  1  0.01127384  0.44016666  0.86762635  1
  O  O17  1  0.87928438  0.07648796  0.12157464  1
  O  O18  1  0.24128453  0.60430719  0.23685025  1
  O  O19  1  0.99914098  0.57648796  0.12157464  1
  O  O20  1  0.72267703  0.73793378  0.69093258  1
  O  O21  1  0.75778945  0.39386857  0.76251467  1
  O  O22  1  0.76839005  0.74961762  0.17435327  1
  O  O23  1  0.40704779  0.75858314  0.31798598  1
  O  O24  1  0.27496723  0.25858314  0.31798598  1
  O  O25  1  0.06104758  0.71236349  0.48512535  1
  O  O26  1  0.28292063  0.95171077  0.08834385  1
  O  O27  1  0.62873551  0.45171077  0.08834385  1
  O  O28  1  0.23466210  0.26606676  0.82001185  1
  O  O29  1  0.54627861  0.77923476  0.51511374  1
  O  O30  1  0.72678133  0.05033068  0.90295183  1
  O  O31  1  0.37026684  0.55033068  0.90295183  1
  O  O32  1  0.45382707  0.21236349  0.48512535  1
  O  O33  1  0.52186523  0.10430719  0.23685025  1
  O  O34  1  0.47969688  0.89386857  0.76251467  1
  O  O35  1  0.12109881  0.94016666  0.86762635  1
