# generated using pymatgen
data_CdH12C2(NCl2)2
_symmetry_space_group_name_H-M   'P 1'
_cell_length_a   10.57383387
_cell_length_b   10.57383387
_cell_length_c   7.53712158
_cell_angle_alpha   90.00000000
_cell_angle_beta   90.00000000
_cell_angle_gamma   41.84775694
_symmetry_Int_Tables_number   1
_chemical_formula_structural   CdH12C2(NCl2)2
_chemical_formula_sum   'Cd2 H24 C4 N4 Cl8'
_cell_volume   562.20709698
_cell_formula_units_Z   2
loop_
 _symmetry_equiv_pos_site_id
 _symmetry_equiv_pos_as_xyz
  1  'x, y, z'
loop_
 _atom_site_type_symbol
 _atom_site_label
 _atom_site_symmetry_multiplicity
 _atom_site_fract_x
 _atom_site_fract_y
 _atom_site_fract_z
 _atom_site_occupancy
  Cd  Cd0  1  0.50000000  0.50000000  0.50000000  1
  Cd  Cd1  1  0.00000000  0.00000000  0.00000000  1
  H  H2  1  0.80140804  0.02097983  0.52940440  1
  H  H3  1  0.97902017  0.19859196  0.47059560  1
  H  H4  1  0.47902017  0.69859196  0.02940440  1
  H  H5  1  0.30140804  0.52097983  0.97059560  1
  H  H6  1  0.19859196  0.97902017  0.47059560  1
  H  H7  1  0.02097983  0.80140804  0.52940440  1
  H  H8  1  0.52097983  0.30140804  0.97059560  1
  H  H9  1  0.69859196  0.47902017  0.02940440  1
  H  H10  1  0.88973584  0.88973584  0.34025103  1
  H  H11  1  0.11026416  0.11026416  0.65974897  1
  H  H12  1  0.61026416  0.61026416  0.84025103  1
  H  H13  1  0.38973584  0.38973584  0.15974897  1
  H  H14  1  0.67115734  0.90840429  0.48260647  1
  H  H15  1  0.09159571  0.32884266  0.51739353  1
  H  H16  1  0.59159571  0.82884266  0.98260647  1
  H  H17  1  0.17115734  0.40840429  0.01739353  1
  H  H18  1  0.32884266  0.09159571  0.51739353  1
  H  H19  1  0.90840429  0.67115734  0.48260647  1
  H  H20  1  0.40840429  0.17115734  0.01739353  1
  H  H21  1  0.82884266  0.59159571  0.98260647  1
  H  H22  1  0.81297322  0.81297322  0.68120415  1
  H  H23  1  0.18702678  0.18702678  0.31879585  1
  H  H24  1  0.68702678  0.68702678  0.18120415  1
  H  H25  1  0.31297322  0.31297322  0.81879585  1
  C  C26  1  0.81424197  0.81424197  0.53582949  1
  C  C27  1  0.18575803  0.18575803  0.46417051  1
  C  C28  1  0.68575803  0.68575803  0.03582949  1
  C  C29  1  0.31424197  0.31424197  0.96417051  1
  N  N30  1  0.88626797  0.88626797  0.47954027  1
  N  N31  1  0.11373203  0.11373203  0.52045973  1
  N  N32  1  0.61373203  0.61373203  0.97954027  1
  N  N33  1  0.38626797  0.38626797  0.02045973  1
  Cl  Cl34  1  0.23072079  0.73072079  0.75000000  1
  Cl  Cl35  1  0.26927921  0.76927921  0.25000000  1
  Cl  Cl36  1  0.76927921  0.26927921  0.25000000  1
  Cl  Cl37  1  0.73072079  0.23072079  0.75000000  1
  Cl  Cl38  1  0.37125751  0.37125751  0.44229276  1
  Cl  Cl39  1  0.62874249  0.62874249  0.55770724  1
  Cl  Cl40  1  0.12874249  0.12874249  0.94229276  1
  Cl  Cl41  1  0.87125751  0.87125751  0.05770724  1
