# generated using pymatgen
data_K2ZrCdH16(CO3)8
_symmetry_space_group_name_H-M   'P 1'
_cell_length_a   9.23941759
_cell_length_b   9.23941759
_cell_length_c   9.23941759
_cell_angle_alpha   103.72416714
_cell_angle_beta   103.72416714
_cell_angle_gamma   121.70218916
_symmetry_Int_Tables_number   1
_chemical_formula_structural   K2ZrCdH16(CO3)8
_chemical_formula_sum   'K2 Zr1 Cd1 H16 C8 O24'
_cell_volume   586.06851636
_cell_formula_units_Z   1
loop_
 _symmetry_equiv_pos_site_id
 _symmetry_equiv_pos_as_xyz
  1  'x, y, z'
loop_
 _atom_site_type_symbol
 _atom_site_label
 _atom_site_symmetry_multiplicity
 _atom_site_fract_x
 _atom_site_fract_y
 _atom_site_fract_z
 _atom_site_occupancy
  K  K0  1  0.50000000  0.50000000  0.00000000  1
  K  K1  1  0.75000000  0.25000000  0.50000000  1
  Zr  Zr2  1  0.25000000  0.75000000  0.50000000  1
  Cd  Cd3  1  0.00000000  0.00000000  0.00000000  1
  H  H4  1  0.77307610  0.42884609  0.16584379  1
  H  H5  1  0.26300230  0.60723231  0.83415621  1
  H  H6  1  0.39276769  0.22692390  0.65576999  1
  H  H7  1  0.57115391  0.73699770  0.34423001  1
  H  H8  1  0.61711330  0.20710855  0.08558687  1
  H  H9  1  0.12152168  0.53152643  0.91441313  1
  H  H10  1  0.46847357  0.38288670  0.58999525  1
  H  H11  1  0.79289145  0.87847832  0.41000475  1
  H  H12  1  0.44991541  0.87705855  0.08382367  1
  H  H13  1  0.79323488  0.36609174  0.91617633  1
  H  H14  1  0.63390826  0.55008459  0.42714314  1
  H  H15  1  0.12294145  0.20676512  0.57285686  1
  H  H16  1  0.67229374  0.00504360  0.15624163  1
  H  H17  1  0.84880197  0.51605211  0.84375837  1
  H  H18  1  0.48394789  0.32770626  0.33274986  1
  H  H19  1  0.99495640  0.15119803  0.66725014  1
  C  C20  1  0.20546721  0.98141379  0.76452589  1
  C  C21  1  0.21688791  0.44094132  0.23547411  1
  C  C22  1  0.55905868  0.79453279  0.77594658  1
  C  C23  1  0.01858621  0.78311209  0.22405342  1
  C  C24  1  0.05227677  0.77469288  0.72439804  1
  C  C25  1  0.05029484  0.32787872  0.27560196  1
  C  C26  1  0.67212128  0.94772323  0.72241611  1
  C  C27  1  0.22530712  0.94970516  0.27758389  1
  O  O28  1  0.30593952  0.00022313  0.68334882  1
  O  O29  1  0.31687431  0.62259070  0.31665118  1
  O  O30  1  0.37740930  0.69406048  0.69428361  1
  O  O31  1  -0.00022313  0.68312569  0.30571639  1
  O  O32  1  0.22149251  0.11100372  0.86530057  1
  O  O33  1  0.24570315  0.35619194  0.13469943  1
  O  O34  1  0.64380806  0.77850749  0.88951121  1
  O  O35  1  0.88899628  0.75429685  0.11048879  1
  O  O36  1  0.94684776  0.73888637  0.79627801  1
  O  O37  1  0.94260835  0.15056975  0.20372199  1
  O  O38  1  0.84943025  0.05315224  0.79203860  1
  O  O39  1  0.26111363  0.05739165  0.20796140  1
  O  O40  1  0.04700496  0.65418031  0.61649090  1
  O  O41  1  0.03768942  0.43051406  0.38350910  1
  O  O42  1  0.56948594  0.95299504  0.60717535  1
  O  O43  1  0.34581969  0.96231058  0.39282465  1
  O  O44  1  0.66932008  0.31740804  0.06048848  1
  O  O45  1  0.25691956  0.60883160  0.93951152  1
  O  O46  1  0.39116840  0.33067992  0.64808796  1
  O  O47  1  0.68259196  0.74308044  0.35191204  1
  O  O48  1  0.56743120  0.00873768  0.15188332  1
  O  O49  1  0.85685436  0.41554788  0.84811668  1
  O  O50  1  0.58445212  0.43256880  0.44130648  1
  O  O51  1  0.99126232  0.14314564  0.55869352  1
