# generated using pymatgen
data_Ni15O16
_symmetry_space_group_name_H-M   'P 1'
_cell_length_a   11.88887416
_cell_length_b   11.88482642
_cell_length_c   7.28074644
_cell_angle_alpha   35.25036239
_cell_angle_beta   35.22630709
_cell_angle_gamma   59.95465581
_symmetry_Int_Tables_number   1
_chemical_formula_structural   Ni15O16
_chemical_formula_sum   'Ni15 O16'
_cell_volume   296.61742781
_cell_formula_units_Z   1
loop_
 _symmetry_equiv_pos_site_id
 _symmetry_equiv_pos_as_xyz
  1  'x, y, z'
loop_
 _atom_site_type_symbol
 _atom_site_label
 _atom_site_symmetry_multiplicity
 _atom_site_fract_x
 _atom_site_fract_y
 _atom_site_fract_z
 _atom_site_occupancy
  Ni  Ni0  1  0.99997514  0.24602723  0.99992766  1
  Ni  Ni1  1  0.00000000  0.50000000  0.00000000  1
  Ni  Ni2  1  0.24618078  0.00000000  0.99991753  1
  Ni  Ni3  1  0.24605209  0.24602723  0.01596343  1
  Ni  Ni4  1  0.24600207  0.49200413  0.01599174  1
  Ni  Ni5  1  0.50000000  0.00000000  0.00000000  1
  Ni  Ni6  1  0.24607476  0.75404213  0.99976133  1
  Ni  Ni7  1  0.49203263  0.24595787  0.01592985  1
  Ni  Ni8  1  0.50000000  0.50000000  0.00000000  1
  Ni  Ni9  1  0.75381922  1.00000000  0.00008247  1
  Ni  Ni10  1  0.50796737  0.75404213  0.98407015  1
  Ni  Ni11  1  0.75392524  0.24595787  0.00023867  1
  Ni  Ni12  1  0.75399793  0.50799587  0.98400826  1
  Ni  Ni13  1  0.75394791  0.75397277  0.98403657  1
  Ni  Ni14  1  0.00002486  0.75397277  0.00007234  1
  O  O15  1  -0.00000319  0.26913988  0.46163572  1
  O  O16  1  0.00000000  0.50000000  0.50000000  1
  O  O17  1  0.26852204  0.00000000  0.46312273  1
  O  O18  1  0.00000319  0.73086012  0.53836428  1
  O  O19  1  0.26914307  0.26913988  0.46180476  1
  O  O20  1  0.25019952  0.50039905  0.49920191  1
  O  O21  1  0.50000000  0.00000000  0.50000000  1
  O  O22  1  0.24955538  0.74961616  0.50113001  1
  O  O23  1  0.49993922  0.25038384  0.49959463  1
  O  O24  1  0.50000000  0.50000000  0.50000000  1
  O  O25  1  0.73147796  1.00000000  0.53687727  1
  O  O26  1  0.50006078  0.74961616  0.50040537  1
  O  O27  1  0.75044462  0.25038384  0.49886999  1
  O  O28  1  0.74980048  0.49960095  0.50079809  1
  O  O29  1  0.00000000  0.00000000  0.50000000  1
  O  O30  1  0.73085693  0.73086012  0.53819524  1
