# generated using pymatgen
data_H3NO4
_symmetry_space_group_name_H-M   'P 1'
_cell_length_a   6.16837448
_cell_length_b   9.27046125
_cell_length_c   6.30297216
_cell_angle_alpha   90.00000000
_cell_angle_beta   90.00000000
_cell_angle_gamma   90.00000000
_symmetry_Int_Tables_number   1
_chemical_formula_structural   H3NO4
_chemical_formula_sum   'H12 N4 O16'
_cell_volume   360.42712157
_cell_formula_units_Z   4
loop_
 _symmetry_equiv_pos_site_id
 _symmetry_equiv_pos_as_xyz
  1  'x, y, z'
loop_
 _atom_site_type_symbol
 _atom_site_label
 _atom_site_symmetry_multiplicity
 _atom_site_fract_x
 _atom_site_fract_y
 _atom_site_fract_z
 _atom_site_occupancy
  H  H0  1  0.07964654  0.76438330  0.51510978  1
  H  H1  1  0.57964654  0.23561670  0.48489022  1
  H  H2  1  0.57964654  0.26438330  0.98489022  1
  H  H3  1  0.07964654  0.73561670  0.01510978  1
  H  H4  1  0.35928610  0.31170875  0.43188982  1
  H  H5  1  0.85928610  0.68829125  0.56811018  1
  H  H6  1  0.85928610  0.81170875  0.06811018  1
  H  H7  1  0.35928610  0.18829125  0.93188982  1
  H  H8  1  0.61773778  0.05848754  0.82374205  1
  H  H9  1  0.11773778  0.94151246  0.17625795  1
  H  H10  1  0.11773778  0.55848754  0.67625795  1
  H  H11  1  0.61773778  0.44151246  0.32374205  1
  N  N12  1  0.00883064  0.38852836  0.81874473  1
  N  N13  1  0.50883064  0.61147164  0.18125527  1
  N  N14  1  0.50883064  0.88852836  0.68125527  1
  N  N15  1  0.00883064  0.11147164  0.31874473  1
  O  O16  1  0.82672927  0.43969718  0.78841358  1
  O  O17  1  0.32672927  0.56030282  0.21158642  1
  O  O18  1  0.32672927  0.93969718  0.71158642  1
  O  O19  1  0.82672927  0.06030282  0.28841358  1
  O  O20  1  0.18402652  0.46465961  0.74662602  1
  O  O21  1  0.68402652  0.53534039  0.25337398  1
  O  O22  1  0.68402652  0.96465961  0.75337398  1
  O  O23  1  0.18402652  0.03534039  0.24662602  1
  O  O24  1  0.05025610  0.27391731  0.90835960  1
  O  O25  1  0.55025610  0.72608269  0.09164040  1
  O  O26  1  0.55025610  0.77391731  0.59164040  1
  O  O27  1  0.05025610  0.22608269  0.40835960  1
  O  O28  1  0.51278806  0.19292444  0.89299313  1
  O  O29  1  0.01278806  0.80707556  0.10700687  1
  O  O30  1  0.01278806  0.69292444  0.60700687  1
  O  O31  1  0.51278806  0.30707556  0.39299313  1
