# generated using pymatgen
data_Mn19Fe17O48
_symmetry_space_group_name_H-M   'P 1'
_cell_length_a   6.14860529
_cell_length_b   6.13409722
_cell_length_c   36.80678250
_cell_angle_alpha   60.00197373
_cell_angle_beta   60.13179570
_cell_angle_gamma   60.07801871
_symmetry_Int_Tables_number   1
_chemical_formula_structural   Mn19Fe17O48
_chemical_formula_sum   'Mn19 Fe17 O48'
_cell_volume   983.18051875
_cell_formula_units_Z   1
loop_
 _symmetry_equiv_pos_site_id
 _symmetry_equiv_pos_as_xyz
  1  'x, y, z'
loop_
 _atom_site_type_symbol
 _atom_site_label
 _atom_site_symmetry_multiplicity
 _atom_site_fract_x
 _atom_site_fract_y
 _atom_site_fract_z
 _atom_site_occupancy
  Mn  Mn0  1  0.00185885  0.00384282  0.99840925  1
  Mn  Mn1  1  0.12169533  0.62823419  0.10363971  1
  Mn  Mn2  1  0.62830063  0.62587612  0.01999086  1
  Mn  Mn3  1  0.24928188  0.25192786  0.20781007  1
  Mn  Mn4  1  0.00232265  0.99885544  0.16666141  1
  Mn  Mn5  1  0.62422467  0.62504395  0.18761457  1
  Mn  Mn6  1  0.24767735  0.25114456  0.37500559  1
  Mn  Mn7  1  0.12830467  0.62176581  0.43802729  1
  Mn  Mn8  1  0.00071812  0.99807214  0.33385593  1
  Mn  Mn9  1  0.24814115  0.24615718  0.54325775  1
  Mn  Mn10  1  0.62577533  0.62495605  0.35405243  1
  Mn  Mn11  1  0.12388693  0.62371021  0.60478244  1
  Mn  Mn12  1  0.25046462  0.24701046  0.70925208  1
  Mn  Mn13  1  0.62169937  0.62412388  0.52167514  1
  Mn  Mn14  1  0.99953538  0.00298954  0.83241392  1
  Mn  Mn15  1  0.12500000  0.62500000  0.77083300  1
  Mn  Mn16  1  0.00177161  0.00375127  0.66512131  1
  Mn  Mn17  1  0.24822839  0.24624873  0.87654569  1
  Mn  Mn18  1  0.12611307  0.62628979  0.93688456  1
  Fe  Fe19  1  0.25273673  0.24559871  0.04267797  1
  Fe  Fe20  1  0.62890498  0.12158767  0.10438392  1
  Fe  Fe21  1  0.12500000  0.62500000  0.27083300  1
  Fe  Fe22  1  0.62890498  0.62320583  0.10438392  1
  Fe  Fe23  1  0.62500000  0.12500000  0.27083300  1
  Fe  Fe24  1  0.62500000  0.62500000  0.27083300  1
  Fe  Fe25  1  0.62109502  0.12841233  0.43728308  1
  Fe  Fe26  1  0.62109502  0.62679417  0.43728308  1
  Fe  Fe27  1  0.62233155  0.12886125  0.60409606  1
  Fe  Fe28  1  0.62233155  0.62423286  0.60409606  1
  Fe  Fe29  1  0.62541629  0.62525847  0.68734446  1
  Fe  Fe30  1  0.62500000  0.12500000  0.77083300  1
  Fe  Fe31  1  0.99726327  0.00440129  0.49898903  1
  Fe  Fe32  1  0.62500000  0.62500000  0.77083300  1
  Fe  Fe33  1  0.62458371  0.62474153  0.85432254  1
  Fe  Fe34  1  0.62766845  0.12113875  0.93757094  1
  Fe  Fe35  1  0.62766845  0.62576714  0.93757094  1
  O  O36  1  0.38793701  0.35839260  0.06528754  1
  O  O37  1  0.38580273  0.39499633  0.13736710  1
  O  O38  1  0.38793701  0.86194714  0.06528754  1
  O  O39  1  0.85944788  0.37539545  0.06496054  1
  O  O40  1  0.38039164  0.37916201  0.23365626  1
  O  O41  1  0.42080513  0.85155486  0.14601453  1
  O  O42  1  0.86578040  0.86131067  0.06859971  1
  O  O43  1  0.85355506  0.40872087  0.14346691  1
  O  O44  1  0.39228267  0.38652822  0.30577681  1
  O  O45  1  0.38039164  0.83850678  0.23365626  1
  O  O46  1  0.83151609  0.39769182  0.22884971  1
  O  O47  1  0.85355506  0.87692462  0.14346691  1
  O  O48  1  0.39644494  0.37307538  0.39820009  1
  O  O49  1  0.41848391  0.85230818  0.31281629  1
  O  O50  1  0.86960836  0.41149322  0.30800974  1
  O  O51  1  0.85771733  0.86347178  0.23589019  1
  O  O52  1  0.39644494  0.84127913  0.39820009  1
  O  O53  1  0.38421960  0.38868933  0.47306729  1
  O  O54  1  0.86960836  0.87083799  0.30800974  1
  O  O55  1  0.82919487  0.39844514  0.39565247  1
  O  O56  1  0.36604822  0.38397419  0.56907807  1
  O  O57  1  0.39055212  0.87460455  0.47670646  1
  O  O58  1  0.86206299  0.38805286  0.47637946  1
  O  O59  1  0.86419727  0.85500367  0.40429890  1
  O  O60  1  0.36604822  0.83551115  0.56907807  1
  O  O61  1  0.41302816  0.37021212  0.64109093  1
  O  O62  1  0.83819204  0.38267078  0.56607807  1
  O  O63  1  0.86206299  0.89160740  0.47637946  1
  O  O64  1  0.37968552  0.39502992  0.73251258  1
  O  O65  1  0.41955015  0.85894069  0.64376175  1
  O  O66  1  0.84674060  0.88738680  0.56308097  1
  O  O67  1  0.86764765  0.42301607  0.64213835  1
  O  O68  1  0.41336021  0.36997143  0.80778282  1
  O  O69  1  0.37968552  0.83020709  0.73251258  1
  O  O70  1  0.83506452  0.39104847  0.73047276  1
  O  O71  1  0.86764765  0.85650815  0.64213835  1
  O  O72  1  0.38235235  0.39349185  0.89952865  1
  O  O73  1  0.41493548  0.85895153  0.81119324  1
  O  O74  1  0.83663979  0.88002857  0.73388418  1
  O  O75  1  0.40325940  0.36261320  0.97858603  1
  O  O76  1  0.87031448  0.41979291  0.80915342  1
  O  O77  1  0.38235235  0.82698393  0.89952865  1
  O  O78  1  0.83044985  0.39105931  0.89790525  1
  O  O79  1  0.87031448  0.85497008  0.80915342  1
  O  O80  1  0.41180796  0.86732922  0.97558893  1
  O  O81  1  0.88395178  0.41448885  0.97258893  1
  O  O82  1  0.83697184  0.87978788  0.90057507  1
  O  O83  1  0.88395178  0.86602581  0.97258893  1
