# generated using pymatgen
data_V6O13
_symmetry_space_group_name_H-M   'P 1'
_cell_length_a   3.75843125
_cell_length_b   11.73466600
_cell_length_c   11.73555097
_cell_angle_alpha   117.92840285
_cell_angle_beta   90.00000000
_cell_angle_gamma   90.00000000
_symmetry_Int_Tables_number   1
_chemical_formula_structural   V6O13
_chemical_formula_sum   'V12 O26'
_cell_volume   457.30281693
_cell_formula_units_Z   2
loop_
 _symmetry_equiv_pos_site_id
 _symmetry_equiv_pos_as_xyz
  1  'x, y, z'
loop_
 _atom_site_type_symbol
 _atom_site_label
 _atom_site_symmetry_multiplicity
 _atom_site_fract_x
 _atom_site_fract_y
 _atom_site_fract_z
 _atom_site_occupancy
  V  V0  1  0.75000000  0.71998227  0.58497321  1
  V  V1  1  0.25000000  0.57774340  0.71071716  1
  V  V2  1  0.25000000  0.21073916  0.07772253  1
  V  V3  1  0.75000000  0.78942052  0.92230669  1
  V  V4  1  0.25000000  0.27997622  0.41488347  1
  V  V5  1  0.25000000  0.91486122  0.77994017  1
  V  V6  1  0.75000000  0.08493537  0.21994084  1
  V  V7  1  0.75000000  0.42230288  0.28946863  1
  V  V8  1  0.25000000  0.40063625  0.90060577  1
  V  V9  1  0.75000000  0.59905774  0.09909192  1
  V  V10  1  0.75000000  0.89774283  0.39775434  1
  V  V11  1  0.25000000  0.10212962  0.60209207  1
  O  O12  1  0.25000000  0.50298241  0.80244967  1
  O  O13  1  0.25000000  0.30247002  0.00296803  1
  O  O14  1  0.75000000  0.00171779  0.30439056  1
  O  O15  1  0.75000000  0.80440144  0.50171493  1
  O  O16  1  0.75000000  0.49706732  0.19769770  1
  O  O17  1  0.75000000  0.69771749  0.99713482  1
  O  O18  1  0.25000000  0.99839598  0.69579641  1
  O  O19  1  0.25000000  0.19580172  0.49838853  1
  O  O20  1  0.75000000  0.06831044  0.56828094  1
  O  O21  1  0.75000000  0.42710674  0.92708105  1
  O  O22  1  0.25000000  0.57252709  0.07257886  1
  O  O23  1  0.25000000  0.93161632  0.43161910  1
  O  O24  1  0.75000000  0.27512633  0.36821561  1
  O  O25  1  0.25000000  0.77523785  0.87173334  1
  O  O26  1  0.25000000  0.13148734  0.22505767  1
  O  O27  1  0.75000000  0.62817369  0.72502427  1
  O  O28  1  0.75000000  0.22504667  0.12818771  1
  O  O29  1  0.75000000  0.86819582  0.77508116  1
  O  O30  1  0.25000000  0.72499781  0.63147679  1
  O  O31  1  0.25000000  0.37180557  0.27527332  1
  O  O32  1  0.25000000  0.45278805  0.55724109  1
  O  O33  1  0.25000000  0.05724812  0.95279914  1
  O  O34  1  0.75000000  0.54748042  0.44294186  1
  O  O35  1  0.75000000  0.94290940  0.04752659  1
  O  O36  1  0.25000000  0.24533761  0.74528738  1
  O  O37  1  0.75000000  0.75452310  0.25455668  1
