# generated using pymatgen
data_Li20Co21O40
_symmetry_space_group_name_H-M   'P 1'
_cell_length_a   28.82117345
_cell_length_b   15.23983807
_cell_length_c   9.96820474
_cell_angle_alpha   29.23866234
_cell_angle_beta   30.05787924
_cell_angle_gamma   19.18949428
_symmetry_Int_Tables_number   1
_chemical_formula_structural   Li20Co21O40
_chemical_formula_sum   'Li20 Co21 O40'
_cell_volume   679.15520283
_cell_formula_units_Z   1
loop_
 _symmetry_equiv_pos_site_id
 _symmetry_equiv_pos_as_xyz
  1  'x, y, z'
loop_
 _atom_site_type_symbol
 _atom_site_label
 _atom_site_symmetry_multiplicity
 _atom_site_fract_x
 _atom_site_fract_y
 _atom_site_fract_z
 _atom_site_occupancy
  Li  Li0  1  0.99770756  0.00546074  0.00111146  1
  Li  Li1  1  0.09696208  0.00338527  0.00208878  1
  Li  Li2  1  0.19800127  0.99816756  0.99899496  1
  Li  Li3  1  0.24865040  0.04319136  0.04047972  1
  Li  Li4  1  0.37984895  0.04887090  0.04518242  1
  Li  Li5  1  0.19320390  0.51874130  0.99560767  1
  Li  Li6  1  0.50541009  0.99637548  0.99663410  1
  Li  Li7  1  0.60398279  0.99433526  0.98901457  1
  Li  Li8  1  0.39551532  0.51608271  0.98916047  1
  Li  Li9  1  0.70593533  0.99632898  0.99144001  1
  Li  Li10  1  0.09217297  0.00199671  0.51848314  1
  Li  Li11  1  0.80304601  0.98909042  0.99929561  1
  Li  Li12  1  0.65769079  0.36960361  0.03121278  1
  Li  Li13  1  0.90792143  0.98926472  0.99707123  1
  Li  Li14  1  0.29595363  0.00031130  0.51742663  1
  Li  Li15  1  0.79993815  0.49789860  0.00355585  1
  Li  Li16  1  0.51894831  0.04196926  0.36635678  1
  Li  Li17  1  0.99064946  0.51662528  0.99897700  1
  Li  Li18  1  0.70066470  0.98823791  0.51551462  1
  Li  Li19  1  0.89852201  0.00408797  0.49989993  1
  Co  Co20  1  0.09747153  0.50313411  0.00286806  1
  Co  Co21  1  0.19694766  0.00461388  0.50295163  1
  Co  Co22  1  0.09882218  0.50301385  0.49753329  1
  Co  Co23  1  0.39632233  0.00642610  0.49810196  1
  Co  Co24  1  0.29874798  0.50283082  0.99826957  1
  Co  Co25  1  0.19905728  0.50189001  0.49790631  1
  Co  Co26  1  0.29824913  0.50328962  0.50040237  1
  Co  Co27  1  0.60004487  0.00129346  0.49823170  1
  Co  Co28  1  0.49670871  0.50383711  0.00257697  1
  Co  Co29  1  0.39757364  0.50451440  0.50004846  1
  Co  Co30  1  0.49990389  0.49968635  0.50206847  1
  Co  Co31  1  0.70163182  0.49431569  0.00565244  1
  Co  Co32  1  0.80001425  -0.00081939  0.50238796  1
  Co  Co33  1  0.59875888  0.50101574  0.50274390  1
  Co  Co34  1  0.70244951  0.49656019  0.49705196  1
  Co  Co35  1  0.90272649  0.49704665  0.99718771  1
  Co  Co36  1  0.44998055  0.87412763  0.87670234  1
  Co  Co37  1  0.00300419  0.99646394  0.49650504  1
  Co  Co38  1  0.80463226  0.49250023  0.49755538  1
  Co  Co39  1  0.89932183  0.49933177  0.50318158  1
  Co  Co40  1  0.99814600  0.50273810  0.50166321  1
  O  O41  1  0.09413021  0.26235697  0.26343728  1
  O  O42  1  0.00415280  0.26111791  0.71850888  1
  O  O43  1  0.18330374  0.26574099  0.26504466  1
  O  O44  1  0.08790337  0.28347707  0.73464169  1
  O  O45  1  0.29392965  0.26460343  0.25790386  1
  O  O46  1  0.20021362  0.26777625  0.71616877  1
  O  O47  1  0.11330075  0.71735003  0.25961956  1
  O  O48  1  0.38512221  0.26468595  0.25768045  1
  O  O49  1  0.01441762  0.73687922  0.73831521  1
  O  O50  1  0.28391137  0.28690688  0.74148721  1
  O  O51  1  0.19741380  0.73553905  0.28163362  1
  O  O52  1  0.10446137  0.73690187  0.74285923  1
  O  O53  1  0.48679622  0.28183092  0.24668741  1
  O  O54  1  0.39150091  0.28152507  0.72844209  1
  O  O55  1  0.30875102  0.72105696  0.26606809  1
  O  O56  1  0.58214214  0.28145963  0.24967910  1
  O  O57  1  0.21015948  0.74527150  0.73931089  1
  O  O58  1  0.39137289  0.74448205  0.28943176  1
  O  O59  1  0.48565402  0.28632731  0.73738353  1
  O  O60  1  0.30333243  0.74134264  0.73936071  1
  O  O61  1  0.69597529  0.25643219  0.26866837  1
  O  O62  1  0.60339961  0.26122986  0.71850878  1
  O  O63  1  0.51277884  0.71654353  0.26381497  1
  O  O64  1  0.78636283  0.25990620  0.26545495  1
  O  O65  1  0.41032469  0.74429633  0.73768380  1
  O  O66  1  0.58692883  0.75594306  0.27538641  1
  O  O67  1  0.68329828  0.27540021  0.75475620  1
  O  O68  1  0.48822766  0.76032256  0.75112450  1
  O  O69  1  0.91073414  0.24337744  0.24340314  1
  O  O70  1  0.81677698  0.23739470  0.72416645  1
  O  O71  1  0.71813747  0.72438955  0.24212850  1
  O  O72  1  0.99072038  0.25620508  0.25786835  1
  O  O73  1  0.61906654  0.71224482  0.75616969  1
  O  O74  1  0.88789213  0.27914582  0.74323288  1
  O  O75  1  0.80636038  0.72236187  0.27499940  1
  O  O76  1  0.71020803  0.72192631  0.75534229  1
  O  O77  1  0.91161114  0.71929971  0.26196653  1
  O  O78  1  0.81321011  0.73949661  0.73886078  1
  O  O79  1  0.99440715  0.74190922  0.28166683  1
  O  O80  1  0.90580074  0.73988761  0.73425317  1
