# generated using pymatgen
data_TeP2H16N2O13
_symmetry_space_group_name_H-M   'P 1'
_cell_length_a   11.91817230
_cell_length_b   8.64105101
_cell_length_c   7.56824133
_cell_angle_alpha   65.30726408
_cell_angle_beta   90.62518729
_cell_angle_gamma   76.26407125
_symmetry_Int_Tables_number   1
_chemical_formula_structural   TeP2H16N2O13
_chemical_formula_sum   'Te2 P4 H32 N4 O26'
_cell_volume   682.52326245
_cell_formula_units_Z   2
loop_
 _symmetry_equiv_pos_site_id
 _symmetry_equiv_pos_as_xyz
  1  'x, y, z'
loop_
 _atom_site_type_symbol
 _atom_site_label
 _atom_site_symmetry_multiplicity
 _atom_site_fract_x
 _atom_site_fract_y
 _atom_site_fract_z
 _atom_site_occupancy
  Te  Te0  1  0.83377217  0.78404369  0.81845800  1
  Te  Te1  1  0.16622769  0.21595637  0.18154188  1
  P  P2  1  0.59274318  0.29726277  0.96057532  1
  P  P3  1  0.40725766  0.70273725  0.03942397  1
  P  P4  1  0.61141676  0.41595899  0.27972901  1
  P  P5  1  0.38858327  0.58404154  0.72027037  1
  H  H6  1  0.74568724  0.00764880  0.94618544  1
  H  H7  1  0.25431255  0.99235187  0.05381406  1
  H  H8  1  0.95325469  0.33983320  0.08171137  1
  H  H9  1  0.04674541  0.66016664  0.91828812  1
  H  H10  1  0.74553407  0.08824767  0.55884103  1
  H  H11  1  0.25446542  0.91175268  0.44115841  1
  H  H12  1  0.79422624  0.54740759  0.12393993  1
  H  H13  1  0.20577359  0.45259248  0.87605959  1
  H  H14  1  0.61773905  0.79388647  0.82314076  1
  H  H15  1  0.38226112  0.20611284  0.17685994  1
  H  H16  1  0.85924332  0.57059139  0.66208609  1
  H  H17  1  0.14075673  0.42940834  0.33791434  1
  H  H18  1  0.78571225  0.43836738  0.51986967  1
  H  H19  1  0.21428800  0.56163218  0.48013066  1
  H  H20  1  0.78082937  0.34001981  0.74735775  1
  H  H21  1  0.21917026  0.65998062  0.25264259  1
  H  H22  1  0.62210578  0.74053288  0.31524553  1
  H  H23  1  0.37789417  0.25946728  0.68475458  1
  H  H24  1  0.49912760  0.19191432  0.59033140  1
  H  H25  1  0.50087239  0.80808560  0.40966892  1
  H  H26  1  0.62719824  0.82682664  0.48018133  1
  H  H27  1  0.37280191  0.17317329  0.51981906  1
  H  H28  1  0.56172443  0.96158376  0.24509999  1
  H  H29  1  0.43827557  0.03841605  0.75490023  1
  H  H30  1  0.96895496  0.98478900  0.24855080  1
  H  H31  1  0.03104515  0.01521124  0.75144920  1
  H  H32  1  0.96447143  0.22688215  0.70798651  1
  H  H33  1  0.03552863  0.77311766  0.29201421  1
  H  H34  1  0.92542354  0.81078355  0.41803787  1
  H  H35  1  0.07457638  0.18921669  0.58196217  1
  H  H36  1  0.89654225  0.86927501  0.17486039  1
  H  H37  1  0.10345795  0.13072475  0.82513993  1
  N  N38  1  0.42114449  0.16538804  0.64011880  1
  N  N39  1  0.57885555  0.83461215  0.35988154  1
  N  N40  1  0.04377247  0.13814397  0.71810954  1
  N  N41  1  0.95622772  0.86185603  0.28189067  1
  O  O42  1  0.77973734  0.87488608  0.00933382  1
  O  O43  1  0.22026283  0.12511447  0.99066543  1
  O  O44  1  0.99348543  0.77842026  0.88908541  1
  O  O45  1  0.00651441  0.22157888  0.11091513  1
  O  O46  1  0.82782704  0.01515412  0.61292003  1
  O  O47  1  0.17217237  0.98484574  0.38707928  1
  O  O48  1  0.14805186  0.45323522  0.97117955  1
  O  O49  1  0.85194843  0.54676570  0.02882051  1
  O  O50  1  0.67323484  0.80724624  0.72354418  1
  O  O51  1  0.32676544  0.19275283  0.27645622  1
  O  O52  1  0.88815954  0.67772211  0.64358535  1
  O  O53  1  0.11184079  0.32227720  0.35641575  1
  O  O54  1  0.36957509  0.59826548  0.92413480  1
  O  O55  1  0.63042465  0.40173450  0.07586512  1
  O  O56  1  0.52161806  0.46287804  0.76043660  1
  O  O57  1  0.47838201  0.53712235  0.23956303  1
  O  O58  1  0.70212529  0.21481855  0.90061835  1
  O  O59  1  0.29787438  0.78518387  0.09938159  1
  O  O60  1  0.51490388  0.18535308  0.06918150  1
  O  O61  1  0.48509583  0.81464522  0.93081858  1
  O  O62  1  0.38450979  0.75893976  0.55420725  1
  O  O63  1  0.61549057  0.24105968  0.44579262  1
  O  O64  1  0.30579516  0.48104842  0.70346551  1
  O  O65  1  0.69420421  0.51895178  0.29653438  1
  O  O66  1  0.82945799  0.40272079  0.64947619  1
  O  O67  1  0.17054214  0.59727902  0.35052381  1
