# generated using pymatgen
data_As2PHO6
_symmetry_space_group_name_H-M   'P 1'
_cell_length_a   4.94662673
_cell_length_b   11.22291735
_cell_length_c   11.36730363
_cell_angle_alpha   90.00000000
_cell_angle_beta   96.70573947
_cell_angle_gamma   90.00000000
_symmetry_Int_Tables_number   1
_chemical_formula_structural   As2PHO6
_chemical_formula_sum   'As8 P4 H4 O24'
_cell_volume   626.74536233
_cell_formula_units_Z   4
loop_
 _symmetry_equiv_pos_site_id
 _symmetry_equiv_pos_as_xyz
  1  'x, y, z'
loop_
 _atom_site_type_symbol
 _atom_site_label
 _atom_site_symmetry_multiplicity
 _atom_site_fract_x
 _atom_site_fract_y
 _atom_site_fract_z
 _atom_site_occupancy
  As  As0  1  0.75230907  0.60370153  0.34308223  1
  As  As1  1  0.25230907  0.89629847  0.84308223  1
  As  As2  1  0.24769093  0.39629847  0.65691777  1
  As  As3  1  0.74769093  0.10370153  0.15691777  1
  As  As4  1  0.28632939  0.64000947  0.12340838  1
  As  As5  1  0.78632939  0.85999053  0.62340838  1
  As  As6  1  0.71367061  0.35999053  0.87659162  1
  As  As7  1  0.21367061  0.14000947  0.37659162  1
  P  P8  1  0.78753359  0.82020649  0.14913065  1
  P  P9  1  0.28753359  0.67979351  0.64913065  1
  P  P10  1  0.21246641  0.17979351  0.85086935  1
  P  P11  1  0.71246641  0.32020649  0.35086935  1
  H  H12  1  0.84103287  0.46434647  0.19660711  1
  H  H13  1  0.34103287  0.03565353  0.69660711  1
  H  H14  1  0.15896713  0.53565353  0.80339289  1
  H  H15  1  0.65896713  0.96434647  0.30339289  1
  O  O16  1  0.86915278  0.55339558  0.20278436  1
  O  O17  1  0.36915278  0.94660442  0.70278436  1
  O  O18  1  0.13084722  0.44660442  0.79721564  1
  O  O19  1  0.63084722  0.05339558  0.29721564  1
  O  O20  1  0.39582053  0.62004918  0.27964840  1
  O  O21  1  0.89582053  0.87995082  0.77964840  1
  O  O22  1  0.60417947  0.37995082  0.72035160  1
  O  O23  1  0.10417947  0.12004918  0.22035160  1
  O  O24  1  0.08045795  0.77722599  0.12546112  1
  O  O25  1  0.58045795  0.72277401  0.62546112  1
  O  O26  1  0.91954205  0.22277401  0.87453888  1
  O  O27  1  0.41954205  0.27722599  0.37453888  1
  O  O28  1  0.76775880  0.94667911  0.09087637  1
  O  O29  1  0.26775880  0.55332089  0.59087637  1
  O  O30  1  0.23224120  0.05332089  0.90912363  1
  O  O31  1  0.73224120  0.44667911  0.40912363  1
  O  O32  1  0.92840313  0.23834243  0.42425652  1
  O  O33  1  0.42840313  0.26165757  0.92425652  1
  O  O34  1  0.07159687  0.76165757  0.57574348  1
  O  O35  1  0.57159687  0.73834243  0.07574348  1
  O  O36  1  0.75445188  0.82299018  0.27956874  1
  O  O37  1  0.25445188  0.67700982  0.77956874  1
  O  O38  1  0.24554812  0.17700982  0.72043126  1
  O  O39  1  0.74554812  0.32299018  0.22043126  1
