# generated using pymatgen
data_La4TiMn5(PbO9)2
_symmetry_space_group_name_H-M   'P 1'
_cell_length_a   5.54625082
_cell_length_b   16.68368592
_cell_length_c   14.66265579
_cell_angle_alpha   19.30897125
_cell_angle_beta   56.08383581
_cell_angle_gamma   60.62418439
_symmetry_Int_Tables_number   1
_chemical_formula_structural   La4TiMn5(PbO9)2
_chemical_formula_sum   'La4 Ti1 Mn5 Pb2 O18'
_cell_volume   369.07004451
_cell_formula_units_Z   1
loop_
 _symmetry_equiv_pos_site_id
 _symmetry_equiv_pos_as_xyz
  1  'x, y, z'
loop_
 _atom_site_type_symbol
 _atom_site_label
 _atom_site_symmetry_multiplicity
 _atom_site_fract_x
 _atom_site_fract_y
 _atom_site_fract_z
 _atom_site_occupancy
  La  La0  1  0.25039123  0.25356364  0.24645100  1
  La  La1  1  0.75222246  0.08353211  0.74683647  1
  La  La2  1  0.74729300  0.41415950  0.75481346  1
  La  La3  1  0.74958506  0.75080657  0.74921106  1
  Ti  Ti4  1  0.99867153  0.99953713  0.00029563  1
  Mn  Mn5  1  0.99970137  0.33266101  0.00077143  1
  Mn  Mn6  1  0.00047376  0.66670309  0.00005738  1
  Mn  Mn7  1  0.50213297  0.16833090  0.49697225  1
  Mn  Mn8  1  0.49955391  0.49990280  0.50013519  1
  Mn  Mn9  1  0.49792905  0.83137152  0.50301389  1
  Pb  Pb10  1  0.25537994  0.58440080  0.24598521  1
  Pb  Pb11  1  0.24447480  0.91663169  0.25308445  1
  O  O12  1  0.18607938  0.04581684  0.31433119  1
  O  O13  1  0.19176813  0.36957858  0.31183059  1
  O  O14  1  0.68803770  0.10082756  0.25393014  1
  O  O15  1  0.24813865  0.03924883  0.79547488  1
  O  O16  1  0.74580190  0.30985785  0.19245663  1
  O  O17  1  0.18740923  0.71313453  0.30747005  1
  O  O18  1  0.71090474  0.42807553  0.25086019  1
  O  O19  1  0.30863805  0.22812775  0.75149605  1
  O  O20  1  0.25361040  0.37227240  0.79231457  1
  O  O21  1  0.74552619  0.64620553  0.18874711  1
  O  O22  1  0.70913867  0.76612836  0.24894541  1
  O  O23  1  0.30946071  0.55288018  0.76582728  1
  O  O24  1  0.79709383  0.27590741  0.70855302  1
  O  O25  1  0.25094219  0.69430376  0.80516010  1
  O  O26  1  0.75690145  0.98027371  0.18382296  1
  O  O27  1  0.31596423  0.90868737  0.73081979  1
  O  O28  1  0.78612396  0.60848872  0.71344191  1
  O  O29  1  0.81065151  0.95858435  0.68689070  1
