# generated using pymatgen
data_CrO3
_symmetry_space_group_name_H-M   'P 1'
_cell_length_a   5.07979164
_cell_length_b   4.91017718
_cell_length_c   5.78753023
_cell_angle_alpha   89.99899103
_cell_angle_beta   90.00015701
_cell_angle_gamma   58.85650676
_symmetry_Int_Tables_number   1
_chemical_formula_structural   CrO3
_chemical_formula_sum   'Cr2 O6'
_cell_volume   123.55107891
_cell_formula_units_Z   2
loop_
 _symmetry_equiv_pos_site_id
 _symmetry_equiv_pos_as_xyz
  1  'x, y, z'
loop_
 _atom_site_type_symbol
 _atom_site_label
 _atom_site_symmetry_multiplicity
 _atom_site_fract_x
 _atom_site_fract_y
 _atom_site_fract_z
 _atom_site_occupancy
  Cr  Cr0  1  0.09378754  0.79001078  0.75000492  1
  Cr  Cr1  1  0.88379565  0.20999669  0.24999466  1
  O  O2  1  0.84827440  0.55239656  0.25000209  1
  O  O3  1  0.40062242  0.44763676  0.74999930  1
  O  O4  1  0.80767470  0.74249378  0.75000132  1
  O  O5  1  0.55017761  0.25747860  0.24999760  1
  O  O6  1  0.09183793  -0.00000783  -0.00000852  1
  O  O7  1  0.09182975  -0.00000533  0.50000865  1
