# generated using pymatgen
data_La2Mo2O9
_symmetry_space_group_name_H-M   'P 1'
_cell_length_a   7.27095545
_cell_length_b   7.34939507
_cell_length_c   7.28962867
_cell_angle_alpha   90.52931418
_cell_angle_beta   92.23696906
_cell_angle_gamma   88.35481543
_symmetry_Int_Tables_number   1
_chemical_formula_structural   La2Mo2O9
_chemical_formula_sum   'La4 Mo4 O18'
_cell_volume   389.06664111
_cell_formula_units_Z   2
loop_
 _symmetry_equiv_pos_site_id
 _symmetry_equiv_pos_as_xyz
  1  'x, y, z'
loop_
 _atom_site_type_symbol
 _atom_site_label
 _atom_site_symmetry_multiplicity
 _atom_site_fract_x
 _atom_site_fract_y
 _atom_site_fract_z
 _atom_site_occupancy
  La  La0  1  0.16627865  0.33816743  0.61108364  1
  La  La1  1  0.33135037  0.65792406  0.15235906  1
  La  La2  1  0.64399513  0.15827154  0.36084864  1
  La  La3  1  0.85631192  0.90811365  0.85741193  1
  Mo  Mo4  1  0.18046946  0.12347557  0.17378314  1
  Mo  Mo5  1  0.33066658  0.80444270  0.67686611  1
  Mo  Mo6  1  0.65686031  0.34308222  0.82573791  1
  Mo  Mo7  1  0.82317659  0.67588063  0.33367365  1
  O  O8  1  0.05462859  0.57900940  0.34570694  1
  O  O9  1  0.13259210  0.20503396  0.94388564  1
  O  O10  1  0.07951805  0.88267968  0.11282129  1
  O  O11  1  0.14939660  0.68902643  0.78999877  1
  O  O12  1  0.32341814  0.31570258  0.27576133  1
  O  O13  1  0.39256626  0.66521492  0.48737472  1
  O  O14  1  0.39683828  0.97482678  0.22780425  1
  O  O15  1  0.23759608  0.01799199  0.59899007  1
  O  O16  1  0.45295041  0.46285498  0.92435690  1
  O  O17  1  0.48826952  0.29269726  0.61994184  1
  O  O18  1  0.51906446  0.84163954  0.83486211  1
  O  O19  1  0.67836461  0.48513411  0.33437229  1
  O  O20  1  0.70441373  0.18073455  0.01508061  1
  O  O21  1  0.72382341  0.80358993  0.14472779  1
  O  O22  1  0.82031297  0.18115763  0.67164598  1
  O  O23  1  0.78565251  0.82469336  0.52646867  1
  O  O24  1  0.81290518  0.52637669  0.82659658  1
  O  O25  1  0.99538008  0.18007840  0.33304013  1
