# generated using pymatgen
data_KCaP3H4O11
_symmetry_space_group_name_H-M   'P 1'
_cell_length_a   20.56169258
_cell_length_b   12.82600379
_cell_length_c   7.91372971
_cell_angle_alpha   90.00000000
_cell_angle_beta   89.31317834
_cell_angle_gamma   90.00000000
_symmetry_Int_Tables_number   1
_chemical_formula_structural   KCaP3H4O11
_chemical_formula_sum   'K8 Ca8 P24 H32 O88'
_cell_volume   2086.89325133
_cell_formula_units_Z   8
loop_
 _symmetry_equiv_pos_site_id
 _symmetry_equiv_pos_as_xyz
  1  'x, y, z'
loop_
 _atom_site_type_symbol
 _atom_site_label
 _atom_site_symmetry_multiplicity
 _atom_site_fract_x
 _atom_site_fract_y
 _atom_site_fract_z
 _atom_site_occupancy
  K  K0  1  0.66333864  0.26936029  0.01311741  1
  K  K1  1  0.83666136  0.76936029  0.98688259  1
  K  K2  1  0.33666136  0.73063971  0.98688259  1
  K  K3  1  0.16333864  0.23063971  0.01311741  1
  K  K4  1  0.83434639  0.44950343  0.26303709  1
  K  K5  1  0.66565361  0.94950343  0.73696291  1
  K  K6  1  0.16565361  0.55049657  0.73696291  1
  K  K7  1  0.33434639  0.05049657  0.26303709  1
  Ca  Ca8  1  0.62445114  0.24552856  0.49139832  1
  Ca  Ca9  1  0.87554886  0.74552856  0.50860168  1
  Ca  Ca10  1  0.37554886  0.75447144  0.50860168  1
  Ca  Ca11  1  0.12445114  0.25447144  0.49139832  1
  Ca  Ca12  1  0.58691114  0.69630840  0.99972023  1
  Ca  Ca13  1  0.91308886  0.19630840  0.00027977  1
  Ca  Ca14  1  0.41308886  0.30369160  0.00027977  1
  Ca  Ca15  1  0.08691114  0.80369160  0.99972023  1
  P  P16  1  0.78315506  0.17155941  0.31450556  1
  P  P17  1  0.71684494  0.67155941  0.68549444  1
  P  P18  1  0.21684494  0.82844059  0.68549444  1
  P  P19  1  0.28315506  0.32844059  0.31450556  1
  P  P20  1  0.88288534  0.00775639  0.33130087  1
  P  P21  1  0.61711466  0.50775639  0.66869913  1
  P  P22  1  0.11711466  0.99224361  0.66869913  1
  P  P23  1  0.38288534  0.49224361  0.33130087  1
  P  P24  1  0.63858101  0.49575128  0.29917983  1
  P  P25  1  0.86141899  0.99575128  0.70082017  1
  P  P26  1  0.36141899  0.50424872  0.70082017  1
  P  P27  1  0.13858101  0.00424872  0.29917983  1
  P  P28  1  0.78175838  0.18565991  0.68394214  1
  P  P29  1  0.71824162  0.68565991  0.31605786  1
  P  P30  1  0.21824162  0.81434009  0.31605786  1
  P  P31  1  0.28175838  0.31434009  0.68394214  1
  P  P32  1  0.02087886  0.38620505  0.16805949  1
  P  P33  1  0.47912114  0.88620505  0.83194051  1
  P  P34  1  0.97912114  0.61379495  0.83194051  1
  P  P35  1  0.52087886  0.11379495  0.16805949  1
  P  P36  1  0.01688876  0.38886101  0.78893292  1
  P  P37  1  0.48311124  0.88886101  0.21106708  1
  P  P38  1  0.98311124  0.61113899  0.21106708  1
  P  P39  1  0.51688876  0.11113899  0.78893292  1
  H  H40  1  0.79804677  0.36810283  0.91246796  1
  H  H41  1  0.70195323  0.86810283  0.08753204  1
  H  H42  1  0.20195323  0.63189717  0.08753204  1
  H  H43  1  0.29804677  0.13189717  0.91246796  1
  H  H44  1  0.74381830  0.96434178  0.13113480  1
  H  H45  1  0.75618170  0.46434178  0.86886520  1
  H  H46  1  0.25618170  0.03565822  0.86886520  1
  H  H47  1  0.24381830  0.53565822  0.13113480  1
  H  H48  1  0.99435482  0.19855213  0.58649785  1
  H  H49  1  0.50564518  0.69855213  0.41350215  1
  H  H50  1  0.00564518  0.80144787  0.41350215  1
  H  H51  1  0.49435482  0.30144787  0.58649785  1
  H  H52  1  0.01532658  0.83755307  0.60140144  1
  H  H53  1  0.48467342  0.33755307  0.39859856  1
  H  H54  1  0.98467342  0.16244693  0.39859856  1
  H  H55  1  0.51532658  0.66244693  0.60140144  1
  H  H56  1  0.96367049  0.92613568  0.95026910  1
  H  H57  1  0.53632951  0.42613568  0.04973090  1
  H  H58  1  0.03632951  0.07386432  0.04973090  1
  H  H59  1  0.46367049  0.57386432  0.95026910  1
  H  H60  1  0.55008422  0.36910953  0.87752715  1
  H  H61  1  0.94991578  0.86910953  0.12247285  1
  H  H62  1  0.44991578  0.63089047  0.12247285  1
  H  H63  1  0.05008422  0.13089047  0.87752715  1
  H  H64  1  0.86327422  0.39090545  0.64624191  1
  H  H65  1  0.63672578  0.89090545  0.35375809  1
  H  H66  1  0.13672578  0.60909455  0.35375809  1
  H  H67  1  0.36327422  0.10909455  0.64624191  1
  H  H68  1  0.63780743  0.01092293  0.37218232  1
  H  H69  1  0.86219257  0.51092293  0.62781768  1
  H  H70  1  0.36219257  0.98907707  0.62781768  1
  H  H71  1  0.13780743  0.48907707  0.37218232  1
  O  O72  1  0.81893277  0.23281934  0.18123986  1
  O  O73  1  0.68106723  0.73281934  0.81876014  1
  O  O74  1  0.18106723  0.76718066  0.81876014  1
  O  O75  1  0.31893277  0.26718066  0.18123986  1
  O  O76  1  0.71053055  0.16722901  0.31460494  1
  O  O77  1  0.78946945  0.66722901  0.68539506  1
  O  O78  1  0.28946945  0.83277099  0.68539506  1
  O  O79  1  0.21053055  0.33277099  0.31460494  1
  O  O80  1  0.80831619  0.05041362  0.31210419  1
  O  O81  1  0.69168381  0.55041362  0.68789581  1
  O  O82  1  0.19168381  0.94958638  0.68789581  1
  O  O83  1  0.30831619  0.44958638  0.31210419  1
  O  O84  1  0.57116806  0.57549540  0.76884588  1
  O  O85  1  0.92883194  0.07549540  0.23115412  1
  O  O86  1  0.42883194  0.42450460  0.23115412  1
  O  O87  1  0.07116806  0.92450460  0.76884588  1
  O  O88  1  0.61963339  0.39255238  0.70273191  1
  O  O89  1  0.88036661  0.89255238  0.29726809  1
  O  O90  1  0.38036661  0.60744762  0.29726809  1
  O  O91  1  0.11963339  0.10744762  0.70273191  1
  O  O92  1  0.60177446  0.53259686  0.47163646  1
  O  O93  1  0.89822554  0.03259686  0.52836354  1
  O  O94  1  0.39822554  0.46740314  0.52836354  1
  O  O95  1  0.10177446  0.96740314  0.47163646  1
  O  O96  1  0.59925663  0.53504752  0.15368144  1
  O  O97  1  0.90074337  0.03504752  0.84631856  1
  O  O98  1  0.40074337  0.46495248  0.84631856  1
  O  O99  1  0.09925663  0.96495248  0.15368144  1
  O  O100  1  0.65644946  0.38302155  0.30937677  1
  O  O101  1  0.84355054  0.88302155  0.69062323  1
  O  O102  1  0.34355054  0.61697845  0.69062323  1
  O  O103  1  0.15644946  0.11697845  0.30937677  1
  O  O104  1  0.79266048  0.05972207  0.69241453  1
  O  O105  1  0.70733952  0.55972207  0.30758547  1
  O  O106  1  0.20733952  0.94027793  0.30758547  1
  O  O107  1  0.29266048  0.44027793  0.69241453  1
  O  O108  1  0.82568535  0.23940220  0.80678268  1
  O  O109  1  0.67431465  0.73940220  0.19321732  1
  O  O110  1  0.17431465  0.76059780  0.19321732  1
  O  O111  1  0.32568535  0.26059780  0.80678268  1
  O  O112  1  0.79031537  0.70155131  0.30454728  1
  O  O113  1  0.70968463  0.20155131  0.69545272  1
  O  O114  1  0.20968463  0.29844869  0.69545272  1
  O  O115  1  0.29031537  0.79844869  0.30454728  1
  O  O116  1  0.69091510  0.71492370  0.50414148  1
  O  O117  1  0.80908490  0.21492370  0.49585852  1
  O  O118  1  0.30908490  0.28507630  0.49585852  1
  O  O119  1  0.19091510  0.78507630  0.50414148  1
  O  O120  1  0.95269628  0.34373429  0.16242551  1
  O  O121  1  0.54730372  0.84373429  0.83757449  1
  O  O122  1  0.04730372  0.65626571  0.83757449  1
  O  O123  1  0.45269628  0.15626571  0.16242551  1
  O  O124  1  0.92518643  0.66873906  0.74545991  1
  O  O125  1  0.57481357  0.16873906  0.25454009  1
  O  O126  1  0.07481357  0.33126094  0.25454009  1
  O  O127  1  0.42518643  0.83126094  0.74545991  1
  O  O128  1  0.97863607  0.49684252  0.75403806  1
  O  O129  1  0.52136393  0.99684252  0.24596194  1
  O  O130  1  0.02136393  0.50315748  0.24596194  1
  O  O131  1  0.47863607  0.00315748  0.75403806  1
  O  O132  1  0.96717779  0.30289363  0.78897627  1
  O  O133  1  0.53282221  0.80289363  0.21102373  1
  O  O134  1  0.03282221  0.69710637  0.21102373  1
  O  O135  1  0.46717779  0.19710637  0.78897627  1
  O  O136  1  0.92549746  0.61890926  0.32824841  1
  O  O137  1  0.57450254  0.11890926  0.67175159  1
  O  O138  1  0.07450254  0.38109074  0.67175159  1
  O  O139  1  0.42549746  0.88109074  0.32824841  1
  O  O140  1  0.95233655  0.59245404  0.02496284  1
  O  O141  1  0.54766345  0.09245404  0.97503716  1
  O  O142  1  0.04766345  0.40754596  0.97503716  1
  O  O143  1  0.45233655  0.90754596  0.02496284  1
  O  O144  1  0.73023799  0.92118566  0.03554520  1
  O  O145  1  0.76976201  0.42118566  0.96445480  1
  O  O146  1  0.26976201  0.07881434  0.96445480  1
  O  O147  1  0.23023799  0.57881434  0.03554520  1
  O  O148  1  0.98260871  0.81792473  0.51885906  1
  O  O149  1  0.51739129  0.31792473  0.48114094  1
  O  O150  1  0.01739129  0.18207527  0.48114094  1
  O  O151  1  0.48260871  0.68207527  0.51885906  1
  O  O152  1  0.52861355  0.36059941  0.98860471  1
  O  O153  1  0.97138645  0.86059941  0.01139529  1
  O  O154  1  0.47138645  0.63940059  0.01139529  1
  O  O155  1  0.02861355  0.13940059  0.98860471  1
  O  O156  1  0.66188534  0.94806578  0.40112674  1
  O  O157  1  0.83811466  0.44806578  0.59887326  1
  O  O158  1  0.33811466  0.05193422  0.59887326  1
  O  O159  1  0.16188534  0.55193422  0.40112674  1
