# generated using pymatgen
data_CaLaCrCuO6
_symmetry_space_group_name_H-M   'P 1'
_cell_length_a   5.47237532
_cell_length_b   5.55197728
_cell_length_c   7.68244939
_cell_angle_alpha   90.00000000
_cell_angle_beta   90.06918664
_cell_angle_gamma   90.00000000
_symmetry_Int_Tables_number   1
_chemical_formula_structural   CaLaCrCuO6
_chemical_formula_sum   'Ca2 La2 Cr2 Cu2 O12'
_cell_volume   233.41187481
_cell_formula_units_Z   2
loop_
 _symmetry_equiv_pos_site_id
 _symmetry_equiv_pos_as_xyz
  1  'x, y, z'
loop_
 _atom_site_type_symbol
 _atom_site_label
 _atom_site_symmetry_multiplicity
 _atom_site_fract_x
 _atom_site_fract_y
 _atom_site_fract_z
 _atom_site_occupancy
  Ca  Ca0  1  0.48941581  0.44936841  0.74942204  1
  Ca  Ca1  1  0.98941581  0.05063159  0.24942204  1
  La  La2  1  0.00721219  0.96247893  0.75004686  1
  La  La3  1  0.50721219  0.53752107  0.25004686  1
  Cr  Cr4  1  0.50103692  0.00089711  0.49897896  1
  Cr  Cr5  1  0.00103692  0.49910289  0.99897896  1
  Cu  Cu6  1  0.50091935  0.99854948  0.00055444  1
  Cu  Cu7  1  0.00091935  0.50145052  0.50055444  1
  O  O8  1  0.07325827  0.47959268  0.24369867  1
  O  O9  1  0.21082200  0.21439803  0.95834368  1
  O  O10  1  0.22024158  0.20828985  0.53798440  1
  O  O11  1  0.28647396  0.69819169  0.95786773  1
  O  O12  1  0.29581890  0.71185785  0.54745689  1
  O  O13  1  0.41480002  0.98298432  0.25564433  1
  O  O14  1  0.57325827  0.02040732  0.74369867  1
  O  O15  1  0.71082200  0.28560197  0.45834368  1
  O  O16  1  0.72024158  0.29171015  0.03798440  1
  O  O17  1  0.78647396  0.80180831  0.45786773  1
  O  O18  1  0.79581890  0.78814215  0.04745689  1
  O  O19  1  0.91480002  0.51701568  0.75564433  1
