# generated using pymatgen
data_La4Mn5Co(PbO9)2
_symmetry_space_group_name_H-M   'P 1'
_cell_length_a   5.52535909
_cell_length_b   16.62833245
_cell_length_c   9.60155509
_cell_angle_alpha   30.07292428
_cell_angle_beta   55.50891558
_cell_angle_gamma   60.68575141
_symmetry_Int_Tables_number   1
_chemical_formula_structural   La4Mn5Co(PbO9)2
_chemical_formula_sum   'La4 Mn5 Co1 Pb2 O18'
_cell_volume   364.34824385
_cell_formula_units_Z   1
loop_
 _symmetry_equiv_pos_site_id
 _symmetry_equiv_pos_as_xyz
  1  'x, y, z'
loop_
 _atom_site_type_symbol
 _atom_site_label
 _atom_site_symmetry_multiplicity
 _atom_site_fract_x
 _atom_site_fract_y
 _atom_site_fract_z
 _atom_site_occupancy
  La  La0  1  0.24788648  0.66680339  0.25221888  1
  La  La1  1  0.74781463  -0.00047416  0.75263588  1
  La  La2  1  0.74743418  0.33299572  0.75303050  1
  La  La3  1  0.75404255  0.66802379  0.74330526  1
  Mn  Mn4  1  0.99889801  0.99984314  0.00031462  1
  Mn  Mn5  1  0.00153613  0.33329863  0.99966173  1
  Mn  Mn6  1  0.00046678  0.66688529  0.99947180  1
  Mn  Mn7  1  0.50017747  0.99975775  0.50023380  1
  Mn  Mn8  1  0.49919650  0.33345410  0.49976148  1
  Co  Co9  1  0.49968953  0.66702113  0.49969509  1
  Pb  Pb10  1  0.25065353  0.99868916  0.25051763  1
  Pb  Pb11  1  0.25129402  0.33484293  0.24622118  1
  O  O12  1  0.19490926  0.14842861  0.30460114  1
  O  O13  1  0.74982304  0.03186653  0.20174489  1
  O  O14  1  0.19275027  0.48525726  0.30906155  1
  O  O15  1  0.71091239  0.18064874  0.24797468  1
  O  O16  1  0.30375195  0.14882145  0.74945844  1
  O  O17  1  0.25079003  0.30988612  0.78521690  1
  O  O18  1  0.75063713  0.37167800  0.19200799  1
  O  O19  1  0.19919766  0.81447782  0.29413420  1
  O  O20  1  0.69411131  0.51618081  0.25493162  1
  O  O21  1  0.29988649  0.48544187  0.73823498  1
  O  O22  1  0.79083969  0.18087039  0.70908214  1
  O  O23  1  0.24073275  0.64383152  0.79208371  1
  O  O24  1  0.75824225  0.70140848  0.19116307  1
  O  O25  1  0.72750596  0.84484975  0.24372407  1
  O  O26  1  0.30406683  0.80959661  0.76801436  1
  O  O27  1  0.80479449  0.51317825  0.70304671  1
  O  O28  1  0.24946807  0.96736001  0.79908054  1
  O  O29  1  0.77849061  0.84507690  0.71937118  1
