# generated using pymatgen
data_Ce5Y2O13
_symmetry_space_group_name_H-M   'P 1'
_cell_length_a   3.83090949
_cell_length_b   3.83090949
_cell_length_c   22.40921772
_cell_angle_alpha   94.90340870
_cell_angle_beta   90.00000000
_cell_angle_gamma   120.00000000
_symmetry_Int_Tables_number   1
_chemical_formula_structural   Ce5Y2O13
_chemical_formula_sum   'Ce5 Y2 O13'
_cell_volume   283.42319160
_cell_formula_units_Z   1
loop_
 _symmetry_equiv_pos_site_id
 _symmetry_equiv_pos_as_xyz
  1  'x, y, z'
loop_
 _atom_site_type_symbol
 _atom_site_label
 _atom_site_symmetry_multiplicity
 _atom_site_fract_x
 _atom_site_fract_y
 _atom_site_fract_z
 _atom_site_occupancy
  Ce  Ce0  1  0.42791006  0.85582111  0.28373117  1
  Ce  Ce1  1  0.14224394  0.28448788  0.42673181  1
  Ce  Ce2  1  0.85654665  0.71309330  0.56963895  1
  Ce  Ce3  1  0.57086457  0.14173015  0.71259472  1
  Ce  Ce4  1  0.28496872  0.56993743  0.85490615  1
  Y  Y5  1  0.99893409  0.99786717  0.99680126  1
  Y  Y6  1  0.71626310  0.43252719  0.14879029  1
  O  O7  1  0.39295729  0.78591357  0.17887086  1
  O  O8  1  0.03078303  0.06156606  0.09235009  1
  O  O9  1  0.10749856  0.21499712  0.32249568  1
  O  O10  1  0.46452085  0.92904170  0.39356355  1
  O  O11  1  0.75030384  0.50060669  0.25091053  1
  O  O12  1  0.82176291  0.64352683  0.46528974  1
  O  O13  1  0.17883281  0.35766562  0.53649942  1
  O  O14  1  0.25040705  0.50081309  0.75122014  1
  O  O15  1  0.89314977  0.78630054  0.67945032  1
  O  O16  1  0.53607592  0.07215284  0.60822876  1
  O  O17  1  0.96401831  0.92803761  0.89205592  1
  O  O18  1  0.60719311  0.21438622  0.82157933  1
  O  O19  1  0.32619143  0.65238387  0.97857530  1
