# generated using pymatgen
data_Mg(CoO2)2
_symmetry_space_group_name_H-M   'P 1'
_cell_length_a   5.98182477
_cell_length_b   5.98190976
_cell_length_c   17.91013974
_cell_angle_alpha   59.88017092
_cell_angle_beta   59.94003548
_cell_angle_gamma   59.91775197
_symmetry_Int_Tables_number   1
_chemical_formula_structural   Mg(CoO2)2
_chemical_formula_sum   'Mg6 Co12 O24'
_cell_volume   452.26802545
_cell_formula_units_Z   6
loop_
 _symmetry_equiv_pos_site_id
 _symmetry_equiv_pos_as_xyz
  1  'x, y, z'
loop_
 _atom_site_type_symbol
 _atom_site_label
 _atom_site_symmetry_multiplicity
 _atom_site_fract_x
 _atom_site_fract_y
 _atom_site_fract_z
 _atom_site_occupancy
  Mg  Mg0  1  0.12264669  0.12247220  0.04410205  1
  Mg  Mg1  1  0.12424931  0.12426562  0.37570406  1
  Mg  Mg2  1  0.49888401  0.49875741  0.00107249  1
  Mg  Mg3  1  0.12443970  0.12402616  0.70898227  1
  Mg  Mg4  1  0.87652813  0.87660249  0.29008880  1
  Mg  Mg5  1  0.87517035  0.87533950  0.62479823  1
  Co  Co6  1  0.00299447  0.49985785  0.16633587  1
  Co  Co7  1  0.49911912  0.49917111  0.16587956  1
  Co  Co8  1  0.99996249  0.49910090  0.49989462  1
  Co  Co9  1  0.49975628  0.00304997  0.16636775  1
  Co  Co10  1  0.49979388  0.49990093  0.33295284  1
  Co  Co11  1  0.50047372  0.50011375  0.50041216  1
  Co  Co12  1  0.00124838  0.49986261  0.83320953  1
  Co  Co13  1  0.49929687  0.00021959  0.49981019  1
  Co  Co14  1  0.49999246  0.00088839  0.83328472  1
  Co  Co15  1  0.49987741  0.50000125  0.66683528  1
  Co  Co16  1  0.49936813  0.49972554  0.83310954  1
  Co  Co17  1  0.87784926  0.87765682  0.95541695  1
  O  O18  1  0.25104871  0.25050709  0.09352698  1
  O  O19  1  0.25890245  0.25759409  0.24121156  1
  O  O20  1  0.25131926  0.71826806  0.09316887  1
  O  O21  1  0.71844411  0.25075481  0.09317146  1
  O  O22  1  0.28431717  0.73765718  0.24676684  1
  O  O23  1  0.25578628  0.25705434  0.42253743  1
  O  O24  1  0.73743745  0.28458686  0.24666489  1
  O  O25  1  0.74242028  0.74368616  0.09067679  1
  O  O26  1  0.25966041  0.71730459  0.42161597  1
  O  O27  1  0.25896611  0.25909382  0.57390868  1
  O  O28  1  0.74029522  0.74044074  0.24547983  1
  O  O29  1  0.71763153  0.25836863  0.42137071  1
  O  O30  1  0.28010635  0.74258699  0.57855383  1
  O  O31  1  0.26258166  0.26368834  0.75131783  1
  O  O32  1  0.74224793  0.28012449  0.57788672  1
  O  O33  1  0.74183307  0.74193921  0.42555404  1
  O  O34  1  0.25819928  0.25881692  0.90800384  1
  O  O35  1  0.26097823  0.71979624  0.75296385  1
  O  O36  1  0.74154502  0.73983868  0.57921149  1
  O  O37  1  0.72012183  0.26251420  0.75219767  1
  O  O38  1  0.27626726  0.74917821  0.90889888  1
  O  O39  1  0.74089320  0.74037196  0.75945040  1
  O  O40  1  0.74891139  0.27608619  0.90871703  1
  O  O41  1  0.74843115  0.74873211  0.90888949  1
