# generated using pymatgen
data_BaY3F11
_symmetry_space_group_name_H-M   'P 1'
_cell_length_a   8.45650693
_cell_length_b   8.63145966
_cell_length_c   7.73761936
_cell_angle_alpha   60.53573027
_cell_angle_beta   61.09750595
_cell_angle_gamma   77.40909583
_symmetry_Int_Tables_number   1
_chemical_formula_structural   BaY3F11
_chemical_formula_sum   'Ba2 Y6 F22'
_cell_volume   430.34307550
_cell_formula_units_Z   2
loop_
 _symmetry_equiv_pos_site_id
 _symmetry_equiv_pos_as_xyz
  1  'x, y, z'
loop_
 _atom_site_type_symbol
 _atom_site_label
 _atom_site_symmetry_multiplicity
 _atom_site_fract_x
 _atom_site_fract_y
 _atom_site_fract_z
 _atom_site_occupancy
  Ba  Ba0  1  0.24705494  0.66266287  0.77925025  1
  Ba  Ba1  1  0.75294506  0.33733713  0.22074975  1
  Y  Y2  1  0.25079092  0.21021605  0.26796214  1
  Y  Y3  1  0.26612441  0.71259490  0.25058596  1
  Y  Y4  1  0.25010932  0.15999132  0.78297697  1
  Y  Y5  1  0.74989068  0.84000868  0.21702303  1
  Y  Y6  1  0.73387559  0.28740510  0.74941404  1
  Y  Y7  1  0.74920908  0.78978395  0.73203786  1
  F  F8  1  0.04716784  0.83088243  0.12485374  1
  F  F9  1  0.95023052  0.22692685  0.46638030  1
  F  F10  1  0.19675975  0.50126064  0.20552550  1
  F  F11  1  0.27673943  0.02238359  0.12835979  1
  F  F12  1  0.87712634  0.68822110  0.98359226  1
  F  F13  1  0.23419006  0.46811373  0.57979541  1
  F  F14  1  0.40124977  0.25831198  0.40902819  1
  F  F15  1  0.19083874  0.00699282  0.61861053  1
  F  F16  1  0.60529797  0.10992099  0.14192209  1
  F  F17  1  0.45973529  0.76722574  0.33885987  1
  F  F18  1  0.54094522  0.62062226  0.07552231  1
  F  F19  1  0.45905478  0.37937774  0.92447769  1
  F  F20  1  0.54026471  0.23277426  0.66114013  1
  F  F21  1  0.39470203  0.89007901  0.85807791  1
  F  F22  1  0.80916126  0.99300718  0.38138947  1
  F  F23  1  0.59875023  0.74168802  0.59097181  1
  F  F24  1  0.76580994  0.53188627  0.42020459  1
  F  F25  1  0.12287366  0.31177890  0.01640774  1
  F  F26  1  0.72326057  0.97761641  0.87164021  1
  F  F27  1  0.80324025  0.49873936  0.79447450  1
  F  F28  1  0.04976948  0.77307315  0.53361970  1
  F  F29  1  0.95283216  0.16911757  0.87514626  1
