# generated using pymatgen
data_Sr3Nd10Al12Si18(N2O)18
_symmetry_space_group_name_H-M   'P 1'
_cell_length_a   11.69476258
_cell_length_b   11.69093891
_cell_length_c   11.69093911
_cell_angle_alpha   109.44454031
_cell_angle_beta   109.43802089
_cell_angle_gamma   109.43801542
_symmetry_Int_Tables_number   1
_chemical_formula_structural   Sr3Nd10Al12Si18(N2O)18
_chemical_formula_sum   'Sr3 Nd10 Al12 Si18 N36 O18'
_cell_volume   1231.87381082
_cell_formula_units_Z   1
loop_
 _symmetry_equiv_pos_site_id
 _symmetry_equiv_pos_as_xyz
  1  'x, y, z'
loop_
 _atom_site_type_symbol
 _atom_site_label
 _atom_site_symmetry_multiplicity
 _atom_site_fract_x
 _atom_site_fract_y
 _atom_site_fract_z
 _atom_site_occupancy
  Sr  Sr0  1  0.68005039  0.42499189  -0.00002871  1
  Sr  Sr1  1  0.68005039  -0.00002871  0.42499189  1
  Sr  Sr2  1  0.99792786  0.99958659  0.99958659  1
  Nd  Nd3  1  0.25219617  0.57913951  0.57913951  1
  Nd  Nd4  1  0.33198068  0.75065381  0.32678039  1
  Nd  Nd5  1  0.33198068  0.32678039  0.75065381  1
  Nd  Nd6  1  0.42262565  0.00279014  0.67476187  1
  Nd  Nd7  1  0.42262565  0.67476187  0.00279014  1
  Nd  Nd8  1  0.58029768  0.57553032  0.24957436  1
  Nd  Nd9  1  0.58029768  0.24957436  0.57553032  1
  Nd  Nd10  1  0.74706395  0.32647028  0.32647028  1
  Nd  Nd11  1  0.99778688  0.67319781  0.42105298  1
  Nd  Nd12  1  0.99778688  0.42105298  0.67319781  1
  Al  Al13  1  0.16244607  0.99986306  0.75370662  1
  Al  Al14  1  0.99972680  0.75311931  0.16193134  1
  Al  Al15  1  0.99972680  0.16193134  0.75311931  1
  Al  Al16  1  0.16244607  0.75370662  0.99986306  1
  Al  Al17  1  0.59054800  0.83765437  0.83765437  1
  Al  Al18  1  0.24707330  0.24738303  0.40995816  1
  Al  Al19  1  0.24707330  0.40995816  0.24738303  1
  Al  Al20  1  0.40827680  0.24639682  0.24639682  1
  Al  Al21  1  0.83755228  0.59104480  0.83788695  1
  Al  Al22  1  0.83755228  0.83788695  0.59104480  1
  Al  Al23  1  0.75380771  0.00045526  0.16266643  1
  Al  Al24  1  0.75380771  0.16266643  0.00045526  1
  Si  Si25  1  0.00015663  0.69909795  0.69909795  1
  Si  Si26  1  0.30143350  0.84003836  0.84003836  1
  Si  Si27  1  0.00172679  0.16086950  0.46172934  1
  Si  Si28  1  0.30021574  0.99952016  0.29979715  1
  Si  Si29  1  0.16093048  0.99953457  0.46138439  1
  Si  Si30  1  0.16093048  0.46138439  0.99953457  1
  Si  Si31  1  0.53862327  0.69908322  0.53908580  1
  Si  Si32  1  0.53862327  0.53908580  0.69908322  1
  Si  Si33  1  0.30021574  0.29979715  0.99952016  1
  Si  Si34  1  0.69941531  0.53871732  0.53871732  1
  Si  Si35  1  0.46237016  0.00042865  0.16138749  1
  Si  Si36  1  0.46237016  0.16138749  0.00042865  1
  Si  Si37  1  0.84076079  0.84172055  0.30129037  1
  Si  Si38  1  0.84076079  0.30129037  0.84172055  1
  Si  Si39  1  0.69895877  0.69966846  0.00007726  1
  Si  Si40  1  0.69895877  0.00007726  0.69966846  1
  Si  Si41  1  0.00172679  0.46172934  0.16086950  1
  Si  Si42  1  0.99995752  0.30141566  0.30141566  1
  N  N43  1  0.00017328  0.68885619  0.84250598  1
  N  N44  1  0.00017328  0.84250598  0.68885619  1
  N  N45  1  0.14630576  0.69552015  0.69552015  1
  N  N46  1  0.00092341  0.30572680  0.45176206  1
  N  N47  1  0.15631611  0.84661119  0.15614609  1
  N  N48  1  0.15631611  0.15614609  0.84661119  1
  N  N49  1  0.15290535  0.48019969  0.15129000  1
  N  N50  1  0.15290535  0.15129000  0.48019969  1
  N  N51  1  0.15375573  0.31181004  0.31181004  1
  N  N52  1  0.44917309  0.00009636  0.30398967  1
  N  N53  1  0.32747091  0.00004516  0.84990301  1
  N  N54  1  0.32747091  0.84990301  0.00004516  1
  N  N55  1  0.68890683  0.84305983  0.99961500  1
  N  N56  1  0.52233294  0.67266619  0.67266619  1
  N  N57  1  0.54865762  0.85373175  0.55101871  1
  N  N58  1  0.54865762  0.55101871  0.85373175  1
  N  N59  1  0.30972562  0.15347961  0.31066940  1
  N  N60  1  0.30972562  0.31066940  0.15347961  1
  N  N61  1  0.30328567  0.99673703  0.44839149  1
  N  N62  1  0.30328567  0.44839149  0.99673703  1
  N  N63  1  0.67215806  0.52176900  0.67223870  1
  N  N64  1  0.67215806  0.67223870  0.52176900  1
  N  N65  1  0.84380415  0.00000430  0.69289947  1
  N  N66  1  0.44917309  0.30398967  0.00009636  1
  N  N67  1  0.47732529  0.15061725  0.15061725  1
  N  N68  1  0.68890683  0.99961500  0.84305983  1
  N  N69  1  0.69513458  0.69887430  0.14723833  1
  N  N70  1  0.69513458  0.14723833  0.69887430  1
  N  N71  1  0.85490439  0.55047250  0.55047250  1
  N  N72  1  0.00062824  0.84903454  0.32813598  1
  N  N73  1  0.00062824  0.32813598  0.84903454  1
  N  N74  1  0.84380415  0.69289947  0.00000430  1
  N  N75  1  0.84733394  0.15831153  0.15831153  1
  N  N76  1  0.85598772  0.00183365  0.32544044  1
  N  N77  1  0.85598772  0.32544044  0.00183365  1
  N  N78  1  0.00092341  0.45176206  0.30572680  1
  O  O79  1  0.25081449  0.74989556  0.50116307  1
  O  O80  1  0.25081449  0.50116307  0.74989556  1
  O  O81  1  0.42163332  0.81154569  0.81154569  1
  O  O82  1  0.18742913  0.99968973  0.61024391  1
  O  O83  1  0.18742913  0.61024391  0.99968973  1
  O  O84  1  0.38967799  0.39139587  0.57718796  1
  O  O85  1  0.38967799  0.57718796  0.39139587  1
  O  O86  1  0.48789458  0.24063745  0.73327776  1
  O  O87  1  0.48789458  0.73327776  0.24063745  1
  O  O88  1  0.60857622  0.99929693  0.18237936  1
  O  O89  1  0.57692269  0.38987818  0.38987818  1
  O  O90  1  0.81390337  0.42300691  0.81343177  1
  O  O91  1  0.81390337  0.81343177  0.42300691  1
  O  O92  1  0.75555617  0.50658912  0.26613678  1
  O  O93  1  0.75555617  0.26613678  0.50658912  1
  O  O94  1  0.60857622  0.18237936  0.99929693  1
  O  O95  1  0.00025908  0.18758067  0.61006829  1
  O  O96  1  0.00025908  0.61006829  0.18758067  1
