# generated using pymatgen
data_Cu3As2H2PbO10
_symmetry_space_group_name_H-M   'P 1'
_cell_length_a   5.95233213
_cell_length_b   5.96408266
_cell_length_c   14.01591467
_cell_angle_alpha   87.94506144
_cell_angle_beta   79.51162351
_cell_angle_gamma   119.35220056
_symmetry_Int_Tables_number   1
_chemical_formula_structural   Cu3As2H2PbO10
_chemical_formula_sum   'Cu6 As4 H4 Pb2 O20'
_cell_volume   421.87899962
_cell_formula_units_Z   2
loop_
 _symmetry_equiv_pos_site_id
 _symmetry_equiv_pos_as_xyz
  1  'x, y, z'
loop_
 _atom_site_type_symbol
 _atom_site_label
 _atom_site_symmetry_multiplicity
 _atom_site_fract_x
 _atom_site_fract_y
 _atom_site_fract_z
 _atom_site_occupancy
  Cu  Cu0  1  0.00296697  0.50298481  0.00023221  1
  Cu  Cu1  1  0.99847615  0.50289630  0.50018092  1
  Cu  Cu2  1  0.99871518  0.00145281  0.00050663  1
  Cu  Cu3  1  0.49908626  0.49792984  0.00060528  1
  Cu  Cu4  1  0.00137468  0.00380503  0.50058613  1
  Cu  Cu5  1  0.49887258  0.00101641  0.49938126  1
  As  As6  1  0.36703314  0.91180560  0.14245213  1
  As  As7  1  0.44958490  0.49715857  0.64203561  1
  As  As8  1  0.55016764  0.50765125  0.35782984  1
  As  As9  1  0.63780376  0.09212953  0.85800437  1
  H  H10  1  0.23013157  0.85595615  0.36033404  1
  H  H11  1  0.28366139  0.40907933  0.86122144  1
  H  H12  1  0.71651398  0.59555853  0.13810363  1
  H  H13  1  0.76577903  0.14862198  0.63852174  1
  Pb  Pb14  1  0.00987764  0.26394876  0.25097180  1
  Pb  Pb15  1  0.99276846  0.74129801  0.75041200  1
  O  O16  1  0.20389807  0.85495952  0.43580219  1
  O  O17  1  0.19775238  0.76989839  0.26075819  1
  O  O18  1  0.30100304  0.91098840  0.87786904  1
  O  O19  1  0.26838698  0.62711140  0.08379799  1
  O  O20  1  0.31400990  0.67085330  0.59731805  1
  O  O21  1  0.20689213  0.35296741  0.41871766  1
  O  O22  1  0.70676668  0.82433695  0.37675002  1
  O  O23  1  0.76746215  0.91094061  0.90079196  1
  O  O24  1  0.20964952  0.35754923  0.93603130  1
  O  O25  1  0.47295350  0.55169878  0.76021594  1
  O  O26  1  0.52726306  0.45206343  0.23995977  1
  O  O27  1  0.79151973  0.64457847  0.06349477  1
  O  O28  1  0.23852428  0.09264042  0.09820255  1
  O  O29  1  0.29167792  0.18226136  0.62223347  1
  O  O30  1  0.79388620  0.65276849  0.58206573  1
  O  O31  1  0.68615076  0.33461038  0.40250737  1
  O  O32  1  0.73259569  0.37277008  0.91873372  1
  O  O33  1  0.70366385  0.08394950  0.12274441  1
  O  O34  1  0.80535148  0.24082478  0.74023463  1
  O  O35  1  0.79360036  0.14957519  0.56365520  1
