# generated using pymatgen
data_LiCuCO3
_symmetry_space_group_name_H-M   'P 1'
_cell_length_a   5.38872778
_cell_length_b   5.68182543
_cell_length_c   9.51325437
_cell_angle_alpha   107.39263525
_cell_angle_beta   106.45418185
_cell_angle_gamma   89.99221739
_symmetry_Int_Tables_number   1
_chemical_formula_structural   LiCuCO3
_chemical_formula_sum   'Li4 Cu4 C4 O12'
_cell_volume   265.43469512
_cell_formula_units_Z   4
loop_
 _symmetry_equiv_pos_site_id
 _symmetry_equiv_pos_as_xyz
  1  'x, y, z'
loop_
 _atom_site_type_symbol
 _atom_site_label
 _atom_site_symmetry_multiplicity
 _atom_site_fract_x
 _atom_site_fract_y
 _atom_site_fract_z
 _atom_site_occupancy
  Li  Li0  1  0.00242064  0.75009915  0.49997582  1
  Li  Li1  1  0.50217927  0.74986771  0.49997630  1
  Li  Li2  1  0.49782260  0.25013509  0.50002701  1
  Li  Li3  1  0.99757612  0.24990062  0.50002034  1
  Cu  Cu4  1  0.24982946  0.84248724  0.99995669  1
  Cu  Cu5  1  0.74995050  0.65772019  0.00004721  1
  Cu  Cu6  1  0.25004227  0.34228994  0.99995364  1
  Cu  Cu7  1  0.75017179  0.15751112  0.00004270  1
  C  C8  1  0.13898302  0.88879066  0.27758058  1
  C  C9  1  0.36096857  0.61135576  0.72243128  1
  C  C10  1  0.63903058  0.38864220  0.27756596  1
  C  C11  1  0.86101742  0.11120938  0.72242105  1
  O  O12  1  0.29171475  0.95371391  0.21102233  1
  O  O13  1  0.21532739  0.96549915  0.43060926  1
  O  O14  1  0.91987553  0.75704249  0.21097468  1
  O  O15  1  0.20816279  0.74290570  0.78890773  1
  O  O16  1  0.41975341  0.45349585  0.21088472  1
  O  O17  1  0.28470288  0.53469431  0.56940672  1
  O  O18  1  0.71529069  0.46530711  0.43059049  1
  O  O19  1  0.58024522  0.54649936  0.78911134  1
  O  O20  1  0.79183926  0.25709236  0.21109363  1
  O  O21  1  0.08012396  0.24295691  0.78902760  1
  O  O22  1  0.78467686  0.03450367  0.56939003  1
  O  O23  1  0.70828602  0.04628413  0.78897688  1
