# generated using pymatgen
data_Ti3ZnP3O13
_symmetry_space_group_name_H-M   'P 1'
_cell_length_a   6.40904430
_cell_length_b   7.71910514
_cell_length_c   10.54209040
_cell_angle_alpha   99.80736294
_cell_angle_beta   90.00000000
_cell_angle_gamma   90.00000000
_symmetry_Int_Tables_number   1
_chemical_formula_structural   Ti3ZnP3O13
_chemical_formula_sum   'Ti6 Zn2 P6 O26'
_cell_volume   513.91744610
_cell_formula_units_Z   2
loop_
 _symmetry_equiv_pos_site_id
 _symmetry_equiv_pos_as_xyz
  1  'x, y, z'
loop_
 _atom_site_type_symbol
 _atom_site_label
 _atom_site_symmetry_multiplicity
 _atom_site_fract_x
 _atom_site_fract_y
 _atom_site_fract_z
 _atom_site_occupancy
  Ti  Ti0  1  0.25000000  0.35257544  0.20036467  1
  Ti  Ti1  1  0.75000000  0.64742456  0.79963533  1
  Ti  Ti2  1  0.25000000  0.78904605  0.44026464  1
  Ti  Ti3  1  0.50000000  0.00000000  0.00000000  1
  Ti  Ti4  1  0.75000000  0.21095395  0.55973536  1
  Ti  Ti5  1  0.00000000  0.00000000  0.00000000  1
  Zn  Zn6  1  0.75000000  0.61870050  0.15107564  1
  Zn  Zn7  1  0.25000000  0.38129950  0.84892436  1
  P  P8  1  0.25000000  0.21933033  0.48693336  1
  P  P9  1  0.75000000  0.78066967  0.51306664  1
  P  P10  1  0.25000000  0.73529517  0.76251182  1
  P  P11  1  0.75000000  0.26470483  0.23748818  1
  P  P12  1  0.75000000  0.31229678  0.88147361  1
  P  P13  1  0.25000000  0.68770322  0.11852639  1
  O  O14  1  0.75000000  0.35130247  0.74121713  1
  O  O15  1  0.55461929  0.74665064  0.42784469  1
  O  O16  1  0.25000000  0.78093097  0.62675472  1
  O  O17  1  0.54924702  0.21284917  0.90817566  1
  O  O18  1  0.75000000  0.66450975  0.61734388  1
  O  O19  1  0.75000000  0.86676035  0.90330996  1
  O  O20  1  0.25000000  0.33549025  0.38265612  1
  O  O21  1  0.04924702  0.78715083  0.09182434  1
  O  O22  1  0.25000000  0.02091289  0.41771781  1
  O  O23  1  0.75000000  0.97908711  0.58228219  1
  O  O24  1  0.06083783  0.62092420  0.78853046  1
  O  O25  1  0.25000000  0.13323965  0.09669004  1
  O  O26  1  0.56083783  0.37907580  0.21146954  1
  O  O27  1  0.75000000  0.50548622  0.95745103  1
  O  O28  1  0.75000000  0.21906903  0.37324528  1
  O  O29  1  0.45075298  0.78715083  0.09182434  1
  O  O30  1  0.94538071  0.74665064  0.42784469  1
  O  O31  1  0.44538071  0.25334936  0.57215531  1
  O  O32  1  0.43916217  0.62092420  0.78853046  1
  O  O33  1  0.25000000  0.64869753  0.25878287  1
  O  O34  1  0.75000000  0.09142155  0.13393096  1
  O  O35  1  0.25000000  0.90857845  0.86606904  1
  O  O36  1  0.93916217  0.37907580  0.21146954  1
  O  O37  1  0.95075298  0.21284917  0.90817566  1
  O  O38  1  0.05461929  0.25334936  0.57215531  1
  O  O39  1  0.25000000  0.49451378  0.04254897  1
