# generated using pymatgen
data_BaYCl5
_symmetry_space_group_name_H-M   'P 1'
_cell_length_a   7.63655980
_cell_length_b   7.63655980
_cell_length_c   10.47656000
_cell_angle_alpha   69.79840929
_cell_angle_beta   110.20159071
_cell_angle_gamma   109.38098770
_symmetry_Int_Tables_number   1
_chemical_formula_structural   BaYCl5
_chemical_formula_sum   'Ba2 Y2 Cl10'
_cell_volume   522.19355503
_cell_formula_units_Z   2
loop_
 _symmetry_equiv_pos_site_id
 _symmetry_equiv_pos_as_xyz
  1  'x, y, z'
loop_
 _atom_site_type_symbol
 _atom_site_label
 _atom_site_symmetry_multiplicity
 _atom_site_fract_x
 _atom_site_fract_y
 _atom_site_fract_z
 _atom_site_occupancy
  Ba  Ba0  1  0.44824314  0.44824314  0.75000000  1
  Ba  Ba1  1  0.55175686  0.55175686  0.25000000  1
  Y  Y2  1  0.00000000  0.00000000  0.50000000  1
  Y  Y3  1  0.00000000  0.00000000  0.00000000  1
  Cl  Cl4  1  0.20988864  0.74930693  0.61928654  1
  Cl  Cl5  1  0.71302514  0.68859279  0.97238348  1
  Cl  Cl6  1  0.25069307  0.79011136  0.11928654  1
  Cl  Cl7  1  0.07676741  0.07676741  0.75000000  1
  Cl  Cl8  1  0.68859279  0.71302514  0.52761652  1
  Cl  Cl9  1  0.31140721  0.28697486  0.47238348  1
  Cl  Cl10  1  0.92323259  0.92323259  0.25000000  1
  Cl  Cl11  1  0.74930693  0.20988864  0.88071346  1
  Cl  Cl12  1  0.28697486  0.31140721  0.02761652  1
  Cl  Cl13  1  0.79011136  0.25069307  0.38071346  1
