# generated using pymatgen
data_Li8CrS6
_symmetry_space_group_name_H-M   'P 1'
_cell_length_a   6.85174350
_cell_length_b   6.85178100
_cell_length_c   13.37079905
_cell_angle_alpha   90.00033501
_cell_angle_beta   90.00017711
_cell_angle_gamma   119.99962636
_symmetry_Int_Tables_number   1
_chemical_formula_structural   Li8CrS6
_chemical_formula_sum   'Li16 Cr2 S12'
_cell_volume   543.61846293
_cell_formula_units_Z   2
loop_
 _symmetry_equiv_pos_site_id
 _symmetry_equiv_pos_as_xyz
  1  'x, y, z'
loop_
 _atom_site_type_symbol
 _atom_site_label
 _atom_site_symmetry_multiplicity
 _atom_site_fract_x
 _atom_site_fract_y
 _atom_site_fract_z
 _atom_site_occupancy
  Li  Li0  1  0.99999053  0.68554290  0.76571225  1
  Li  Li1  1  0.99998619  0.62112502  0.13015726  1
  Li  Li2  1  -0.00000085  0.37885897  0.63016163  1
  Li  Li3  1  0.99999140  0.31445751  0.26571490  1
  Li  Li4  1  0.33331577  0.66667022  0.40289992  1
  Li  Li5  1  0.33331033  0.66664428  0.90290295  1
  Li  Li6  1  0.31444560  0.31445256  0.76570554  1
  Li  Li7  1  0.37885736  0.37885356  0.13016036  1
  Li  Li8  1  0.62113420  0.62114057  0.63016125  1
  Li  Li9  1  0.31444979  0.99998887  0.26571331  1
  Li  Li10  1  0.68552392  0.68552546  0.26571268  1
  Li  Li11  1  0.37885531  0.00000448  0.63015974  1
  Li  Li12  1  0.66664171  0.33331706  0.90290142  1
  Li  Li13  1  0.66666719  0.33334638  0.40290435  1
  Li  Li14  1  0.62112289  0.99999172  0.13015526  1
  Li  Li15  1  0.68553607  -0.00000170  0.76571083  1
  Cr  Cr16  1  -0.00002245  -0.00001377  0.99858529  1
  Cr  Cr17  1  0.00005787  0.00010154  0.49857974  1
  S  S18  1  0.99998512  0.69528954  0.95073562  1
  S  S19  1  -0.00000113  0.30478503  0.45070917  1
  S  S20  1  0.33332884  0.66665374  0.21786560  1
  S  S21  1  0.99999217  0.99999605  0.16578443  1
  S  S22  1  0.99998802  -0.00000453  0.66569993  1
  S  S23  1  0.33333280  0.66667702  0.71786792  1
  S  S24  1  0.30473777  0.30474693  0.95072204  1
  S  S25  1  0.30479245  0.00000067  0.45070263  1
  S  S26  1  0.69520555  0.69521220  0.45070302  1
  S  S27  1  0.66667305  0.33333642  0.71786945  1
  S  S28  1  0.66664972  0.33331245  0.21787603  1
  S  S29  1  0.69525182  0.99998885  0.95072546  1
