# generated using pymatgen
data_Li3CuS2
_symmetry_space_group_name_H-M   'P 1'
_cell_length_a   5.29296586
_cell_length_b   12.07670306
_cell_length_c   5.33776273
_cell_angle_alpha   90.00000000
_cell_angle_beta   90.00000000
_cell_angle_gamma   90.00000000
_symmetry_Int_Tables_number   1
_chemical_formula_structural   Li3CuS2
_chemical_formula_sum   'Li12 Cu4 S8'
_cell_volume   341.19821134
_cell_formula_units_Z   4
loop_
 _symmetry_equiv_pos_site_id
 _symmetry_equiv_pos_as_xyz
  1  'x, y, z'
loop_
 _atom_site_type_symbol
 _atom_site_label
 _atom_site_symmetry_multiplicity
 _atom_site_fract_x
 _atom_site_fract_y
 _atom_site_fract_z
 _atom_site_occupancy
  Li  Li0  1  0.00000000  0.74873666  0.25000000  1
  Li  Li1  1  0.00000000  0.25126334  0.75000000  1
  Li  Li2  1  0.24109925  0.42777511  0.48411356  1
  Li  Li3  1  0.24109925  0.57222489  0.98411356  1
  Li  Li4  1  0.25890075  0.07222489  0.98411356  1
  Li  Li5  1  0.25890075  0.92777511  0.48411356  1
  Li  Li6  1  0.50000000  0.75126334  0.75000000  1
  Li  Li7  1  0.50000000  0.24873666  0.25000000  1
  Li  Li8  1  0.74109925  0.07222489  0.51588644  1
  Li  Li9  1  0.74109925  0.92777511  0.01588644  1
  Li  Li10  1  0.75890075  0.42777511  0.01588644  1
  Li  Li11  1  0.75890075  0.57222489  0.51588644  1
  Cu  Cu12  1  0.00000000  0.24462899  0.25000000  1
  Cu  Cu13  1  0.00000000  0.75537101  0.75000000  1
  Cu  Cu14  1  0.50000000  0.25537101  0.75000000  1
  Cu  Cu15  1  0.50000000  0.74462899  0.25000000  1
  S  S16  1  0.24751413  0.37169278  0.00444922  1
  S  S17  1  0.24751413  0.62830722  0.50444922  1
  S  S18  1  0.25248587  0.87169278  0.00444922  1
  S  S19  1  0.25248587  0.12830722  0.50444922  1
  S  S20  1  0.74751413  0.12830722  0.99555078  1
  S  S21  1  0.74751413  0.87169278  0.49555078  1
  S  S22  1  0.75248587  0.37169278  0.49555078  1
  S  S23  1  0.75248587  0.62830722  0.99555078  1
