# generated using pymatgen
data_Y(BiO2)3
_symmetry_space_group_name_H-M   'P 1'
_cell_length_a   7.01503010
_cell_length_b   7.01502994
_cell_length_c   7.01502927
_cell_angle_alpha   92.77862902
_cell_angle_beta   92.77863541
_cell_angle_gamma   92.77863456
_symmetry_Int_Tables_number   1
_chemical_formula_structural   Y(BiO2)3
_chemical_formula_sum   'Y2 Bi6 O12'
_cell_volume   343.95559682
_cell_formula_units_Z   2
loop_
 _symmetry_equiv_pos_site_id
 _symmetry_equiv_pos_as_xyz
  1  'x, y, z'
loop_
 _atom_site_type_symbol
 _atom_site_label
 _atom_site_symmetry_multiplicity
 _atom_site_fract_x
 _atom_site_fract_y
 _atom_site_fract_z
 _atom_site_occupancy
  Y  Y0  1  0.00000000  0.00000000  0.00000000  1
  Y  Y1  1  0.50000000  0.50000000  0.50000000  1
  Bi  Bi2  1  0.06850090  0.55279081  0.25075493  1
  Bi  Bi3  1  0.25075493  0.06850090  0.55279081  1
  Bi  Bi4  1  0.44720919  0.74924507  0.93149910  1
  Bi  Bi5  1  0.55279081  0.25075493  0.06850090  1
  Bi  Bi6  1  0.74924507  0.93149910  0.44720919  1
  Bi  Bi7  1  0.93149910  0.44720919  0.74924507  1
  O  O8  1  0.07363403  0.69099309  0.92527499  1
  O  O9  1  0.07472501  0.92636597  0.30900691  1
  O  O10  1  0.18771829  0.39987509  0.52578130  1
  O  O11  1  0.30900691  0.07472501  0.92636597  1
  O  O12  1  0.39987509  0.52578130  0.18771829  1
  O  O13  1  0.47421870  0.81228171  0.60012491  1
  O  O14  1  0.52578130  0.18771829  0.39987509  1
  O  O15  1  0.60012491  0.47421870  0.81228171  1
  O  O16  1  0.69099309  0.92527499  0.07363403  1
  O  O17  1  0.81228171  0.60012491  0.47421870  1
  O  O18  1  0.92527499  0.07363403  0.69099309  1
  O  O19  1  0.92636597  0.30900691  0.07472501  1
