# generated using pymatgen
data_Ce5Dy2O13
_symmetry_space_group_name_H-M   'P 1'
_cell_length_a   3.82512994
_cell_length_b   3.82512994
_cell_length_c   22.39034555
_cell_angle_alpha   94.90012798
_cell_angle_beta   90.00000000
_cell_angle_gamma   120.00000000
_symmetry_Int_Tables_number   1
_chemical_formula_structural   Ce5Dy2O13
_chemical_formula_sum   'Ce5 Dy2 O13'
_cell_volume   282.33254126
_cell_formula_units_Z   1
loop_
 _symmetry_equiv_pos_site_id
 _symmetry_equiv_pos_as_xyz
  1  'x, y, z'
loop_
 _atom_site_type_symbol
 _atom_site_label
 _atom_site_symmetry_multiplicity
 _atom_site_fract_x
 _atom_site_fract_y
 _atom_site_fract_z
 _atom_site_occupancy
  Ce  Ce0  1  0.42788842  0.85577785  0.28366627  1
  Ce  Ce1  1  0.14222601  0.28445102  0.42667703  1
  Ce  Ce2  1  0.85653569  0.71307038  0.56960606  1
  Ce  Ce3  1  0.57084570  0.14169141  0.71253611  1
  Ce  Ce4  1  0.28497398  0.56994897  0.85492295  1
  Dy  Dy5  1  0.99902685  0.99805470  0.99708155  1
  Dy  Dy6  1  0.71633150  0.43266400  0.14899550  1
  O  O7  1  0.39299075  0.78598049  0.17897124  1
  O  O8  1  0.03084552  0.06169105  0.09253757  1
  O  O9  1  0.10740250  0.21480500  0.32220851  1
  O  O10  1  0.75021600  0.50043099  0.25064699  1
  O  O11  1  0.46448662  0.92897324  0.39346087  1
  O  O12  1  0.17879559  0.35759018  0.53638577  1
  O  O13  1  0.82171934  0.64343867  0.46515901  1
  O  O14  1  0.53603290  0.07206680  0.60809970  1
  O  O15  1  0.89310734  0.78621369  0.67932103  1
  O  O16  1  0.25039516  0.50078932  0.75118448  1
  O  O17  1  0.32633385  0.65266769  0.97900154  1
  O  O18  1  0.60723747  0.21447595  0.82171342  1
  O  O19  1  0.96403680  0.92807460  0.89211140  1
