# generated using pymatgen
data_Sr2LiNb3O10
_symmetry_space_group_name_H-M   'P 1'
_cell_length_a   13.95709914
_cell_length_b   13.95711018
_cell_length_c   13.95815877
_cell_angle_alpha   163.54904588
_cell_angle_beta   163.54897576
_cell_angle_gamma   23.32494642
_symmetry_Int_Tables_number   1
_chemical_formula_structural   Sr2LiNb3O10
_chemical_formula_sum   'Sr2 Li1 Nb3 O10'
_cell_volume   218.02760729
_cell_formula_units_Z   1
loop_
 _symmetry_equiv_pos_site_id
 _symmetry_equiv_pos_as_xyz
  1  'x, y, z'
loop_
 _atom_site_type_symbol
 _atom_site_label
 _atom_site_symmetry_multiplicity
 _atom_site_fract_x
 _atom_site_fract_y
 _atom_site_fract_z
 _atom_site_occupancy
  Sr  Sr0  1  0.41364943  0.41928536  0.00000901  1
  Sr  Sr1  1  0.58070278  0.58634833  0.99998071  1
  Li  Li2  1  0.25004050  0.74996023  0.50000067  1
  Nb  Nb3  1  0.00587086  0.99412936  -0.00000163  1
  Nb  Nb4  1  0.16117232  0.16197048  0.99996621  1
  Nb  Nb5  1  0.83802912  0.83883378  0.00004128  1
  O  O6  1  0.07498247  0.07064132  0.99994621  1
  O  O7  1  0.64599215  0.14548718  0.49976966  1
  O  O8  1  0.22735899  0.22740358  -0.00000507  1
  O  O9  1  0.85450848  0.35401094  0.50022860  1
  O  O10  1  0.77259939  0.77264113  0.00000713  1
  O  O11  1  0.92935257  0.92502022  0.00004916  1
  O  O12  1  0.51617995  0.95582197  0.47225288  1
  O  O13  1  0.14843824  0.64795497  0.50022407  1
  O  O14  1  0.04418299  0.48382450  0.52775565  1
  O  O15  1  0.35204175  0.85156464  0.49977547  1
