# generated using pymatgen
data_Sb4O5F2
_symmetry_space_group_name_H-M   'P 1'
_cell_length_a   9.59508882
_cell_length_b   7.87975251
_cell_length_c   9.96745568
_cell_angle_alpha   90.00000000
_cell_angle_beta   90.00000000
_cell_angle_gamma   90.00000000
_symmetry_Int_Tables_number   1
_chemical_formula_structural   Sb4O5F2
_chemical_formula_sum   'Sb16 O20 F8'
_cell_volume   753.60867616
_cell_formula_units_Z   4
loop_
 _symmetry_equiv_pos_site_id
 _symmetry_equiv_pos_as_xyz
  1  'x, y, z'
loop_
 _atom_site_type_symbol
 _atom_site_label
 _atom_site_symmetry_multiplicity
 _atom_site_fract_x
 _atom_site_fract_y
 _atom_site_fract_z
 _atom_site_occupancy
  Sb  Sb0  1  0.02985478  0.75000000  0.44669176  1
  Sb  Sb1  1  0.04642018  0.25000000  0.02121762  1
  Sb  Sb2  1  0.22747556  0.97373828  0.81726554  1
  Sb  Sb3  1  0.22747556  0.52626172  0.81726554  1
  Sb  Sb4  1  0.27252444  0.02626172  0.31726554  1
  Sb  Sb5  1  0.27252444  0.47373828  0.31726554  1
  Sb  Sb6  1  0.45357982  0.75000000  0.52121762  1
  Sb  Sb7  1  0.47014522  0.25000000  0.94669176  1
  Sb  Sb8  1  0.52985478  0.75000000  0.05330824  1
  Sb  Sb9  1  0.54642018  0.25000000  0.47878238  1
  Sb  Sb10  1  0.72747556  0.52626172  0.68273446  1
  Sb  Sb11  1  0.72747556  0.97373828  0.68273446  1
  Sb  Sb12  1  0.77252444  0.02626172  0.18273446  1
  Sb  Sb13  1  0.77252444  0.47373828  0.18273446  1
  Sb  Sb14  1  0.95357982  0.75000000  0.97878238  1
  Sb  Sb15  1  0.97014522  0.25000000  0.55330824  1
  O  O16  1  0.04531163  0.06852959  0.87438603  1
  O  O17  1  0.04531163  0.43147041  0.87438603  1
  O  O18  1  0.16322424  0.55573865  0.47649078  1
  O  O19  1  0.16322424  0.94426135  0.47649078  1
  O  O20  1  0.16474649  0.75000000  0.93345853  1
  O  O21  1  0.33525351  0.25000000  0.43345853  1
  O  O22  1  0.33677576  0.05573865  0.97649078  1
  O  O23  1  0.33677576  0.44426135  0.97649078  1
  O  O24  1  0.45468837  0.56852959  0.37438603  1
  O  O25  1  0.45468837  0.93147041  0.37438603  1
  O  O26  1  0.54531163  0.06852959  0.62561397  1
  O  O27  1  0.54531163  0.43147041  0.62561397  1
  O  O28  1  0.66322424  0.55573865  0.02350922  1
  O  O29  1  0.66322424  0.94426135  0.02350922  1
  O  O30  1  0.66474649  0.75000000  0.56654147  1
  O  O31  1  0.83525351  0.25000000  0.06654147  1
  O  O32  1  0.83677576  0.05573865  0.52350922  1
  O  O33  1  0.83677576  0.44426135  0.52350922  1
  O  O34  1  0.95468837  0.56852959  0.12561397  1
  O  O35  1  0.95468837  0.93147041  0.12561397  1
  F  F36  1  0.00025889  0.25000000  0.35250615  1
  F  F37  1  0.21365710  0.75000000  0.25931485  1
  F  F38  1  0.28634290  0.25000000  0.75931485  1
  F  F39  1  0.49974111  0.75000000  0.85250615  1
  F  F40  1  0.50025889  0.25000000  0.14749385  1
  F  F41  1  0.71365710  0.75000000  0.24068515  1
  F  F42  1  0.78634290  0.25000000  0.74068515  1
  F  F43  1  -0.00025889  0.75000000  0.64749385  1
