# generated using pymatgen
data_Sb4O5F2
_symmetry_space_group_name_H-M   'P 1'
_cell_length_a   14.12911780
_cell_length_b   5.62215541
_cell_length_c   10.94087826
_cell_angle_alpha   90.00000000
_cell_angle_beta   98.14768008
_cell_angle_gamma   90.00000000
_symmetry_Int_Tables_number   1
_chemical_formula_structural   Sb4O5F2
_chemical_formula_sum   'Sb16 O20 F8'
_cell_volume   860.32800729
_cell_formula_units_Z   4
loop_
 _symmetry_equiv_pos_site_id
 _symmetry_equiv_pos_as_xyz
  1  'x, y, z'
loop_
 _atom_site_type_symbol
 _atom_site_label
 _atom_site_symmetry_multiplicity
 _atom_site_fract_x
 _atom_site_fract_y
 _atom_site_fract_z
 _atom_site_occupancy
  Sb  Sb0  1  0.03975866  0.63810049  0.39538218  1
  Sb  Sb1  1  0.09307963  0.67870187  0.73287801  1
  Sb  Sb2  1  0.17927418  0.27087831  0.20730440  1
  Sb  Sb3  1  0.22557464  0.17153024  0.58310757  1
  Sb  Sb4  1  0.29564376  0.23001701  0.90117288  1
  Sb  Sb5  1  0.30997389  0.76727722  0.35646152  1
  Sb  Sb6  1  0.37261286  0.68192701  0.69756645  1
  Sb  Sb7  1  0.42411971  0.72907502  0.06587655  1
  Sb  Sb8  1  0.57588029  0.22907502  0.93412345  1
  Sb  Sb9  1  0.62738714  0.18192701  0.30243355  1
  Sb  Sb10  1  0.69002611  0.26727722  0.64353848  1
  Sb  Sb11  1  0.70435624  0.73001701  0.09882712  1
  Sb  Sb12  1  0.77442536  0.67153024  0.41689243  1
  Sb  Sb13  1  0.82072582  0.77087831  0.79269560  1
  Sb  Sb14  1  0.90692037  0.17870187  0.26712199  1
  Sb  Sb15  1  0.96024134  0.13810049  0.60461782  1
  O  O16  1  0.04450002  0.31138424  0.30318775  1
  O  O17  1  0.10000572  0.99823104  0.60777307  1
  O  O18  1  0.07945037  0.49296691  0.57146058  1
  O  O19  1  0.20773356  0.00887184  0.32587821  1
  O  O20  1  0.20912631  0.52076546  0.33717182  1
  O  O21  1  0.28840004  0.01033073  0.74554705  1
  O  O22  1  0.26379856  0.46416019  0.73178153  1
  O  O23  1  0.29466228  0.81526927  0.53650216  1
  O  O24  1  0.41409448  0.02094147  0.96007370  1
  O  O25  1  0.39609404  0.49999561  0.92459330  1
  O  O26  1  0.60390596  -0.00000439  0.07540670  1
  O  O27  1  0.58590552  0.52094147  0.03992630  1
  O  O28  1  0.70533772  0.31526927  0.46349784  1
  O  O29  1  0.73620144  0.96416019  0.26821847  1
  O  O30  1  0.71159996  0.51033073  0.25445295  1
  O  O31  1  0.79087369  0.02076546  0.66282818  1
  O  O32  1  0.79226644  0.50887184  0.67412179  1
  O  O33  1  0.92054963  0.99296691  0.42853942  1
  O  O34  1  0.89999428  0.49823104  0.39222693  1
  O  O35  1  0.95549998  0.81138424  0.69681225  1
  F  F36  1  0.04291285  0.36141521  0.80215370  1
  F  F37  1  0.28103749  0.75301119  0.07970616  1
  F  F38  1  0.32395292  0.27976870  0.19075332  1
  F  F39  1  0.40462082  0.40769996  0.58157247  1
  F  F40  1  0.59537918  0.90769996  0.41842753  1
  F  F41  1  0.67604708  0.77976870  0.80924668  1
  F  F42  1  0.71896251  0.25301119  0.92029384  1
  F  F43  1  0.95708715  0.86141521  0.19784630  1
