# generated using pymatgen
data_Sn(PO3)4
_symmetry_space_group_name_H-M   'P 1'
_cell_length_a   7.14544030
_cell_length_b   8.61213324
_cell_length_c   8.73166672
_cell_angle_alpha   116.78711261
_cell_angle_beta   114.16035785
_cell_angle_gamma   65.47715974
_symmetry_Int_Tables_number   1
_chemical_formula_structural   Sn(PO3)4
_chemical_formula_sum   'Sn2 P8 O24'
_cell_volume   419.73983885
_cell_formula_units_Z   2
loop_
 _symmetry_equiv_pos_site_id
 _symmetry_equiv_pos_as_xyz
  1  'x, y, z'
loop_
 _atom_site_type_symbol
 _atom_site_label
 _atom_site_symmetry_multiplicity
 _atom_site_fract_x
 _atom_site_fract_y
 _atom_site_fract_z
 _atom_site_occupancy
  Sn  Sn0  1  0.19866699  0.25005906  0.25005216  1
  Sn  Sn1  1  0.80133301  0.74994094  0.74994784  1
  P  P2  1  0.00768537  0.09344564  0.80891744  1
  P  P3  1  0.41191661  0.14404771  0.88110429  1
  P  P4  1  0.29221299  0.40647786  0.69109452  1
  P  P5  1  0.32518112  0.64411905  0.38113857  1
  P  P6  1  0.67481888  0.35588095  0.61886143  1
  P  P7  1  0.70778701  0.59352214  0.30890548  1
  P  P8  1  0.58808339  0.85595229  0.11889571  1
  P  P9  1  0.99231463  0.90655436  0.19108256  1
  O  O10  1  0.21518401  0.05891525  0.75539890  1
  O  O11  1  0.33509933  0.32957451  0.84083440  1
  O  O12  1  0.99460212  0.91620161  0.78508545  1
  O  O13  1  0.12561696  0.58373977  0.71490903  1
  O  O14  1  0.25942327  0.25737331  0.50947851  1
  O  O15  1  0.60288339  0.02292076  0.80541960  1
  O  O16  1  0.17956933  0.52298212  0.30537721  1
  O  O17  1  0.51859843  0.44116275  0.74457867  1
  O  O18  1  0.99259460  0.75746443  0.00942579  1
  O  O19  1  0.17616290  0.82961244  0.34080055  1
  O  O20  1  0.44299402  0.69831531  0.57345610  1
  O  O21  1  0.56784704  0.80168566  0.92648081  1
  O  O22  1  0.43215296  0.19831434  0.07351919  1
  O  O23  1  0.55700598  0.30168469  0.42654390  1
  O  O24  1  0.82383710  0.17038756  0.65919945  1
  O  O25  1  0.00740540  0.24253557  0.99057421  1
  O  O26  1  0.48140157  0.55883725  0.25542133  1
  O  O27  1  0.82043067  0.47701788  0.69462279  1
  O  O28  1  0.39711661  0.97707924  0.19458040  1
  O  O29  1  0.74057673  0.74262669  0.49052149  1
  O  O30  1  0.87438304  0.41626023  0.28509097  1
  O  O31  1  0.00539788  0.08379839  0.21491455  1
  O  O32  1  0.66490067  0.67042549  0.15916560  1
  O  O33  1  0.78481599  0.94108475  0.24460110  1
