# generated using pymatgen
data_Li4Nb3TeO12
_symmetry_space_group_name_H-M   'P 1'
_cell_length_a   5.59024722
_cell_length_b   11.18572156
_cell_length_c   9.89155873
_cell_angle_alpha   27.91949509
_cell_angle_beta   50.56639671
_cell_angle_gamma   55.86304039
_symmetry_Int_Tables_number   1
_chemical_formula_structural   Li4Nb3TeO12
_chemical_formula_sum   'Li4 Nb3 Te1 O12'
_cell_volume   223.68654995
_cell_formula_units_Z   1
loop_
 _symmetry_equiv_pos_site_id
 _symmetry_equiv_pos_as_xyz
  1  'x, y, z'
loop_
 _atom_site_type_symbol
 _atom_site_label
 _atom_site_symmetry_multiplicity
 _atom_site_fract_x
 _atom_site_fract_y
 _atom_site_fract_z
 _atom_site_occupancy
  Li  Li0  1  0.25755574  0.50136587  0.24752554  1
  Li  Li1  1  0.74849253  0.49931079  0.75274171  1
  Li  Li2  1  0.74953364  0.00219406  0.74557426  1
  Li  Li3  1  0.24703911  0.99860497  0.25709977  1
  Nb  Nb4  1  0.45323413  0.50194636  0.47147743  1
  Nb  Nb5  1  0.97082381  0.50078621  0.97095828  1
  Nb  Nb6  1  0.47997027  0.99790745  0.46549825  1
  Te  Te7  1  0.96296044  0.99788850  0.96599746  1
  O  O8  1  0.34184569  0.80555575  0.07700182  1
  O  O9  1  0.58225665  0.68152943  0.83027697  1
  O  O10  1  0.19359986  0.62672166  0.58031691  1
  O  O11  1  0.33087790  0.30588053  0.08128601  1
  O  O12  1  0.08103314  0.82047878  0.69145120  1
  O  O13  1  0.68884720  0.86790604  0.34110053  1
  O  O14  1  0.57278663  0.17737898  0.83755634  1
  O  O15  1  0.83650793  0.68591490  0.20099470  1
  O  O16  1  0.19615724  0.13059711  0.57322119  1
  O  O17  1  0.07710344  0.32705929  0.68747586  1
  O  O18  1  0.69382499  0.37519888  0.33016096  1
  O  O19  1  0.83315166  0.19577543  0.18988482  1
