# generated using pymatgen
data_Zn(MoO2)2
_symmetry_space_group_name_H-M   'P 1'
_cell_length_a   6.45084642
_cell_length_b   6.45074433
_cell_length_c   18.60280092
_cell_angle_alpha   59.99852349
_cell_angle_beta   60.45072293
_cell_angle_gamma   58.59124056
_symmetry_Int_Tables_number   1
_chemical_formula_structural   Zn(MoO2)2
_chemical_formula_sum   'Zn6 Mo12 O24'
_cell_volume   543.09222180
_cell_formula_units_Z   6
loop_
 _symmetry_equiv_pos_site_id
 _symmetry_equiv_pos_as_xyz
  1  'x, y, z'
loop_
 _atom_site_type_symbol
 _atom_site_label
 _atom_site_symmetry_multiplicity
 _atom_site_fract_x
 _atom_site_fract_y
 _atom_site_fract_z
 _atom_site_occupancy
  Zn  Zn0  1  0.12408147  0.11966009  0.04558238  1
  Zn  Zn1  1  0.11189130  0.11822571  0.38005029  1
  Zn  Zn2  1  0.49719800  0.49732304  0.33583775  1
  Zn  Zn3  1  0.12633971  0.12871668  0.70845902  1
  Zn  Zn4  1  0.50114693  0.49859779  0.00384564  1
  Zn  Zn5  1  0.87282184  0.88014127  0.62197678  1
  Mo  Mo6  1  0.50085734  0.49264595  0.16787945  1
  Mo  Mo7  1  0.50352773  0.00184562  0.16517483  1
  Mo  Mo8  1  0.48745510  0.49799534  0.49939058  1
  Mo  Mo9  1  0.00550438  0.49566717  0.16630459  1
  Mo  Mo10  1  0.49017339  0.00590902  0.49776844  1
  Mo  Mo11  1  0.49924248  0.50474935  0.66616258  1
  Mo  Mo12  1  0.88699730  0.86671547  0.28750730  1
  Mo  Mo13  1  0.50727290  0.50305804  0.83468273  1
  Mo  Mo14  1  0.99508362  0.50066723  0.49789488  1
  Mo  Mo15  1  0.50714811  0.00281629  0.83356966  1
  Mo  Mo16  1  0.00530934  0.50307796  0.83402825  1
  Mo  Mo17  1  0.88592302  0.87442323  0.95551039  1
  O  O18  1  0.26511116  0.26501410  0.08118657  1
  O  O19  1  0.26460494  0.25710128  0.24268940  1
  O  O20  1  0.24678041  0.72648914  0.08881368  1
  O  O21  1  0.73151025  0.24490262  0.08836622  1
  O  O22  1  0.25040207  0.26603994  0.41436814  1
  O  O23  1  0.28344385  0.76172086  0.24120219  1
  O  O24  1  0.25370176  0.26095774  0.57523744  1
  O  O25  1  0.76771276  0.26981611  0.24320169  1
  O  O26  1  0.73121196  0.72870503  0.09207587  1
  O  O27  1  0.23611116  0.72745955  0.42010577  1
  O  O28  1  0.71918209  0.24573978  0.42134480  1
  O  O29  1  0.73039423  0.72516517  0.25412479  1
  O  O30  1  0.26442034  0.26548902  0.75015855  1
  O  O31  1  0.26675571  0.75170237  0.57928423  1
  O  O32  1  0.74287695  0.27539545  0.57973539  1
  O  O33  1  0.27031904  0.26395813  0.91008613  1
  O  O34  1  0.71839728  0.73396614  0.42459876  1
  O  O35  1  0.25246968  0.73160496  0.75540138  1
  O  O36  1  0.73132559  0.25358142  0.75505559  1
  O  O37  1  0.73334185  0.74092377  0.58257563  1
  O  O38  1  0.28388421  0.76693481  0.90906698  1
  O  O39  1  0.77271166  0.27547499  0.90972508  1
  O  O40  1  0.74162808  0.74153004  0.75777612  1
  O  O41  1  0.73373000  0.72809435  0.92219107  1
