# generated using pymatgen
data_Na7Cu7O13
_symmetry_space_group_name_H-M   'P 1'
_cell_length_a   7.68995333
_cell_length_b   6.80648050
_cell_length_c   6.76004783
_cell_angle_alpha   78.74932653
_cell_angle_beta   99.71917052
_cell_angle_gamma   80.74410765
_symmetry_Int_Tables_number   1
_chemical_formula_structural   Na7Cu7O13
_chemical_formula_sum   'Na7 Cu7 O13'
_cell_volume   335.10802060
_cell_formula_units_Z   1
loop_
 _symmetry_equiv_pos_site_id
 _symmetry_equiv_pos_as_xyz
  1  'x, y, z'
loop_
 _atom_site_type_symbol
 _atom_site_label
 _atom_site_symmetry_multiplicity
 _atom_site_fract_x
 _atom_site_fract_y
 _atom_site_fract_z
 _atom_site_occupancy
  Na  Na0  1  0.57316864  0.78532431  0.71350537  1
  Na  Na1  1  0.27509347  0.66367673  0.85175922  1
  Na  Na2  1  0.85427795  0.92838773  0.56849601  1
  Na  Na3  1  0.14028799  0.07103869  0.42890132  1
  Na  Na4  1  0.42603071  0.20968751  0.30102315  1
  Na  Na5  1  0.72635057  0.36056142  0.14578555  1
  Na  Na6  1  0.00090759  0.49921590  0.99879206  1
  Cu  Cu7  1  0.28502627  0.14292465  0.85343204  1
  Cu  Cu8  1  0.56955163  0.28322501  0.71078081  1
  Cu  Cu9  1  0.85676780  0.42640480  0.57437722  1
  Cu  Cu10  1  0.14540510  0.56864133  0.42995634  1
  Cu  Cu11  1  0.42941055  0.71189542  0.28505973  1
  Cu  Cu12  1  0.71323083  0.85692245  0.14061859  1
  Cu  Cu13  1  0.00009822  0.00422985  0.99873752  1
  O  O14  1  0.73952561  0.43476784  0.79459894  1
  O  O15  1  0.88126783  0.01046516  0.21648809  1
  O  O16  1  0.83024413  0.84988028  0.92442376  1
  O  O17  1  0.69102758  0.27941643  0.48439073  1
  O  O18  1  0.97416704  0.42173096  0.35450800  1
  O  O19  1  0.40086147  0.13896929  0.64452455  1
  O  O20  1  0.31588051  0.71917966  0.50614082  1
  O  O21  1  0.03009744  0.57632778  0.64976216  1
  O  O22  1  0.59603641  0.86788308  0.35788790  1
  O  O23  1  0.17461037  0.15228836  0.07895608  1
  O  O24  1  0.10513924  0.99061710  0.77665344  1
  O  O25  1  0.54370000  0.70131760  0.06505320  1
  O  O26  1  0.26186606  0.55834667  0.20879441  1
