# generated using pymatgen
data_PH6NO4
_symmetry_space_group_name_H-M   'P 1'
_cell_length_a   7.60154832
_cell_length_b   7.74885577
_cell_length_c   8.19307071
_cell_angle_alpha   90.00000000
_cell_angle_beta   90.00000000
_cell_angle_gamma   90.00000000
_symmetry_Int_Tables_number   1
_chemical_formula_structural   PH6NO4
_chemical_formula_sum   'P4 H24 N4 O16'
_cell_volume   482.59891474
_cell_formula_units_Z   4
loop_
 _symmetry_equiv_pos_site_id
 _symmetry_equiv_pos_as_xyz
  1  'x, y, z'
loop_
 _atom_site_type_symbol
 _atom_site_label
 _atom_site_symmetry_multiplicity
 _atom_site_fract_x
 _atom_site_fract_y
 _atom_site_fract_z
 _atom_site_occupancy
  P  P0  1  0.54613248  0.02765107  0.51763468  1
  P  P1  1  0.04613248  0.47234893  0.48236532  1
  P  P2  1  0.45386752  0.52765107  0.98236532  1
  P  P3  1  0.95386752  0.97234893  0.01763468  1
  H  H4  1  0.89822475  0.03051155  0.50403712  1
  H  H5  1  0.39822475  0.46948845  0.49596288  1
  H  H6  1  0.10177525  0.53051155  0.99596288  1
  H  H7  1  0.60177525  0.96948845  0.00403712  1
  H  H8  1  0.04120048  0.00027753  0.34210233  1
  H  H9  1  0.54120048  0.49972247  0.65789767  1
  H  H10  1  0.95879952  0.50027753  0.15789767  1
  H  H11  1  0.45879952  0.99972247  0.84210233  1
  H  H12  1  0.11040268  0.07973170  0.52393183  1
  H  H13  1  0.61040268  0.42026830  0.47606817  1
  H  H14  1  0.88959732  0.57973170  0.97606817  1
  H  H15  1  0.38959732  0.92026830  0.02393183  1
  H  H16  1  0.05353609  0.87050554  0.51465900  1
  H  H17  1  0.55353609  0.62949446  0.48534100  1
  H  H18  1  0.94646391  0.37050554  0.98534100  1
  H  H19  1  0.44646391  0.12949446  0.01465900  1
  H  H20  1  0.34152696  0.19161876  0.39955621  1
  H  H21  1  0.84152696  0.30838124  0.60044379  1
  H  H22  1  0.65847304  0.69161876  0.10044379  1
  H  H23  1  0.15847304  0.80838124  0.89955621  1
  H  H24  1  0.68672498  0.87009408  0.32776920  1
  H  H25  1  0.18672498  0.62990592  0.67223080  1
  H  H26  1  0.31327502  0.37009408  0.17223080  1
  H  H27  1  0.81327502  0.12990592  0.82776920  1
  N  N28  1  0.02524453  0.99304366  0.47183350  1
  N  N29  1  0.52524453  0.50695634  0.52816650  1
  N  N30  1  0.97475547  0.49304366  0.02816650  1
  N  N31  1  0.47475547  0.00695634  0.97183350  1
  O  O32  1  0.42709636  0.96841084  0.65214492  1
  O  O33  1  0.92709636  0.53158916  0.34785508  1
  O  O34  1  0.57290364  0.46841084  0.84785508  1
  O  O35  1  0.07290364  0.03158916  0.15214492  1
  O  O36  1  0.43841033  0.11037303  0.36928689  1
  O  O37  1  0.93841033  0.38962697  0.63071311  1
  O  O38  1  0.56158967  0.61037303  0.13071311  1
  O  O39  1  0.06158967  0.88962697  0.86928689  1
  O  O40  1  0.70157043  0.14297176  0.56557832  1
  O  O41  1  0.20157043  0.35702824  0.43442168  1
  O  O42  1  0.29842957  0.64297176  0.93442168  1
  O  O43  1  0.79842957  0.85702824  0.06557832  1
  O  O44  1  0.62543488  0.85540682  0.43234916  1
  O  O45  1  0.12543488  0.64459318  0.56765084  1
  O  O46  1  0.37456512  0.35540682  0.06765084  1
  O  O47  1  0.87456512  0.14459318  0.93234916  1
