# generated using pymatgen
data_Bi19(O9F)3
_symmetry_space_group_name_H-M   'P 1'
_cell_length_a   13.08402475
_cell_length_b   13.08399992
_cell_length_c   10.46398420
_cell_angle_alpha   89.99974248
_cell_angle_beta   90.00014800
_cell_angle_gamma   120.00043609
_symmetry_Int_Tables_number   1
_chemical_formula_structural   Bi19(O9F)3
_chemical_formula_sum   'Bi38 O54 F6'
_cell_volume   1551.34249271
_cell_formula_units_Z   2
loop_
 _symmetry_equiv_pos_site_id
 _symmetry_equiv_pos_as_xyz
  1  'x, y, z'
loop_
 _atom_site_type_symbol
 _atom_site_label
 _atom_site_symmetry_multiplicity
 _atom_site_fract_x
 _atom_site_fract_y
 _atom_site_fract_z
 _atom_site_occupancy
  Bi  Bi0  1  0.23711897  0.93753831  0.24597113  1
  Bi  Bi1  1  0.22151520  0.93703921  0.58371519  1
  Bi  Bi2  1  0.24095117  0.93838327  0.91709997  1
  Bi  Bi3  1  0.13435552  0.61175588  0.24870058  1
  Bi  Bi4  1  0.13383208  0.60619347  0.58292641  1
  Bi  Bi5  1  0.13309063  0.61390504  0.91663911  1
  Bi  Bi6  1  0.06246573  0.29958075  0.24596823  1
  Bi  Bi7  1  0.06296027  0.28447423  0.58371053  1
  Bi  Bi8  1  0.06162338  0.30256778  0.91709705  1
  Bi  Bi9  1  0.00000216  0.00000085  0.34801417  1
  Bi  Bi10  1  0.00000142  0.00000045  0.84800838  1
  Bi  Bi11  1  0.48081438  0.86691316  0.91664188  1
  Bi  Bi12  1  0.47236276  0.86616710  0.58292007  1
  Bi  Bi13  1  0.47740184  0.86564309  0.24871451  1
  Bi  Bi14  1  0.39380720  0.52763726  0.58291514  1
  Bi  Bi15  1  0.38609708  0.51918240  0.91663740  1
  Bi  Bi16  1  0.38824667  0.52260213  0.24870935  1
  Bi  Bi17  1  0.30256835  0.24094315  0.41709589  1
  Bi  Bi18  1  0.28447444  0.22151506  0.08370605  1
  Bi  Bi19  1  0.29957963  0.23711617  0.74596507  1
  Bi  Bi20  1  0.69743412  0.75905250  0.91709626  1
  Bi  Bi21  1  0.70042045  0.76288124  0.24596718  1
  Bi  Bi22  1  0.71552622  0.77848322  0.58370807  1
  Bi  Bi23  1  0.61175639  0.47739880  0.74870964  1
  Bi  Bi24  1  0.61390379  0.48080994  0.41664301  1
  Bi  Bi25  1  0.60619367  0.47236166  0.08293025  1
  Bi  Bi26  1  0.51918918  0.13308968  0.41663927  1
  Bi  Bi27  1  0.52764111  0.13383171  0.08292074  1
  Bi  Bi28  1  0.52260394  0.13435798  0.74870777  1
  Bi  Bi29  1  0.93753474  0.70042047  0.74596947  1
  Bi  Bi30  1  0.93704094  0.71553214  0.08370821  1
  Bi  Bi31  1  0.93838796  0.69743428  0.41709643  1
  Bi  Bi32  1  0.86564301  0.38824253  0.74871186  1
  Bi  Bi33  1  0.86691621  0.38609806  0.41663835  1
  Bi  Bi34  1  0.86616768  0.39380683  0.08291537  1
  Bi  Bi35  1  0.76288473  0.06246092  0.74596696  1
  Bi  Bi36  1  0.75905551  0.06162041  0.41709763  1
  Bi  Bi37  1  0.77848706  0.06295668  0.08370771  1
  O  O38  1  0.01429640  0.83589745  0.25406748  1
  O  O39  1  0.01350405  0.82096338  0.57910112  1
  O  O40  1  0.01580621  0.82941790  0.91284035  1
  O  O41  1  0.12280632  0.72325827  0.74761412  1
  O  O42  1  0.12482441  0.72849495  0.08434746  1
  O  O43  1  0.12359584  0.72289410  0.41268582  1
  O  O44  1  0.05637287  0.45522173  0.07964852  1
  O  O45  1  0.05739247  0.45887471  0.74810895  1
  O  O46  1  0.05826389  0.45653492  0.41612603  1
  O  O47  1  0.39827367  0.94173369  0.41612565  1
  O  O48  1  0.39884992  0.94362655  0.07964631  1
  O  O49  1  0.40147912  0.94260847  0.74811500  1
  O  O50  1  0.27710644  0.40069808  0.41268565  1
  O  O51  1  0.27150569  0.39632928  0.08434189  1
  O  O52  1  0.27673976  0.39954917  0.74761718  1
  O  O53  1  0.17903595  0.19254040  0.57909608  1
  O  O54  1  0.16410688  0.17839803  0.25406781  1
  O  O55  1  0.17058726  0.18639046  0.91284165  1
  O  O56  1  0.60044834  0.87719063  0.74761571  1
  O  O57  1  0.60366874  0.87517354  0.08434224  1
  O  O58  1  0.59930182  0.87640949  0.41269494  1
  O  O59  1  0.17840162  0.01429215  0.75406696  1
  O  O60  1  0.19254216  0.01350488  0.07910039  1
  O  O61  1  0.18639091  0.01580691  0.41284666  1
  O  O62  1  0.54112774  0.59851971  0.74810805  1
  O  O63  1  0.54346464  0.60172864  0.41612628  1
  O  O64  1  0.54478086  0.60115307  0.07964748  1
  O  O65  1  0.45522104  0.39884745  0.57964534  1
  O  O66  1  0.45653443  0.39826969  0.91613070  1
  O  O67  1  0.45887195  0.40148019  0.24811292  1
  O  O68  1  0.82160183  0.98570833  0.25406543  1
  O  O69  1  0.80746158  0.98649593  0.57910071  1
  O  O70  1  0.81361348  0.98419295  0.91284141  1
  O  O71  1  0.39633103  0.12482306  0.58434335  1
  O  O72  1  0.39955436  0.12280979  0.24761542  1
  O  O73  1  0.40070593  0.12359810  0.91268909  1
  O  O74  1  0.83589377  0.82160201  0.75406667  1
  O  O75  1  0.82096630  0.80746122  0.07909713  1
  O  O76  1  0.82941404  0.81360880  0.41284399  1
  O  O77  1  0.72325704  0.60044770  0.24761186  1
  O  O78  1  0.72289649  0.59930170  0.91268618  1
  O  O79  1  0.72849138  0.60366693  0.58434966  1
  O  O80  1  0.60172997  0.05826347  0.91612478  1
  O  O81  1  0.59852637  0.05739372  0.24811156  1
  O  O82  1  0.60115461  0.05637416  0.57964587  1
  O  O83  1  0.94173050  0.54345835  0.91613277  1
  O  O84  1  0.94362526  0.54477509  0.57963799  1
  O  O85  1  0.94260679  0.54112724  0.24811416  1
  O  O86  1  0.87641155  0.27711115  0.91268768  1
  O  O87  1  0.87719355  0.27674307  0.24761672  1
  O  O88  1  0.87517756  0.27150841  0.58434540  1
  O  O89  1  0.98571251  0.16410992  0.75406721  1
  O  O90  1  0.98649745  0.17903663  0.07909895  1
  O  O91  1  0.98419564  0.17058418  0.41284337  1
  F  F92  1  0.33338197  0.66668592  0.41308320  1
  F  F93  1  0.33329735  0.66666167  0.07943993  1
  F  F94  1  0.33328766  0.66665289  0.74809158  1
  F  F95  1  0.66662500  0.33333950  0.24809661  1
  F  F96  1  0.66669609  0.33331474  0.91308219  1
  F  F97  1  0.66663496  0.33333865  0.57944107  1
