# generated using pymatgen
data_Li3Nb4ZnO12
_symmetry_space_group_name_H-M   'P 1'
_cell_length_a   5.60835246
_cell_length_b   11.21870360
_cell_length_c   9.91945316
_cell_angle_alpha   27.86170367
_cell_angle_beta   50.43589482
_cell_angle_gamma   55.68008326
_symmetry_Int_Tables_number   1
_chemical_formula_structural   Li3Nb4ZnO12
_chemical_formula_sum   'Li3 Nb4 Zn1 O12'
_cell_volume   224.85468524
_cell_formula_units_Z   1
loop_
 _symmetry_equiv_pos_site_id
 _symmetry_equiv_pos_as_xyz
  1  'x, y, z'
loop_
 _atom_site_type_symbol
 _atom_site_label
 _atom_site_symmetry_multiplicity
 _atom_site_fract_x
 _atom_site_fract_y
 _atom_site_fract_z
 _atom_site_occupancy
  Li  Li0  1  0.27697211  0.50009553  0.27974277  1
  Li  Li1  1  0.77841118  0.50118445  0.77641938  1
  Li  Li2  1  0.77991841  0.99960908  0.78076030  1
  Nb  Nb3  1  0.50446495  0.50252005  0.48634372  1
  Nb  Nb4  1  0.98190958  0.49887697  0.99935877  1
  Nb  Nb5  1  0.48486407  0.99872342  0.49707618  1
  Nb  Nb6  1  0.00785348  0.00491246  0.98560504  1
  Zn  Zn7  1  0.28000750  0.99833919  0.27654243  1
  O  O8  1  0.11310122  0.81676715  0.72676385  1
  O  O9  1  0.22642967  0.63183169  0.60424362  1
  O  O10  1  0.61452781  0.68154091  0.86128165  1
  O  O11  1  0.72176008  0.87796620  0.35830719  1
  O  O12  1  0.36044841  0.80479926  0.11430346  1
  O  O13  1  0.11007229  0.31980503  0.72323516  1
  O  O14  1  0.85914621  0.69345074  0.22509819  1
  O  O15  1  0.22367403  0.12573495  0.61220978  1
  O  O16  1  0.60061254  0.17643514  0.87017957  1
  O  O17  1  0.72410212  0.37446389  0.36356260  1
  O  O18  1  0.36024892  0.30423441  0.11442490  1
  O  O19  1  0.87202244  0.18871049  0.22508945  1
