# generated using pymatgen
data_BaLaI5
_symmetry_space_group_name_H-M   'P 1'
_cell_length_a   6.46101555
_cell_length_b   11.68581014
_cell_length_c   8.01315430
_cell_angle_alpha   88.76324382
_cell_angle_beta   93.92154234
_cell_angle_gamma   106.29176861
_symmetry_Int_Tables_number   1
_chemical_formula_structural   BaLaI5
_chemical_formula_sum   'Ba2 La2 I10'
_cell_volume   579.35545644
_cell_formula_units_Z   2
loop_
 _symmetry_equiv_pos_site_id
 _symmetry_equiv_pos_as_xyz
  1  'x, y, z'
loop_
 _atom_site_type_symbol
 _atom_site_label
 _atom_site_symmetry_multiplicity
 _atom_site_fract_x
 _atom_site_fract_y
 _atom_site_fract_z
 _atom_site_occupancy
  Ba  Ba0  1  0.32209609  0.65137509  0.24641547  1
  Ba  Ba1  1  0.68008011  0.34756192  0.74486470  1
  La  La2  1  0.07814335  0.15637147  0.25134331  1
  La  La3  1  0.92153964  0.84302396  0.75248276  1
  I  I4  1  0.21133032  0.92974294  0.10489761  1
  I  I5  1  0.19926837  0.38388332  0.99400023  1
  I  I6  1  0.36841685  0.73927403  0.75655749  1
  I  I7  1  0.19140696  0.38541856  0.50670209  1
  I  I8  1  0.28290084  0.06999345  0.60313764  1
  I  I9  1  0.71591186  0.93043586  0.40208585  1
  I  I10  1  0.81086766  0.61697398  0.49253315  1
  I  I11  1  0.63343583  0.26062991  0.25305691  1
  I  I12  1  0.80278936  0.61193741  0.00473978  1
  I  I13  1  0.78876576  0.06992808  0.89878102  1
