# generated using pymatgen
data_Li3V3P8O29
_symmetry_space_group_name_H-M   'P 1'
_cell_length_a   9.77418409
_cell_length_b   9.70765637
_cell_length_c   14.32604713
_cell_angle_alpha   89.60826196
_cell_angle_beta   90.56806296
_cell_angle_gamma   60.04696470
_symmetry_Int_Tables_number   1
_chemical_formula_structural   Li3V3P8O29
_chemical_formula_sum   'Li6 V6 P16 O58'
_cell_volume   1177.59433738
_cell_formula_units_Z   2
loop_
 _symmetry_equiv_pos_site_id
 _symmetry_equiv_pos_as_xyz
  1  'x, y, z'
loop_
 _atom_site_type_symbol
 _atom_site_label
 _atom_site_symmetry_multiplicity
 _atom_site_fract_x
 _atom_site_fract_y
 _atom_site_fract_z
 _atom_site_occupancy
  Li  Li0  1  0.32643471  0.90484420  0.05585264  1
  Li  Li1  1  0.32392809  0.76318282  0.56168059  1
  Li  Li2  1  0.67074851  0.09609812  0.94141838  1
  Li  Li3  1  0.22688164  0.09871150  0.44845433  1
  Li  Li4  1  0.00418614  0.99567412  0.00031820  1
  Li  Li5  1  0.92472501  0.01139895  0.50610425  1
  V  V6  1  0.56732888  0.43602943  0.25315726  1
  V  V7  1  0.43742644  0.55722578  0.75227640  1
  V  V8  1  0.56993151  0.99553266  0.74614166  1
  V  V9  1  0.43813445  0.00178228  0.25037345  1
  V  V10  1  0.00164411  0.56074374  0.24544642  1
  V  V11  1  0.99860651  0.44134501  0.75199000  1
  P  P12  1  0.92017561  0.78278744  0.84330588  1
  P  P13  1  0.78405939  0.90798487  0.33568581  1
  P  P14  1  0.92031862  0.30145625  0.33826560  1
  P  P15  1  0.66205844  0.66908848  0.13397764  1
  P  P16  1  0.66291749  0.66571844  0.63219126  1
  P  P17  1  0.78415543  0.30279549  0.83866515  1
  P  P18  1  0.69447023  0.22332927  0.65611842  1
  P  P19  1  0.31797008  0.90750386  0.84079095  1
  P  P20  1  0.68647237  0.09203463  0.15737973  1
  P  P21  1  0.31552106  0.77469403  0.34631562  1
  P  P22  1  0.21956210  0.69737102  0.16522328  1
  P  P23  1  0.33271498  0.33322703  0.36596189  1
  P  P24  1  0.33766708  0.32570428  0.86729763  1
  P  P25  1  0.08155883  0.70024222  0.65840183  1
  P  P26  1  0.22250085  0.09352052  0.66319181  1
  P  P27  1  0.08325330  0.21742573  0.15428503  1
  O  O28  1  0.00571527  0.79969664  0.57422018  1
  O  O29  1  0.91667799  0.73289004  0.32869810  1
  O  O30  1  0.75862232  0.02608154  0.06585505  1
  O  O31  1  0.74202261  0.91597622  0.83465097  1
  O  O32  1  0.92686508  0.61930670  0.83077502  1
  O  O33  1  0.81075318  0.66749878  0.17621799  1
  O  O34  1  0.92509249  0.45778651  0.32539267  1
  O  O35  1  0.01399772  0.18867703  0.06960316  1
  O  O36  1  0.91560528  0.34726874  0.83429411  1
  O  O37  1  0.66192745  0.81620577  0.67808109  1
  O  O38  1  0.62092072  0.91537112  0.32386316  1
  O  O39  1  0.81029187  0.52360561  0.68130236  1
  O  O40  1  0.64439083  0.67995638  0.03086150  1
  O  O41  1  0.65919930  0.67442900  0.52893982  1
  O  O42  1  0.66446865  0.52112478  0.18049775  1
  O  O43  1  0.47201454  0.91147484  0.82622298  1
  O  O44  1  0.51231036  0.81801505  0.17780766  1
  O  O45  1  0.74471865  0.34291842  0.33369583  1
  O  O46  1  0.80489007  0.20318898  0.74527456  1
  O  O47  1  0.78414072  0.20145764  0.56993299  1
  O  O48  1  0.79588942  0.20142994  0.92015603  1
  O  O49  1  0.62118203  0.45922515  0.82689769  1
  O  O50  1  0.51215887  0.66984555  0.67215781  1
  O  O51  1  0.65291358  0.26388592  0.17130429  1
  O  O52  1  0.47204901  0.61798137  0.32907380  1
  O  O53  1  0.34363118  0.91926754  0.33594814  1
  O  O54  1  0.80336798  0.98984567  0.24130688  1
  O  O55  1  0.79352616  0.99169178  0.41853494  1
  O  O56  1  0.22673548  0.00689437  0.57573647  1
  O  O57  1  0.65216511  0.08902626  0.67082837  1
  O  O58  1  0.53973192  0.38363459  0.66917053  1
  O  O59  1  0.35170566  0.73421618  0.82795669  1
  O  O60  1  0.47824987  0.33609294  0.32351565  1
  O  O61  1  0.38120233  0.54245420  0.17466146  1
  O  O62  1  0.20296593  0.80472985  0.08567154  1
  O  O63  1  0.24265532  0.78210452  0.43798383  1
  O  O64  1  0.19776541  0.79329799  0.26202644  1
  O  O65  1  0.25988990  0.65410603  0.66474861  1
  O  O66  1  0.48949692  0.17839536  0.82930956  1
  O  O67  1  0.52952907  0.09070664  0.17483613  1
  O  O68  1  0.33902723  0.47346005  0.81842323  1
  O  O69  1  0.34062945  0.33084787  0.97053729  1
  O  O70  1  0.32703821  0.32589406  0.46913737  1
  O  O71  1  0.18707537  0.47706351  0.31660533  1
  O  O72  1  0.37995178  0.09456472  0.67723455  1
  O  O73  1  0.33076247  0.18282521  0.32365868  1
  O  O74  1  0.08529338  0.65603245  0.16620842  1
  O  O75  1  0.00194094  0.80262100  0.75075691  1
  O  O76  1  0.99267459  0.80834489  0.92763654  1
  O  O77  1  0.07280596  0.54517693  0.67189766  1
  O  O78  1  0.18923072  0.33148200  0.82033792  1
  O  O79  1  0.07446445  0.38134087  0.16626871  1
  O  O80  1  0.26185803  0.08405765  0.16469865  1
  O  O81  1  0.23744586  0.97341902  0.93052932  1
  O  O82  1  0.20320605  0.00304462  0.75274350  1
  O  O83  1  0.08216808  0.26444674  0.66712770  1
  O  O84  1  0.00637734  0.20272817  0.42171223  1
  O  O85  1  0.99952592  0.19791444  0.24620308  1
