# generated using pymatgen
data_Li3Mn(CoO3)2
_symmetry_space_group_name_H-M   'P 1'
_cell_length_a   6.43560888
_cell_length_b   2.91302332
_cell_length_c   5.86733308
_cell_angle_alpha   89.99999196
_cell_angle_beta   104.41384754
_cell_angle_gamma   76.91944756
_symmetry_Int_Tables_number   1
_chemical_formula_structural   Li3Mn(CoO3)2
_chemical_formula_sum   'Li3 Mn1 Co2 O6'
_cell_volume   103.58361255
_cell_formula_units_Z   1
loop_
 _symmetry_equiv_pos_site_id
 _symmetry_equiv_pos_as_xyz
  1  'x, y, z'
loop_
 _atom_site_type_symbol
 _atom_site_label
 _atom_site_symmetry_multiplicity
 _atom_site_fract_x
 _atom_site_fract_y
 _atom_site_fract_z
 _atom_site_occupancy
  Li  Li0  1  0.99733034  0.00133483  0.50716492  1
  Li  Li1  1  0.33333300  0.33333300  0.83333300  1
  Li  Li2  1  0.66933566  0.66533217  0.15950108  1
  Mn  Mn3  1  0.33333300  0.33333300  0.33333300  1
  Co  Co4  1  0.00129837  0.99935132  0.99555563  1
  Co  Co5  1  0.66536863  0.66731568  0.67111137  1
  O  O6  1  0.01140069  0.49429965  0.22767684  1
  O  O7  1  0.34369829  0.82815135  0.58609779  1
  O  O8  1  0.68366383  0.15816808  0.89606339  1
  O  O9  1  0.32296871  0.83851565  0.08056921  1
  O  O10  1  0.65526631  0.17236635  0.43899016  1
  O  O11  1  0.98300217  0.50849892  0.77060361  1
