# generated using pymatgen
data_Li4Cu3Ni(PO4)4
_symmetry_space_group_name_H-M   'P 1'
_cell_length_a   4.73731958
_cell_length_b   9.96623392
_cell_length_c   6.07298775
_cell_angle_alpha   90.00000000
_cell_angle_beta   90.00000000
_cell_angle_gamma   89.07856601
_symmetry_Int_Tables_number   1
_chemical_formula_structural   Li4Cu3Ni(PO4)4
_chemical_formula_sum   'Li4 Cu3 Ni1 P4 O16'
_cell_volume   286.68832055
_cell_formula_units_Z   1
loop_
 _symmetry_equiv_pos_site_id
 _symmetry_equiv_pos_as_xyz
  1  'x, y, z'
loop_
 _atom_site_type_symbol
 _atom_site_label
 _atom_site_symmetry_multiplicity
 _atom_site_fract_x
 _atom_site_fract_y
 _atom_site_fract_z
 _atom_site_occupancy
  Li  Li0  1  0.99750195  0.99773927  0.99992212  1
  Li  Li1  1  0.99750195  0.99773927  0.50007788  1
  Li  Li2  1  0.50078991  0.50037233  0.49739283  1
  Li  Li3  1  0.50078991  0.50037233  0.00260717  1
  Cu  Cu4  1  0.04968658  0.71320481  0.75000000  1
  Cu  Cu5  1  0.44991764  0.21688127  0.75000000  1
  Cu  Cu6  1  0.54773362  0.78456766  0.25000000  1
  Ni  Ni7  1  0.97885785  0.27796646  0.25000000  1
  P  P8  1  0.08161681  0.59628474  0.25000000  1
  P  P9  1  0.42021568  0.09423438  0.25000000  1
  P  P10  1  0.57604138  0.90490199  0.75000000  1
  P  P11  1  0.91866318  0.40325482  0.75000000  1
  O  O12  1  0.19867307  0.44983310  0.25000000  1
  O  O13  1  0.21804217  0.66522441  0.04615230  1
  O  O14  1  0.21804217  0.66522441  0.45384770  1
  O  O15  1  0.24615731  0.39461414  0.75000000  1
  O  O16  1  0.25114118  0.89748658  0.75000000  1
  O  O17  1  0.27336084  0.16525188  0.04899281  1
  O  O18  1  0.27336084  0.16525188  0.45100719  1
  O  O19  1  0.30772713  0.94790698  0.25000000  1
  O  O20  1  0.68235938  0.05333434  0.75000000  1
  O  O21  1  0.71796465  0.83792117  0.54569277  1
  O  O22  1  0.71796465  0.83792117  0.95430723  1
  O  O23  1  0.74248597  0.09984417  0.25000000  1
  O  O24  1  0.75541406  0.60466808  0.25000000  1
  O  O25  1  0.78340407  0.33775567  0.54338049  1
  O  O26  1  0.78340407  0.33775567  0.95661951  1
  O  O27  1  0.81118399  0.55248702  0.75000000  1
