# generated using pymatgen
data_LiCu3F10
_symmetry_space_group_name_H-M   'P 1'
_cell_length_a   6.96987372
_cell_length_b   7.12038448
_cell_length_c   7.34623289
_cell_angle_alpha   89.95350412
_cell_angle_beta   90.00009230
_cell_angle_gamma   89.99999226
_symmetry_Int_Tables_number   1
_chemical_formula_structural   LiCu3F10
_chemical_formula_sum   'Li2 Cu6 F20'
_cell_volume   364.58005305
_cell_formula_units_Z   2
loop_
 _symmetry_equiv_pos_site_id
 _symmetry_equiv_pos_as_xyz
  1  'x, y, z'
loop_
 _atom_site_type_symbol
 _atom_site_label
 _atom_site_symmetry_multiplicity
 _atom_site_fract_x
 _atom_site_fract_y
 _atom_site_fract_z
 _atom_site_occupancy
  Li  Li0  1  0.49996550  0.17814119  0.24984103  1
  Li  Li1  1  0.49996551  0.82185861  0.75015888  1
  Cu  Cu2  1  0.99830068  -0.00000062  0.49999830  1
  Cu  Cu3  1  0.26800987  0.50000070  0.49999934  1
  Cu  Cu4  1  0.26800812  0.49999881  0.99999790  1
  Cu  Cu5  1  0.73240717  0.50000098  0.50000256  1
  Cu  Cu6  1  0.73252179  0.50000113  0.00000128  1
  Cu  Cu7  1  0.00152863  0.00000166  0.00000021  1
  F  F8  1  0.99997849  0.07254711  0.74979425  1
  F  F9  1  0.99997842  0.92745251  0.25020584  1
  F  F10  1  0.99951897  0.50000001  0.50000001  1
  F  F11  1  0.18984798  0.17186347  0.45372457  1
  F  F12  1  0.18984814  0.82813650  0.54627567  1
  F  F13  1  0.19262663  0.17178952  0.04650519  1
  F  F14  1  0.19262657  0.82821046  0.95349484  1
  F  F15  1  0.27408916  0.55781121  0.24983650  1
  F  F16  1  0.27408907  0.44218847  0.75016310  1
  F  F17  1  0.49923271  0.33383575  0.45909951  1
  F  F18  1  0.49923233  0.66616389  0.54090076  1
  F  F19  1  0.50064010  0.33354859  0.04109032  1
  F  F20  1  0.50064040  0.66645104  0.95890964  1
  F  F21  1  0.72588173  0.44234483  0.74925059  1
  F  F22  1  0.72588178  0.55765480  0.25074966  1
  F  F23  1  0.80736239  0.17188491  0.45349543  1
  F  F24  1  0.80736280  0.82811476  0.54650468  1
  F  F25  1  0.81026071  0.17179845  0.04622446  1
  F  F26  1  0.81026098  0.82820136  0.95377544  1
  F  F27  1  0.99993336  0.49999991  0.00000004  1
