# generated using pymatgen
data_Li2Cu(PO3)4
_symmetry_space_group_name_H-M   'P 1'
_cell_length_a   7.90803628
_cell_length_b   7.90803628
_cell_length_c   8.26614054
_cell_angle_alpha   84.36345576
_cell_angle_beta   95.63654424
_cell_angle_gamma   77.20518355
_symmetry_Int_Tables_number   1
_chemical_formula_structural   Li2Cu(PO3)4
_chemical_formula_sum   'Li4 Cu2 P8 O24'
_cell_volume   497.81858942
_cell_formula_units_Z   2
loop_
 _symmetry_equiv_pos_site_id
 _symmetry_equiv_pos_as_xyz
  1  'x, y, z'
loop_
 _atom_site_type_symbol
 _atom_site_label
 _atom_site_symmetry_multiplicity
 _atom_site_fract_x
 _atom_site_fract_y
 _atom_site_fract_z
 _atom_site_occupancy
  Li  Li0  1  0.54873124  0.82163048  0.94865572  1
  Li  Li1  1  0.17836952  0.45126876  0.44865572  1
  Li  Li2  1  0.83475302  0.52266024  0.54270156  1
  Li  Li3  1  0.47733976  0.16524698  0.04270156  1
  Cu  Cu4  1  0.18334961  0.10530473  0.74652411  1
  Cu  Cu5  1  0.89469527  0.81665039  0.24652411  1
  P  P6  1  0.07407635  0.75877460  0.68847600  1
  P  P7  1  0.24122540  0.92592365  0.18847600  1
  P  P8  1  0.18214436  0.44416536  0.92168108  1
  P  P9  1  0.55583464  0.81785564  0.42168108  1
  P  P10  1  0.50729815  0.14776849  0.58246884  1
  P  P11  1  0.85223151  0.49270185  0.08246884  1
  P  P12  1  0.82330328  0.02966027  0.81954435  1
  P  P13  1  0.97033973  0.17669672  0.31954435  1
  O  O14  1  0.16819393  0.89826362  0.64153508  1
  O  O15  1  0.03272209  0.64525984  0.56071233  1
  O  O16  1  0.10173638  0.83180607  0.14153508  1
  O  O17  1  0.35474016  0.96727791  0.06071233  1
  O  O18  1  0.18775544  0.64097090  0.85008564  1
  O  O19  1  0.35902910  0.81224456  0.35008564  1
  O  O20  1  0.71346369  0.00102028  0.95399075  1
  O  O21  1  0.21007020  0.33684348  0.78050817  1
  O  O22  1  0.99897972  0.28653631  0.45399075  1
  O  O23  1  0.61407405  0.69495382  0.57588756  1
  O  O24  1  0.66315652  0.78992980  0.28050817  1
  O  O25  1  0.30504618  0.38592595  0.07588756  1
  O  O26  1  0.89253992  0.84274396  0.75509358  1
  O  O27  1  0.67332128  0.57656497  0.00035629  1
  O  O28  1  0.15725604  0.10746008  0.25509358  1
  O  O29  1  0.42343503  0.32667872  0.50035629  1
  O  O30  1  0.43016285  0.05652889  0.71793518  1
  O  O31  1  0.97822709  0.46476244  0.94119297  1
  O  O32  1  0.94347111  0.56983715  0.21793518  1
  O  O33  1  0.53523756  0.02177291  0.44119297  1
  O  O34  1  0.70480588  0.14519755  0.65858965  1
  O  O35  1  0.85480245  0.29519412  0.15858965  1
  O  O36  1  0.97219405  0.11677657  0.85344615  1
  O  O37  1  0.88322343  0.02780595  0.35344615  1
