# generated using pymatgen
data_Li2Cu2F5
_symmetry_space_group_name_H-M   'P 1'
_cell_length_a   10.79823996
_cell_length_b   12.20815087
_cell_length_c   3.03509237
_cell_angle_alpha   89.99309056
_cell_angle_beta   89.98665423
_cell_angle_gamma   89.99877845
_symmetry_Int_Tables_number   1
_chemical_formula_structural   Li2Cu2F5
_chemical_formula_sum   'Li8 Cu8 F20'
_cell_volume   400.10571936
_cell_formula_units_Z   4
loop_
 _symmetry_equiv_pos_site_id
 _symmetry_equiv_pos_as_xyz
  1  'x, y, z'
loop_
 _atom_site_type_symbol
 _atom_site_label
 _atom_site_symmetry_multiplicity
 _atom_site_fract_x
 _atom_site_fract_y
 _atom_site_fract_z
 _atom_site_occupancy
  Li  Li0  1  0.03505852  0.34208405  0.22135046  1
  Li  Li1  1  0.21604172  0.99032749  0.21890801  1
  Li  Li2  1  0.28392357  0.49033033  0.71890114  1
  Li  Li3  1  0.46492011  0.84209107  0.72135001  1
  Li  Li4  1  0.53508225  0.34210605  0.27866055  1
  Li  Li5  1  0.71610000  0.99033911  0.28112441  1
  Li  Li6  1  0.78392764  0.49032499  0.78111645  1
  Li  Li7  1  0.96492681  0.84211603  0.77865655  1
  Cu  Cu8  1  0.00372800  0.60501586  0.29638222  1
  Cu  Cu9  1  0.24422985  0.72701470  0.18571767  1
  Cu  Cu10  1  0.25575936  0.22699400  0.68566176  1
  Cu  Cu11  1  0.49627350  0.10501300  0.79641881  1
  Cu  Cu12  1  0.50374487  0.60499529  0.20365314  1
  Cu  Cu13  1  0.74422584  0.72700944  0.31422632  1
  Cu  Cu14  1  0.75579312  0.22702196  0.81426771  1
  Cu  Cu15  1  0.99625611  0.10497558  0.70371944  1
  F  F16  1  0.06234644  0.76142493  0.28469380  1
  F  F17  1  0.08261498  0.96576073  0.73916738  1
  F  F18  1  0.12559448  0.16595535  0.23494068  1
  F  F19  1  0.16803547  0.36580563  0.71340177  1
  F  F20  1  0.18641101  0.57020119  0.20591500  1
  F  F21  1  0.31358953  0.07022366  0.70589494  1
  F  F22  1  0.33198241  0.86582645  0.21341279  1
  F  F23  1  0.37441907  0.66593799  0.73500587  1
  F  F24  1  0.41742021  0.46579062  0.23913289  1
  F  F25  1  0.43762487  0.26140793  0.78470043  1
  F  F26  1  0.56235725  0.76143235  0.21529140  1
  F  F27  1  0.58254520  0.96581577  0.76089072  1
  F  F28  1  0.62558122  0.16594150  0.26489801  1
  F  F29  1  0.66801512  0.36583224  0.78659387  1
  F  F30  1  0.68643822  0.57020585  0.29409252  1
  F  F31  1  0.81353985  0.07021799  0.79406722  1
  F  F32  1  0.83198693  0.86582065  0.28659768  1
  F  F33  1  0.87441800  0.66593527  0.76495571  1
  F  F34  1  0.91745356  0.46583195  0.26089047  1
  F  F35  1  0.93763492  0.26146499  0.71534222  1
