# generated using pymatgen
data_Li3V3P8O29
_symmetry_space_group_name_H-M   'P 1'
_cell_length_a   9.75320033
_cell_length_b   9.74947577
_cell_length_c   14.38381278
_cell_angle_alpha   89.63138103
_cell_angle_beta   90.08111636
_cell_angle_gamma   59.90008082
_symmetry_Int_Tables_number   1
_chemical_formula_structural   Li3V3P8O29
_chemical_formula_sum   'Li6 V6 P16 O58'
_cell_volume   1183.25860285
_cell_formula_units_Z   2
loop_
 _symmetry_equiv_pos_site_id
 _symmetry_equiv_pos_as_xyz
  1  'x, y, z'
loop_
 _atom_site_type_symbol
 _atom_site_label
 _atom_site_symmetry_multiplicity
 _atom_site_fract_x
 _atom_site_fract_y
 _atom_site_fract_z
 _atom_site_occupancy
  Li  Li0  1  0.77003533  0.32258823  0.05296191  1
  Li  Li1  1  0.31970406  0.90779005  0.05155683  1
  Li  Li2  1  0.32478819  0.76539796  0.56325018  1
  Li  Li3  1  0.22338097  0.09670647  0.45379328  1
  Li  Li4  1  0.98166323  0.96814896  0.99357637  1
  Li  Li5  1  0.91933662  0.00637915  0.51428763  1
  V  V6  1  0.56656741  0.43465508  0.25559726  1
  V  V7  1  0.43651749  0.56057955  0.75095045  1
  V  V8  1  0.56946001  0.99837331  0.75143695  1
  V  V9  1  0.44163287  0.00131259  0.24670479  1
  V  V10  1  0.00000646  0.56450148  0.24765363  1
  V  V11  1  0.99905162  0.44052168  0.74681853  1
  P  P12  1  0.91987900  0.77822141  0.83992375  1
  P  P13  1  0.78134771  0.91271925  0.33870959  1
  P  P14  1  0.92060075  0.30483922  0.34114784  1
  P  P15  1  0.66518516  0.66412420  0.13416422  1
  P  P16  1  0.66148428  0.67096146  0.63219097  1
  P  P17  1  0.78081159  0.31140272  0.84045086  1
  P  P18  1  0.69608942  0.21932145  0.66189057  1
  P  P19  1  0.31237147  0.90998156  0.84084752  1
  P  P20  1  0.69739874  0.08747069  0.15726224  1
  P  P21  1  0.31774537  0.77630097  0.34487430  1
  P  P22  1  0.22201323  0.69449789  0.16611048  1
  P  P23  1  0.33116803  0.33236618  0.36445065  1
  P  P24  1  0.33367149  0.32998655  0.86545269  1
  P  P25  1  0.08306912  0.70001724  0.65687344  1
  P  P26  1  0.22464043  0.09064538  0.66286201  1
  P  P27  1  0.08437062  0.22289088  0.15804066  1
  O  O28  1  0.00762467  0.80188401  0.57427164  1
  O  O29  1  0.91492877  0.73828545  0.32821253  1
  O  O30  1  0.79045616  0.01172257  0.07310443  1
  O  O31  1  0.74312588  0.91199035  0.83053924  1
  O  O32  1  0.92497449  0.61765138  0.82710167  1
  O  O33  1  0.81124269  0.66558270  0.17817490  1
  O  O34  1  0.92141028  0.46235581  0.32715904  1
  O  O35  1  0.99499856  0.21422727  0.07671963  1
  O  O36  1  0.91700766  0.34798491  0.82839343  1
  O  O37  1  0.65970198  0.81715664  0.67948579  1
  O  O38  1  0.61915224  0.91768323  0.32279505  1
  O  O39  1  0.81031125  0.52563904  0.67826656  1
  O  O40  1  0.65616703  0.66536416  0.03108184  1
  O  O41  1  0.65620669  0.67676963  0.52907545  1
  O  O42  1  0.67088527  0.51189043  0.17620761  1
  O  O43  1  0.46724896  0.91405056  0.82953950  1
  O  O44  1  0.51377104  0.81411841  0.17627328  1
  O  O45  1  0.74561342  0.34178362  0.33263402  1
  O  O46  1  0.79745888  0.19752989  0.75635893  1
  O  O47  1  0.79435799  0.19891157  0.57927663  1
  O  O48  1  0.79109112  0.23230877  0.93127995  1
  O  O49  1  0.62056740  0.46844560  0.82470286  1
  O  O50  1  0.51065443  0.67076342  0.67164651  1
  O  O51  1  0.65603520  0.26364636  0.16528940  1
  O  O52  1  0.47671452  0.61897483  0.32610674  1
  O  O53  1  0.34331712  0.92116262  0.33289734  1
  O  O54  1  0.79889997  0.00272740  0.24939343  1
  O  O55  1  0.78934573  0.99097022  0.42384738  1
  O  O56  1  0.22398368  0.00477595  0.57618623  1
  O  O57  1  0.65391425  0.08550575  0.67012168  1
  O  O58  1  0.54109683  0.38116178  0.67183504  1
  O  O59  1  0.34682893  0.73694632  0.82756092  1
  O  O60  1  0.48084269  0.33373114  0.32315044  1
  O  O61  1  0.38268235  0.53786607  0.17752214  1
  O  O62  1  0.20962613  0.79707009  0.08576732  1
  O  O63  1  0.24870083  0.77930497  0.43710316  1
  O  O64  1  0.20034708  0.79115547  0.26220120  1
  O  O65  1  0.26198068  0.65320945  0.66245781  1
  O  O66  1  0.48104612  0.18243792  0.82288405  1
  O  O67  1  0.53960871  0.08243457  0.17105313  1
  O  O68  1  0.33946321  0.47579498  0.81875261  1
  O  O69  1  0.33149754  0.33457237  0.96816758  1
  O  O70  1  0.32774350  0.32228900  0.46707682  1
  O  O71  1  0.18747417  0.47937158  0.31811084  1
  O  O72  1  0.38201006  0.08880040  0.67567474  1
  O  O73  1  0.33129879  0.18452278  0.31823116  1
  O  O74  1  0.08558444  0.65645337  0.16782001  1
  O  O75  1  0.00454369  0.80056430  0.74951729  1
  O  O76  1  0.99595870  0.79665981  0.92406708  1
  O  O77  1  0.07364882  0.54626139  0.66775506  1
  O  O78  1  0.18660734  0.33611850  0.81689801  1
  O  O79  1  0.08104978  0.38277034  0.17095498  1
  O  O80  1  0.26024216  0.08380242  0.15962148  1
  O  O81  1  0.22694781  0.97575746  0.92990325  1
  O  O82  1  0.20024472  0.00427126  0.75250774  1
  O  O83  1  0.08479701  0.26313036  0.66493003  1
  O  O84  1  0.00344612  0.21005909  0.42511768  1
  O  O85  1  0.00692476  0.19806776  0.25117316  1
