# generated using pymatgen
data_Co2NiO6
_symmetry_space_group_name_H-M   'P 1'
_cell_length_a   4.88652932
_cell_length_b   4.87775352
_cell_length_c   9.57154718
_cell_angle_alpha   90.00000000
_cell_angle_beta   90.00000000
_cell_angle_gamma   60.05939414
_symmetry_Int_Tables_number   1
_chemical_formula_structural   Co2NiO6
_chemical_formula_sum   'Co4 Ni2 O12'
_cell_volume   197.69366263
_cell_formula_units_Z   2
loop_
 _symmetry_equiv_pos_site_id
 _symmetry_equiv_pos_as_xyz
  1  'x, y, z'
loop_
 _atom_site_type_symbol
 _atom_site_label
 _atom_site_symmetry_multiplicity
 _atom_site_fract_x
 _atom_site_fract_y
 _atom_site_fract_z
 _atom_site_occupancy
  Co  Co0  1  0.33335088  0.33332456  0.00000000  1
  Co  Co1  1  0.33335088  0.83332456  0.50000000  1
  Co  Co2  1  0.66664912  0.16667544  0.50000000  1
  Co  Co3  1  0.66664912  0.66667544  0.00000000  1
  Ni  Ni4  1  0.00000000  0.00000000  0.00000000  1
  Ni  Ni5  1  0.00000000  0.50000000  0.50000000  1
  O  O6  1  1.00000000  0.16759537  0.59787267  1
  O  O7  1  0.00000000  0.33240463  0.09787267  1
  O  O8  1  1.00000000  0.66759537  0.90212733  1
  O  O9  1  0.33199199  0.00004712  0.90211428  1
  O  O10  1  0.00000000  0.83240463  0.40212733  1
  O  O11  1  0.33199199  0.16795989  0.40211428  1
  O  O12  1  0.33199199  0.50004712  0.59788572  1
  O  O13  1  0.33199199  0.66795989  0.09788572  1
  O  O14  1  0.66800801  0.99995288  0.09788572  1
  O  O15  1  0.66800801  0.33204011  0.90211428  1
  O  O16  1  0.66800801  0.49995288  0.40211428  1
  O  O17  1  0.66800801  0.83204011  0.59788572  1
