# generated using pymatgen
data_Ho(WO3)2
_symmetry_space_group_name_H-M   'P 1'
_cell_length_a   5.41006482
_cell_length_b   5.65334368
_cell_length_c   7.86919953
_cell_angle_alpha   89.94451300
_cell_angle_beta   90.08369217
_cell_angle_gamma   89.98222918
_symmetry_Int_Tables_number   1
_chemical_formula_structural   Ho(WO3)2
_chemical_formula_sum   'Ho2 W4 O12'
_cell_volume   240.67873795
_cell_formula_units_Z   2
loop_
 _symmetry_equiv_pos_site_id
 _symmetry_equiv_pos_as_xyz
  1  'x, y, z'
loop_
 _atom_site_type_symbol
 _atom_site_label
 _atom_site_symmetry_multiplicity
 _atom_site_fract_x
 _atom_site_fract_y
 _atom_site_fract_z
 _atom_site_occupancy
  Ho  Ho0  1  0.01560445  0.92785342  0.75031454  1
  Ho  Ho1  1  0.52335482  0.56888431  0.24970361  1
  W  W2  1  0.00506419  0.49037667  0.00089357  1
  W  W3  1  0.00562052  0.49088025  0.49938807  1
  W  W4  1  0.50252644  0.01244732  0.49983894  1
  W  W5  1  0.50268534  0.01242319  0.99944172  1
  O  O6  1  0.12294541  0.47476456  0.25024598  1
  O  O7  1  0.16816265  0.19840278  0.94323142  1
  O  O8  1  0.16877602  0.19862741  0.55780431  1
  O  O9  1  0.28673978  0.71757173  0.95680425  1
  O  O10  1  0.28641916  0.71852378  0.54394277  1
  O  O11  1  0.42976443  0.95866650  0.24963807  1
  O  O12  1  0.61716868  0.02324724  0.74995406  1
  O  O13  1  0.68425388  0.31423477  0.44141954  1
  O  O14  1  0.68343336  0.31447570  0.05854171  1
  O  O15  1  0.79904465  0.76939031  0.04220645  1
  O  O16  1  0.79859910  0.76927253  0.45669760  1
  O  O17  1  0.92394015  0.53995553  0.74993239  1
