# generated using pymatgen
data_V6AgO15
_symmetry_space_group_name_H-M   'P 1'
_cell_length_a   7.99787302
_cell_length_b   7.31807602
_cell_length_c   10.22574715
_cell_angle_alpha   90.00058134
_cell_angle_beta   109.22022808
_cell_angle_gamma   76.77534385
_symmetry_Int_Tables_number   1
_chemical_formula_structural   V6AgO15
_chemical_formula_sum   'V12 Ag2 O30'
_cell_volume   548.30642295
_cell_formula_units_Z   2
loop_
 _symmetry_equiv_pos_site_id
 _symmetry_equiv_pos_as_xyz
  1  'x, y, z'
loop_
 _atom_site_type_symbol
 _atom_site_label
 _atom_site_symmetry_multiplicity
 _atom_site_fract_x
 _atom_site_fract_y
 _atom_site_fract_z
 _atom_site_occupancy
  V  V0  1  0.32511970  0.16864857  0.89917346  1
  V  V1  1  0.32521598  0.66873890  0.89933047  1
  V  V2  1  0.42432843  0.64400141  0.58972950  1
  V  V3  1  0.42416304  0.14388647  0.58988932  1
  V  V4  1  0.23235038  0.44193002  0.11787553  1
  V  V5  1  0.23376537  0.94158613  0.11940973  1
  V  V6  1  0.76623463  0.55841387  0.88059027  1
  V  V7  1  0.76764962  0.05806998  0.88212447  1
  V  V8  1  0.57583696  0.35611353  0.41011068  1
  V  V9  1  0.57567157  0.85599859  0.41027050  1
  V  V10  1  0.67478402  0.83126110  0.10066953  1
  V  V11  1  0.67488030  0.33135143  0.10082654  1
  Ag  Ag12  1  0.00712262  0.99820384  0.59729070  1
  Ag  Ag13  1  0.99287738  0.50179616  0.40270930  1
  O  O14  1  0.12403950  0.21463356  0.77872776  1
  O  O15  1  0.12416043  0.72331280  0.77876254  1
  O  O16  1  0.37066604  0.40725754  0.94613005  1
  O  O17  1  0.37153372  0.90719753  0.94555468  1
  O  O18  1  0.20080154  0.69990511  0.52700182  1
  O  O19  1  0.20062250  0.19973364  0.52689431  1
  O  O20  1  0.99931238  0.00018741  0.99946035  1
  O  O21  1  0.00068762  0.49981259  0.00053965  1
  O  O22  1  0.21555589  0.44612606  0.27412852  1
  O  O23  1  0.21620226  0.94600339  0.27336018  1
  O  O24  1  0.47335912  0.13156552  0.77732475  1
  O  O25  1  0.47371208  0.63167891  0.77753761  1
  O  O26  1  0.48395587  0.37898835  0.57304022  1
  O  O27  1  0.48491480  0.87879187  0.57350042  1
  O  O28  1  0.26701410  0.18328860  0.07689012  1
  O  O29  1  0.26693759  0.68324006  0.07687186  1
  O  O30  1  0.73306241  0.81675994  0.92312814  1
  O  O31  1  0.73298590  0.31671140  0.92310988  1
  O  O32  1  0.51604413  0.12101165  0.42695878  1
  O  O33  1  0.51508520  0.62120813  0.42649958  1
  O  O34  1  0.52664088  0.36843448  0.22267525  1
  O  O35  1  0.52628792  0.86832109  0.22246239  1
  O  O36  1  0.78444411  0.05387394  0.72587148  1
  O  O37  1  0.78379774  0.55399661  0.72663982  1
  O  O38  1  0.79937750  0.30026636  0.47310569  1
  O  O39  1  0.79919846  0.80009489  0.47299818  1
  O  O40  1  0.62933396  0.09274246  0.05386995  1
  O  O41  1  0.62846628  0.59280247  0.05444532  1
  O  O42  1  0.87596050  0.28536644  0.22127224  1
  O  O43  1  0.87583957  0.77668720  0.22123746  1
