# generated using pymatgen
data_Li7Ni13O24
_symmetry_space_group_name_H-M   'P 1'
_cell_length_a   7.60634193
_cell_length_b   8.64763814
_cell_length_c   7.60634178
_cell_angle_alpha   72.92885201
_cell_angle_beta   69.27226963
_cell_angle_gamma   105.94517063
_symmetry_Int_Tables_number   1
_chemical_formula_structural   Li7Ni13O24
_chemical_formula_sum   'Li7 Ni13 O24'
_cell_volume   405.23056795
_cell_formula_units_Z   1
loop_
 _symmetry_equiv_pos_site_id
 _symmetry_equiv_pos_as_xyz
  1  'x, y, z'
loop_
 _atom_site_type_symbol
 _atom_site_label
 _atom_site_symmetry_multiplicity
 _atom_site_fract_x
 _atom_site_fract_y
 _atom_site_fract_z
 _atom_site_occupancy
  Li  Li0  1  0.05029376  0.12500000  0.57470624  1
  Li  Li1  1  0.12389465  0.37782613  0.74606852  1
  Li  Li2  1  0.21055169  0.62500000  0.91444831  1
  Li  Li3  1  0.37500000  0.12500000  0.25000000  1
  Li  Li4  1  0.53944831  0.62500000  0.58555169  1
  Li  Li5  1  0.62610535  0.87217387  0.75393148  1
  Li  Li6  1  0.69970624  0.12500000  0.92529376  1
  Ni  Ni7  1  0.08149985  0.24939198  0.15958914  1
  Ni  Ni8  1  0.16568706  0.49807334  0.33599303  1
  Ni  Ni9  1  0.25094931  0.75562257  0.49532673  1
  Ni  Ni10  1  0.49905069  0.49437743  0.00467327  1
  Ni  Ni11  1  0.99965341  0.99554798  0.00410542  1
  Ni  Ni12  1  0.58431294  0.75192666  0.16400697  1
  Ni  Ni13  1  0.34101889  0.00060802  0.66789213  1
  Ni  Ni14  1  0.40898111  0.24939198  0.83210787  1
  Ni  Ni15  1  0.87500000  0.62500000  0.25000000  1
  Ni  Ni16  1  0.66850015  0.00060802  0.34041086  1
  Ni  Ni17  1  0.75034659  0.25445202  0.49589458  1
  Ni  Ni18  1  0.83406737  0.49807334  0.66761372  1
  Ni  Ni19  1  0.91593263  0.75192666  0.83238628  1
  O  O20  1  0.05101604  0.65870076  0.39231529  1
  O  O21  1  0.16128147  0.92882996  0.56079919  1
  O  O22  1  0.02756230  0.57816661  0.75981617  1
  O  O23  1  0.17782679  0.06717180  0.11065498  1
  O  O24  1  0.08678728  0.81894403  0.95200412  1
  O  O25  1  0.41201722  0.67183339  0.05060331  1
  O  O26  1  0.26036985  0.32117004  0.26754849  1
  O  O27  1  0.48963015  0.92882996  0.23245151  1
  O  O28  1  0.33798278  0.57816661  0.44939669  1
  O  O29  1  0.44658875  0.82574942  0.62084033  1
  O  O30  1  0.21846410  0.16394228  0.74059696  1
  O  O31  1  0.30341125  0.42425058  0.87915967  1
  O  O32  1  0.69898396  0.59129924  0.10768471  1
  O  O33  1  0.77094915  0.81894403  0.26784325  1
  O  O34  1  0.57217321  0.18282820  0.38934502  1
  O  O35  1  0.66321272  0.43105597  0.54799588  1
  O  O36  1  0.53153590  0.08605772  0.75940304  1
  O  O37  1  0.72243770  0.67183339  0.74018383  1
  O  O38  1  0.58871853  0.32117004  0.93920081  1
  O  O39  1  0.90453824  0.16394228  0.05452182  1
  O  O40  1  0.82543449  0.94302909  0.88240540  1
  O  O41  1  0.97905085  0.43105597  0.23215675  1
  O  O42  1  0.84546176  0.08605772  0.44547818  1
  O  O43  1  0.92456551  0.30697091  0.61759460  1
