# generated using pymatgen
data_Li2NiP2O7
_symmetry_space_group_name_H-M   'P 1'
_cell_length_a   8.12735281
_cell_length_b   5.03830951
_cell_length_c   13.77748829
_cell_angle_alpha   90.00000000
_cell_angle_beta   111.11302383
_cell_angle_gamma   90.00000000
_symmetry_Int_Tables_number   1
_chemical_formula_structural   Li2NiP2O7
_chemical_formula_sum   'Li8 Ni4 P8 O28'
_cell_volume   526.29096661
_cell_formula_units_Z   4
loop_
 _symmetry_equiv_pos_site_id
 _symmetry_equiv_pos_as_xyz
  1  'x, y, z'
loop_
 _atom_site_type_symbol
 _atom_site_label
 _atom_site_symmetry_multiplicity
 _atom_site_fract_x
 _atom_site_fract_y
 _atom_site_fract_z
 _atom_site_occupancy
  Li  Li0  1  0.01709526  0.79356389  0.67054571  1
  Li  Li1  1  0.01709526  0.70643611  0.17054671  1
  Li  Li2  1  0.57392265  0.26644552  0.83992506  1
  Li  Li3  1  0.42607735  0.76644552  0.66007494  1
  Li  Li4  1  0.57392265  0.23355448  0.33992506  1
  Li  Li5  1  0.42607735  0.73355448  0.16007494  1
  Li  Li6  1  0.98290474  0.29356389  0.82945429  1
  Li  Li7  1  0.98290474  0.20643611  0.32945429  1
  Ni  Ni8  1  0.27983371  0.73059957  0.86695553  1
  Ni  Ni9  1  0.27983371  0.76940043  0.36695553  1
  Ni  Ni10  1  0.72016629  0.23059957  0.63304447  1
  Ni  Ni11  1  0.72016629  0.26940043  0.13304447  1
  P  P12  1  0.18307116  0.27798339  0.69454908  1
  P  P13  1  0.30335852  0.27381901  0.52062480  1
  P  P14  1  0.18307116  0.22201661  0.19454908  1
  P  P15  1  0.69664148  0.77381901  0.97937520  1
  P  P16  1  0.30335852  0.22618099  0.02062480  1
  P  P17  1  0.81692884  0.77798339  0.80545092  1
  P  P18  1  0.69664148  0.72618099  0.47937520  1
  P  P19  1  0.81692884  0.72201661  0.30545092  1
  O  O20  1  0.00349133  0.74814017  0.80452540  1
  O  O21  1  0.00349133  0.75185983  0.30452540  1
  O  O22  1  0.22119583  0.36879331  0.91706995  1
  O  O23  1  0.15343153  0.22868605  0.57332994  1
  O  O24  1  0.25071242  0.56464951  0.71788989  1
  O  O25  1  0.31124011  0.06949219  0.76130745  1
  O  O26  1  0.32158081  0.57330419  0.50853301  1
  O  O27  1  0.22119583  0.13120669  0.41706995  1
  O  O28  1  0.15343153  0.27131395  0.07332994  1
  O  O29  1  0.53360150  0.63829146  0.90277452  1
  O  O30  1  0.25071242  0.93535049  0.21788989  1
  O  O31  1  0.31124011  0.43050781  0.26130745  1
  O  O32  1  0.46639850  0.13829146  0.59722548  1
  O  O33  1  0.32158081  0.92669581  0.00853301  1
  O  O34  1  0.67841919  0.07330419  0.99146699  1
  O  O35  1  0.53360150  0.86170854  0.40277452  1
  O  O36  1  0.68875989  0.56949219  0.73869255  1
  O  O37  1  0.74928758  0.06464951  0.78211011  1
  O  O38  1  0.46639850  0.36170854  0.09722548  1
  O  O39  1  0.84656847  0.72868605  0.92667006  1
  O  O40  1  0.77880417  0.86879331  0.58293005  1
  O  O41  1  0.67841919  0.42669581  0.49146699  1
  O  O42  1  0.68875989  0.93050781  0.23869255  1
  O  O43  1  0.74928758  0.43535049  0.28211011  1
  O  O44  1  0.84656847  0.77131395  0.42667006  1
  O  O45  1  0.77880417  0.63120669  0.08293005  1
  O  O46  1  0.99650867  0.24814017  0.69547460  1
  O  O47  1  0.99650867  0.25185983  0.19547460  1
