# generated using pymatgen
data_Li4Ti3V3(SbO8)2
_symmetry_space_group_name_H-M   'P 1'
_cell_length_a   6.02588499
_cell_length_b   5.97975284
_cell_length_c   10.51684160
_cell_angle_alpha   89.96112003
_cell_angle_beta   89.65738543
_cell_angle_gamma   119.90155448
_symmetry_Int_Tables_number   1
_chemical_formula_structural   Li4Ti3V3(SbO8)2
_chemical_formula_sum   'Li4 Ti3 V3 Sb2 O16'
_cell_volume   328.50226539
_cell_formula_units_Z   1
loop_
 _symmetry_equiv_pos_site_id
 _symmetry_equiv_pos_as_xyz
  1  'x, y, z'
loop_
 _atom_site_type_symbol
 _atom_site_label
 _atom_site_symmetry_multiplicity
 _atom_site_fract_x
 _atom_site_fract_y
 _atom_site_fract_z
 _atom_site_occupancy
  Li  Li0  1  0.33424150  0.66830209  0.89699105  1
  Li  Li1  1  0.99982602  0.99888719  0.99326794  1
  Li  Li2  1  0.00801410  0.00200481  0.49515039  1
  Li  Li3  1  0.66556496  0.33385942  0.38851335  1
  Ti  Ti4  1  0.17743263  0.83222402  0.22255786  1
  Ti  Ti5  1  0.17674615  0.34480584  0.22225724  1
  Ti  Ti6  1  0.34738399  0.17130849  0.72759910  1
  V  V7  1  0.65892186  0.82982810  0.21265475  1
  V  V8  1  0.83426433  0.65159356  0.71910934  1
  V  V9  1  0.83008146  0.16991529  0.71427507  1
  Sb  Sb10  1  0.33875661  0.66756542  0.51545828  1
  Sb  Sb11  1  0.66825977  0.33528905  0.01315216  1
  O  O12  1  0.15541256  0.84093941  0.60622876  1
  O  O13  1  0.02520750  0.51208713  0.31866718  1
  O  O14  1  0.31210488  0.65643371  0.11010895  1
  O  O15  1  0.00899979  0.00417651  0.31122674  1
  O  O16  1  0.00795170  0.99767402  0.81131364  1
  O  O17  1  0.15549655  0.31545586  0.60741752  1
  O  O18  1  0.48103399  0.98366432  0.31347076  1
  O  O19  1  0.48012648  0.49769883  0.31391716  1
  O  O20  1  0.30764030  0.15414591  0.10446423  1
  O  O21  1  0.69566213  0.83977255  0.61184064  1
  O  O22  1  0.50774277  0.48642371  0.81953788  1
  O  O23  1  0.50338573  0.01875679  0.81831454  1
  O  O24  1  0.65121915  0.33592372  0.61044705  1
  O  O25  1  0.84402614  0.68752768  0.10702787  1
  O  O26  1  0.97992508  0.50702593  0.81651447  1
  O  O27  1  0.84457386  0.15701065  0.10635607  1
