# generated using pymatgen
data_NaCoH2C3O7
_symmetry_space_group_name_H-M   'P 1'
_cell_length_a   5.92345340
_cell_length_b   15.79550740
_cell_length_c   7.06575402
_cell_angle_alpha   90.00000000
_cell_angle_beta   100.03424358
_cell_angle_gamma   90.00000000
_symmetry_Int_Tables_number   1
_chemical_formula_structural   NaCoH2C3O7
_chemical_formula_sum   'Na4 Co4 H8 C12 O28'
_cell_volume   650.98755029
_cell_formula_units_Z   4
loop_
 _symmetry_equiv_pos_site_id
 _symmetry_equiv_pos_as_xyz
  1  'x, y, z'
loop_
 _atom_site_type_symbol
 _atom_site_label
 _atom_site_symmetry_multiplicity
 _atom_site_fract_x
 _atom_site_fract_y
 _atom_site_fract_z
 _atom_site_occupancy
  Na  Na0  1  0.03273429  0.68329083  0.69240633  1
  Na  Na1  1  0.03273429  0.81670917  0.19240633  1
  Na  Na2  1  0.96726571  0.18329083  0.80759367  1
  Na  Na3  1  0.96726571  0.31670917  0.30759367  1
  Co  Co4  1  0.22795040  0.89953883  0.78290448  1
  Co  Co5  1  0.22795040  0.60046117  0.28290448  1
  Co  Co6  1  0.77204960  0.39953883  0.71709552  1
  Co  Co7  1  0.77204960  0.10046117  0.21709552  1
  H  H8  1  0.32495992  0.52833023  0.63778708  1
  H  H9  1  0.45207494  0.61915102  0.64129685  1
  H  H10  1  0.32495992  0.97166977  0.13778708  1
  H  H11  1  0.54792506  0.11915102  0.85870315  1
  H  H12  1  0.45207494  0.88084898  0.14129685  1
  H  H13  1  0.67504008  0.02833023  0.86221292  1
  H  H14  1  0.54792506  0.38084898  0.35870315  1
  H  H15  1  0.67504008  0.47166977  0.36221292  1
  C  C16  1  0.00533388  0.03605544  0.57416610  1
  C  C17  1  0.00533388  0.46394456  0.07416610  1
  C  C18  1  0.29759234  0.35074419  0.71444874  1
  C  C19  1  0.29759234  0.14925581  0.21444874  1
  C  C20  1  0.44545544  0.26885014  0.74668019  1
  C  C21  1  0.44545544  0.23114986  0.24668019  1
  C  C22  1  0.55454456  0.76885014  0.75331981  1
  C  C23  1  0.55454456  0.73114986  0.25331981  1
  C  C24  1  0.70240766  0.85074419  0.78555126  1
  C  C25  1  0.70240766  0.64925581  0.28555126  1
  C  C26  1  0.99466612  0.53605544  0.92583390  1
  C  C27  1  0.99466612  0.96394456  0.42583390  1
  O  O28  1  0.09969951  0.60390332  0.98253353  1
  O  O29  1  0.08238697  0.34055811  0.67534049  1
  O  O30  1  0.11712332  0.02317090  0.74172947  1
  O  O31  1  0.09969951  0.89609668  0.48253353  1
  O  O32  1  0.08238697  0.15944189  0.17534049  1
  O  O33  1  0.11712332  0.47682910  0.24172947  1
  O  O34  1  0.34363413  0.77738882  0.76577720  1
  O  O35  1  0.35189247  0.20072460  0.78508088  1
  O  O36  1  0.31050765  0.58688903  0.58623738  1
  O  O37  1  0.40774577  0.42028118  0.72934858  1
  O  O38  1  0.34363413  0.72261118  0.26577720  1
  O  O39  1  0.35189247  0.29927540  0.28508088  1
  O  O40  1  0.31050765  0.91311097  0.08623738  1
  O  O41  1  0.40774577  0.07971882  0.22934858  1
  O  O42  1  0.59225423  0.92028118  0.77065142  1
  O  O43  1  0.68949235  0.08688903  0.91376262  1
  O  O44  1  0.64810753  0.70072460  0.71491912  1
  O  O45  1  0.65636587  0.27738882  0.73422280  1
  O  O46  1  0.59225423  0.57971882  0.27065142  1
  O  O47  1  0.68949235  0.41311097  0.41376262  1
  O  O48  1  0.64810753  0.79927540  0.21491912  1
  O  O49  1  0.65636587  0.22261118  0.23422280  1
  O  O50  1  0.88287668  0.52317090  0.75827053  1
  O  O51  1  0.91761303  0.84055811  0.82465951  1
  O  O52  1  0.90030049  0.10390332  0.51746647  1
  O  O53  1  0.88287668  0.97682910  0.25827053  1
  O  O54  1  0.91761303  0.65944189  0.32465951  1
  O  O55  1  0.90030049  0.39609668  0.01746647  1
