# generated using pymatgen
data_Li4Mn3Nb2Ni3O16
_symmetry_space_group_name_H-M   'P 1'
_cell_length_a   5.93240035
_cell_length_b   5.88477413
_cell_length_c   9.64334583
_cell_angle_alpha   89.99981561
_cell_angle_beta   90.59909328
_cell_angle_gamma   119.73450883
_symmetry_Int_Tables_number   1
_chemical_formula_structural   Li4Mn3Nb2Ni3O16
_chemical_formula_sum   'Li4 Mn3 Nb2 Ni3 O16'
_cell_volume   292.30940790
_cell_formula_units_Z   1
loop_
 _symmetry_equiv_pos_site_id
 _symmetry_equiv_pos_as_xyz
  1  'x, y, z'
loop_
 _atom_site_type_symbol
 _atom_site_label
 _atom_site_symmetry_multiplicity
 _atom_site_fract_x
 _atom_site_fract_y
 _atom_site_fract_z
 _atom_site_occupancy
  Li  Li0  1  0.32787913  0.66395167  0.89803255  1
  Li  Li1  1  0.00369683  0.00185951  0.98929238  1
  Li  Li2  1  0.00726603  0.00364859  0.49597890  1
  Li  Li3  1  0.65458818  0.32730924  0.40181856  1
  Mn  Mn4  1  0.17424727  0.83436780  0.21556293  1
  Mn  Mn5  1  0.17424985  0.33990112  0.21556259  1
  Mn  Mn6  1  0.34489999  0.17245681  0.71924586  1
  Nb  Nb7  1  0.34054391  0.67028016  0.49830062  1
  Nb  Nb8  1  0.69631108  0.34817010  0.98550743  1
  Ni  Ni9  1  0.66154866  0.83079020  0.21419277  1
  Ni  Ni10  1  0.83118371  0.66243652  0.71262128  1
  Ni  Ni11  1  0.83118069  0.16876465  0.71262409  1
  O  O12  1  0.18125163  0.84455028  0.59471400  1
  O  O13  1  0.03485547  0.51744266  0.33015323  1
  O  O14  1  0.31430919  0.65716849  0.11017354  1
  O  O15  1  0.01512979  0.00757903  0.30768443  1
  O  O16  1  0.01600631  0.00800392  0.80427294  1
  O  O17  1  0.18125307  0.33672285  0.59471753  1
  O  O18  1  0.46022631  0.95850737  0.33877872  1
  O  O19  1  0.46022903  0.50174763  0.33877845  1
  O  O20  1  0.32281851  0.16142102  0.10502836  1
  O  O21  1  0.66847286  0.83424689  0.58121556  1
  O  O22  1  0.49898456  0.46485390  0.84430739  1
  O  O23  1  0.49899311  0.03414460  0.84430712  1
  O  O24  1  0.64957417  0.32479403  0.60981203  1
  O  O25  1  0.84307449  0.67038394  0.09566544  1
  O  O26  1  0.96415086  0.48208182  0.85382492  1
  O  O27  1  0.84307833  0.17271721  0.09566538  1
