# generated using pymatgen
data_Li4Nb2Fe3Cu3O16
_symmetry_space_group_name_H-M   'P 1'
_cell_length_a   6.00841725
_cell_length_b   5.91860385
_cell_length_c   9.78473647
_cell_angle_alpha   89.51809082
_cell_angle_beta   88.20496365
_cell_angle_gamma   119.89342057
_symmetry_Int_Tables_number   1
_chemical_formula_structural   Li4Nb2Fe3Cu3O16
_chemical_formula_sum   'Li4 Nb2 Fe3 Cu3 O16'
_cell_volume   301.40081159
_cell_formula_units_Z   1
loop_
 _symmetry_equiv_pos_site_id
 _symmetry_equiv_pos_as_xyz
  1  'x, y, z'
loop_
 _atom_site_type_symbol
 _atom_site_label
 _atom_site_symmetry_multiplicity
 _atom_site_fract_x
 _atom_site_fract_y
 _atom_site_fract_z
 _atom_site_occupancy
  Li  Li0  1  0.31527776  0.65844441  0.90288191  1
  Li  Li1  1  0.00940018  0.00588941  0.99083550  1
  Li  Li2  1  0.01986196  0.01184699  0.48829123  1
  Li  Li3  1  0.66941119  0.33906371  0.40394193  1
  Nb  Nb4  1  0.35884880  0.69047258  0.49645033  1
  Nb  Nb5  1  0.66376915  0.32643251  0.99383573  1
  Fe  Fe6  1  0.65873219  0.82840276  0.21581764  1
  Fe  Fe7  1  0.82920677  0.65932134  0.71802533  1
  Fe  Fe8  1  0.83483094  0.17360670  0.71516738  1
  Cu  Cu9  1  0.17300313  0.83366173  0.21190890  1
  Cu  Cu10  1  0.16879021  0.34014282  0.21726931  1
  Cu  Cu11  1  0.34315843  0.17361388  0.71497892  1
  O  O12  1  0.16406842  0.82778145  0.58945777  1
  O  O13  1  0.04863039  0.54406651  0.33502940  1
  O  O14  1  0.32844026  0.67807665  0.11452479  1
  O  O15  1  0.00155487  0.98242263  0.29999047  1
  O  O16  1  -0.00042817  -0.00175195  0.80534755  1
  O  O17  1  0.16511821  0.33569412  0.58812048  1
  O  O18  1  0.53183802  0.97675206  0.35831977  1
  O  O19  1  0.46859232  0.50574908  0.34169827  1
  O  O20  1  0.31926223  0.14139496  0.09688348  1
  O  O21  1  0.66946388  0.82929383  0.59875839  1
  O  O22  1  0.50521840  0.47131346  0.84419396  1
  O  O23  1  0.51051055  0.03256968  0.84316422  1
  O  O24  1  0.67183219  0.33833345  0.60901960  1
  O  O25  1  0.78182721  0.65194243  0.07643125  1
  O  O26  1  0.95681464  0.47632771  0.84455361  1
  O  O27  1  0.83296687  0.16943609  0.09294588  1
