# generated using pymatgen
data_Li3CrSi2O7
_symmetry_space_group_name_H-M   'P 1'
_cell_length_a   8.58308469
_cell_length_b   8.58307835
_cell_length_c   12.98229837
_cell_angle_alpha   90.00004990
_cell_angle_beta   90.00006998
_cell_angle_gamma   120.00017758
_symmetry_Int_Tables_number   1
_chemical_formula_structural   Li3CrSi2O7
_chemical_formula_sum   'Li18 Cr6 Si12 O42'
_cell_volume   828.26234067
_cell_formula_units_Z   6
loop_
 _symmetry_equiv_pos_site_id
 _symmetry_equiv_pos_as_xyz
  1  'x, y, z'
loop_
 _atom_site_type_symbol
 _atom_site_label
 _atom_site_symmetry_multiplicity
 _atom_site_fract_x
 _atom_site_fract_y
 _atom_site_fract_z
 _atom_site_occupancy
  Li  Li0  1  0.02467520  0.69108069  0.89715884  1
  Li  Li1  1  0.02342377  0.69051547  0.56600691  1
  Li  Li2  1  0.33333006  0.66667356  0.21649705  1
  Li  Li3  1  0.33332164  0.66668033  0.73352482  1
  Li  Li4  1  0.99999887  0.99999836  0.46707576  1
  Li  Li5  1  0.99999791  0.99999832  0.96707202  1
  Li  Li6  1  0.30947707  0.33289950  0.56600777  1
  Li  Li7  1  0.30891455  0.33358675  0.89715802  1
  Li  Li8  1  0.66640532  0.97531148  0.89715708  1
  Li  Li9  1  0.66710355  0.97657637  0.56600865  1
  Li  Li10  1  0.33289864  0.02342551  0.06600559  1
  Li  Li11  1  0.33359152  0.02468780  0.39716171  1
  Li  Li12  1  0.69108900  0.66641436  0.39715958  1
  Li  Li13  1  0.69051646  0.66709369  0.06600551  1
  Li  Li14  1  0.66662907  0.33331896  0.23353350  1
  Li  Li15  1  0.66666134  0.33332931  0.71649643  1
  Li  Li16  1  0.97658378  0.30948767  0.06600460  1
  Li  Li17  1  0.97532622  0.30891441  0.39716109  1
  Cr  Cr18  1  0.99996975  0.99998424  0.23135797  1
  Cr  Cr19  1  0.00001063  0.00000579  0.73140180  1
  Cr  Cr20  1  0.33333576  0.66665732  0.50982456  1
  Cr  Cr21  1  0.33332890  0.66667067  0.95547005  1
  Cr  Cr22  1  0.66667367  0.33333705  0.45546911  1
  Cr  Cr23  1  0.66667126  0.33333281  0.00984616  1
  Si  Si24  1  0.02686172  0.67440519  0.34583539  1
  Si  Si25  1  0.02336957  0.67361524  0.11974928  1
  Si  Si26  1  0.32639472  0.34976551  0.11975255  1
  Si  Si27  1  0.32559085  0.35244732  0.34582692  1
  Si  Si28  1  0.65023824  0.97663649  0.11974654  1
  Si  Si29  1  0.64753457  0.97313037  0.34582870  1
  Si  Si30  1  0.35247982  0.02688231  0.84582895  1
  Si  Si31  1  0.34975671  0.02335278  0.61974538  1
  Si  Si32  1  0.67440316  0.64753163  0.84583127  1
  Si  Si33  1  0.67360092  0.65023728  0.61975074  1
  Si  Si34  1  0.97664415  0.32639428  0.61974844  1
  Si  Si35  1  0.97313075  0.32560527  0.84583296  1
  O  O36  1  0.13325854  0.93194144  0.84270315  1
  O  O37  1  0.13094737  0.92650796  0.62532115  1
  O  O38  1  0.12732566  0.69201841  0.23239291  1
  O  O39  1  0.18782252  0.75659365  0.03533634  1
  O  O40  1  0.18942465  0.75829647  0.43089065  1
  O  O41  1  0.12065545  0.53962466  0.60502285  1
  O  O42  1  0.12038261  0.53852465  0.86041375  1
  O  O43  1  0.06804806  0.20130015  0.84269729  1
  O  O44  1  0.41814532  0.87962632  0.86041168  1
  O  O45  1  0.07350011  0.20444010  0.62532877  1
  O  O46  1  0.41898363  0.87935233  0.60502678  1
  O  O47  1  0.24341770  0.43123039  0.03533206  1
  O  O48  1  0.24169876  0.43110735  0.43089255  1
  O  O49  1  0.30799538  0.43531848  0.23239015  1
  O  O50  1  0.20130777  0.13325064  0.34268766  1
  O  O51  1  0.56468236  0.87266780  0.23238861  1
  O  O52  1  0.20444614  0.13094863  0.12531868  1
  O  O53  1  0.56888575  0.81057843  0.43089308  1
  O  O54  1  0.56877095  0.81219016  0.03533427  1
  O  O55  1  0.46037288  0.58102158  0.60502141  1
  O  O56  1  0.46148500  0.58187212  0.86041918  1
  O  O57  1  0.53852664  0.41813461  0.36040644  1
  O  O58  1  0.53963303  0.41897444  0.10503555  1
  O  O59  1  0.43123544  0.18781621  0.53533493  1
  O  O60  1  0.43112531  0.18942467  0.93090403  1
  O  O61  1  0.79556107  0.86904922  0.62532515  1
  O  O62  1  0.43531461  0.12733358  0.73239521  1
  O  O63  1  0.79869768  0.86675185  0.84269912  1
  O  O64  1  0.69199947  0.56468427  0.73239469  1
  O  O65  1  0.75831051  0.56888656  0.93089940  1
  O  O66  1  0.75658490  0.56876700  0.53533345  1
  O  O67  1  0.58101292  0.12064300  0.10503062  1
  O  O68  1  0.92649656  0.79555761  0.12531236  1
  O  O69  1  0.58185087  0.12037502  0.36041010  1
  O  O70  1  0.93195053  0.79869760  0.34269110  1
  O  O71  1  0.87961843  0.46146940  0.36041532  1
  O  O72  1  0.87935996  0.46037974  0.10502174  1
  O  O73  1  0.81057452  0.24169975  0.93089650  1
  O  O74  1  0.81218340  0.24341366  0.53533345  1
  O  O75  1  0.87267254  0.30799071  0.73239684  1
  O  O76  1  0.86905245  0.07350048  0.12531199  1
  O  O77  1  0.86674042  0.06805781  0.34268933  1
