# generated using pymatgen
data_MgCr2O4
_symmetry_space_group_name_H-M   'P 1'
_cell_length_a   2.92613661
_cell_length_b   9.81785826
_cell_length_c   9.66996396
_cell_angle_alpha   90.00008550
_cell_angle_beta   89.99709639
_cell_angle_gamma   90.00064884
_symmetry_Int_Tables_number   1
_chemical_formula_structural   MgCr2O4
_chemical_formula_sum   'Mg4 Cr8 O16'
_cell_volume   277.80253943
_cell_formula_units_Z   4
loop_
 _symmetry_equiv_pos_site_id
 _symmetry_equiv_pos_as_xyz
  1  'x, y, z'
loop_
 _atom_site_type_symbol
 _atom_site_label
 _atom_site_symmetry_multiplicity
 _atom_site_fract_x
 _atom_site_fract_y
 _atom_site_fract_z
 _atom_site_occupancy
  Mg  Mg0  1  0.28825600  0.75000767  0.14141722  1
  Mg  Mg1  1  0.28799768  0.24999528  0.35858886  1
  Mg  Mg2  1  0.71191725  0.75000161  0.64141174  1
  Mg  Mg3  1  0.71175373  0.25001476  0.85859050  1
  Cr  Cr4  1  0.75972667  0.57159942  0.38344889  1
  Cr  Cr5  1  0.75969650  0.07161452  0.11656728  1
  Cr  Cr6  1  0.24032855  0.07160090  0.61656373  1
  Cr  Cr7  1  0.75962060  0.42840427  0.11654916  1
  Cr  Cr8  1  0.24032982  0.42839785  0.61655638  1
  Cr  Cr9  1  0.75971888  0.92840081  0.38344650  1
  Cr  Cr10  1  0.24033564  0.92838170  0.88343884  1
  Cr  Cr11  1  0.24029653  0.57160606  0.88343743  1
  O  O12  1  0.25686454  0.88643653  0.52002947  1
  O  O13  1  0.74321920  0.11356306  0.47997398  1
  O  O14  1  0.26173116  0.00001203  0.25000765  1
  O  O15  1  0.74319502  0.88643703  0.02003486  1
  O  O16  1  0.74308973  0.61356038  0.02002555  1
  O  O17  1  0.78218429  0.25000383  0.21329283  1
  O  O18  1  0.25688608  0.11355655  0.97996822  1
  O  O19  1  0.21766553  0.24999873  0.71330230  1
  O  O20  1  0.26168519  0.49999083  0.25000502  1
  O  O21  1  0.73833275  0.99997697  0.74999457  1
  O  O22  1  0.25684238  0.61356071  0.52002929  1
  O  O23  1  0.21774978  0.74999759  0.78670070  1
  O  O24  1  0.78235344  0.74999962  0.28670044  1
  O  O25  1  0.73827014  0.50000389  0.74999218  1
  O  O26  1  0.25677927  0.38644226  0.97996513  1
  O  O27  1  0.74317364  0.38643412  0.47996326  1
