# generated using pymatgen
data_Li2Cu2F5
_symmetry_space_group_name_H-M   'P 1'
_cell_length_a   9.95832624
_cell_length_b   3.01562759
_cell_length_c   14.07719019
_cell_angle_alpha   90.00000000
_cell_angle_beta   93.13110528
_cell_angle_gamma   90.00000000
_symmetry_Int_Tables_number   1
_chemical_formula_structural   Li2Cu2F5
_chemical_formula_sum   'Li8 Cu8 F20'
_cell_volume   422.11542389
_cell_formula_units_Z   4
loop_
 _symmetry_equiv_pos_site_id
 _symmetry_equiv_pos_as_xyz
  1  'x, y, z'
loop_
 _atom_site_type_symbol
 _atom_site_label
 _atom_site_symmetry_multiplicity
 _atom_site_fract_x
 _atom_site_fract_y
 _atom_site_fract_z
 _atom_site_occupancy
  Li  Li0  1  0.10825742  0.30730278  0.70724455  1
  Li  Li1  1  0.10825742  0.19269722  0.20724455  1
  Li  Li2  1  0.31346617  0.81892042  0.59604659  1
  Li  Li3  1  0.31346617  0.68107958  0.09604659  1
  Li  Li4  1  0.68653383  0.31892042  0.90395341  1
  Li  Li5  1  0.68653383  0.18107958  0.40395341  1
  Li  Li6  1  0.89174258  0.80730278  0.79275545  1
  Li  Li7  1  0.89174258  0.69269722  0.29275545  1
  Cu  Cu8  1  0.11162631  0.23629973  0.95353174  1
  Cu  Cu9  1  0.11162631  0.26370027  0.45353174  1
  Cu  Cu10  1  0.38655006  0.79682752  0.82437424  1
  Cu  Cu11  1  0.38655006  0.70317248  0.32437424  1
  Cu  Cu12  1  0.61344994  0.29682752  0.67562576  1
  Cu  Cu13  1  0.61344994  0.20317248  0.17562576  1
  Cu  Cu14  1  0.88837369  0.73629973  0.54646826  1
  Cu  Cu15  1  0.88837369  0.76370027  0.04646826  1
  F  F16  1  0.02811982  0.29372781  0.83262754  1
  F  F17  1  0.02811982  0.20627219  0.33262754  1
  F  F18  1  0.17531347  0.32461196  0.57892881  1
  F  F19  1  0.24037919  0.81365761  0.73632269  1
  F  F20  1  0.17531347  0.17538804  0.07892881  1
  F  F21  1  0.27861170  0.65177026  0.93728932  1
  F  F22  1  0.24037919  0.68634239  0.23632269  1
  F  F23  1  0.27861170  0.84822974  0.43728932  1
  F  F24  1  0.43845390  0.31804263  0.62621043  1
  F  F25  1  0.43845390  0.18195737  0.12621043  1
  F  F26  1  0.56154610  0.81804263  0.87378957  1
  F  F27  1  0.56154610  0.68195737  0.37378957  1
  F  F28  1  0.72138830  0.15177026  0.56271068  1
  F  F29  1  0.75962081  0.31365761  0.76367731  1
  F  F30  1  0.72138830  0.34822974  0.06271068  1
  F  F31  1  0.82468653  0.82461196  0.92107119  1
  F  F32  1  0.75962081  0.18634239  0.26367731  1
  F  F33  1  0.82468653  0.67538804  0.42107119  1
  F  F34  1  0.97188018  0.79372781  0.66737246  1
  F  F35  1  0.97188018  0.70627219  0.16737246  1
