# generated using pymatgen
data_LiMnF4
_symmetry_space_group_name_H-M   'P 1'
_cell_length_a   5.32783184
_cell_length_b   6.88430220
_cell_length_c   5.07609414
_cell_angle_alpha   62.12471377
_cell_angle_beta   89.85070113
_cell_angle_gamma   66.76828423
_symmetry_Int_Tables_number   1
_chemical_formula_structural   LiMnF4
_chemical_formula_sum   'Li2 Mn2 F8'
_cell_volume   147.39787236
_cell_formula_units_Z   2
loop_
 _symmetry_equiv_pos_site_id
 _symmetry_equiv_pos_as_xyz
  1  'x, y, z'
loop_
 _atom_site_type_symbol
 _atom_site_label
 _atom_site_symmetry_multiplicity
 _atom_site_fract_x
 _atom_site_fract_y
 _atom_site_fract_z
 _atom_site_occupancy
  Li  Li0  1  0.14326487  0.99376837  0.74888451  1
  Li  Li1  1  0.85248197  0.00428720  0.24689660  1
  Mn  Mn2  1  0.50084707  0.50035165  0.49835414  1
  Mn  Mn3  1  0.00100834  0.49794592  0.99923718  1
  F  F4  1  0.97200608  0.80147486  0.69485978  1
  F  F5  1  0.56980187  0.64260554  0.71414343  1
  F  F6  1  0.21982946  0.80268251  0.19569531  1
  F  F7  1  0.78559489  0.63910044  0.21398510  1
  F  F8  1  0.22016636  0.35526435  0.78856155  1
  F  F9  1  0.78320311  0.19825076  0.80111140  1
  F  F10  1  0.43236872  0.35771398  0.28543421  1
  F  F11  1  0.02889625  0.19376542  0.30277277  1
