# generated using pymatgen
data_TiFe3Co2(PO4)6
_symmetry_space_group_name_H-M   'P 1'
_cell_length_a   8.44931695
_cell_length_b   8.64324448
_cell_length_c   8.64324464
_cell_angle_alpha   59.99999831
_cell_angle_beta   59.23780863
_cell_angle_gamma   59.23781223
_symmetry_Int_Tables_number   1
_chemical_formula_structural   TiFe3Co2(PO4)6
_chemical_formula_sum   'Ti1 Fe3 Co2 P6 O24'
_cell_volume   441.12294081
_cell_formula_units_Z   1
loop_
 _symmetry_equiv_pos_site_id
 _symmetry_equiv_pos_as_xyz
  1  'x, y, z'
loop_
 _atom_site_type_symbol
 _atom_site_label
 _atom_site_symmetry_multiplicity
 _atom_site_fract_x
 _atom_site_fract_y
 _atom_site_fract_z
 _atom_site_occupancy
  Ti  Ti0  1  0.56661851  0.14446050  0.14446050  1
  Fe  Fe1  1  0.06609628  0.64463424  0.64463424  1
  Fe  Fe2  1  0.43685927  0.85437991  0.85437991  1
  Fe  Fe3  1  0.93250166  0.35583245  0.35583245  1
  Co  Co4  1  0.00626060  0.99791347  0.99791347  1
  Co  Co5  1  0.50258595  0.49913768  0.49913768  1
  P  P6  1  0.24811892  0.25121811  0.54733220  1
  P  P7  1  0.24811892  0.95333077  0.25121811  1
  P  P8  1  0.24811892  0.54733220  0.95333077  1
  P  P9  1  0.74966417  0.45395878  0.04667137  1
  P  P10  1  0.74966417  0.04667137  0.74970568  1
  P  P11  1  0.74966417  0.74970568  0.45395878  1
  O  O12  1  0.06472530  0.10926002  0.32153909  1
  O  O13  1  0.06472530  0.50447559  0.10926002  1
  O  O14  1  0.06472530  0.32153909  0.50447559  1
  O  O15  1  0.22254197  0.09275271  0.74533608  1
  O  O16  1  0.43112119  0.17912674  0.38430758  1
  O  O17  1  0.28451821  0.40612641  0.55506313  1
  O  O18  1  0.22254197  0.93936924  0.09275271  1
  O  O19  1  0.28451821  0.75429224  0.40612641  1
  O  O20  1  0.56469660  0.60899325  0.00506222  1
  O  O21  1  0.28451821  0.55506313  0.75429224  1
  O  O22  1  0.77525039  0.25269565  0.06265166  1
  O  O23  1  0.56469660  0.00506222  0.82124794  1
  O  O24  1  0.43112119  0.00544549  0.17912674  1
  O  O25  1  0.22254197  0.74533608  0.93936924  1
  O  O26  1  0.72036819  0.43838430  0.24740486  1
  O  O27  1  0.43112119  0.38430758  0.00544549  1
  O  O28  1  0.72036819  0.24740486  0.59384165  1
  O  O29  1  0.77525039  0.06265166  0.90940230  1
  O  O30  1  0.72036819  0.59384165  0.43838430  1
  O  O31  1  0.56469660  0.82124794  0.60899325  1
  O  O32  1  0.77525039  0.90940230  0.25269565  1
  O  O33  1  0.93535329  0.68303548  0.49205027  1
  O  O34  1  0.93535329  0.49205027  0.88955995  1
  O  O35  1  0.93535329  0.88955995  0.68303548  1
