# generated using pymatgen
data_LiFeSiO4
_symmetry_space_group_name_H-M   'P 1'
_cell_length_a   10.95667182
_cell_length_b   10.95667186
_cell_length_c   11.66484376
_cell_angle_alpha   90.00000000
_cell_angle_beta   90.00000000
_cell_angle_gamma   119.99999989
_symmetry_Int_Tables_number   1
_chemical_formula_structural   LiFeSiO4
_chemical_formula_sum   'Li12 Fe12 Si12 O48'
_cell_volume   1212.73766802
_cell_formula_units_Z   12
loop_
 _symmetry_equiv_pos_site_id
 _symmetry_equiv_pos_as_xyz
  1  'x, y, z'
loop_
 _atom_site_type_symbol
 _atom_site_label
 _atom_site_symmetry_multiplicity
 _atom_site_fract_x
 _atom_site_fract_y
 _atom_site_fract_z
 _atom_site_occupancy
  Li  Li0  1  0.00000000  0.50000000  0.00915363  1
  Li  Li1  1  0.00000000  0.50000000  0.65751337  1
  Li  Li2  1  0.00000000  0.50000000  0.33333300  1
  Li  Li3  1  0.00000000  0.00000000  0.16666700  1
  Li  Li4  1  0.00000000  0.00000000  0.50000000  1
  Li  Li5  1  0.00000000  0.00000000  0.83333300  1
  Li  Li6  1  0.50000000  0.50000000  0.34248663  1
  Li  Li7  1  0.50000000  0.50000000  0.66666700  1
  Li  Li8  1  0.50000000  0.50000000  0.99084637  1
  Li  Li9  1  0.50000000  0.00000000  0.32418037  1
  Li  Li10  1  0.50000000  0.00000000  0.00000000  1
  Li  Li11  1  0.50000000  0.00000000  0.67581963  1
  Fe  Fe12  1  0.00000000  0.75026068  0.33333300  1
  Fe  Fe13  1  0.24683911  0.75316089  0.66666700  1
  Fe  Fe14  1  0.00000000  0.24973932  0.33333300  1
  Fe  Fe15  1  0.24683911  0.49367821  0.00000000  1
  Fe  Fe16  1  0.24973932  0.24973932  0.66666700  1
  Fe  Fe17  1  0.50632179  0.75316089  0.33333300  1
  Fe  Fe18  1  0.24973932  0.00000000  0.00000000  1
  Fe  Fe19  1  0.49367821  0.24683911  0.33333300  1
  Fe  Fe20  1  0.75026068  0.75026068  0.66666700  1
  Fe  Fe21  1  0.75316089  0.50632179  0.00000000  1
  Fe  Fe22  1  0.75316089  0.24683911  0.66666700  1
  Fe  Fe23  1  0.75026068  0.00000000  0.00000000  1
  Si  Si24  1  0.00000000  0.74810234  0.83333300  1
  Si  Si25  1  0.00000000  0.25189766  0.83333300  1
  Si  Si26  1  0.25235466  0.74764534  0.16666700  1
  Si  Si27  1  0.25235466  0.50471032  0.50000000  1
  Si  Si28  1  0.49528968  0.74764534  0.83333300  1
  Si  Si29  1  0.25189766  0.25189766  0.16666700  1
  Si  Si30  1  0.25189766  0.00000000  0.50000000  1
  Si  Si31  1  0.74810234  0.74810234  0.16666700  1
  Si  Si32  1  0.50471032  0.25235466  0.83333300  1
  Si  Si33  1  0.74764534  0.49528968  0.50000000  1
  Si  Si34  1  0.74764534  0.25235466  0.16666700  1
  Si  Si35  1  0.74810234  0.00000000  0.50000000  1
  O  O36  1  0.10026988  0.89664234  0.43683123  1
  O  O37  1  0.10335766  0.89973012  0.89650277  1
  O  O38  1  0.07308553  0.69102992  0.74036853  1
  O  O39  1  0.11937548  0.70151342  0.25519591  1
  O  O40  1  0.29848658  0.88062452  0.07813809  1
  O  O41  1  0.30897008  0.92691447  0.59296547  1
  O  O42  1  0.19654543  0.59405014  0.57611066  1
  O  O43  1  0.07308553  0.38205561  0.92629847  1
  O  O44  1  0.19654543  0.60249629  0.09055634  1
  O  O45  1  0.11937548  0.41786206  0.41147109  1
  O  O46  1  0.10026988  0.20362854  0.22983577  1
  O  O47  1  0.40594986  0.80345457  0.75722334  1
  O  O48  1  0.39750371  0.80345457  0.24277666  1
  O  O49  1  0.10335766  0.20362854  0.77016423  1
  O  O50  1  0.29848658  0.41786206  0.58852891  1
  O  O51  1  0.40594986  0.60249629  0.90944366  1
  O  O52  1  0.30897008  0.38205561  0.07370153  1
  O  O53  1  0.39750371  0.59405014  0.42388934  1
  O  O54  1  0.20362854  0.10335766  0.56316877  1
  O  O55  1  0.20362854  0.10026988  0.10349723  1
  O  O56  1  0.61794439  0.92691447  0.40703453  1
  O  O57  1  0.58213794  0.88062452  0.92186191  1
  O  O58  1  0.58213794  0.70151342  0.74480409  1
  O  O59  1  0.38205561  0.30897008  0.25963147  1
  O  O60  1  0.61794439  0.69102992  0.25963147  1
  O  O61  1  0.41786206  0.29848658  0.74480409  1
  O  O62  1  0.41786206  0.11937548  0.92186191  1
  O  O63  1  0.38205561  0.07308553  0.40703453  1
  O  O64  1  0.79637146  0.89973012  0.10349723  1
  O  O65  1  0.79637146  0.89664234  0.56316877  1
  O  O66  1  0.60249629  0.40594986  0.42388934  1
  O  O67  1  0.69102992  0.61794439  0.07370153  1
  O  O68  1  0.59405014  0.39750371  0.90944366  1
  O  O69  1  0.70151342  0.58213794  0.58852891  1
  O  O70  1  0.89664234  0.79637146  0.77016423  1
  O  O71  1  0.60249629  0.19654543  0.24277666  1
  O  O72  1  0.59405014  0.19654543  0.75722334  1
  O  O73  1  0.89973012  0.79637146  0.22983577  1
  O  O74  1  0.88062452  0.58213794  0.41147109  1
  O  O75  1  0.80345457  0.39750371  0.09055634  1
  O  O76  1  0.92691447  0.61794439  0.92629847  1
  O  O77  1  0.80345457  0.40594986  0.57611066  1
  O  O78  1  0.69102992  0.07308553  0.59296547  1
  O  O79  1  0.70151342  0.11937548  0.07813809  1
  O  O80  1  0.88062452  0.29848658  0.25519591  1
  O  O81  1  0.92691447  0.30897008  0.74036853  1
  O  O82  1  0.89664234  0.10026988  0.89650277  1
  O  O83  1  0.89973012  0.10335766  0.43683123  1
