# generated using pymatgen
data_Na3LiMn5O9
_symmetry_space_group_name_H-M   'P 1'
_cell_length_a   8.47587326
_cell_length_b   5.43361899
_cell_length_c   5.34110361
_cell_angle_alpha   120.44981530
_cell_angle_beta   108.26112828
_cell_angle_gamma   72.01809515
_symmetry_Int_Tables_number   1
_chemical_formula_structural   Na3LiMn5O9
_chemical_formula_sum   'Na3 Li1 Mn5 O9'
_cell_volume   197.97036659
_cell_formula_units_Z   1
loop_
 _symmetry_equiv_pos_site_id
 _symmetry_equiv_pos_as_xyz
  1  'x, y, z'
loop_
 _atom_site_type_symbol
 _atom_site_label
 _atom_site_symmetry_multiplicity
 _atom_site_fract_x
 _atom_site_fract_y
 _atom_site_fract_z
 _atom_site_occupancy
  Na  Na0  1  0.47870193  0.84862220  0.14669330  1
  Na  Na1  1  0.48171211  0.17858047  0.82121219  1
  Na  Na2  1  0.47982174  0.52564635  0.49303919  1
  Li  Li3  1  0.16948027  0.94891640  0.72027705  1
  Mn  Mn4  1  0.15405288  0.60376482  0.05076548  1
  Mn  Mn5  1  0.15370296  0.26585555  0.37502868  1
  Mn  Mn6  1  0.81949373  0.06955872  0.26853706  1
  Mn  Mn7  1  0.82014269  0.39757351  0.92568544  1
  Mn  Mn8  1  0.82367930  0.73001088  0.59765568  1
  O  O9  1  0.99322750  0.60553007  0.28030433  1
  O  O10  1  0.96293038  0.32155416  0.64451186  1
  O  O11  1  0.28405909  0.26313675  0.09382723  1
  O  O12  1  0.28409303  0.92655897  0.42063100  1
  O  O13  1  0.26710802  0.55178593  0.75044245  1
  O  O14  1  0.69354714  0.12341693  0.55468949  1
  O  O15  1  0.68779096  0.44458740  0.19320482  1
  O  O16  1  0.68786685  0.80253328  0.91241564  1
  O  O17  1  0.99318142  0.98211960  0.03205312  1
