# generated using pymatgen
data_MnOF
_symmetry_space_group_name_H-M   'P 1'
_cell_length_a   4.81607017
_cell_length_b   18.94439507
_cell_length_c   3.08094287
_cell_angle_alpha   90.00000000
_cell_angle_beta   90.00000000
_cell_angle_gamma   89.47525400
_symmetry_Int_Tables_number   1
_chemical_formula_structural   MnOF
_chemical_formula_sum   'Mn8 O8 F8'
_cell_volume   281.08584718
_cell_formula_units_Z   8
loop_
 _symmetry_equiv_pos_site_id
 _symmetry_equiv_pos_as_xyz
  1  'x, y, z'
loop_
 _atom_site_type_symbol
 _atom_site_label
 _atom_site_symmetry_multiplicity
 _atom_site_fract_x
 _atom_site_fract_y
 _atom_site_fract_z
 _atom_site_occupancy
  Mn  Mn0  1  0.92651218  0.00000050  0.00000000  1
  Mn  Mn1  1  0.07348782  0.24999950  0.00000000  1
  Mn  Mn2  1  0.08076329  0.49924892  0.00000000  1
  Mn  Mn3  1  0.91923671  0.75075108  0.00000000  1
  Mn  Mn4  1  0.50000000  0.12500000  0.50000000  1
  Mn  Mn5  1  0.64821566  0.37598858  0.50000000  1
  Mn  Mn6  1  0.50000000  0.62500000  0.50000000  1
  Mn  Mn7  1  0.35178434  0.87401142  0.50000000  1
  O  O8  1  0.23610800  0.20011735  0.50000000  1
  O  O9  1  0.09629706  0.95029897  0.50000000  1
  O  O10  1  0.33722747  0.57543948  0.00000000  1
  O  O11  1  0.18770915  0.82585671  0.00000000  1
  O  O12  1  0.81229085  0.42414329  0.00000000  1
  O  O13  1  0.66277253  0.67456052  0.00000000  1
  O  O14  1  0.76389200  0.04988265  0.50000000  1
  O  O15  1  0.90370294  0.29970103  0.50000000  1
  F  F16  1  0.30782595  0.44956398  0.50000000  1
  F  F17  1  0.13407253  0.70427772  0.50000000  1
  F  F18  1  0.28924618  0.07673722  0.00000000  1
  F  F19  1  0.42698928  0.32968718  0.00000000  1
  F  F20  1  0.71075382  0.17326278  0.00000000  1
  F  F21  1  0.57301072  0.92031282  0.00000000  1
  F  F22  1  0.86592747  0.54572228  0.50000000  1
  F  F23  1  0.69217405  0.80043602  0.50000000  1
