# generated using pymatgen
data_Li4Mn3V3(WO8)2
_symmetry_space_group_name_H-M   'P 1'
_cell_length_a   6.09161055
_cell_length_b   6.10479960
_cell_length_c   9.84581643
_cell_angle_alpha   89.99901444
_cell_angle_beta   91.10927945
_cell_angle_gamma   120.07158753
_symmetry_Int_Tables_number   1
_chemical_formula_structural   Li4Mn3V3(WO8)2
_chemical_formula_sum   'Li4 Mn3 V3 W2 O16'
_cell_volume   316.78424420
_cell_formula_units_Z   1
loop_
 _symmetry_equiv_pos_site_id
 _symmetry_equiv_pos_as_xyz
  1  'x, y, z'
loop_
 _atom_site_type_symbol
 _atom_site_label
 _atom_site_symmetry_multiplicity
 _atom_site_fract_x
 _atom_site_fract_y
 _atom_site_fract_z
 _atom_site_occupancy
  Li  Li0  1  0.31946095  0.65976005  0.90950021  1
  Li  Li1  1  0.01343567  0.00669813  0.98713153  1
  Li  Li2  1  0.01137991  0.00571688  0.48774001  1
  Li  Li3  1  0.65684080  0.32840206  0.40511565  1
  Mn  Mn4  1  0.66296232  0.83148891  0.21090351  1
  Mn  Mn5  1  0.83230666  0.66187147  0.70859398  1
  Mn  Mn6  1  0.83233741  0.17048108  0.70858697  1
  V  V7  1  0.17909156  0.83623896  0.21605248  1
  V  V8  1  0.17915199  0.34289614  0.21607772  1
  V  V9  1  0.34907149  0.17455307  0.72367610  1
  W  W10  1  0.33191029  0.66599964  0.48653125  1
  W  W11  1  0.67370337  0.33684301  0.98897500  1
  O  O12  1  0.18661250  0.83150560  0.58884712  1
  O  O13  1  0.04056607  0.52032274  0.35040835  1
  O  O14  1  0.31145734  0.65573494  0.11009193  1
  O  O15  1  0.01522141  0.00761656  0.30152388  1
  O  O16  1  0.02884666  0.01443653  0.79798232  1
  O  O17  1  0.18660096  0.35516636  0.58883213  1
  O  O18  1  0.46580722  0.95538597  0.35173021  1
  O  O19  1  0.46578749  0.51042631  0.35174648  1
  O  O20  1  0.35709490  0.17849975  0.09427540  1
  O  O21  1  0.65727627  0.82865638  0.57705707  1
  O  O22  1  0.50030926  0.46102705  0.85446679  1
  O  O23  1  0.50032866  0.03929743  0.85445798  1
  O  O24  1  0.62298100  0.31150431  0.61032623  1
  O  O25  1  0.83633535  0.65552529  0.08489180  1
  O  O26  1  0.94671631  0.47337903  0.85742116  1
  O  O27  1  0.83640419  0.18086836  0.08489475  1
