# generated using pymatgen
data_Co3OF5
_symmetry_space_group_name_H-M   'P 1'
_cell_length_a   7.41711566
_cell_length_b   5.67903704
_cell_length_c   5.66038769
_cell_angle_alpha   71.97038777
_cell_angle_beta   72.67436199
_cell_angle_gamma   72.92283823
_symmetry_Int_Tables_number   1
_chemical_formula_structural   Co3OF5
_chemical_formula_sum   'Co6 O2 F10'
_cell_volume   211.03401392
_cell_formula_units_Z   2
loop_
 _symmetry_equiv_pos_site_id
 _symmetry_equiv_pos_as_xyz
  1  'x, y, z'
loop_
 _atom_site_type_symbol
 _atom_site_label
 _atom_site_symmetry_multiplicity
 _atom_site_fract_x
 _atom_site_fract_y
 _atom_site_fract_z
 _atom_site_occupancy
  Co  Co0  1  0.83916818  0.64967841  0.66906410  1
  Co  Co1  1  0.32724713  0.65588826  0.65746944  1
  Co  Co2  1  0.65290307  0.32721886  0.33971500  1
  Co  Co3  1  0.17570081  0.34447992  0.35252457  1
  Co  Co4  1  0.49819195  0.99514873  0.00064067  1
  Co  Co5  1  0.00204400  0.03200740  0.97519578  1
  O  O6  1  0.37191431  0.42705782  0.43291611  1
  O  O7  1  0.00280133  0.30529043  0.70163610  1
  F  F8  1  0.32791360  0.36054804  0.97399987  1
  F  F9  1  0.67230121  0.01637074  0.63922284  1
  F  F10  1  0.63126107  0.56220640  0.56361668  1
  F  F11  1  0.29513849  0.89385799  0.90037616  1
  F  F12  1  0.96264883  0.23855521  0.23707313  1
  F  F13  1  0.03269331  0.77294375  0.77266746  1
  F  F14  1  0.70535847  0.09963142  0.09725728  1
  F  F15  1  0.32928932  0.97196545  0.36559362  1
  F  F16  1  0.66888165  0.63339163  0.03012005  1
  F  F17  1  0.00454227  0.71375955  0.29091213  1
