# generated using pymatgen
data_Li4Nb2Fe3Ni3O16
_symmetry_space_group_name_H-M   'P 1'
_cell_length_a   5.94415354
_cell_length_b   5.87321491
_cell_length_c   9.69886599
_cell_angle_alpha   90.01247434
_cell_angle_beta   91.20889359
_cell_angle_gamma   119.57932878
_symmetry_Int_Tables_number   1
_chemical_formula_structural   Li4Nb2Fe3Ni3O16
_chemical_formula_sum   'Li4 Nb2 Fe3 Ni3 O16'
_cell_volume   294.38369256
_cell_formula_units_Z   1
loop_
 _symmetry_equiv_pos_site_id
 _symmetry_equiv_pos_as_xyz
  1  'x, y, z'
loop_
 _atom_site_type_symbol
 _atom_site_label
 _atom_site_symmetry_multiplicity
 _atom_site_fract_x
 _atom_site_fract_y
 _atom_site_fract_z
 _atom_site_occupancy
  Li  Li0  1  0.32227419  0.66139875  0.89832388  1
  Li  Li1  1  0.99523633  0.99750649  0.98995289  1
  Li  Li2  1  0.99813908  0.99914301  0.49163918  1
  Li  Li3  1  0.67267037  0.33621718  0.40546493  1
  Nb  Nb4  1  0.34029948  0.66982488  0.49599797  1
  Nb  Nb5  1  0.65467232  0.32738835  0.99295059  1
  Fe  Fe6  1  0.17455452  0.83221587  0.21877389  1
  Fe  Fe7  1  0.17455837  0.34249031  0.21868441  1
  Fe  Fe8  1  0.34076190  0.17026712  0.71788678  1
  Ni  Ni9  1  0.66022566  0.83007158  0.21217325  1
  Ni  Ni10  1  0.82668741  0.66018200  0.71425294  1
  Ni  Ni11  1  0.82691615  0.16657153  0.71425786  1
  O  O12  1  0.18006949  0.84088048  0.59024463  1
  O  O13  1  0.03918276  0.51975486  0.34459150  1
  O  O14  1  0.32416612  0.66209806  0.10944916  1
  O  O15  1  0.00117659  0.00078090  0.30333581  1
  O  O16  1  0.99298372  0.99629139  0.80116886  1
  O  O17  1  0.17932199  0.33899850  0.59033953  1
  O  O18  1  0.48293983  0.96673160  0.34567786  1
  O  O19  1  0.48270589  0.51587435  0.34576329  1
  O  O20  1  0.33214350  0.16603630  0.09440420  1
  O  O21  1  0.68147699  0.84025312  0.59638389  1
  O  O22  1  0.50677511  0.47700949  0.84518275  1
  O  O23  1  0.50759454  0.03002438  0.84520142  1
  O  O24  1  0.67515974  0.33767023  0.61438596  1
  O  O25  1  0.83745570  0.66672802  0.08790738  1
  O  O26  1  0.95210674  0.47666353  0.83565023  1
  O  O27  1  0.83774453  0.17122670  0.08779596  1
