# generated using pymatgen
data_Li12Ni11O28
_symmetry_space_group_name_H-M   'P 1'
_cell_length_a   12.91358821
_cell_length_b   5.83023028
_cell_length_c   6.41274194
_cell_angle_alpha   105.70727879
_cell_angle_beta   95.80774487
_cell_angle_gamma   83.76674705
_symmetry_Int_Tables_number   1
_chemical_formula_structural   Li12Ni11O28
_chemical_formula_sum   'Li12 Ni11 O28'
_cell_volume   460.73085051
_cell_formula_units_Z   1
loop_
 _symmetry_equiv_pos_site_id
 _symmetry_equiv_pos_as_xyz
  1  'x, y, z'
loop_
 _atom_site_type_symbol
 _atom_site_label
 _atom_site_symmetry_multiplicity
 _atom_site_fract_x
 _atom_site_fract_y
 _atom_site_fract_z
 _atom_site_occupancy
  Li  Li0  1  0.07142388  0.63960275  0.64893424  1
  Li  Li1  1  0.14300591  0.78984628  0.29158050  1
  Li  Li2  1  0.20714579  0.43260051  0.92839761  1
  Li  Li3  1  0.28209341  0.06336342  0.56138024  1
  Li  Li4  1  0.35664695  0.21162850  0.21477306  1
  Li  Li5  1  0.42773194  0.35351976  0.86439528  1
  Li  Li6  1  0.49995140  0.00060382  0.48939062  1
  Li  Li7  1  0.57431222  0.63987116  0.15299869  1
  Li  Li8  1  0.71407990  0.42145216  0.43574902  1
  Li  Li9  1  0.78540054  0.57009000  0.07698470  1
  Li  Li10  1  0.85336121  0.21425800  0.70142680  1
  Li  Li11  1  0.93328424  0.85545193  0.36556087  1
  Ni  Ni12  1  0.00069545  0.00403096  0.99408162  1
  Ni  Ni13  1  0.14236898  0.29016486  0.28982107  1
  Ni  Ni14  1  0.21527248  0.93136036  0.92998725  1
  Ni  Ni15  1  0.28555114  0.56889107  0.56799628  1
  Ni  Ni16  1  0.42821485  0.85492487  0.86073660  1
  Ni  Ni17  1  0.49878653  0.49458295  0.49767955  1
  Ni  Ni18  1  0.57313807  0.14315318  0.14378983  1
  Ni  Ni19  1  0.64292763  0.78394180  0.78048995  1
  Ni  Ni20  1  0.78536774  0.07473159  0.07414099  1
  Ni  Ni21  1  0.85708149  0.71578755  0.71132497  1
  Ni  Ni22  1  0.92998924  0.36187821  0.35837746  1
  O  O23  1  0.03357572  0.09790424  0.29730190  1
  O  O24  1  0.03592219  0.54072484  0.32879856  1
  O  O25  1  0.11248636  0.18773398  0.98344052  1
  O  O26  1  0.10849273  0.76070526  0.96433077  1
  O  O27  1  0.18758593  0.36967054  0.58437424  1
  O  O28  1  0.19050615  0.83415822  0.62387087  1
  O  O29  1  0.23915327  0.02509098  0.23419193  1
  O  O30  1  0.24091257  0.48951256  0.27374379  1
  O  O31  1  0.32473040  0.10858827  0.89262620  1
  O  O32  1  0.31850056  0.66471914  0.87344524  1
  O  O33  1  0.39332101  0.31459915  0.53664586  1
  O  O34  1  0.39469417  0.75948783  0.55760727  1
  O  O35  1  0.47828050  0.40691016  0.19530379  1
  O  O36  1  0.53314662  0.03851388  0.83630103  1
  O  O37  1  0.47373632  0.93858734  0.15373098  1
  O  O38  1  0.53237538  0.59666622  0.80420846  1
  O  O39  1  0.59341620  0.22989459  0.44008993  1
  O  O40  1  0.59818904  0.69802691  0.48818693  1
  O  O41  1  0.68048316  0.32234239  0.11411460  1
  O  O42  1  0.67826130  0.88006670  0.08362756  1
  O  O43  1  0.75088597  0.54406163  0.75174329  1
  O  O44  1  0.75077950  0.97268369  0.76941383  1
  O  O45  1  0.83036531  0.15564469  0.36680860  1
  O  O46  1  0.83500465  0.62633714  0.40986912  1
  O  O47  1  0.89109273  0.25943814  0.04970393  1
  O  O48  1  0.89204716  0.81975640  0.01689539  1
  O  O49  1  0.94973935  0.44697413  0.65504419  1
  O  O50  1  0.95696480  0.91775232  0.70132001  1
