# generated using pymatgen
data_Li4Ti2Fe5O12
_symmetry_space_group_name_H-M   'P 1'
_cell_length_a   5.11223038
_cell_length_b   9.21396566
_cell_length_c   9.96950523
_cell_angle_alpha   89.99999718
_cell_angle_beta   101.45349028
_cell_angle_gamma   90.00000169
_symmetry_Int_Tables_number   1
_chemical_formula_structural   Li4Ti2Fe5O12
_chemical_formula_sum   'Li8 Ti4 Fe10 O24'
_cell_volume   460.25116231
_cell_formula_units_Z   2
loop_
 _symmetry_equiv_pos_site_id
 _symmetry_equiv_pos_as_xyz
  1  'x, y, z'
loop_
 _atom_site_type_symbol
 _atom_site_label
 _atom_site_symmetry_multiplicity
 _atom_site_fract_x
 _atom_site_fract_y
 _atom_site_fract_z
 _atom_site_occupancy
  Li  Li0  1  0.24607559  0.07866821  0.99605603  1
  Li  Li1  1  0.75687121  0.08000307  0.50847608  1
  Li  Li2  1  0.49384304  0.41906730  0.75039195  1
  Li  Li3  1  0.74778110  0.41379327  0.50452912  1
  Li  Li4  1  0.25392441  0.57866821  0.50394397  1
  Li  Li5  1  0.74312879  0.58000307  0.99152392  1
  Li  Li6  1  0.00615696  0.91906730  0.74960805  1
  Li  Li7  1  0.75221890  0.91379327  0.99547088  1
  Ti  Ti8  1  0.00892191  0.25446571  0.76312435  1
  Ti  Ti9  1  0.49209668  0.25089394  0.23731209  1
  Ti  Ti10  1  0.00790332  0.75089394  0.26268791  1
  Ti  Ti11  1  0.49107809  0.75446571  0.73687565  1
  Fe  Fe12  1  0.00025374  0.07800351  0.25756303  1
  Fe  Fe13  1  0.49802774  0.07786069  0.74463840  1
  Fe  Fe14  1  0.25325921  0.24774716  0.50050640  1
  Fe  Fe15  1  0.01666134  0.42284815  0.24604952  1
  Fe  Fe16  1  0.74642099  0.25861130  0.99743532  1
  Fe  Fe17  1  0.00197226  0.57786069  0.75536160  1
  Fe  Fe18  1  0.49974626  0.57800351  0.24243697  1
  Fe  Fe19  1  0.24674079  0.74774716  0.99949360  1
  Fe  Fe20  1  0.75357901  0.75861130  0.50256468  1
  Fe  Fe21  1  0.48333866  0.92284815  0.25395048  1
  O  O22  1  0.12668103  0.10904017  0.63090831  1
  O  O23  1  0.40142902  0.10436901  0.37109144  1
  O  O24  1  0.36625912  0.23380648  0.86517181  1
  O  O25  1  0.60996211  0.09848905  0.13221640  1
  O  O26  1  0.13109868  0.23867578  0.13452796  1
  O  O27  1  0.87200738  0.09731195  0.86342528  1
  O  O28  1  0.11358325  0.40760996  0.63548958  1
  O  O29  1  0.62227886  0.23940431  0.63184646  1
  O  O30  1  0.88655853  0.25695366  0.37303917  1
  O  O31  1  0.38952420  0.39900188  0.37904822  1
  O  O32  1  0.61840122  0.40776356  0.13777376  1
  O  O33  1  0.87490047  0.41102488  0.85811521  1
  O  O34  1  0.09857098  0.60436901  0.12890856  1
  O  O35  1  0.37331897  0.60904017  0.86909169  1
  O  O36  1  0.13374088  0.73380648  0.63482819  1
  O  O37  1  0.62799262  0.59731195  0.63657472  1
  O  O38  1  0.36890132  0.73867578  0.36547204  1
  O  O39  1  0.89003789  0.59848905  0.36778360  1
  O  O40  1  0.11047580  0.89900188  0.12095178  1
  O  O41  1  0.87772114  0.73940431  0.86815354  1
  O  O42  1  0.61344147  0.75695366  0.12696083  1
  O  O43  1  0.38641675  0.90760996  0.86451042  1
  O  O44  1  0.62509953  0.91102488  0.64188479  1
  O  O45  1  0.88159878  0.90776356  0.36222624  1
