# generated using pymatgen
data_NaVO3
_symmetry_space_group_name_H-M   'P 1'
_cell_length_a   7.82315742
_cell_length_b   7.82315742
_cell_length_c   6.22867278
_cell_angle_alpha   66.41703421
_cell_angle_beta   113.58296579
_cell_angle_gamma   106.92152252
_symmetry_Int_Tables_number   1
_chemical_formula_structural   NaVO3
_chemical_formula_sum   'Na4 V4 O12'
_cell_volume   316.27137963
_cell_formula_units_Z   4
loop_
 _symmetry_equiv_pos_site_id
 _symmetry_equiv_pos_as_xyz
  1  'x, y, z'
loop_
 _atom_site_type_symbol
 _atom_site_label
 _atom_site_symmetry_multiplicity
 _atom_site_fract_x
 _atom_site_fract_y
 _atom_site_fract_z
 _atom_site_occupancy
  Na  Na0  1  0.69696985  0.71677136  0.74219756  1
  Na  Na1  1  0.28284963  0.30002889  0.74245559  1
  Na  Na2  1  0.28322864  0.30303015  0.24219756  1
  Na  Na3  1  0.69997111  0.71715037  0.24245559  1
  V  V4  1  0.12633762  0.70392655  0.71267395  1
  V  V5  1  0.29607345  0.87366238  0.21267395  1
  V  V6  1  0.68599933  0.14535792  0.77276007  1
  V  V7  1  0.85464208  0.31400067  0.27276007  1
  O  O8  1  0.16336628  0.84293971  0.90923128  1
  O  O9  1  0.15706029  0.83663372  0.40923128  1
  O  O10  1  0.59095957  0.91621101  0.83612951  1
  O  O11  1  0.25747440  0.52884991  0.86516973  1
  O  O12  1  0.08378899  0.40904043  0.33612951  1
  O  O13  1  0.47115009  0.74252560  0.36516973  1
  O  O14  1  0.51231650  0.27828185  0.61844934  1
  O  O15  1  0.89672711  0.61061692  0.64861035  1
  O  O16  1  0.72171815  0.48768350  0.11844934  1
  O  O17  1  0.38938308  0.10327289  0.14861035  1
  O  O18  1  0.82550480  0.18152099  0.57732262  1
  O  O19  1  0.81847901  0.17449520  0.07732262  1
