# generated using pymatgen
data_LiMnPH2O5
_symmetry_space_group_name_H-M   'P 1'
_cell_length_a   8.24251461
_cell_length_b   10.51854201
_cell_length_c   10.70064180
_cell_angle_alpha   84.35014137
_cell_angle_beta   107.89534140
_cell_angle_gamma   71.67837900
_symmetry_Int_Tables_number   1
_chemical_formula_structural   LiMnPH2O5
_chemical_formula_sum   'Li8 Mn8 P8 H16 O40'
_cell_volume   818.33169832
_cell_formula_units_Z   8
loop_
 _symmetry_equiv_pos_site_id
 _symmetry_equiv_pos_as_xyz
  1  'x, y, z'
loop_
 _atom_site_type_symbol
 _atom_site_label
 _atom_site_symmetry_multiplicity
 _atom_site_fract_x
 _atom_site_fract_y
 _atom_site_fract_z
 _atom_site_occupancy
  Li  Li0  1  0.25670250  0.16243354  0.93322090  1
  Li  Li1  1  0.64881851  0.24279418  0.78632084  1
  Li  Li2  1  0.15382479  0.76919031  0.53270994  1
  Li  Li3  1  0.73504982  0.66261431  0.67361880  1
  Li  Li4  1  0.25055664  0.33587659  0.31919930  1
  Li  Li5  1  0.84960633  0.23612570  0.46677322  1
  Li  Li6  1  0.14694302  0.75701474  0.03342377  1
  Li  Li7  1  0.73895164  0.66016542  0.16762043  1
  Mn  Mn8  1  0.00264126  0.99530909  0.74647955  1
  Mn  Mn9  1  0.50193657  0.99235282  0.74724440  1
  Mn  Mn10  1  0.00020307  0.50193275  0.50344021  1
  Mn  Mn11  1  0.49767268  0.50094395  0.49908715  1
  Mn  Mn12  1  0.99740706  0.00179898  0.24916658  1
  Mn  Mn13  1  0.49973266  0.00054269  0.25175157  1
  Mn  Mn14  1  0.00334001  0.49202228  0.99667225  1
  Mn  Mn15  1  0.50110738  0.49502468  0.99572549  1
  P  P16  1  0.41924094  0.83532066  0.99576631  1
  P  P17  1  0.09197715  0.66205940  0.75548231  1
  P  P18  1  0.91555026  0.33289386  0.74282360  1
  P  P19  1  0.41630532  0.83493410  0.49460080  1
  P  P20  1  0.58728629  0.16743482  0.50457708  1
  P  P21  1  0.09004310  0.66086382  0.25466304  1
  P  P22  1  0.91484257  0.34041175  0.24711441  1
  P  P23  1  0.58782194  0.16072548  0.00224322  1
  H  H24  1  0.82045505  0.96050500  0.94961797  1
  H  H25  1  0.60466251  0.67839173  0.87472928  1
  H  H26  1  0.87005379  0.82825664  0.87482160  1
  H  H27  1  0.66202154  0.53614744  0.81107500  1
  H  H28  1  0.31939164  0.46039004  0.69854814  1
  H  H29  1  0.13079372  0.17212736  0.62407734  1
  H  H30  1  0.37077507  0.32623752  0.62532680  1
  H  H31  1  0.18229156  0.03525426  0.55490185  1
  H  H32  1  0.81797285  0.96553487  0.44280904  1
  H  H33  1  0.59844326  0.68111235  0.36840280  1
  H  H34  1  0.86673253  0.83093979  0.36938387  1
  H  H35  1  0.65922834  0.54046560  0.30739438  1
  H  H36  1  0.34179586  0.45994090  0.19156544  1
  H  H37  1  0.10689585  0.17446893  0.12653525  1
  H  H38  1  0.39462520  0.32272820  0.12268420  1
  H  H39  1  0.16151923  0.03491554  0.06172636  1
  O  O40  1  0.22767998  0.95708398  0.94429818  1
  O  O41  1  0.05616334  0.35079608  0.86760752  1
  O  O42  1  0.50491613  0.82688803  0.88507310  1
  O  O43  1  0.60551301  0.29854560  0.95545174  1
  O  O44  1  0.28362146  0.54820662  0.80329071  1
  O  O45  1  0.09984318  0.80142166  0.70089130  1
  O  O46  1  0.68181376  0.57501735  0.89390765  1
  O  O47  1  0.82758860  0.93027275  0.86268015  1
  O  O48  1  0.46628898  0.13007547  0.87401308  1
  O  O49  1  0.98213292  0.32600362  0.62072201  1
  O  O50  1  0.01405745  0.67174837  0.87279560  1
  O  O51  1  0.55000247  0.85675659  0.62115934  1
  O  O52  1  0.18525373  0.06935469  0.64135870  1
  O  O53  1  0.31800159  0.42848025  0.61037485  1
  O  O54  1  0.89125407  0.19555005  0.78156169  1
  O  O55  1  0.72633430  0.45452311  0.69825846  1
  O  O56  1  0.40613228  0.69217984  0.53832909  1
  O  O57  1  0.21466887  0.93870816  0.45156820  1
  O  O58  1  0.52429137  0.16884938  0.62830870  1
  O  O59  1  0.95658893  0.62884460  0.63749369  1
  O  O60  1  0.03906263  0.36940725  0.37486717  1
  O  O61  1  0.49277203  0.83414033  0.38020326  1
  O  O62  1  0.78714094  0.06201098  0.54496430  1
  O  O63  1  0.59829365  0.30949692  0.46122871  1
  O  O64  1  0.27481521  0.53424390  0.30949652  1
  O  O65  1  0.11477323  0.79440031  0.20692078  1
  O  O66  1  0.67236891  0.57793620  0.39075427  1
  O  O67  1  0.81470695  0.93343532  0.35536985  1
  O  O68  1  0.44930344  0.14354096  0.38338468  1
  O  O69  1  0.02128985  0.32707552  0.14751696  1
  O  O70  1  0.00686100  0.67625041  0.36910056  1
  O  O71  1  0.55028663  0.85219444  0.12628975  1
  O  O72  1  0.17408063  0.07110562  0.14599835  1
  O  O73  1  0.32828038  0.42636873  0.10565355  1
  O  O74  1  0.88709700  0.20675886  0.29012946  1
  O  O75  1  0.72820024  0.46510993  0.18605894  1
  O  O76  1  0.38949286  0.69848165  0.02913796  1
  O  O77  1  0.48036571  0.17057777  0.10122057  1
  O  O78  1  0.95977571  0.63018927  0.13147884  1
  O  O79  1  0.77952306  0.04578832  0.06079626  1
