# generated using pymatgen
data_NaCo3O4
_symmetry_space_group_name_H-M   'P 1'
_cell_length_a   6.76434267
_cell_length_b   5.71879824
_cell_length_c   5.36149706
_cell_angle_alpha   90.00054942
_cell_angle_beta   90.01800500
_cell_angle_gamma   89.98164866
_symmetry_Int_Tables_number   1
_chemical_formula_structural   NaCo3O4
_chemical_formula_sum   'Na2 Co6 O8'
_cell_volume   207.40365396
_cell_formula_units_Z   2
loop_
 _symmetry_equiv_pos_site_id
 _symmetry_equiv_pos_as_xyz
  1  'x, y, z'
loop_
 _atom_site_type_symbol
 _atom_site_label
 _atom_site_symmetry_multiplicity
 _atom_site_fract_x
 _atom_site_fract_y
 _atom_site_fract_z
 _atom_site_occupancy
  Na  Na0  1  0.99990943  0.83422729  0.98975325  1
  Na  Na1  1  0.50011973  0.16580451  0.48982392  1
  Co  Co2  1  0.00005980  0.18255689  0.49830769  1
  Co  Co3  1  0.25355107  0.33249440  0.99411267  1
  Co  Co4  1  0.24642193  0.66739729  0.49417044  1
  Co  Co5  1  0.49995659  0.81744437  0.99838402  1
  Co  Co6  1  0.75367059  0.66754476  0.49411913  1
  Co  Co7  1  0.74643484  0.33257375  0.99412018  1
  O  O8  1  0.99998331  0.21638189  0.85084304  1
  O  O9  1  0.00000727  0.85536024  0.43526347  1
  O  O10  1  0.28440545  0.65356657  0.86114103  1
  O  O11  1  0.21551672  0.34636493  0.36103260  1
  O  O12  1  0.50004996  0.14468637  0.93540564  1
  O  O13  1  0.49993913  0.78348923  0.35092931  1
  O  O14  1  0.78446756  0.34649475  0.36105245  1
  O  O15  1  0.71550663  0.65361277  0.86100918  1
