# generated using pymatgen
data_LiP2WO7
_symmetry_space_group_name_H-M   'P 1'
_cell_length_a   4.58253883
_cell_length_b   5.46142393
_cell_length_c   5.47017175
_cell_angle_alpha   76.27887357
_cell_angle_beta   82.12948304
_cell_angle_gamma   97.76288982
_symmetry_Int_Tables_number   1
_chemical_formula_structural   LiP2WO7
_chemical_formula_sum   'Li1 P2 W1 O7'
_cell_volume   129.73084857
_cell_formula_units_Z   1
loop_
 _symmetry_equiv_pos_site_id
 _symmetry_equiv_pos_as_xyz
  1  'x, y, z'
loop_
 _atom_site_type_symbol
 _atom_site_label
 _atom_site_symmetry_multiplicity
 _atom_site_fract_x
 _atom_site_fract_y
 _atom_site_fract_z
 _atom_site_occupancy
  Li  Li0  1  0.72594382  0.30126857  0.91327012  1
  P  P1  1  0.31191119  0.39171523  0.41603026  1
  P  P2  1  0.13496448  0.80848580  0.99880615  1
  W  W3  1  0.72386467  0.93132697  0.53894993  1
  O  O4  1  0.01311166  0.25274981  0.58967323  1
  O  O5  1  0.47885769  0.56390088  0.54943061  1
  O  O6  1  0.50456504  0.21548637  0.31093645  1
  O  O7  1  0.94300157  0.70332370  0.82309351  1
  O  O8  1  0.43452501  0.98118631  0.86098112  1
  O  O9  1  0.22209731  0.54997252  0.15841929  1
  O  O10  1  0.96733756  0.94378185  0.16996135  1
