# generated using pymatgen
data_Na6NiO4
_symmetry_space_group_name_H-M   'P 1'
_cell_length_a   7.47474739
_cell_length_b   7.46354435
_cell_length_c   5.41928013
_cell_angle_alpha   89.99988744
_cell_angle_beta   89.99873390
_cell_angle_gamma   90.05990897
_symmetry_Int_Tables_number   1
_chemical_formula_structural   Na6NiO4
_chemical_formula_sum   'Na12 Ni2 O8'
_cell_volume   302.33122346
_cell_formula_units_Z   2
loop_
 _symmetry_equiv_pos_site_id
 _symmetry_equiv_pos_as_xyz
  1  'x, y, z'
loop_
 _atom_site_type_symbol
 _atom_site_label
 _atom_site_symmetry_multiplicity
 _atom_site_fract_x
 _atom_site_fract_y
 _atom_site_fract_z
 _atom_site_occupancy
  Na  Na0  1  0.03731420  0.53875867  0.74945071  1
  Na  Na1  1  0.03661621  0.96187868  0.74943187  1
  Na  Na2  1  0.25000926  0.24997632  0.66033400  1
  Na  Na3  1  0.25001036  0.24991057  0.16026763  1
  Na  Na4  1  0.46337539  0.53810225  0.74940296  1
  Na  Na5  1  0.46272024  0.96123433  0.74945861  1
  Na  Na6  1  0.53887015  0.03743157  0.24963749  1
  Na  Na7  1  0.53941810  0.46204271  0.24962744  1
  Na  Na8  1  0.74999578  0.75002066  0.34096059  1
  Na  Na9  1  0.75000680  0.75002122  0.84089227  1
  Na  Na10  1  0.96054227  0.03804450  0.24967167  1
  Na  Na11  1  0.96121424  0.46266474  0.24959555  1
  Ni  Ni12  1  0.25000452  0.75000735  0.24814776  1
  Ni  Ni13  1  0.75001258  0.25002776  0.74919592  1
  O  O14  1  0.99425433  0.25081761  0.92565977  1
  O  O15  1  0.24955897  0.99454115  0.42586730  1
  O  O16  1  0.25045979  0.50539384  0.42578007  1
  O  O17  1  0.50576406  0.24918810  0.92565471  1
  O  O18  1  0.49717433  0.74954409  0.07499303  1
  O  O19  1  0.74928782  0.00223316  0.57548261  1
  O  O20  1  0.75073588  0.49782999  0.57548492  1
  O  O21  1  0.00283372  0.75050872  0.07500412  1
