# generated using pymatgen
data_Li2TiV2O6
_symmetry_space_group_name_H-M   'P 1'
_cell_length_a   2.98951380
_cell_length_b   6.72858325
_cell_length_c   6.04988306
_cell_angle_alpha   103.37492248
_cell_angle_beta   90.01203080
_cell_angle_gamma   102.82232883
_symmetry_Int_Tables_number   1
_chemical_formula_structural   Li2TiV2O6
_chemical_formula_sum   'Li2 Ti1 V2 O6'
_cell_volume   115.27091184
_cell_formula_units_Z   1
loop_
 _symmetry_equiv_pos_site_id
 _symmetry_equiv_pos_as_xyz
  1  'x, y, z'
loop_
 _atom_site_type_symbol
 _atom_site_label
 _atom_site_symmetry_multiplicity
 _atom_site_fract_x
 _atom_site_fract_y
 _atom_site_fract_z
 _atom_site_occupancy
  Li  Li0  1  0.67158463  0.34345118  0.84864039  1
  Li  Li1  1  0.99501967  0.99008634  0.48485445  1
  Ti  Ti2  1  0.33322849  0.66666824  0.66657807  1
  V  V3  1  0.99561851  0.99133222  0.01097633  1
  V  V4  1  0.67109057  0.34194202  0.32239506  1
  O  O5  1  0.48930526  0.97892002  0.76447362  1
  O  O6  1  0.83194588  0.66400604  0.45138743  1
  O  O7  1  0.15555275  0.31124705  0.08801395  1
  O  O8  1  0.83481273  0.66929738  0.88177669  1
  O  O9  1  0.17744506  0.35432479  0.56887730  1
  O  O10  1  0.51106245  0.02205872  0.24536070  1
