# generated using pymatgen
data_V4(AgO4)3
_symmetry_space_group_name_H-M   'P 1'
_cell_length_a   9.06192267
_cell_length_b   8.91939168
_cell_length_c   7.21798250
_cell_angle_alpha   66.37557427
_cell_angle_beta   78.47875014
_cell_angle_gamma   73.11798803
_symmetry_Int_Tables_number   1
_chemical_formula_structural   V4(AgO4)3
_chemical_formula_sum   'V8 Ag6 O24'
_cell_volume   509.16052131
_cell_formula_units_Z   2
loop_
 _symmetry_equiv_pos_site_id
 _symmetry_equiv_pos_as_xyz
  1  'x, y, z'
loop_
 _atom_site_type_symbol
 _atom_site_label
 _atom_site_symmetry_multiplicity
 _atom_site_fract_x
 _atom_site_fract_y
 _atom_site_fract_z
 _atom_site_occupancy
  V  V0  1  0.96009636  0.70854385  0.65736451  1
  V  V1  1  0.95738587  0.70791887  0.15538861  1
  V  V2  1  0.43589019  0.16423307  0.05765360  1
  V  V3  1  0.43142904  0.15730476  0.56383222  1
  V  V4  1  0.33529833  0.50384913  0.16551360  1
  V  V5  1  0.33747593  0.50219598  0.66384351  1
  V  V6  1  0.06221547  0.37391453  0.04685654  1
  V  V7  1  0.06529782  0.37056269  0.54794568  1
  Ag  Ag8  1  0.77700284  0.05727323  0.27930185  1
  Ag  Ag9  1  0.79769042  0.06704173  0.76491103  1
  Ag  Ag10  1  0.69641657  0.43762013  0.36261294  1
  Ag  Ag11  1  0.69794066  0.43870884  0.85108014  1
  Ag  Ag12  1  0.60655127  0.80607612  0.94581963  1
  Ag  Ag13  1  0.19627784  0.89639054  0.26118355  1
  O  O14  1  0.93279231  0.92452803  0.54248309  1
  O  O15  1  0.93042017  0.92290700  0.07175746  1
  O  O16  1  0.77141898  0.68450170  0.73329632  1
  O  O17  1  0.76881479  0.68291556  0.19978794  1
  O  O18  1  0.88032593  0.34329389  0.10842117  1
  O  O19  1  0.88456030  0.33222926  0.61171432  1
  O  O20  1  0.45474758  0.95369834  0.13481499  1
  O  O21  1  0.46429551  0.94984385  0.67879153  1
  O  O22  1  0.63362028  0.18024546  0.00353951  1
  O  O23  1  0.63050624  0.18573658  0.49276795  1
  O  O24  1  0.51964302  0.52914885  0.60496124  1
  O  O25  1  0.51966410  0.53086218  0.10586995  1
  O  O26  1  0.40138596  0.23042529  0.78332874  1
  O  O27  1  0.39919264  0.21724451  0.28983442  1
  O  O28  1  0.31389980  0.43864721  0.45071530  1
  O  O29  1  0.31504254  0.43639920  0.95398777  1
  O  O30  1  0.22000547  0.70101677  0.10538839  1
  O  O31  1  0.21731583  0.69975868  0.58640724  1
  O  O32  1  0.18835353  0.17877095  0.61265581  1
  O  O33  1  0.18037539  0.17625269  0.11498117  1
  O  O34  1  0.08188124  0.43963313  0.75990404  1
  O  O35  1  0.08271212  0.44006937  0.25848912  1
  O  O36  1  0.99382186  0.64481293  0.42907053  1
  O  O37  1  0.01023884  0.65342310  0.92172360  1
