# generated using pymatgen
data_Li2CoSiO4
_symmetry_space_group_name_H-M   'P 1'
_cell_length_a   6.04314055
_cell_length_b   5.40540376
_cell_length_c   10.73914622
_cell_angle_alpha   90.00000000
_cell_angle_beta   86.05518504
_cell_angle_gamma   90.00000000
_symmetry_Int_Tables_number   1
_chemical_formula_structural   Li2CoSiO4
_chemical_formula_sum   'Li8 Co4 Si4 O16'
_cell_volume   349.96968541
_cell_formula_units_Z   4
loop_
 _symmetry_equiv_pos_site_id
 _symmetry_equiv_pos_as_xyz
  1  'x, y, z'
loop_
 _atom_site_type_symbol
 _atom_site_label
 _atom_site_symmetry_multiplicity
 _atom_site_fract_x
 _atom_site_fract_y
 _atom_site_fract_z
 _atom_site_occupancy
  Li  Li0  1  0.02699926  0.31695439  0.82986435  1
  Li  Li1  1  0.02699926  0.18304561  0.32986435  1
  Li  Li2  1  0.22777401  0.17945668  0.57515704  1
  Li  Li3  1  0.22777401  0.32054332  0.07515704  1
  Li  Li4  1  0.77222599  0.67945668  0.92484296  1
  Li  Li5  1  0.77222599  0.82054332  0.42484296  1
  Li  Li6  1  0.97300074  0.81695439  0.67013565  1
  Li  Li7  1  0.97300074  0.68304561  0.17013565  1
  Co  Co8  1  0.54114638  0.17266753  0.83380956  1
  Co  Co9  1  0.45885362  0.67266753  0.66619044  1
  Co  Co10  1  0.54114638  0.32733247  0.33380956  1
  Co  Co11  1  0.45885362  0.82733247  0.16619044  1
  Si  Si12  1  0.25336642  0.81471773  0.91263518  1
  Si  Si13  1  0.25336642  0.68528227  0.41263518  1
  Si  Si14  1  0.74663358  0.31471773  0.58736482  1
  Si  Si15  1  0.74663358  0.18528227  0.08736482  1
  O  O16  1  0.07257227  0.68505633  0.82898215  1
  O  O17  1  0.07257227  0.81494367  0.32898215  1
  O  O18  1  0.23730264  0.12117778  0.92182740  1
  O  O19  1  0.23730264  0.37882222  0.42182740  1
  O  O20  1  0.25532226  0.81299944  0.55191393  1
  O  O21  1  0.49149575  0.29044530  0.66430571  1
  O  O22  1  0.25532226  0.68700056  0.05191393  1
  O  O23  1  0.49149575  0.20955470  0.16430571  1
  O  O24  1  0.50850425  0.79044530  0.83569429  1
  O  O25  1  0.74467774  0.31299944  0.94808607  1
  O  O26  1  0.50850425  0.70955470  0.33569429  1
  O  O27  1  0.74467774  0.18700056  0.44808607  1
  O  O28  1  0.76269736  0.62117778  0.57817260  1
  O  O29  1  0.76269736  0.87882222  0.07817260  1
  O  O30  1  0.92742773  0.18505633  0.67101785  1
  O  O31  1  0.92742773  0.31494367  0.17101785  1
