# generated using pymatgen
data_Li3Ti2V3O10
_symmetry_space_group_name_H-M   'P 1'
_cell_length_a   5.21625170
_cell_length_b   5.14980183
_cell_length_c   7.81132511
_cell_angle_alpha   72.87705361
_cell_angle_beta   106.67152875
_cell_angle_gamma   101.79852698
_symmetry_Int_Tables_number   1
_chemical_formula_structural   Li3Ti2V3O10
_chemical_formula_sum   'Li3 Ti2 V3 O10'
_cell_volume   190.44530691
_cell_formula_units_Z   1
loop_
 _symmetry_equiv_pos_site_id
 _symmetry_equiv_pos_as_xyz
  1  'x, y, z'
loop_
 _atom_site_type_symbol
 _atom_site_label
 _atom_site_symmetry_multiplicity
 _atom_site_fract_x
 _atom_site_fract_y
 _atom_site_fract_z
 _atom_site_occupancy
  Li  Li0  1  0.22462478  0.50928696  0.40234620  1
  Li  Li1  1  0.50000000  0.00000000  0.50000000  1
  Li  Li2  1  0.77537522  0.49071304  0.59765380  1
  Ti  Ti3  1  0.11599340  0.02146238  0.68689170  1
  Ti  Ti4  1  0.88400660  0.97853762  0.31310830  1
  V  V5  1  0.00000000  0.50000000  0.00000000  1
  V  V6  1  0.68985349  0.96995677  0.89871413  1
  V  V7  1  0.31014651  0.03004323  0.10128587  1
  O  O8  1  0.03371436  0.22298303  0.85612610  1
  O  O9  1  0.11009042  0.78379089  0.52729633  1
  O  O10  1  0.32385419  0.78379094  0.93968968  1
  O  O11  1  0.20675578  0.25658657  0.22886188  1
  O  O12  1  0.44905866  0.20472373  0.66116233  1
  O  O13  1  0.55094134  0.79527627  0.33883767  1
  O  O14  1  0.79324422  0.74341343  0.77113812  1
  O  O15  1  0.67614581  0.21620906  0.06031032  1
  O  O16  1  0.88990958  0.21620911  0.47270367  1
  O  O17  1  0.96628564  0.77701697  0.14387390  1
