# generated using pymatgen
data_Zn(SbO2)2
_symmetry_space_group_name_H-M   'P 1'
_cell_length_a   3.40168244
_cell_length_b   10.88471035
_cell_length_c   6.48749883
_cell_angle_alpha   83.54819344
_cell_angle_beta   74.88232341
_cell_angle_gamma   80.94911981
_symmetry_Int_Tables_number   1
_chemical_formula_structural   Zn(SbO2)2
_chemical_formula_sum   'Zn2 Sb4 O8'
_cell_volume   228.36580737
_cell_formula_units_Z   2
loop_
 _symmetry_equiv_pos_site_id
 _symmetry_equiv_pos_as_xyz
  1  'x, y, z'
loop_
 _atom_site_type_symbol
 _atom_site_label
 _atom_site_symmetry_multiplicity
 _atom_site_fract_x
 _atom_site_fract_y
 _atom_site_fract_z
 _atom_site_occupancy
  Zn  Zn0  1  0.32372504  0.20666198  0.14307214  1
  Zn  Zn1  1  0.67221084  0.77171783  0.89003724  1
  Sb  Sb2  1  0.64499566  0.14847455  0.56746288  1
  Sb  Sb3  1  0.10190800  0.54624978  0.22369948  1
  Sb  Sb4  1  0.86988585  0.43176437  0.80911560  1
  Sb  Sb5  1  0.35661895  0.82956227  0.46578310  1
  O  O6  1  0.86788256  0.72934847  0.54489582  1
  O  O7  1  0.44423407  0.28876480  0.84830125  1
  O  O8  1  0.57741244  0.68941472  0.18459067  1
  O  O9  1  0.13402494  0.24879064  0.48848191  1
  O  O10  1  0.18440937  0.85156375  0.78710614  1
  O  O11  1  0.74281290  0.41462558  0.13242726  1
  O  O12  1  0.81424609  0.12666725  0.24594484  1
  O  O13  1  0.28194628  0.56319502  0.90052367  1
