# generated using pymatgen
data_Li4TiMn3O8
_symmetry_space_group_name_H-M   'P 1'
_cell_length_a   6.07887484
_cell_length_b   5.96131271
_cell_length_c   14.81995014
_cell_angle_alpha   88.17908344
_cell_angle_beta   87.83523281
_cell_angle_gamma   60.84435047
_symmetry_Int_Tables_number   1
_chemical_formula_structural   Li4TiMn3O8
_chemical_formula_sum   'Li12 Ti3 Mn9 O24'
_cell_volume   468.61262277
_cell_formula_units_Z   3
loop_
 _symmetry_equiv_pos_site_id
 _symmetry_equiv_pos_as_xyz
  1  'x, y, z'
loop_
 _atom_site_type_symbol
 _atom_site_label
 _atom_site_symmetry_multiplicity
 _atom_site_fract_x
 _atom_site_fract_y
 _atom_site_fract_z
 _atom_site_occupancy
  Li  Li0  1  0.50578603  0.00604189  0.50272716  1
  Li  Li1  1  0.18502484  0.16783757  0.66874996  1
  Li  Li2  1  0.00021324  0.00256011  0.50199734  1
  Li  Li3  1  0.66844679  0.16948939  0.66704388  1
  Li  Li4  1  0.33606496  0.33356744  0.83346833  1
  Li  Li5  1  0.83069186  0.32540950  0.82905957  1
  Li  Li6  1  0.16676664  0.66567518  0.16722370  1
  Li  Li7  1  0.49598735  0.49945345  0.00365911  1
  Li  Li8  1  0.99537470  0.50246957  -0.00000202  1
  Li  Li9  1  0.66370991  0.66655343  0.16589144  1
  Li  Li10  1  0.33928978  0.82757132  0.33323501  1
  Li  Li11  1  0.83747967  0.83102235  0.32882672  1
  Ti  Ti12  1  0.34681171  0.31448129  0.33490533  1
  Ti  Ti13  1  0.98993594  0.01513436  0.99869458  1
  Ti  Ti14  1  0.66498534  0.66862393  0.66626040  1
  Mn  Mn15  1  0.16704195  0.16652552  0.16666011  1
  Mn  Mn16  1  0.00321930  0.50251280  0.49883340  1
  Mn  Mn17  1  0.33013089  0.83167243  0.83486478  1
  Mn  Mn18  1  0.66731008  0.16579686  0.16666665  1
  Mn  Mn19  1  0.84471060  0.31875739  0.33364271  1
  Mn  Mn20  1  0.16442443  0.67072646  0.66680285  1
  Mn  Mn21  1  0.50499024  0.50052121  0.49917753  1
  Mn  Mn22  1  0.82647085  0.83461892  0.83414448  1
  Mn  Mn23  1  0.49096699  0.01202311  -0.00025571  1
  O  O24  1  0.12748558  0.17457854  0.91960100  1
  O  O25  1  0.20757542  0.15727260  0.41433408  1
  O  O26  1  0.50922448  0.01715318  0.25117930  1
  O  O27  1  0.66490261  0.16522744  0.92729849  1
  O  O28  1  0.33661832  0.31324627  0.07630900  1
  O  O29  1  0.02738210  0.47848565  0.26577014  1
  O  O30  1  0.99913070  0.01774500  0.25691710  1
  O  O31  1  0.67011384  0.16575063  0.40591152  1
  O  O32  1  0.32632075  0.37532431  0.58471388  1
  O  O33  1  0.82626958  0.31379419  0.08185800  1
  O  O34  1  0.22397444  0.62614982  0.41511708  1
  O  O35  1  0.50125154  0.47245823  0.24359856  1
  O  O36  1  0.79238392  0.36659200  0.58221196  1
  O  O37  1  0.52262629  0.50389410  0.74764067  1
  O  O38  1  0.11208705  0.70449471  0.91860367  1
  O  O39  1  0.68362865  0.62051230  0.41296703  1
  O  O40  1  0.33803672  0.83417438  0.59802359  1
  O  O41  1  0.99077162  0.50613513  0.73538976  1
  O  O42  1  0.65143437  0.71154483  0.91991224  1
  O  O43  1  0.30918986  0.85197943  0.06802417  1
  O  O44  1  0.80905106  0.83331705  0.58569963  1
  O  O45  1  0.53299217  0.97465524  0.75009578  1
  O  O46  1  0.83435899  0.85834459  0.08951753  1
  O  O47  1  0.00257182  0.96352888  0.75021250  1
