# generated using pymatgen
data_Li5Fe8(BO3)8
_symmetry_space_group_name_H-M   'P 1'
_cell_length_a   5.27073202
_cell_length_b   9.08123871
_cell_length_c   11.30262442
_cell_angle_alpha   113.05888410
_cell_angle_beta   77.22753542
_cell_angle_gamma   90.29285395
_symmetry_Int_Tables_number   1
_chemical_formula_structural   Li5Fe8(BO3)8
_chemical_formula_sum   'Li5 Fe8 B8 O24'
_cell_volume   483.45087072
_cell_formula_units_Z   1
loop_
 _symmetry_equiv_pos_site_id
 _symmetry_equiv_pos_as_xyz
  1  'x, y, z'
loop_
 _atom_site_type_symbol
 _atom_site_label
 _atom_site_symmetry_multiplicity
 _atom_site_fract_x
 _atom_site_fract_y
 _atom_site_fract_z
 _atom_site_occupancy
  Li  Li0  1  0.16688835  0.15916491  0.34437650  1
  Li  Li1  1  0.61021875  0.04594100  0.08506629  1
  Li  Li2  1  0.93325027  0.43089712  0.83202140  1
  Li  Li3  1  0.11295215  0.55483729  0.09827643  1
  Li  Li4  1  0.65597363  0.67343037  0.36287447  1
  Fe  Fe5  1  0.41271239  0.26911677  0.86656760  1
  Fe  Fe6  1  0.09526779  0.23033522  0.12252679  1
  Fe  Fe7  1  0.84626190  0.13923755  0.61867670  1
  Fe  Fe8  1  0.64550984  0.34232670  0.37652317  1
  Fe  Fe9  1  0.35097993  0.64726203  0.62774690  1
  Fe  Fe10  1  0.14837935  0.84247725  0.37363314  1
  Fe  Fe11  1  0.90184414  0.78113780  0.86255726  1
  Fe  Fe12  1  0.60062642  0.72312086  0.11726046  1
  B  B13  1  0.64598208  0.01280191  0.36955798  1
  B  B14  1  0.89382753  0.11523633  0.87960315  1
  B  B15  1  0.15249632  0.51120236  0.36532887  1
  B  B16  1  0.39928383  0.59948006  0.87202451  1
  B  B17  1  0.84957399  0.48131699  0.62252204  1
  B  B18  1  0.60463361  0.39533289  0.12804395  1
  B  B19  1  0.35492385  0.97374067  0.61702101  1
  B  B20  1  0.09493296  0.89770508  0.12124086  1
  O  O21  1  0.11627116  0.15152512  0.93035435  1
  O  O22  1  0.47678484  0.11577503  0.65914215  1
  O  O23  1  0.21753054  0.03951673  0.13890805  1
  O  O24  1  0.51232624  0.13536005  0.36141020  1
  O  O25  1  0.88107899  0.03987692  0.41349800  1
  O  O26  1  0.81503016  0.21806417  0.82474017  1
  O  O27  1  0.24951455  0.48244550  0.89452091  1
  O  O28  1  0.05871905  0.35640077  0.32583340  1
  O  O29  1  0.71090652  0.27486595  0.15691558  1
  O  O30  1  0.62395840  0.47748385  0.57799638  1
  O  O31  1  0.94168720  0.34919499  0.63676705  1
  O  O32  1  0.36534005  0.37303729  0.09181295  1
  O  O33  1  0.64425834  0.61750949  0.90148661  1
  O  O34  1  0.38363693  0.53296774  0.40885384  1
  O  O35  1  0.29918191  0.69987806  0.82317319  1
  O  O36  1  0.98034832  0.61903556  0.65255896  1
  O  O37  1  0.73296909  0.52724271  0.13424845  1
  O  O38  1  0.20429271  0.78196770  0.15159436  1
  O  O39  1  0.12052697  0.97731949  0.58064203  1
  O  O40  1  0.46715869  0.83352980  0.60699292  1
  O  O41  1  0.01976629  0.63176899  0.35482222  1
  O  O42  1  0.75383799  0.99436449  0.89031097  1
  O  O43  1  0.55477269  0.86117166  0.33383978  1
  O  O44  1  0.86413229  0.87871377  0.08017101  1
