# generated using pymatgen
data_V6O7F5
_symmetry_space_group_name_H-M   'P 1'
_cell_length_a   4.65724418
_cell_length_b   7.81130577
_cell_length_c   5.62058705
_cell_angle_alpha   93.67972400
_cell_angle_beta   90.99007418
_cell_angle_gamma   88.84276978
_symmetry_Int_Tables_number   1
_chemical_formula_structural   V6O7F5
_chemical_formula_sum   'V6 O7 F5'
_cell_volume   203.98288842
_cell_formula_units_Z   1
loop_
 _symmetry_equiv_pos_site_id
 _symmetry_equiv_pos_as_xyz
  1  'x, y, z'
loop_
 _atom_site_type_symbol
 _atom_site_label
 _atom_site_symmetry_multiplicity
 _atom_site_fract_x
 _atom_site_fract_y
 _atom_site_fract_z
 _atom_site_occupancy
  V  V0  1  0.52245208  0.64470716  0.17158261  1
  V  V1  1  0.49438969  0.99599735  0.50208585  1
  V  V2  1  0.50220071  0.35812379  0.81741737  1
  V  V3  1  0.00288545  0.67285009  0.66198250  1
  V  V4  1  0.97480692  0.31647909  0.35610374  1
  V  V5  1  0.00517952  0.00309919  0.99642975  1
  O  O6  1  0.80683212  0.43699737  0.62597252  1
  O  O7  1  0.80677276  0.09842638  0.29547329  1
  O  O8  1  0.68787325  0.76886652  0.46002109  1
  O  O9  1  0.71772095  0.42566843  0.13653453  1
  O  O10  1  0.30587912  0.57656511  0.87167569  1
  O  O11  1  0.29224716  0.23539716  0.52892051  1
  O  O12  1  0.18618744  0.90740945  0.70813910  1
  F  F13  1  0.79832644  0.77252325  0.96517816  1
  F  F14  1  0.69269638  0.11016651  0.80462701  1
  F  F15  1  0.29653464  0.88727645  0.19710573  1
  F  F16  1  0.21070943  0.23338691  0.03626857  1
  F  F17  1  0.19630691  0.55605881  0.36448498  1
