# generated using pymatgen
data_Mn3OF5
_symmetry_space_group_name_H-M   'P 1'
_cell_length_a   7.50539967
_cell_length_b   5.88648360
_cell_length_c   5.88648360
_cell_angle_alpha   73.85888669
_cell_angle_beta   73.67955207
_cell_angle_gamma   73.67955207
_symmetry_Int_Tables_number   1
_chemical_formula_structural   Mn3OF5
_chemical_formula_sum   'Mn6 O2 F10'
_cell_volume   233.87079582
_cell_formula_units_Z   2
loop_
 _symmetry_equiv_pos_site_id
 _symmetry_equiv_pos_as_xyz
  1  'x, y, z'
loop_
 _atom_site_type_symbol
 _atom_site_label
 _atom_site_symmetry_multiplicity
 _atom_site_fract_x
 _atom_site_fract_y
 _atom_site_fract_z
 _atom_site_occupancy
  Mn  Mn0  1  0.84535751  0.67195641  0.67195641  1
  Mn  Mn1  1  0.65367917  0.34022451  0.34022451  1
  Mn  Mn2  1  0.31927815  0.65826723  0.65826723  1
  Mn  Mn3  1  0.17485793  0.33956511  0.33956511  1
  Mn  Mn4  1  0.49746353  0.99752882  0.99752882  1
  Mn  Mn5  1  0.99810690  0.98838176  0.98838176  1
  O  O6  1  0.04537935  0.75802662  0.75802662  1
  O  O7  1  0.36467209  0.44729492  0.44729492  1
  F  F8  1  0.67381332  0.02848398  0.63530174  1
  F  F9  1  0.33587134  0.36041997  0.97590236  1
  F  F10  1  0.30602413  0.87930438  0.87930438  1
  F  F11  1  0.62466465  0.58191730  0.58191730  1
  F  F12  1  0.96418963  0.23197570  0.23197570  1
  F  F13  1  0.70142765  0.10334618  0.10334618  1
  F  F14  1  0.33587134  0.97590236  0.36041997  1
  F  F15  1  0.67381332  0.63530174  0.02848398  1
  F  F16  1  0.99276599  0.30437094  0.69773206  1
  F  F17  1  0.99276599  0.69773206  0.30437094  1
