# generated using pymatgen
data_Li5Fe8(BO3)8
_symmetry_space_group_name_H-M   'P 1'
_cell_length_a   5.24921649
_cell_length_b   9.12148373
_cell_length_c   10.11828468
_cell_angle_alpha   91.15182287
_cell_angle_beta   91.42787971
_cell_angle_gamma   89.67217646
_symmetry_Int_Tables_number   1
_chemical_formula_structural   Li5Fe8(BO3)8
_chemical_formula_sum   'Li5 Fe8 B8 O24'
_cell_volume   484.21507075
_cell_formula_units_Z   1
loop_
 _symmetry_equiv_pos_site_id
 _symmetry_equiv_pos_as_xyz
  1  'x, y, z'
loop_
 _atom_site_type_symbol
 _atom_site_label
 _atom_site_symmetry_multiplicity
 _atom_site_fract_x
 _atom_site_fract_y
 _atom_site_fract_z
 _atom_site_occupancy
  Li  Li0  1  0.84936271  0.82653310  0.65668259  1
  Li  Li1  1  0.67088928  0.66924575  0.40466751  1
  Li  Li2  1  0.66309001  0.67918769  0.91830007  1
  Li  Li3  1  0.34005214  0.32628939  0.65975950  1
  Li  Li4  1  0.16549767  0.16842691  0.38590051  1
  Fe  Fe5  1  0.83715273  0.16760270  0.63325011  1
  Fe  Fe6  1  0.83342599  0.49615124  0.13363318  1
  Fe  Fe7  1  0.68461343  0.01039779  0.88322722  1
  Fe  Fe8  1  0.64721045  0.33876796  0.37455463  1
  Fe  Fe9  1  0.33671778  0.65634006  0.63223295  1
  Fe  Fe10  1  0.33253673  0.99806766  0.12362850  1
  Fe  Fe11  1  0.15644914  0.83935891  0.37402732  1
  Fe  Fe12  1  0.17694803  0.48981852  0.88772583  1
  B  B13  1  0.83873513  0.49678852  0.62452214  1
  B  B14  1  0.83397866  0.16757636  0.13464572  1
  B  B15  1  0.66441457  0.00116578  0.38484525  1
  B  B16  1  0.67521984  0.33788044  0.86952952  1
  B  B17  1  0.33336003  0.00187041  0.62571576  1
  B  B18  1  0.33330786  0.66798979  0.12913761  1
  B  B19  1  0.16342702  0.50240719  0.37865469  1
  B  B20  1  0.17401478  0.82773550  0.87801177  1
  O  O21  1  0.90324267  0.51542425  0.33791021  1
  O  O22  1  0.91075591  0.83135352  0.85935597  1
  O  O23  1  0.82198128  0.21679985  0.82600181  1
  O  O24  1  0.79186715  0.13035817  0.42817538  1
  O  O25  1  0.78325981  0.86837204  0.39008933  1
  O  O26  1  0.79740411  0.46043305  0.92802065  1
  O  O27  1  0.71694796  0.63035541  0.61306102  1
  O  O28  1  0.67896209  0.05485151  0.08669420  1
  O  O29  1  0.70517278  0.36658297  0.59228246  1
  O  O30  1  0.72152557  0.30057714  0.17018406  1
  O  O31  1  0.59291985  0.65353433  0.11927352  1
  O  O32  1  0.59568481  0.00323836  0.66067615  1
  O  O33  1  0.41183360  0.01474507  0.33841227  1
  O  O34  1  0.42034990  0.33438666  0.84947571  1
  O  O35  1  0.31101436  0.70052444  0.84492229  1
  O  O36  1  0.29717890  0.62970362  0.41245660  1
  O  O37  1  0.27450307  0.36726388  0.38770156  1
  O  O38  1  0.30815887  0.94851304  0.92797533  1
  O  O39  1  0.17747788  0.55026616  0.09474879  1
  O  O40  1  0.20238819  0.13386634  0.61580435  1
  O  O41  1  0.21130335  0.87114622  0.59732855  1
  O  O42  1  0.22621103  0.80104224  0.16793628  1
  O  O43  1  0.09018881  0.14817361  0.15035897  1
  O  O44  1  0.09160506  0.48736145  0.66407119  1
