# generated using pymatgen
data_Li5Fe8(BO3)8
_symmetry_space_group_name_H-M   'P 1'
_cell_length_a   5.26514912
_cell_length_b   9.09788950
_cell_length_c   10.18913731
_cell_angle_alpha   90.58213121
_cell_angle_beta   91.21366740
_cell_angle_gamma   89.73371092
_symmetry_Int_Tables_number   1
_chemical_formula_structural   Li5Fe8(BO3)8
_chemical_formula_sum   'Li5 Fe8 B8 O24'
_cell_volume   487.93797932
_cell_formula_units_Z   1
loop_
 _symmetry_equiv_pos_site_id
 _symmetry_equiv_pos_as_xyz
  1  'x, y, z'
loop_
 _atom_site_type_symbol
 _atom_site_label
 _atom_site_symmetry_multiplicity
 _atom_site_fract_x
 _atom_site_fract_y
 _atom_site_fract_z
 _atom_site_occupancy
  Li  Li0  1  0.33386520  0.01218973  0.84598752  1
  Li  Li1  1  0.65431895  0.00341789  0.09325200  1
  Li  Li2  1  0.85248111  0.48459036  0.33399254  1
  Li  Li3  1  0.84087191  0.50790424  0.83471858  1
  Li  Li4  1  0.64484094  0.99478502  0.58194560  1
  Fe  Fe5  1  0.16312068  0.17313172  0.12398045  1
  Fe  Fe6  1  0.84495479  0.15305821  0.37124383  1
  Fe  Fe7  1  0.33060594  0.34290665  0.86599514  1
  Fe  Fe8  1  0.65527314  0.33864301  0.61695031  1
  Fe  Fe9  1  0.34112132  0.67366301  0.36425479  1
  Fe  Fe10  1  0.15595179  0.82521457  0.62248139  1
  Fe  Fe11  1  0.65924390  0.65609903  0.11629234  1
  Fe  Fe12  1  0.84172331  0.84123906  0.87429392  1
  B  B13  1  0.15529857  0.15700599  0.62450298  1
  B  B14  1  0.34621114  0.34381589  0.36412765  1
  B  B15  1  0.82997196  0.17113631  0.87630448  1
  B  B16  1  0.66468201  0.32182583  0.12391127  1
  B  B17  1  0.33750778  0.66738603  0.86787456  1
  B  B18  1  0.66520641  0.67589183  0.62318914  1
  B  B19  1  0.15806543  0.84475338  0.12611602  1
  B  B20  1  0.82550939  0.82210091  0.37830135  1
  O  O21  1  0.28456839  0.02118658  0.63934461  1
  O  O22  1  0.08853398  0.16588018  0.91462553  1
  O  O23  1  0.68878748  0.04249236  0.88466223  1
  O  O24  1  0.20854816  0.22058023  0.31960229  1
  O  O25  1  0.28855412  0.28116058  0.65610576  1
  O  O26  1  0.79557979  0.18891925  0.15308242  1
  O  O27  1  0.90154272  0.15651151  0.58410001  1
  O  O28  1  0.41815327  0.30922318  0.07467380  1
  O  O29  1  0.22039444  0.47786360  0.36660139  1
  O  O30  1  0.60065643  0.33346451  0.40219858  1
  O  O31  1  0.72124043  0.30194091  0.83579985  1
  O  O32  1  0.19213873  0.54524007  0.87174738  1
  O  O33  1  0.77870409  0.45289350  0.14431765  1
  O  O34  1  0.28970216  0.72288452  0.17392734  1
  O  O35  1  0.42244042  0.69296292  0.56671844  1
  O  O36  1  0.77308870  0.54435775  0.64462627  1
  O  O37  1  0.59400720  0.66825117  0.90606685  1
  O  O38  1  0.07919335  0.81250445  0.42313363  1
  O  O39  1  0.22505370  0.80117722  0.82263252  1
  O  O40  1  0.71018755  0.69011418  0.33762560  1
  O  O41  1  0.79243406  0.80874645  0.65722122  1
  O  O42  1  0.29132100  0.97510562  0.11358630  1
  O  O43  1  0.90275855  0.83707882  0.08864115  1
  O  O44  1  0.69915560  0.95185379  0.38328529  1
