# generated using pymatgen
data_Li3Fe3OF7
_symmetry_space_group_name_H-M   'P 1'
_cell_length_a   6.18517741
_cell_length_b   6.18517741
_cell_length_c   10.74862682
_cell_angle_alpha   107.09455668
_cell_angle_beta   72.90544332
_cell_angle_gamma   121.15985977
_symmetry_Int_Tables_number   1
_chemical_formula_structural   Li3Fe3OF7
_chemical_formula_sum   'Li6 Fe6 O2 F14'
_cell_volume   331.23598114
_cell_formula_units_Z   2
loop_
 _symmetry_equiv_pos_site_id
 _symmetry_equiv_pos_as_xyz
  1  'x, y, z'
loop_
 _atom_site_type_symbol
 _atom_site_label
 _atom_site_symmetry_multiplicity
 _atom_site_fract_x
 _atom_site_fract_y
 _atom_site_fract_z
 _atom_site_occupancy
  Li  Li0  1  0.99234921  0.99523107  0.00029569  1
  Li  Li1  1  0.56331798  0.94329430  0.31024182  1
  Li  Li2  1  0.64350079  0.38412477  0.12937035  1
  Li  Li3  1  0.11587523  0.85649921  0.62937035  1
  Li  Li4  1  0.50476893  0.50765079  0.50029569  1
  Li  Li5  1  0.55670570  0.93668202  0.81024182  1
  Fe  Fe6  1  0.30343611  0.69081311  0.06714083  1
  Fe  Fe7  1  0.06027850  0.92446621  0.30571306  1
  Fe  Fe8  1  0.06026645  0.44609918  0.30808993  1
  Fe  Fe9  1  0.05390082  0.43973355  0.80808993  1
  Fe  Fe10  1  0.57553379  0.43972150  0.80571306  1
  Fe  Fe11  1  0.80918689  0.19656389  0.56714083  1
  O  O12  1  0.97333288  0.58846412  0.18904095  1
  O  O13  1  0.91153588  0.52666712  0.68904095  1
  F  F14  1  0.20530437  0.82017508  0.43054276  1
  F  F15  1  0.43650655  0.57973638  0.19845365  1
  F  F16  1  0.69734836  0.84663258  0.44212421  1
  F  F17  1  0.17900252  0.29396130  0.42493994  1
  F  F18  1  0.44953028  0.06110485  0.19427967  1
  F  F19  1  0.93119318  0.06836073  0.19662271  1
  F  F20  1  0.69925718  0.30215967  0.42814645  1
  F  F21  1  0.19784033  0.80074282  0.92814645  1
  F  F22  1  0.43163927  0.56880682  0.69662271  1
  F  F23  1  0.20603870  0.32099748  0.92493994  1
  F  F24  1  0.65336742  0.80265164  0.94212421  1
  F  F25  1  0.43889515  0.05046972  0.69427967  1
  F  F26  1  0.92026362  0.06349345  0.69845365  1
  F  F27  1  0.67982492  0.29469563  0.93054276  1
