# generated using pymatgen
data_Zn(CuO2)2
_symmetry_space_group_name_H-M   'P 1'
_cell_length_a   3.22889475
_cell_length_b   7.06125737
_cell_length_c   7.15342482
_cell_angle_alpha   82.64137229
_cell_angle_beta   78.80533032
_cell_angle_gamma   91.80606064
_symmetry_Int_Tables_number   1
_chemical_formula_structural   Zn(CuO2)2
_chemical_formula_sum   'Zn2 Cu4 O8'
_cell_volume   158.41082907
_cell_formula_units_Z   2
loop_
 _symmetry_equiv_pos_site_id
 _symmetry_equiv_pos_as_xyz
  1  'x, y, z'
loop_
 _atom_site_type_symbol
 _atom_site_label
 _atom_site_symmetry_multiplicity
 _atom_site_fract_x
 _atom_site_fract_y
 _atom_site_fract_z
 _atom_site_occupancy
  Zn  Zn0  1  0.31785369  0.16357682  0.19081830  1
  Zn  Zn1  1  0.68464746  0.81463797  0.84224570  1
  Cu  Cu2  1  0.64329146  0.17631005  0.54935703  1
  Cu  Cu3  1  0.04340000  0.52256505  0.20950909  1
  Cu  Cu4  1  0.95909450  0.45563663  0.82351204  1
  Cu  Cu5  1  0.35884241  0.80170387  0.48372938  1
  O  O6  1  0.90802314  0.64582755  0.62410571  1
  O  O7  1  0.55491913  0.29920123  0.76083068  1
  O  O8  1  0.44748420  0.67886410  0.27221805  1
  O  O9  1  0.09405314  0.33232366  0.40888152  1
  O  O10  1  0.30067367  0.96079880  0.68855465  1
  O  O11  1  0.87855591  0.31531003  0.07168063  1
  O  O12  1  0.70142813  0.01723574  0.34458233  1
  O  O13  1  0.12404517  0.66280850  0.96141790  1
