# generated using pymatgen
data_Li2MnCO5
_symmetry_space_group_name_H-M   'P 1'
_cell_length_a   2.90903014
_cell_length_b   9.43819964
_cell_length_c   11.82975038
_cell_angle_alpha   90.00000000
_cell_angle_beta   90.00000000
_cell_angle_gamma   90.00000000
_symmetry_Int_Tables_number   1
_chemical_formula_structural   Li2MnCO5
_chemical_formula_sum   'Li8 Mn4 C4 O20'
_cell_volume   324.79771185
_cell_formula_units_Z   4
loop_
 _symmetry_equiv_pos_site_id
 _symmetry_equiv_pos_as_xyz
  1  'x, y, z'
loop_
 _atom_site_type_symbol
 _atom_site_label
 _atom_site_symmetry_multiplicity
 _atom_site_fract_x
 _atom_site_fract_y
 _atom_site_fract_z
 _atom_site_occupancy
  Li  Li0  1  0.99999975  0.00000000  0.50000000  1
  Li  Li1  1  0.49998663  0.00000000  0.99999800  1
  Li  Li2  1  0.49999758  0.00590197  0.28377087  1
  Li  Li3  1  0.49999942  0.49409603  0.78377087  1
  Li  Li4  1  0.00000025  0.50000000  0.00000000  1
  Li  Li5  1  0.50002037  0.50000000  0.50000300  1
  Li  Li6  1  0.49999442  0.50590397  0.21622913  1
  Li  Li7  1  0.49999658  0.99409703  0.71622713  1
  Mn  Mn8  1  0.99998453  0.24317520  0.11335931  1
  Mn  Mn9  1  0.00001547  0.25682480  0.61335931  1
  Mn  Mn10  1  0.00001547  0.74317520  0.38664069  1
  Mn  Mn11  1  0.99998453  0.75682480  0.88664069  1
  C  C12  1  0.99999866  0.23872864  0.86207490  1
  C  C13  1  0.00000134  0.26127136  0.36207490  1
  C  C14  1  0.00000134  0.73872864  0.63792510  1
  C  C15  1  0.99999866  0.76127136  0.13792510  1
  O  O16  1  0.49999693  0.11717987  0.14360948  1
  O  O17  1  0.99999798  0.12801124  0.36339336  1
  O  O18  1  0.50000297  0.12959604  0.58022400  1
  O  O19  1  0.99999589  0.16079576  0.95462282  1
  O  O20  1  0.99999911  0.16548822  0.76770024  1
  O  O21  1  0.00000089  0.33451178  0.26770024  1
  O  O22  1  0.00000411  0.33920424  0.45462282  1
  O  O23  1  0.49999703  0.37040396  0.08022400  1
  O  O24  1  0.00000202  0.37198876  0.86339336  1
  O  O25  1  0.50000307  0.38282013  0.64360948  1
  O  O26  1  0.50000307  0.61717987  0.35639052  1
  O  O27  1  0.00000202  0.62801124  0.13660664  1
  O  O28  1  0.49999703  0.62959604  0.91977600  1
  O  O29  1  0.00000411  0.66079576  0.54537718  1
  O  O30  1  0.00000089  0.66548822  0.73229976  1
  O  O31  1  0.99999911  0.83451178  0.23229976  1
  O  O32  1  0.99999589  0.83920424  0.04537718  1
  O  O33  1  0.50000297  0.87040396  0.41977600  1
  O  O34  1  0.99999798  0.87198876  0.63660664  1
  O  O35  1  0.49999693  0.88282013  0.85639052  1
