# generated using pymatgen
data_V2OF5
_symmetry_space_group_name_H-M   'P 1'
_cell_length_a   8.55211425
_cell_length_b   8.55214517
_cell_length_c   4.62184802
_cell_angle_alpha   90.00459597
_cell_angle_beta   90.00496679
_cell_angle_gamma   59.99758534
_symmetry_Int_Tables_number   1
_chemical_formula_structural   V2OF5
_chemical_formula_sum   'V6 O3 F15'
_cell_volume   292.74149096
_cell_formula_units_Z   3
loop_
 _symmetry_equiv_pos_site_id
 _symmetry_equiv_pos_as_xyz
  1  'x, y, z'
loop_
 _atom_site_type_symbol
 _atom_site_label
 _atom_site_symmetry_multiplicity
 _atom_site_fract_x
 _atom_site_fract_y
 _atom_site_fract_z
 _atom_site_occupancy
  V  V0  1  0.33486315  0.66719304  0.00011972  1
  V  V1  1  0.32418183  0.99057052  0.52345345  1
  V  V2  1  0.68542880  0.32407463  0.52354518  1
  V  V3  1  0.66703057  0.99794686  0.00014787  1
  V  V4  1  0.99784290  0.33484433  0.99994334  1
  V  V5  1  0.99074299  0.68509049  0.52321843  1
  O  O6  1  0.24959706  0.88188319  0.74167689  1
  O  O7  1  0.86829093  0.24967082  0.74141511  1
  O  O8  1  0.88178139  0.86857476  0.74188603  1
  F  F9  1  0.12239413  0.11545100  0.25198693  1
  F  F10  1  0.08248010  0.46585007  0.25794857  1
  F  F11  1  0.21561315  0.21765814  0.74856224  1
  F  F12  1  0.45176779  0.08260353  0.25815748  1
  F  F13  1  0.11527664  0.76256188  0.25215607  1
  F  F14  1  0.21780257  0.56680969  0.74854882  1
  F  F15  1  0.56675520  0.21533571  0.74841690  1
  F  F16  1  0.46559645  0.45173743  0.25808271  1
  F  F17  1  0.76239840  0.12230167  0.25210250  1
  F  F18  1  0.43459908  0.78221230  0.25016197  1
  F  F19  1  0.54943707  0.54836136  0.74420689  1
  F  F20  1  0.54847685  0.90190683  0.74407431  1
  F  F21  1  0.78307751  0.43462253  0.25035218  1
  F  F22  1  0.78216561  0.78331652  0.25023957  1
  F  F23  1  0.90232682  0.54940272  0.74451284  1
