# generated using pymatgen
data_Li3V3P8O29
_symmetry_space_group_name_H-M   'P 1'
_cell_length_a   9.74342402
_cell_length_b   9.71801866
_cell_length_c   14.32598153
_cell_angle_alpha   89.88891706
_cell_angle_beta   90.64382169
_cell_angle_gamma   60.11759427
_symmetry_Int_Tables_number   1
_chemical_formula_structural   Li3V3P8O29
_chemical_formula_sum   'Li6 V6 P16 O58'
_cell_volume   1176.01787299
_cell_formula_units_Z   2
loop_
 _symmetry_equiv_pos_site_id
 _symmetry_equiv_pos_as_xyz
  1  'x, y, z'
loop_
 _atom_site_type_symbol
 _atom_site_label
 _atom_site_symmetry_multiplicity
 _atom_site_fract_x
 _atom_site_fract_y
 _atom_site_fract_z
 _atom_site_occupancy
  Li  Li0  1  0.77070076  0.32207804  0.04812504  1
  Li  Li1  1  0.32255883  0.90836775  0.05756154  1
  Li  Li2  1  0.67575250  0.23047632  0.44832756  1
  Li  Li3  1  0.33103619  0.76677437  0.56255894  1
  Li  Li4  1  0.97757975  0.96862240  0.99325203  1
  Li  Li5  1  0.00046953  0.00380277  0.51482841  1
  V  V6  1  0.56502952  0.43718700  0.24879982  1
  V  V7  1  0.43226640  0.56440625  0.75334717  1
  V  V8  1  0.56684233  0.99664210  0.75048194  1
  V  V9  1  0.43754811  0.00512111  0.24998999  1
  V  V10  1  0.99747653  0.56368627  0.25232743  1
  V  V11  1  0.00036924  0.43949919  0.74498418  1
  P  P12  1  0.91931618  0.77840490  0.83896740  1
  P  P13  1  0.78152239  0.91585062  0.33818658  1
  P  P14  1  0.91874675  0.30058041  0.34540155  1
  P  P15  1  0.66501766  0.66686905  0.13288220  1
  P  P16  1  0.66079935  0.66883955  0.63221205  1
  P  P17  1  0.78171489  0.31226272  0.83762031  1
  P  P18  1  0.68617964  0.22342661  0.66012859  1
  P  P19  1  0.31125855  0.91361883  0.84498076  1
  P  P20  1  0.69478426  0.08530882  0.15429408  1
  P  P21  1  0.31747249  0.77507039  0.34348381  1
  P  P22  1  0.21647779  0.69430543  0.16520077  1
  P  P23  1  0.33660922  0.33454237  0.36571752  1
  P  P24  1  0.33407216  0.32921062  0.86601478  1
  P  P25  1  0.08185927  0.70259198  0.65555495  1
  P  P26  1  0.21705325  0.08614350  0.66382574  1
  P  P27  1  0.08148912  0.22308921  0.16134829  1
  O  O28  1  0.00899317  0.80476879  0.57219740  1
  O  O29  1  0.91472481  0.74064437  0.33380340  1
  O  O30  1  0.78695818  0.01326937  0.06935774  1
  O  O31  1  0.74212770  0.91173749  0.82981600  1
  O  O32  1  0.92622579  0.61675774  0.82625301  1
  O  O33  1  0.81016937  0.66684062  0.18112649  1
  O  O34  1  0.92299843  0.45813758  0.33104125  1
  O  O35  1  0.99072334  0.21676428  0.07902531  1
  O  O36  1  0.91851913  0.34812899  0.82882017  1
  O  O37  1  0.66144204  0.81459018  0.67928105  1
  O  O38  1  0.61980963  0.91870897  0.32432870  1
  O  O39  1  0.81040836  0.52317803  0.67747317  1
  O  O40  1  0.66676185  0.65137993  0.02971592  1
  O  O41  1  0.65385370  0.67327093  0.52866465  1
  O  O42  1  0.66988502  0.51360614  0.17739452  1
  O  O43  1  0.46777048  0.91391674  0.83039660  1
  O  O44  1  0.51346003  0.81598367  0.16987275  1
  O  O45  1  0.74135107  0.34099188  0.33446623  1
  O  O46  1  0.79924727  0.20234570  0.74904409  1
  O  O47  1  0.76919711  0.21046289  0.57081833  1
  O  O48  1  0.79144441  0.22872896  0.92697745  1
  O  O49  1  0.62098145  0.46929965  0.82430400  1
  O  O50  1  0.51077903  0.66927405  0.67255054  1
  O  O51  1  0.65456621  0.26247788  0.16342607  1
  O  O52  1  0.47430383  0.61783317  0.32457428  1
  O  O53  1  0.34855091  0.91514786  0.32553151  1
  O  O54  1  0.80155771  0.99798235  0.24560725  1
  O  O55  1  0.78844160  0.00505843  0.42043144  1
  O  O56  1  0.19767587  0.99520819  0.58574789  1
  O  O57  1  0.65147253  0.08474045  0.66927835  1
  O  O58  1  0.53163156  0.38233820  0.67371601  1
  O  O59  1  0.34422710  0.74056256  0.82920841  1
  O  O60  1  0.48822780  0.33010335  0.32342462  1
  O  O61  1  0.37849180  0.53648692  0.17577030  1
  O  O62  1  0.20727679  0.79561081  0.08473988  1
  O  O63  1  0.24849728  0.78264312  0.43625445  1
  O  O64  1  0.19715333  0.78968919  0.26174768  1
  O  O65  1  0.26110716  0.65525314  0.66344984  1
  O  O66  1  0.47836708  0.18323587  0.82040729  1
  O  O67  1  0.53869266  0.08033894  0.16909601  1
  O  O68  1  0.33806679  0.47802072  0.82166208  1
  O  O69  1  0.33551364  0.33093315  0.96912593  1
  O  O70  1  0.34964592  0.32477911  0.46882727  1
  O  O71  1  0.18859116  0.48067979  0.32199256  1
  O  O72  1  0.37977055  0.07615748  0.67137104  1
  O  O73  1  0.33575563  0.18747725  0.31747351  1
  O  O74  1  0.08111041  0.65545208  0.16841460  1
  O  O75  1  0.00269026  0.80265305  0.74858145  1
  O  O76  1  0.99580054  0.79697417  0.92371603  1
  O  O77  1  0.07285875  0.54766301  0.66619023  1
  O  O78  1  0.18645732  0.33654202  0.81675756  1
  O  O79  1  0.07876500  0.38326024  0.17546347  1
  O  O80  1  0.25717576  0.08587549  0.16114916  1
  O  O81  1  0.23342459  0.97490267  0.93619750  1
  O  O82  1  0.19282224  0.01495406  0.76138755  1
  O  O83  1  0.08428318  0.26287822  0.66437780  1
  O  O84  1  0.98994671  0.20507928  0.43099737  1
  O  O85  1  0.00617227  0.19612022  0.25456138  1
