# generated using pymatgen
data_Li5Fe8(BO3)8
_symmetry_space_group_name_H-M   'P 1'
_cell_length_a   5.22970275
_cell_length_b   9.12321676
_cell_length_c   11.38655928
_cell_angle_alpha   67.27967023
_cell_angle_beta   77.35627782
_cell_angle_gamma   89.93667548
_symmetry_Int_Tables_number   1
_chemical_formula_structural   Li5Fe8(BO3)8
_chemical_formula_sum   'Li5 Fe8 B8 O24'
_cell_volume   486.85726658
_cell_formula_units_Z   1
loop_
 _symmetry_equiv_pos_site_id
 _symmetry_equiv_pos_as_xyz
  1  'x, y, z'
loop_
 _atom_site_type_symbol
 _atom_site_label
 _atom_site_symmetry_multiplicity
 _atom_site_fract_x
 _atom_site_fract_y
 _atom_site_fract_z
 _atom_site_occupancy
  Li  Li0  1  0.70529698  0.72577573  0.91709585  1
  Li  Li1  1  0.51983605  0.49440303  0.65894393  1
  Li  Li2  1  0.46722707  0.46408469  0.41086413  1
  Li  Li3  1  0.01442092  0.99453543  0.66487391  1
  Li  Li4  1  0.23223226  0.24437062  0.16518983  1
  Fe  Fe5  1  0.96495848  0.65771942  0.37635464  1
  Fe  Fe6  1  0.73752551  0.07260352  0.88169007  1
  Fe  Fe7  1  0.53740192  0.84418610  0.62234881  1
  Fe  Fe8  1  0.75470440  0.44047847  0.13592078  1
  Fe  Fe9  1  0.22334853  0.56190004  0.87921326  1
  Fe  Fe10  1  0.48762407  0.14050908  0.38155266  1
  Fe  Fe11  1  0.02784830  0.34711713  0.63238634  1
  Fe  Fe12  1  0.26063440  0.92655463  0.12729639  1
  B  B13  1  0.99095283  0.31890780  0.37759068  1
  B  B14  1  0.73773029  0.40643210  0.87136562  1
  B  B15  1  0.52985860  0.18663755  0.62177662  1
  B  B16  1  0.76108823  0.10126830  0.13324502  1
  B  B17  1  0.46649692  0.81052231  0.37367960  1
  B  B18  1  0.22701495  0.88589178  0.88314237  1
  B  B19  1  0.01968051  0.68217880  0.63371195  1
  B  B20  1  0.26916527  0.60499722  0.12296293  1
  O  O21  1  0.98020233  0.90324495  0.86003270  1
  O  O22  1  0.88116155  0.29778330  0.83730064  1
  O  O23  1  0.84970380  0.50792357  0.91753303  1
  O  O24  1  0.90603181  0.81604666  0.63529158  1
  O  O25  1  0.90902604  0.57746201  0.59260285  1
  O  O26  1  0.75968226  0.15394363  0.66428356  1
  O  O27  1  0.73605038  0.32443540  0.35296560  1
  O  O28  1  0.48146020  0.42238394  0.85950374  1
  O  O29  1  0.37807475  0.77177162  0.84858054  1
  O  O30  1  0.55190031  0.92082103  0.41871794  1
  O  O31  1  0.58248442  0.67283902  0.39159939  1
  O  O32  1  0.34575948  0.97577607  0.93300741  1
  O  O33  1  0.63001317  0.01143729  0.08791084  1
  O  O34  1  0.41534292  0.32569766  0.61135991  1
  O  O35  1  0.41234081  0.07728467  0.58292431  1
  O  O36  1  0.61426186  0.20623250  0.18029345  1
  O  O37  1  0.53376720  0.61594846  0.11177070  1
  O  O38  1  0.25574140  0.64807494  0.67741159  1
  O  O39  1  0.24958652  0.84268079  0.31874559  1
  O  O40  1  0.08364592  0.42782880  0.41725990  1
  O  O41  1  0.14727624  0.20515514  0.35540481  1
  O  O42  1  0.15902368  0.48981856  0.08652209  1
  O  O43  1  0.11166769  0.70814097  0.16222941  1
  O  O44  1  0.02371576  0.09285226  0.13150304  1
