# generated using pymatgen
data_Li(CoO2)4
_symmetry_space_group_name_H-M   'P 1'
_cell_length_a   5.63594306
_cell_length_b   5.71382576
_cell_length_c   5.71382614
_cell_angle_alpha   59.99999399
_cell_angle_beta   120.45818576
_cell_angle_gamma   120.45819578
_symmetry_Int_Tables_number   1
_chemical_formula_structural   Li(CoO2)4
_chemical_formula_sum   'Li1 Co4 O8'
_cell_volume   129.20011166
_cell_formula_units_Z   1
loop_
 _symmetry_equiv_pos_site_id
 _symmetry_equiv_pos_as_xyz
  1  'x, y, z'
loop_
 _atom_site_type_symbol
 _atom_site_label
 _atom_site_symmetry_multiplicity
 _atom_site_fract_x
 _atom_site_fract_y
 _atom_site_fract_z
 _atom_site_occupancy
  Li  Li0  1  0.50000000  0.00000000  0.50000000  1
  Co  Co1  1  0.50000000  0.50000000  0.50000000  1
  Co  Co2  1  0.50000000  0.50000000  0.00000000  1
  Co  Co3  1  0.00000000  0.50000000  0.00000000  1
  Co  Co4  1  0.50000000  0.00000000  0.00000000  1
  O  O5  1  0.73073581  0.71065636  0.76003972  1
  O  O6  1  0.70449427  0.73483176  0.23483176  1
  O  O7  1  0.26926419  0.73996028  0.78934364  1
  O  O8  1  0.73073581  0.26003972  0.76003972  1
  O  O9  1  0.26926419  0.73996028  0.23996028  1
  O  O10  1  0.73073581  0.26003972  0.21065636  1
  O  O11  1  0.29550573  0.26516824  0.76516824  1
  O  O12  1  0.26926419  0.28934364  0.23996028  1
