# generated using pymatgen
data_Li5Fe8(BO3)8
_symmetry_space_group_name_H-M   'P 1'
_cell_length_a   5.26450041
_cell_length_b   9.03936029
_cell_length_c   11.44185376
_cell_angle_alpha   67.02233282
_cell_angle_beta   77.50461916
_cell_angle_gamma   89.62036488
_symmetry_Int_Tables_number   1
_chemical_formula_structural   Li5Fe8(BO3)8
_chemical_formula_sum   'Li5 Fe8 B8 O24'
_cell_volume   487.57787174
_cell_formula_units_Z   1
loop_
 _symmetry_equiv_pos_site_id
 _symmetry_equiv_pos_as_xyz
  1  'x, y, z'
loop_
 _atom_site_type_symbol
 _atom_site_label
 _atom_site_symmetry_multiplicity
 _atom_site_fract_x
 _atom_site_fract_y
 _atom_site_fract_z
 _atom_site_occupancy
  Li  Li0  1  0.72788475  0.73329735  0.87491998  1
  Li  Li1  1  0.51311692  0.49007537  0.66531397  1
  Li  Li2  1  0.74019100  0.76148731  0.15315106  1
  Li  Li3  1  0.47414397  0.45761059  0.40831544  1
  Li  Li4  1  0.22817187  0.25012792  0.16845974  1
  Fe  Fe5  1  0.98610511  0.65211734  0.37982847  1
  Fe  Fe6  1  0.73338899  0.06893019  0.88231960  1
  Fe  Fe7  1  0.50488132  0.84834618  0.63114339  1
  Fe  Fe8  1  0.74973331  0.43649723  0.12925756  1
  Fe  Fe9  1  0.22614801  0.54683971  0.88760825  1
  Fe  Fe10  1  0.48322525  0.14255046  0.38137151  1
  Fe  Fe11  1  0.03346193  0.33853930  0.63538820  1
  Fe  Fe12  1  0.25405488  0.94370445  0.12455001  1
  B  B13  1  0.98520371  0.32543483  0.37017838  1
  B  B14  1  0.73487286  0.39895460  0.87435376  1
  B  B15  1  0.53632508  0.18722082  0.62841056  1
  B  B16  1  0.76491030  0.10695844  0.12670800  1
  B  B17  1  0.47739973  0.80375061  0.38357908  1
  B  B18  1  0.23183436  0.89508610  0.87695463  1
  B  B19  1  0.00409372  0.68169515  0.63223721  1
  B  B20  1  0.26064696  0.60341689  0.13010361  1
  O  O21  1  0.96593341  0.89904489  0.88609740  1
  O  O22  1  0.88929348  0.28260614  0.84792424  1
  O  O23  1  0.83500268  0.50414117  0.91916313  1
  O  O24  1  0.84237396  0.78717675  0.66177806  1
  O  O25  1  0.91506874  0.57860574  0.58035824  1
  O  O26  1  0.74633704  0.16005827  0.68776665  1
  O  O27  1  0.74069890  0.34453567  0.34136834  1
  O  O28  1  0.49251102  0.41048994  0.85008533  1
  O  O29  1  0.37211031  0.78979441  0.82964664  1
  O  O30  1  0.55879057  0.90159643  0.43730991  1
  O  O31  1  0.62953085  0.68498635  0.36260219  1
  O  O32  1  0.36460982  0.98704070  0.92125715  1
  O  O33  1  0.66034233  0.99587135  0.08509883  1
  O  O34  1  0.41968569  0.33114307  0.60393441  1
  O  O35  1  0.44954972  0.07413603  0.58884153  1
  O  O36  1  0.59915035  0.20709741  0.16581595  1
  O  O37  1  0.52519720  0.62125828  0.11891144  1
  O  O38  1  0.25332164  0.66476311  0.65800286  1
  O  O39  1  0.24484110  0.82272539  0.34258890  1
  O  O40  1  0.08092812  0.43292949  0.41850777  1
  O  O41  1  0.13820405  0.21226897  0.35314987  1
  O  O42  1  0.15474730  0.49155689  0.09466981  1
  O  O43  1  0.09418604  0.70269876  0.17690527  1
  O  O44  1  0.02129666  0.11064496  0.13002265  1
