# generated using pymatgen
data_Li2MnCoO4
_symmetry_space_group_name_H-M   'P 1'
_cell_length_a   5.12757700
_cell_length_b   2.92112762
_cell_length_c   5.18063461
_cell_angle_alpha   89.99999746
_cell_angle_beta   70.43964815
_cell_angle_gamma   90.00000044
_symmetry_Int_Tables_number   1
_chemical_formula_structural   Li2MnCoO4
_chemical_formula_sum   'Li2 Mn1 Co1 O4'
_cell_volume   73.11895405
_cell_formula_units_Z   1
loop_
 _symmetry_equiv_pos_site_id
 _symmetry_equiv_pos_as_xyz
  1  'x, y, z'
loop_
 _atom_site_type_symbol
 _atom_site_label
 _atom_site_symmetry_multiplicity
 _atom_site_fract_x
 _atom_site_fract_y
 _atom_site_fract_z
 _atom_site_occupancy
  Li  Li0  1  0.00000000  0.50000000  0.50000000  1
  Li  Li1  1  0.00000000  0.00000000  0.00000000  1
  Mn  Mn2  1  0.50000000  0.50000000  0.00000000  1
  Co  Co3  1  0.50000000  0.00000000  0.50000000  1
  O  O4  1  0.72667796  1.00000000  0.78342394  1
  O  O5  1  0.72574586  0.50000000  0.23882448  1
  O  O6  1  0.27425414  0.50000000  0.76117552  1
  O  O7  1  0.27332204  0.00000000  0.21657606  1
