# generated using pymatgen
data_MnOF
_symmetry_space_group_name_H-M   'P 1'
_cell_length_a   4.81381341
_cell_length_b   18.96361720
_cell_length_c   3.08853016
_cell_angle_alpha   90.00000000
_cell_angle_beta   90.00000000
_cell_angle_gamma   92.63743766
_symmetry_Int_Tables_number   1
_chemical_formula_structural   MnOF
_chemical_formula_sum   'Mn8 O8 F8'
_cell_volume   281.64496672
_cell_formula_units_Z   8
loop_
 _symmetry_equiv_pos_site_id
 _symmetry_equiv_pos_as_xyz
  1  'x, y, z'
loop_
 _atom_site_type_symbol
 _atom_site_label
 _atom_site_symmetry_multiplicity
 _atom_site_fract_x
 _atom_site_fract_y
 _atom_site_fract_z
 _atom_site_occupancy
  Mn  Mn0  1  0.95819336  0.99993364  0.00000000  1
  Mn  Mn1  1  0.13221082  0.24919787  0.00000000  1
  Mn  Mn2  1  0.02082212  0.49945789  0.00000000  1
  Mn  Mn3  1  0.91718304  0.74943049  0.00000000  1
  Mn  Mn4  1  0.55409336  0.12607786  0.50000000  1
  Mn  Mn5  1  0.57475214  0.37471671  0.50000000  1
  Mn  Mn6  1  0.47184930  0.62357093  0.50000000  1
  Mn  Mn7  1  0.36916587  0.87371629  0.50000000  1
  O  O8  1  0.29434524  0.20199953  0.50000000  1
  O  O9  1  0.12232155  0.95182042  0.50000000  1
  O  O10  1  0.29753166  0.57457187  0.00000000  1
  O  O11  1  0.39321203  0.32599870  0.00000000  1
  O  O12  1  0.19873483  0.82534132  0.00000000  1
  O  O13  1  0.74278318  0.42495194  0.00000000  1
  O  O14  1  0.64471247  0.67362077  0.00000000  1
  O  O15  1  0.80433989  0.05041213  0.50000000  1
  F  F16  1  0.22053174  0.45122346  0.50000000  1
  F  F17  1  0.12434888  0.70433263  0.50000000  1
  F  F18  1  0.33443151  0.08058577  0.00000000  1
  F  F19  1  0.78715099  0.17661702  0.00000000  1
  F  F20  1  0.59719824  0.92045214  0.00000000  1
  F  F21  1  0.91360195  0.29509610  0.50000000  1
  F  F22  1  0.81944737  0.54712626  0.50000000  1
  F  F23  1  0.70704046  0.79975225  0.50000000  1
