# generated using pymatgen
data_ZnBiSbO5
_symmetry_space_group_name_H-M   'P 1'
_cell_length_a   5.26863707
_cell_length_b   10.60573213
_cell_length_c   16.32214185
_cell_angle_alpha   90.00000000
_cell_angle_beta   90.00000000
_cell_angle_gamma   90.00000000
_symmetry_Int_Tables_number   1
_chemical_formula_structural   ZnBiSbO5
_chemical_formula_sum   'Zn8 Bi8 Sb8 O40'
_cell_volume   912.04461815
_cell_formula_units_Z   8
loop_
 _symmetry_equiv_pos_site_id
 _symmetry_equiv_pos_as_xyz
  1  'x, y, z'
loop_
 _atom_site_type_symbol
 _atom_site_label
 _atom_site_symmetry_multiplicity
 _atom_site_fract_x
 _atom_site_fract_y
 _atom_site_fract_z
 _atom_site_occupancy
  Zn  Zn0  1  0.54830999  0.40275503  0.43426492  1
  Zn  Zn1  1  0.04830999  0.09724497  0.43426492  1
  Zn  Zn2  1  0.04830999  0.59724497  0.06573508  1
  Zn  Zn3  1  0.95169001  0.40275503  0.93426492  1
  Zn  Zn4  1  0.45169001  0.09724497  0.93426492  1
  Zn  Zn5  1  0.95169001  0.90275503  0.56573508  1
  Zn  Zn6  1  0.45169001  0.59724497  0.56573508  1
  Zn  Zn7  1  0.54830999  0.90275503  0.06573508  1
  Bi  Bi8  1  0.04990133  0.85666250  0.21936061  1
  Bi  Bi9  1  0.95009867  0.14333750  0.78063939  1
  Bi  Bi10  1  0.45009867  0.35666250  0.78063939  1
  Bi  Bi11  1  0.95009867  0.64333750  0.71936061  1
  Bi  Bi12  1  0.54990133  0.14333750  0.28063939  1
  Bi  Bi13  1  0.54990133  0.64333750  0.21936061  1
  Bi  Bi14  1  0.45009867  0.85666250  0.71936061  1
  Bi  Bi15  1  0.04990133  0.35666250  0.28063939  1
  Sb  Sb16  1  0.97889907  0.36295501  0.59018804  1
  Sb  Sb17  1  0.52110093  0.86295501  0.40981196  1
  Sb  Sb18  1  0.02110193  0.63704499  0.40981196  1
  Sb  Sb19  1  0.47889807  0.13704499  0.59018804  1
  Sb  Sb20  1  0.02110193  0.13704499  0.09018804  1
  Sb  Sb21  1  0.97889907  0.86295501  0.90981196  1
  Sb  Sb22  1  0.52110093  0.36295501  0.09018804  1
  Sb  Sb23  1  0.47889807  0.63704499  0.90981196  1
  O  O24  1  0.83739997  0.32175285  0.69759929  1
  O  O25  1  0.26123570  0.02983397  0.03348941  1
  O  O26  1  0.23876430  0.52983397  0.96651059  1
  O  O27  1  0.37642916  0.79030579  0.14466640  1
  O  O28  1  0.12357084  0.29030579  0.85533360  1
  O  O29  1  0.83739997  0.82175285  0.80240071  1
  O  O30  1  0.12357084  0.79030579  0.64466640  1
  O  O31  1  0.66260003  0.82175285  0.30240071  1
  O  O32  1  0.26123570  0.52983397  0.46651059  1
  O  O33  1  0.16260003  0.67824715  0.30240071  1
  O  O34  1  0.66260003  0.32175285  0.19759929  1
  O  O35  1  0.78833253  0.21081126  0.54114016  1
  O  O36  1  0.76123570  0.97016603  0.46651059  1
  O  O37  1  0.62357084  0.70969421  0.64466640  1
  O  O38  1  0.18350443  0.00251093  0.86174088  1
  O  O39  1  0.76123570  0.47016603  0.03348941  1
  O  O40  1  0.16260003  0.17824715  0.19759929  1
  O  O41  1  0.87642916  0.20969421  0.35533360  1
  O  O42  1  0.28833253  0.78918874  0.95885984  1
  O  O43  1  0.23876430  0.02983397  0.53348941  1
  O  O44  1  0.21166747  0.78918874  0.45885984  1
  O  O45  1  0.81649557  0.99748907  0.13825912  1
  O  O46  1  0.62357084  0.20969421  0.85533360  1
  O  O47  1  0.68350443  0.99748907  0.63825912  1
  O  O48  1  0.21166747  0.28918874  0.04114016  1
  O  O49  1  0.28833253  0.28918874  0.54114016  1
  O  O50  1  0.73876430  0.47016603  0.53348941  1
  O  O51  1  0.73876430  0.97016603  0.96651059  1
  O  O52  1  0.68350443  0.49748907  0.86174088  1
  O  O53  1  0.71166747  0.71081126  0.45885984  1
  O  O54  1  0.71166747  0.21081126  0.04114016  1
  O  O55  1  0.78833253  0.71081126  0.95885984  1
  O  O56  1  0.81649557  0.49748907  0.36174088  1
  O  O57  1  0.87642916  0.70969421  0.14466640  1
  O  O58  1  0.37642916  0.29030579  0.35533360  1
  O  O59  1  0.18350443  0.50251093  0.63825912  1
  O  O60  1  0.31649557  0.50251093  0.13825912  1
  O  O61  1  0.33739997  0.17824715  0.69759929  1
  O  O62  1  0.31649557  0.00251093  0.36174088  1
  O  O63  1  0.33739997  0.67824715  0.80240071  1
