# generated using pymatgen
data_Na2LiMn(PO3)5
_symmetry_space_group_name_H-M   'P 1'
_cell_length_a   5.23293835
_cell_length_b   9.13395515
_cell_length_c   13.95492585
_cell_angle_alpha   89.99997253
_cell_angle_beta   90.00038312
_cell_angle_gamma   75.23648725
_symmetry_Int_Tables_number   1
_chemical_formula_structural   Na2LiMn(PO3)5
_chemical_formula_sum   'Na4 Li2 Mn2 P10 O30'
_cell_volume   644.98876887
_cell_formula_units_Z   2
loop_
 _symmetry_equiv_pos_site_id
 _symmetry_equiv_pos_as_xyz
  1  'x, y, z'
loop_
 _atom_site_type_symbol
 _atom_site_label
 _atom_site_symmetry_multiplicity
 _atom_site_fract_x
 _atom_site_fract_y
 _atom_site_fract_z
 _atom_site_occupancy
  Na  Na0  1  0.08942234  0.85510275  0.09883295  1
  Na  Na1  1  0.08942055  0.85510545  0.40116737  1
  Na  Na2  1  0.91057829  0.14489446  0.59883251  1
  Na  Na3  1  0.91057726  0.14489618  0.90116656  1
  Li  Li4  1  0.02614857  0.83027087  0.74999728  1
  Li  Li5  1  0.97384032  0.16972440  0.24999806  1
  Mn  Mn6  1  0.50000772  0.49999254  0.00000127  1
  Mn  Mn7  1  0.50000710  0.50000200  0.49999613  1
  P  P8  1  0.00975127  0.51151335  0.64402495  1
  P  P9  1  0.00974536  0.51151235  0.85597283  1
  P  P10  1  0.35215180  0.18618812  0.07796878  1
  P  P11  1  0.35214575  0.18619288  0.42203568  1
  P  P12  1  0.46146065  0.00171642  0.74999815  1
  P  P13  1  0.53853655  0.99828375  0.25000351  1
  P  P14  1  0.64785070  0.81381203  0.57796539  1
  P  P15  1  0.64784928  0.81381077  0.92203245  1
  P  P16  1  0.99024919  0.48848774  0.35597462  1
  P  P17  1  0.99025655  0.48848546  0.14402643  1
  O  O18  1  0.05590624  0.53604800  0.25000026  1
  O  O19  1  0.20479998  0.07796339  0.04081583  1
  O  O20  1  0.20479629  0.07796172  0.45918877  1
  O  O21  1  0.21874693  0.12860705  0.74999713  1
  O  O22  1  0.14412189  0.30684663  0.14656672  1
  O  O23  1  0.14411010  0.30684705  0.35343567  1
  O  O24  1  0.12198106  0.57658451  0.42204928  1
  O  O25  1  0.12198969  0.57658506  0.07795033  1
  O  O26  1  0.29679752  0.50574140  0.63434444  1
  O  O27  1  0.29679040  0.50573945  0.86565401  1
  O  O28  1  0.49600061  0.26527938  0.01103595  1
  O  O29  1  0.49600117  0.26528179  0.48896306  1
  O  O30  1  0.56999485  0.10861540  0.16016982  1
  O  O31  1  0.56998718  0.10861573  0.33983561  1
  O  O32  1  0.26000911  0.97868829  0.25000108  1
  O  O33  1  0.73998796  0.02131001  0.74999822  1
  O  O34  1  0.43000500  0.89138322  0.66016627  1
  O  O35  1  0.43000238  0.89138597  0.83983255  1
  O  O36  1  0.50399799  0.73472098  0.51103394  1
  O  O37  1  0.50399306  0.73471845  0.98896535  1
  O  O38  1  0.70321547  0.49426065  0.13434463  1
  O  O39  1  0.70320361  0.49426324  0.36565329  1
  O  O40  1  0.87801855  0.42341900  0.57794902  1
  O  O41  1  0.87801260  0.42341445  0.92204783  1
  O  O42  1  0.85588635  0.69315402  0.64656519  1
  O  O43  1  0.85587736  0.69315068  0.85343328  1
  O  O44  1  0.78125204  0.87139509  0.25000348  1
  O  O45  1  0.79519339  0.92204240  0.54081301  1
  O  O46  1  0.79519570  0.92203435  0.95918767  1
  O  O47  1  0.94411126  0.46394311  0.74999840  1
