# generated using pymatgen
data_VCrP2(O4F)2
_symmetry_space_group_name_H-M   'P 1'
_cell_length_a   5.10199298
_cell_length_b   5.29158466
_cell_length_c   7.32338008
_cell_angle_alpha   109.46877334
_cell_angle_beta   106.66453536
_cell_angle_gamma   96.42381996
_symmetry_Int_Tables_number   1
_chemical_formula_structural   VCrP2(O4F)2
_chemical_formula_sum   'V1 Cr1 P2 O8 F2'
_cell_volume   173.80564951
_cell_formula_units_Z   1
loop_
 _symmetry_equiv_pos_site_id
 _symmetry_equiv_pos_as_xyz
  1  'x, y, z'
loop_
 _atom_site_type_symbol
 _atom_site_label
 _atom_site_symmetry_multiplicity
 _atom_site_fract_x
 _atom_site_fract_y
 _atom_site_fract_z
 _atom_site_occupancy
  V  V0  1  0.00000000  0.00000000  0.00000000  1
  Cr  Cr1  1  0.50000000  0.50000000  0.50000000  1
  P  P2  1  0.42806973  0.11413982  0.75495954  1
  P  P3  1  0.57193027  0.88586018  0.24504046  1
  O  O4  1  0.27031991  0.13668354  0.91413812  1
  O  O5  1  0.33875104  0.82022018  0.59784990  1
  O  O6  1  0.36020232  0.33062006  0.66802486  1
  O  O7  1  0.24777588  0.81582982  0.11779003  1
  O  O8  1  0.75222412  0.18417018  0.88220997  1
  O  O9  1  0.63979768  0.66937994  0.33197514  1
  O  O10  1  0.66124896  0.17977982  0.40215010  1
  O  O11  1  0.72968009  0.86331646  0.08586188  1
  F  F12  1  0.14287166  0.30984689  0.25614116  1
  F  F13  1  0.85712834  0.69015311  0.74385884  1
