# generated using pymatgen
data_LiFe2(BO3)2
_symmetry_space_group_name_H-M   'P 1'
_cell_length_a   5.26374972
_cell_length_b   9.06588900
_cell_length_c   10.23735617
_cell_angle_alpha   89.99999978
_cell_angle_beta   91.72198131
_cell_angle_gamma   89.99999808
_symmetry_Int_Tables_number   1
_chemical_formula_structural   LiFe2(BO3)2
_chemical_formula_sum   'Li4 Fe8 B8 O24'
_cell_volume   488.31186042
_cell_formula_units_Z   4
loop_
 _symmetry_equiv_pos_site_id
 _symmetry_equiv_pos_as_xyz
  1  'x, y, z'
loop_
 _atom_site_type_symbol
 _atom_site_label
 _atom_site_symmetry_multiplicity
 _atom_site_fract_x
 _atom_site_fract_y
 _atom_site_fract_z
 _atom_site_occupancy
  Li  Li0  1  0.34302360  0.00877693  0.84909727  1
  Li  Li1  1  0.65988815  0.99875783  0.10889301  1
  Li  Li2  1  0.15988815  0.50124217  0.60889301  1
  Li  Li3  1  0.84302360  0.49122307  0.34909727  1
  Fe  Fe4  1  0.15821809  0.16580177  0.12124969  1
  Fe  Fe5  1  0.83670295  0.16148432  0.36950581  1
  Fe  Fe6  1  0.33670295  0.33851568  0.86950581  1
  Fe  Fe7  1  0.65821809  0.33419823  0.62124969  1
  Fe  Fe8  1  0.34340157  0.66787719  0.37071242  1
  Fe  Fe9  1  0.15627966  0.83591067  0.62166253  1
  Fe  Fe10  1  0.65627966  0.66408933  0.12166253  1
  Fe  Fe11  1  0.84340157  0.83212281  0.87071242  1
  B  B12  1  0.15192286  0.16881827  0.62468220  1
  B  B13  1  0.32487169  0.33344684  0.37424243  1
  B  B14  1  0.82487169  0.16655316  0.87424243  1
  B  B15  1  0.65192286  0.33118173  0.12468220  1
  B  B16  1  0.34419624  0.66878335  0.86658137  1
  B  B17  1  0.67151521  0.66716211  0.61899234  1
  B  B18  1  0.17151521  0.83283789  0.11899234  1
  B  B19  1  0.84419624  0.83121665  0.36658137  1
  O  O20  1  0.26016353  0.03472488  0.65384427  1
  O  O21  1  0.08592251  0.17943494  0.90188470  1
  O  O22  1  0.70380302  0.03464879  0.89573866  1
  O  O23  1  0.18917369  0.21195039  0.32836559  1
  O  O24  1  0.27558288  0.29925026  0.66432515  1
  O  O25  1  0.77558288  0.20074974  0.16432515  1
  O  O26  1  0.91741490  0.17958569  0.56077050  1
  O  O27  1  0.41741490  0.32041431  0.06077050  1
  O  O28  1  0.20380302  0.46535121  0.39573866  1
  O  O29  1  0.58592351  0.32056506  0.40188470  1
  O  O30  1  0.68917369  0.28804961  0.82836559  1
  O  O31  1  0.23297914  0.53579768  0.84086865  1
  O  O32  1  0.76016353  0.46527512  0.15384427  1
  O  O33  1  0.30306992  0.70868032  0.16370748  1
  O  O34  1  0.41111781  0.67950165  0.58791289  1
  O  O35  1  0.79415789  0.53600953  0.60232010  1
  O  O36  1  0.57904827  0.68020431  0.93079454  1
  O  O37  1  0.07904827  0.81979569  0.43079454  1
  O  O38  1  0.22397244  0.79985959  0.82460440  1
  O  O39  1  0.72397244  0.70014041  0.32460440  1
  O  O40  1  0.80306992  0.79131968  0.66370748  1
  O  O41  1  0.29415789  0.96399047  0.10232010  1
  O  O42  1  0.91111781  0.82049835  0.08791289  1
  O  O43  1  0.73297914  0.96420232  0.34086865  1
