# generated using pymatgen
data_LiMn(CO3)2
_symmetry_space_group_name_H-M   'P 1'
_cell_length_a   6.67657485
_cell_length_b   7.81815343
_cell_length_c   5.13838429
_cell_angle_alpha   90.00000000
_cell_angle_beta   66.22373469
_cell_angle_gamma   90.00000000
_symmetry_Int_Tables_number   1
_chemical_formula_structural   LiMn(CO3)2
_chemical_formula_sum   'Li2 Mn2 C4 O12'
_cell_volume   245.45153152
_cell_formula_units_Z   2
loop_
 _symmetry_equiv_pos_site_id
 _symmetry_equiv_pos_as_xyz
  1  'x, y, z'
loop_
 _atom_site_type_symbol
 _atom_site_label
 _atom_site_symmetry_multiplicity
 _atom_site_fract_x
 _atom_site_fract_y
 _atom_site_fract_z
 _atom_site_occupancy
  Li  Li0  1  0.64634230  0.05934950  0.71446236  1
  Li  Li1  1  0.85365770  0.55934950  0.78553764  1
  Mn  Mn2  1  0.01724297  0.99722061  0.99181001  1
  Mn  Mn3  1  0.48275703  0.49722061  0.50818999  1
  C  C4  1  0.10613371  0.26318596  0.74563911  1
  C  C5  1  0.39386629  0.76318596  0.75436089  1
  C  C6  1  0.62285923  0.24203919  0.22274519  1
  C  C7  1  0.87714077  0.74203919  0.27725481  1
  O  O8  1  0.09856874  0.23877316  0.00201821  1
  O  O9  1  0.06995626  0.12544897  0.62838595  1
  O  O10  1  0.14222242  0.40979107  0.62866397  1
  O  O11  1  0.35777758  0.90979107  0.87133603  1
  O  O12  1  0.43004374  0.62544897  0.87161405  1
  O  O13  1  0.40143126  0.73877316  0.49798179  1
  O  O14  1  0.58126475  0.25038889  0.49677104  1
  O  O15  1  0.60437244  0.39003582  0.11331153  1
  O  O16  1  0.67245915  0.10475584  0.08370482  1
  O  O17  1  0.82754085  0.60475584  0.41629518  1
  O  O18  1  0.89562756  0.89003582  0.38668847  1
  O  O19  1  0.91873525  0.75038889  0.00322896  1
