# generated using pymatgen
data_Bi25O38
_symmetry_space_group_name_H-M   'P 1'
_cell_length_a   8.99094398
_cell_length_b   9.07999140
_cell_length_c   14.71381871
_cell_angle_alpha   90.53096291
_cell_angle_beta   90.02740081
_cell_angle_gamma   109.57575096
_symmetry_Int_Tables_number   1
_chemical_formula_structural   Bi25O38
_chemical_formula_sum   'Bi25 O38'
_cell_volume   1131.71516598
_cell_formula_units_Z   1
loop_
 _symmetry_equiv_pos_site_id
 _symmetry_equiv_pos_as_xyz
  1  'x, y, z'
loop_
 _atom_site_type_symbol
 _atom_site_label
 _atom_site_symmetry_multiplicity
 _atom_site_fract_x
 _atom_site_fract_y
 _atom_site_fract_z
 _atom_site_occupancy
  Bi  Bi0  1  0.43849942  0.23576789  0.08396198  1
  Bi  Bi1  1  0.78434691  0.62312166  0.08745721  1
  Bi  Bi2  1  0.46944945  0.17223117  0.33606568  1
  Bi  Bi3  1  0.83552480  0.51161716  0.35129441  1
  Bi  Bi4  1  0.99967442  0.35518620  0.15577826  1
  Bi  Bi5  1  0.66034930  0.96718389  0.17494493  1
  Bi  Bi6  1  0.92763352  0.05291706  0.76545763  1
  Bi  Bi7  1  0.25050835  0.77152695  0.06195487  1
  Bi  Bi8  1  0.41542990  0.55328010  0.24224980  1
  Bi  Bi9  1  0.76988977  0.25909724  0.57607158  1
  Bi  Bi10  1  0.91936736  0.72372719  0.58857922  1
  Bi  Bi11  1  0.09651115  0.26620023  0.40209834  1
  Bi  Bi12  1  0.25900794  0.10131828  0.59687107  1
  Bi  Bi13  1  0.72607623  0.91757403  0.42259830  1
  Bi  Bi14  1  0.49978336  0.50268391  0.50348778  1
  Bi  Bi15  1  0.26750390  0.75743191  0.43177135  1
  Bi  Bi16  1  0.76383223  0.27396394  0.92033324  1
  Bi  Bi17  1  0.06147149  0.90952830  0.25630128  1
  Bi  Bi18  1  0.55792918  0.41619615  0.74544612  1
  Bi  Bi19  1  0.97995783  0.68145385  0.84834239  1
  Bi  Bi20  1  0.32964251  0.02490078  0.85129344  1
  Bi  Bi21  1  0.51415979  0.86077567  0.65948116  1
  Bi  Bi22  1  0.16204433  0.48174913  0.67472459  1
  Bi  Bi23  1  0.57092482  0.75193073  0.90162514  1
  Bi  Bi24  1  0.20837811  0.38754558  0.91930029  1
  O  O25  1  0.37222403  0.00243223  0.99983785  1
  O  O26  1  0.95572393  0.06946876  0.30681790  1
  O  O27  1  0.68485005  0.28588001  0.05621622  1
  O  O28  1  0.94125892  0.56392591  0.17823270  1
  O  O29  1  0.43553997  0.07617163  0.18911642  1
  O  O30  1  0.56821334  0.44568551  0.18333350  1
  O  O31  1  0.80210995  0.17911770  0.44347966  1
  O  O32  1  0.99239428  0.36208290  0.00026078  1
  O  O33  1  0.81965049  0.81674052  0.18537118  1
  O  O34  1  0.24146375  0.47056808  0.12972162  1
  O  O35  1  0.50089678  0.75833619  0.12222384  1
  O  O36  1  0.98727784  0.74815366  0.36674344  1
  O  O37  1  0.25801529  0.99616652  0.37518715  1
  O  O38  1  0.31193713  0.31224497  0.31152673  1
  O  O39  1  0.86931238  0.50405852  0.49937636  1
  O  O40  1  0.00267928  0.73771006  0.00171450  1
  O  O41  1  0.62261214  0.61878284  0.38364535  1
  O  O42  1  0.48903810  0.26167374  0.49689621  1
  O  O43  1  0.44012799  0.06954398  0.67885409  1
  O  O44  1  0.57586825  0.92978910  0.31202796  1
  O  O45  1  0.05014614  0.43315752  0.31736545  1
  O  O46  1  0.94233509  0.57281387  0.69095683  1
  O  O47  1  0.62185311  0.61581692  0.62608884  1
  O  O48  1  0.26136279  0.50758433  0.49550504  1
  O  O49  1  0.50119874  0.86779699  0.49875881  1
  O  O50  1  0.32006132  0.32085722  0.68277487  1
  O  O51  1  0.00704485  0.26912635  0.62055415  1
  O  O52  1  0.74742046  0.00285379  0.62928492  1
  O  O53  1  0.76308857  0.50194652  0.88340007  1
  O  O54  1  0.49527522  0.25344215  0.87271323  1
  O  O55  1  0.81576764  0.81201601  0.82035066  1
  O  O56  1  0.18242249  0.80482538  0.55838885  1
  O  O57  1  0.44954781  0.56385086  0.81072382  1
  O  O58  1  0.13304020  0.13470976  0.86885405  1
  O  O59  1  0.06169685  0.42124482  0.81369078  1
  O  O60  1  0.55600025  0.93394611  0.81835668  1
  O  O61  1  0.07189419  0.95054174  0.69267783  1
  O  O62  1  0.30295132  0.68182685  0.93728360  1
