# generated using pymatgen
data_Na3Ni7O12
_symmetry_space_group_name_H-M   'P 1'
_cell_length_a   5.41486993
_cell_length_b   5.82384267
_cell_length_c   7.69484214
_cell_angle_alpha   99.57984022
_cell_angle_beta   84.20419429
_cell_angle_gamma   74.01705016
_symmetry_Int_Tables_number   1
_chemical_formula_structural   Na3Ni7O12
_chemical_formula_sum   'Na3 Ni7 O12'
_cell_volume   227.25072964
_cell_formula_units_Z   1
loop_
 _symmetry_equiv_pos_site_id
 _symmetry_equiv_pos_as_xyz
  1  'x, y, z'
loop_
 _atom_site_type_symbol
 _atom_site_label
 _atom_site_symmetry_multiplicity
 _atom_site_fract_x
 _atom_site_fract_y
 _atom_site_fract_z
 _atom_site_occupancy
  Na  Na0  1  0.49516011  0.42062085  0.16536962  1
  Na  Na1  1  0.50071171  0.91699463  0.17101704  1
  Na  Na2  1  0.50354124  0.72776750  0.51655106  1
  Ni  Ni3  1  0.01182902  0.99744929  0.99382220  1
  Ni  Ni4  1  0.99824452  0.50304200  0.99644642  1
  Ni  Ni5  1  0.99894865  0.33112726  0.33792071  1
  Ni  Ni6  1  0.99295275  0.16845229  0.67027495  1
  Ni  Ni7  1  0.00357715  0.66570160  0.66859813  1
  Ni  Ni8  1  0.99102745  0.83837701  0.33323846  1
  Ni  Ni9  1  0.49810226  0.09534654  0.82316923  1
  O  O10  1  0.22240984  0.19831457  0.06311382  1
  O  O11  1  0.18019707  0.05364164  0.43421544  1
  O  O12  1  0.20413042  0.73522467  0.08072142  1
  O  O13  1  0.18282395  0.57526461  0.42743433  1
  O  O14  1  0.19979001  0.36510252  0.75058430  1
  O  O15  1  0.20763474  0.91439518  0.76334286  1
  O  O16  1  0.81652986  0.09929503  0.22510500  1
  O  O17  1  0.80281680  0.43058822  0.58747480  1
  O  O18  1  0.80639138  0.60992817  0.24807602  1
  O  O19  1  0.79423010  0.25535959  0.90183284  1
  O  O20  1  0.78573268  0.96108829  0.60264258  1
  O  O21  1  0.80321929  0.80358451  0.90571477  1
