# generated using pymatgen
data_MnF3
_symmetry_space_group_name_H-M   'P 1'
_cell_length_a   8.77617693
_cell_length_b   5.01077063
_cell_length_c   4.98872069
_cell_angle_alpha   90.00000000
_cell_angle_beta   90.18751824
_cell_angle_gamma   90.00000000
_symmetry_Int_Tables_number   1
_chemical_formula_structural   MnF3
_chemical_formula_sum   'Mn4 F12'
_cell_volume   219.37986058
_cell_formula_units_Z   4
loop_
 _symmetry_equiv_pos_site_id
 _symmetry_equiv_pos_as_xyz
  1  'x, y, z'
loop_
 _atom_site_type_symbol
 _atom_site_label
 _atom_site_symmetry_multiplicity
 _atom_site_fract_x
 _atom_site_fract_y
 _atom_site_fract_z
 _atom_site_occupancy
  Mn  Mn0  1  0.17365432  0.49962576  0.49999834  1
  Mn  Mn1  1  0.32634568  0.99962576  0.00000166  1
  Mn  Mn2  1  0.67365432  0.00037424  -0.00000166  1
  Mn  Mn3  1  0.82634568  0.50037424  0.50000166  1
  F  F4  1  0.00067418  0.67087763  0.67516501  1
  F  F5  1  0.18622309  0.19725174  0.79822317  1
  F  F6  1  0.18721531  0.80153817  0.20152304  1
  F  F7  1  0.31278469  0.30153817  0.29847696  1
  F  F8  1  0.31377691  0.69725174  0.70177683  1
  F  F9  1  0.49932582  0.17087763  0.82483499  1
  F  F10  1  0.50067418  0.82912237  0.17516501  1
  F  F11  1  0.68622309  0.30274826  0.29822317  1
  F  F12  1  0.68721531  0.69846183  0.70152304  1
  F  F13  1  0.81278469  0.19846183  0.79847696  1
  F  F14  1  0.81377691  0.80274826  0.20177683  1
  F  F15  1  0.99932582  0.32912237  0.32483499  1
