# generated using pymatgen
data_Li3V3P8O29
_symmetry_space_group_name_H-M   'P 1'
_cell_length_a   9.76330784
_cell_length_b   9.71733169
_cell_length_c   14.37435822
_cell_angle_alpha   89.99221256
_cell_angle_beta   90.55265034
_cell_angle_gamma   60.15189875
_symmetry_Int_Tables_number   1
_chemical_formula_structural   Li3V3P8O29
_chemical_formula_sum   'Li6 V6 P16 O58'
_cell_volume   1182.76531420
_cell_formula_units_Z   2
loop_
 _symmetry_equiv_pos_site_id
 _symmetry_equiv_pos_as_xyz
  1  'x, y, z'
loop_
 _atom_site_type_symbol
 _atom_site_label
 _atom_site_symmetry_multiplicity
 _atom_site_fract_x
 _atom_site_fract_y
 _atom_site_fract_z
 _atom_site_occupancy
  Li  Li0  1  0.32415236  0.90364253  0.05761255  1
  Li  Li1  1  0.32412228  0.77223539  0.55757705  1
  Li  Li2  1  0.08892598  0.67766610  0.44146744  1
  Li  Li3  1  0.08883879  0.23333773  0.94146154  1
  Li  Li4  1  0.93759750  0.98313925  0.99250232  1
  Li  Li5  1  0.93751230  0.07891751  0.49235945  1
  V  V6  1  0.56746878  0.43285383  0.24735945  1
  V  V7  1  0.43989292  0.55783698  0.75761712  1
  V  V8  1  0.56747895  0.99963433  0.74725791  1
  V  V9  1  0.43987938  0.00229319  0.25765888  1
  V  V10  1  0.99831167  0.56489612  0.24560767  1
  V  V11  1  0.99838084  0.43681347  0.74556352  1
  P  P12  1  0.91632291  0.77970774  0.83559006  1
  P  P13  1  0.78532587  0.91462424  0.34349176  1
  P  P14  1  0.91633844  0.30388249  0.33565177  1
  P  P15  1  0.66116779  0.66970156  0.13377049  1
  P  P16  1  0.66115666  0.66911838  0.63372784  1
  P  P17  1  0.78541230  0.29998340  0.84338507  1
  P  P18  1  0.69274551  0.22435651  0.66035655  1
  P  P19  1  0.31814455  0.91153406  0.84257225  1
  P  P20  1  0.69272750  0.08291234  0.16038343  1
  P  P21  1  0.31807123  0.77037483  0.34259101  1
  P  P22  1  0.22034291  0.69563976  0.16188603  1
  P  P23  1  0.33174699  0.34066783  0.36639826  1
  P  P24  1  0.33183231  0.32748570  0.86634529  1
  P  P25  1  0.09339357  0.68516442  0.65735286  1
  P  P26  1  0.22036051  0.08405928  0.66187913  1
  P  P27  1  0.09341561  0.22152942  0.15738994  1
  O  O28  1  0.02437368  0.75802015  0.56545631  1
  O  O29  1  0.91837711  0.73725654  0.33624430  1
  O  O30  1  0.78019662  0.00393545  0.07577136  1
  O  O31  1  0.74128218  0.91498459  0.82750468  1
  O  O32  1  0.92230910  0.61771966  0.82431295  1
  O  O33  1  0.81349202  0.66519683  0.17815491  1
  O  O34  1  0.92219628  0.45998123  0.32437477  1
  O  O35  1  0.02438655  0.21790580  0.06550920  1
  O  O36  1  0.91835615  0.34445585  0.83621844  1
  O  O37  1  0.66566770  0.81466785  0.67759741  1
  O  O38  1  0.62225895  0.91987408  0.33181077  1
  O  O39  1  0.81348656  0.52139053  0.67813912  1
  O  O40  1  0.65552789  0.67369864  0.03073558  1
  O  O41  1  0.65558915  0.67065603  0.53068037  1
  O  O42  1  0.66579030  0.51964235  0.17774678  1
  O  O43  1  0.47416726  0.91028233  0.82604024  1
  O  O44  1  0.51502809  0.81624532  0.17817834  1
  O  O45  1  0.74122596  0.34373443  0.32756071  1
  O  O46  1  0.80162519  0.20133348  0.75052970  1
  O  O47  1  0.78034593  0.21557802  0.57560127  1
  O  O48  1  0.80842966  0.20077060  0.92648042  1
  O  O49  1  0.62231999  0.45779844  0.83172620  1
  O  O50  1  0.51497114  0.66888532  0.67817028  1
  O  O51  1  0.65195940  0.25884203  0.16865681  1
  O  O52  1  0.47404572  0.61551575  0.32609980  1
  O  O53  1  0.34836515  0.91256860  0.33454181  1
  O  O54  1  0.80145538  0.99728169  0.25069812  1
  O  O55  1  0.80820039  0.99069739  0.42667270  1
  O  O56  1  0.20242974  0.99607459  0.58231713  1
  O  O57  1  0.65190113  0.08929549  0.66862406  1
  O  O58  1  0.53702936  0.38391413  0.67676260  1
  O  O59  1  0.34836844  0.73907012  0.83451699  1
  O  O60  1  0.47614705  0.33914776  0.31905663  1
  O  O61  1  0.38074965  0.54029926  0.17008121  1
  O  O62  1  0.20225287  0.80158262  0.08231494  1
  O  O63  1  0.23867519  0.77081112  0.43172013  1
  O  O64  1  0.19979551  0.79186118  0.25839734  1
  O  O65  1  0.26490402  0.65558033  0.66706402  1
  O  O66  1  0.47622126  0.18455866  0.81909117  1
  O  O67  1  0.53683673  0.07931278  0.17684883  1
  O  O68  1  0.33339239  0.47737435  0.82208180  1
  O  O69  1  0.33075456  0.32536940  0.96935025  1
  O  O70  1  0.33085148  0.34388982  0.46939504  1
  O  O71  1  0.18144838  0.49066383  0.32536770  1
  O  O72  1  0.38075227  0.07900090  0.67004381  1
  O  O73  1  0.33326960  0.18923926  0.32217708  1
  O  O74  1  0.08389408  0.65671492  0.16691253  1
  O  O75  1  0.99695291  0.79938710  0.74139410  1
  O  O76  1  0.99523501  0.79913572  0.91862334  1
  O  O77  1  0.09312527  0.52648054  0.67515222  1
  O  O78  1  0.18155489  0.32787366  0.82523560  1
  O  O79  1  0.09317710  0.38044363  0.17530277  1
  O  O80  1  0.26492101  0.07954745  0.16708401  1
  O  O81  1  0.23878721  0.99054979  0.93170433  1
  O  O82  1  0.19981740  0.00843057  0.75840932  1
  O  O83  1  0.08387480  0.25939344  0.66686664  1
  O  O84  1  0.99506307  0.20548139  0.41862808  1
  O  O85  1  0.99699871  0.20364083  0.24143836  1
