# generated using pymatgen
data_Li4V3OF11
_symmetry_space_group_name_H-M   'P 1'
_cell_length_a   5.67588471
_cell_length_b   6.34263551
_cell_length_c   6.13700183
_cell_angle_alpha   102.07880376
_cell_angle_beta   98.14984590
_cell_angle_gamma   100.69927555
_symmetry_Int_Tables_number   1
_chemical_formula_structural   Li4V3OF11
_chemical_formula_sum   'Li4 V3 O1 F11'
_cell_volume   208.50136260
_cell_formula_units_Z   1
loop_
 _symmetry_equiv_pos_site_id
 _symmetry_equiv_pos_as_xyz
  1  'x, y, z'
loop_
 _atom_site_type_symbol
 _atom_site_label
 _atom_site_symmetry_multiplicity
 _atom_site_fract_x
 _atom_site_fract_y
 _atom_site_fract_z
 _atom_site_occupancy
  Li  Li0  1  0.13870200  0.56509122  0.32738612  1
  Li  Li1  1  0.38984575  0.64666933  0.85171020  1
  Li  Li2  1  0.61419117  0.35063537  0.13138368  1
  Li  Li3  1  0.86724717  0.45049280  0.67620750  1
  V  V4  1  0.70197062  0.86147729  0.38427912  1
  V  V5  1  0.00948662  0.00133660  0.02411184  1
  V  V6  1  0.30499575  0.13173787  0.60273129  1
  O  O7  1  0.05570574  0.96696610  0.33030892  1
  F  F8  1  0.06476160  0.71090418  0.89451003  1
  F  F9  1  0.43459088  0.84269905  0.59115653  1
  F  F10  1  0.66351251  0.87394882  0.04905984  1
  F  F11  1  0.17053996  0.39872541  0.58021814  1
  F  F12  1  0.42975932  0.60110770  0.20028678  1
  F  F13  1  0.57890710  0.39719890  0.79287487  1
  F  F14  1  0.82825038  0.59654948  0.42612758  1
  F  F15  1  0.32908338  0.12360827  0.94044145  1
  F  F16  1  0.56152852  0.14894196  0.39908287  1
  F  F17  1  0.94392138  0.29835478  0.10192675  1
  F  F18  1  0.91300114  0.03355388  0.69619548  1
