# generated using pymatgen
data_ZnSnBiO5
_symmetry_space_group_name_H-M   'P 1'
_cell_length_a   5.34773708
_cell_length_b   10.45267108
_cell_length_c   15.43610615
_cell_angle_alpha   90.00000000
_cell_angle_beta   90.00000000
_cell_angle_gamma   90.00000000
_symmetry_Int_Tables_number   1
_chemical_formula_structural   ZnSnBiO5
_chemical_formula_sum   'Zn8 Sn8 Bi8 O40'
_cell_volume   862.84957199
_cell_formula_units_Z   8
loop_
 _symmetry_equiv_pos_site_id
 _symmetry_equiv_pos_as_xyz
  1  'x, y, z'
loop_
 _atom_site_type_symbol
 _atom_site_label
 _atom_site_symmetry_multiplicity
 _atom_site_fract_x
 _atom_site_fract_y
 _atom_site_fract_z
 _atom_site_occupancy
  Zn  Zn0  1  0.53123853  0.39547039  0.43336999  1
  Zn  Zn1  1  0.03123853  0.10452961  0.43336999  1
  Zn  Zn2  1  0.03123853  0.60452961  0.06663001  1
  Zn  Zn3  1  0.96876147  0.39547039  0.93336999  1
  Zn  Zn4  1  0.46876147  0.10452961  0.93336999  1
  Zn  Zn5  1  0.96876147  0.89547039  0.56663001  1
  Zn  Zn6  1  0.46876147  0.60452961  0.56663001  1
  Zn  Zn7  1  0.53123853  0.89547039  0.06663001  1
  Sn  Sn8  1  0.04213324  0.37122935  0.56959104  1
  Sn  Sn9  1  0.45786676  0.87122935  0.43040896  1
  Sn  Sn10  1  0.95786676  0.62877065  0.43040896  1
  Sn  Sn11  1  0.54213324  0.12877065  0.56959104  1
  Sn  Sn12  1  0.95786676  0.12877065  0.06959104  1
  Sn  Sn13  1  0.04213324  0.87122935  0.93040896  1
  Sn  Sn14  1  0.45786676  0.37122935  0.06959104  1
  Sn  Sn15  1  0.54213324  0.62877065  0.93040896  1
  Bi  Bi16  1  0.03010668  0.85542930  0.24072957  1
  Bi  Bi17  1  0.96989332  0.14457070  0.75927043  1
  Bi  Bi18  1  0.46989332  0.35542930  0.75927043  1
  Bi  Bi19  1  0.96989332  0.64457070  0.74072957  1
  Bi  Bi20  1  0.53010668  0.14457070  0.25927043  1
  Bi  Bi21  1  0.53010668  0.64457070  0.24072957  1
  Bi  Bi22  1  0.46989332  0.85542930  0.74072957  1
  Bi  Bi23  1  0.03010668  0.35542930  0.25927043  1
  O  O24  1  0.80505227  0.30378594  0.67785166  1
  O  O25  1  0.23610006  0.01148229  0.02121830  1
  O  O26  1  0.26389994  0.51148229  0.97878170  1
  O  O27  1  0.36681217  0.80427582  0.16659556  1
  O  O28  1  0.13318783  0.30427582  0.83340444  1
  O  O29  1  0.80505227  0.80378594  0.82214834  1
  O  O30  1  0.13318783  0.80427582  0.66659556  1
  O  O31  1  0.69494773  0.80378594  0.32214834  1
  O  O32  1  0.23610006  0.51148229  0.47878170  1
  O  O33  1  0.19494773  0.69621406  0.32214834  1
  O  O34  1  0.69494773  0.30378594  0.17785166  1
  O  O35  1  0.85247876  0.22029261  0.51742236  1
  O  O36  1  0.73610006  0.98851771  0.47878170  1
  O  O37  1  0.63318783  0.69572418  0.66659556  1
  O  O38  1  0.22686257  0.99182796  0.84081084  1
  O  O39  1  0.73610006  0.48851771  0.02121830  1
  O  O40  1  0.19494773  0.19621406  0.17785166  1
  O  O41  1  0.86681217  0.19572418  0.33340444  1
  O  O42  1  0.35247876  0.77970739  0.98257764  1
  O  O43  1  0.26389994  0.01148229  0.52121830  1
  O  O44  1  0.14752124  0.77970739  0.48257764  1
  O  O45  1  0.77313743  0.00817204  0.15918916  1
  O  O46  1  0.63318783  0.19572418  0.83340444  1
  O  O47  1  0.72686257  0.00817204  0.65918916  1
  O  O48  1  0.14752124  0.27970739  0.01742236  1
  O  O49  1  0.35247876  0.27970739  0.51742236  1
  O  O50  1  0.76389994  0.48851771  0.52121830  1
  O  O51  1  0.76389994  0.98851771  0.97878170  1
  O  O52  1  0.72686257  0.50817204  0.84081084  1
  O  O53  1  0.64752124  0.72029261  0.48257764  1
  O  O54  1  0.64752124  0.22029261  0.01742236  1
  O  O55  1  0.85247876  0.72029261  0.98257764  1
  O  O56  1  0.77313743  0.50817204  0.34081084  1
  O  O57  1  0.86681217  0.69572418  0.16659556  1
  O  O58  1  0.36681217  0.30427582  0.33340444  1
  O  O59  1  0.22686257  0.49182796  0.65918916  1
  O  O60  1  0.27313743  0.49182796  0.15918916  1
  O  O61  1  0.30505227  0.19621406  0.67785166  1
  O  O62  1  0.27313743  0.99182796  0.34081084  1
  O  O63  1  0.30505227  0.69621406  0.82214834  1
