# generated using pymatgen
data_Li4Mn8O13F3
_symmetry_space_group_name_H-M   'P 1'
_cell_length_a   6.08350835
_cell_length_b   6.08147795
_cell_length_c   10.45168403
_cell_angle_alpha   108.05375423
_cell_angle_beta   74.85545278
_cell_angle_gamma   120.98176719
_symmetry_Int_Tables_number   1
_chemical_formula_structural   Li4Mn8O13F3
_chemical_formula_sum   'Li4 Mn8 O13 F3'
_cell_volume   312.72552322
_cell_formula_units_Z   1
loop_
 _symmetry_equiv_pos_site_id
 _symmetry_equiv_pos_as_xyz
  1  'x, y, z'
loop_
 _atom_site_type_symbol
 _atom_site_label
 _atom_site_symmetry_multiplicity
 _atom_site_fract_x
 _atom_site_fract_y
 _atom_site_fract_z
 _atom_site_occupancy
  Li  Li0  1  0.78322166  0.68053377  0.06095393  1
  Li  Li1  1  0.72980623  0.83077339  0.44322249  1
  Li  Li2  1  0.26482611  0.16350723  0.55747824  1
  Li  Li3  1  0.23118711  0.33449189  0.94423336  1
  Mn  Mn4  1  0.24342718  0.75038497  0.24695460  1
  Mn  Mn5  1  0.99991251  0.49449534  0.50056319  1
  Mn  Mn6  1  0.24386192  0.23540849  0.24592295  1
  Mn  Mn7  1  0.48511685  0.99895992  0.00275228  1
  Mn  Mn8  1  0.24779681  0.74969606  0.75039387  1
  Mn  Mn9  1  0.74854790  0.24744911  0.25002110  1
  Mn  Mn10  1  0.74794432  0.75083318  0.75146317  1
  Mn  Mn11  1  0.74798475  0.24948308  0.75123151  1
  O  O12  1  0.11997708  0.90434797  0.13407409  1
  O  O13  1  0.58631176  0.89860241  0.13434748  1
  O  O14  1  0.14157815  0.38863552  0.14886665  1
  O  O15  1  0.08711943  0.82621179  0.63452668  1
  O  O16  1  0.57941545  0.33459012  0.13564069  1
  O  O17  1  0.08648239  0.39457778  0.63492891  1
  O  O18  1  0.35622414  0.11063760  0.35333663  1
  O  O19  1  0.65411869  0.89612364  0.64620775  1
  O  O20  1  0.91205548  0.59790830  0.36788299  1
  O  O21  1  0.91917721  0.16439223  0.36666871  1
  O  O22  1  0.40703733  0.67147930  0.86582275  1
  O  O23  1  0.84214669  0.60316986  0.85471326  1
  O  O24  1  0.40953023  0.10429784  0.86468067  1
  F  F25  1  0.39224002  0.60944331  0.37259807  1
  F  F26  1  0.60292440  0.35292275  0.61338936  1
  F  F27  1  0.89338121  0.14673415  0.88683762  1
