# generated using pymatgen
data_Li4V3P8O29
_symmetry_space_group_name_H-M   'P 1'
_cell_length_a   9.75540113
_cell_length_b   9.75248861
_cell_length_c   14.29849425
_cell_angle_alpha   90.19390858
_cell_angle_beta   90.30320951
_cell_angle_gamma   60.39215038
_symmetry_Int_Tables_number   1
_chemical_formula_structural   Li4V3P8O29
_chemical_formula_sum   'Li8 V6 P16 O58'
_cell_volume   1182.70895498
_cell_formula_units_Z   2
loop_
 _symmetry_equiv_pos_site_id
 _symmetry_equiv_pos_as_xyz
  1  'x, y, z'
loop_
 _atom_site_type_symbol
 _atom_site_label
 _atom_site_symmetry_multiplicity
 _atom_site_fract_x
 _atom_site_fract_y
 _atom_site_fract_z
 _atom_site_occupancy
  Li  Li0  1  0.90750484  0.33109996  0.56359299  1
  Li  Li1  1  0.76681868  0.32615103  0.06116273  1
  Li  Li2  1  0.33637370  0.90483399  0.06271027  1
  Li  Li3  1  0.33319797  0.76579267  0.55860524  1
  Li  Li4  1  0.66980627  0.09314441  0.93912179  1
  Li  Li5  1  0.09127784  0.67364064  0.43854959  1
  Li  Li6  1  0.04182210  0.94088911  0.99722920  1
  Li  Li7  1  0.94556883  0.03364003  0.49918945  1
  V  V8  1  0.56370117  0.43267419  0.25153653  1
  V  V9  1  0.43294785  0.56424437  0.75173673  1
  V  V10  1  0.56692098  0.99621530  0.74467257  1
  V  V11  1  0.43574164  0.00103719  0.25437706  1
  V  V12  1  0.99653405  0.56631922  0.24371133  1
  V  V13  1  0.00153870  0.43611070  0.75258469  1
  P  P14  1  0.91728408  0.78281023  0.83661349  1
  P  P15  1  0.78313388  0.91621433  0.33692701  1
  P  P16  1  0.91402577  0.31355181  0.34385657  1
  P  P17  1  0.66052189  0.66898786  0.13203167  1
  P  P18  1  0.66379577  0.66376220  0.63161465  1
  P  P19  1  0.77238851  0.31695747  0.84307525  1
  P  P20  1  0.69305427  0.22181757  0.66315831  1
  P  P21  1  0.31435776  0.91243061  0.84456890  1
  P  P22  1  0.68441341  0.08611420  0.15486321  1
  P  P23  1  0.31658975  0.77210592  0.34374810  1
  P  P24  1  0.22230749  0.69281079  0.16347980  1
  P  P25  1  0.32577608  0.33927373  0.36561103  1
  P  P26  1  0.34049112  0.32593089  0.86608338  1
  P  P27  1  0.08640018  0.68656168  0.65454728  1
  P  P28  1  0.21790317  0.08408592  0.66462404  1
  P  P29  1  0.08558870  0.21591962  0.16450431  1
  O  O30  1  0.01784182  0.76388143  0.56299887  1
  O  O31  1  0.92071740  0.73948186  0.33189776  1
  O  O32  1  0.75873231  0.01736774  0.06304991  1
  O  O33  1  0.74080857  0.92063996  0.83152861  1
  O  O34  1  0.91999506  0.62500681  0.82975955  1
  O  O35  1  0.81267316  0.66559313  0.17689385  1
  O  O36  1  0.91668510  0.46852740  0.32717192  1
  O  O37  1  0.98996034  0.20636389  0.08563901  1
  O  O38  1  0.91285025  0.34622116  0.83480920  1
  O  O39  1  0.66553894  0.81169855  0.67827785  1
  O  O40  1  0.62463358  0.91985072  0.33140311  1
  O  O41  1  0.81168197  0.51334036  0.66892327  1
  O  O42  1  0.65609320  0.67949523  0.02819300  1
  O  O43  1  0.65254686  0.67264080  0.52775934  1
  O  O44  1  0.66932539  0.51271364  0.16830280  1
  O  O45  1  0.46909968  0.91567385  0.82832154  1
  O  O46  1  0.51338282  0.81081588  0.17669571  1
  O  O47  1  0.74298203  0.34492650  0.32572565  1
  O  O48  1  0.78965328  0.19896200  0.75964265  1
  O  O49  1  0.79871141  0.20732352  0.58374363  1
  O  O50  1  0.76807544  0.24007222  0.93296027  1
  O  O51  1  0.61780588  0.47432494  0.82461669  1
  O  O52  1  0.51142091  0.67042650  0.67330551  1
  O  O53  1  0.65597981  0.25912760  0.16326194  1
  O  O54  1  0.47412983  0.61693401  0.32497415  1
  O  O55  1  0.34378235  0.91371889  0.33725558  1
  O  O56  1  0.80301823  0.99054075  0.23897127  1
  O  O57  1  0.81000723  0.99707740  0.41704149  1
  O  O58  1  0.20946013  0.98878573  0.58533825  1
  O  O59  1  0.65436213  0.08551967  0.66382501  1
  O  O60  1  0.54030122  0.38202105  0.67125634  1
  O  O61  1  0.34420376  0.74162186  0.82796461  1
  O  O62  1  0.47649024  0.33995162  0.31979325  1
  O  O63  1  0.38210504  0.53891826  0.17200965  1
  O  O64  1  0.21060445  0.79731443  0.08392804  1
  O  O65  1  0.23891638  0.76720039  0.43307499  1
  O  O66  1  0.19898289  0.78908567  0.25975901  1
  O  O67  1  0.26010300  0.65472086  0.66281322  1
  O  O68  1  0.49093091  0.18095952  0.82147702  1
  O  O69  1  0.52720839  0.08952847  0.17373202  1
  O  O70  1  0.34149197  0.47494954  0.81905396  1
  O  O71  1  0.36019371  0.32335740  0.96913811  1
  O  O72  1  0.32301685  0.35369140  0.46892259  1
  O  O73  1  0.18211096  0.49063931  0.32088583  1
  O  O74  1  0.37950325  0.08010804  0.67444010  1
  O  O75  1  0.32329303  0.19563305  0.32337986  1
  O  O76  1  0.08619804  0.65417918  0.16324503  1
  O  O77  1  0.99259823  0.80340673  0.73920768  1
  O  O78  1  0.99780991  0.80922012  0.91710218  1
  O  O79  1  0.08625317  0.53004397  0.67179381  1
  O  O80  1  0.19473955  0.32608119  0.82489115  1
  O  O81  1  0.07983404  0.37859045  0.17369419  1
  O  O82  1  0.25757007  0.08021220  0.16206850  1
  O  O83  1  0.23868654  0.97180586  0.93776790  1
  O  O84  1  0.19506135  0.01499565  0.76282322  1
  O  O85  1  0.08153851  0.25588171  0.66225514  1
  O  O86  1  0.97175249  0.23965716  0.43770232  1
  O  O87  1  0.01767656  0.19319008  0.26323473  1
