# generated using pymatgen
data_K4Li5Ti8(PO5)8
_symmetry_space_group_name_H-M   'P 1'
_cell_length_a   12.85995848
_cell_length_b   6.48347678
_cell_length_c   10.64119422
_cell_angle_alpha   90.16620578
_cell_angle_beta   90.50646907
_cell_angle_gamma   89.94433734
_symmetry_Int_Tables_number   1
_chemical_formula_structural   K4Li5Ti8(PO5)8
_chemical_formula_sum   'K4 Li5 Ti8 P8 O40'
_cell_volume   887.19463532
_cell_formula_units_Z   1
loop_
 _symmetry_equiv_pos_site_id
 _symmetry_equiv_pos_as_xyz
  1  'x, y, z'
loop_
 _atom_site_type_symbol
 _atom_site_label
 _atom_site_symmetry_multiplicity
 _atom_site_fract_x
 _atom_site_fract_y
 _atom_site_fract_z
 _atom_site_occupancy
  K  K0  1  0.09316889  0.63700199  0.09931934  1
  K  K1  1  0.40601489  0.13626899  0.59863040  1
  K  K2  1  0.58967703  0.86484271  0.10166677  1
  K  K3  1  0.92062182  0.38314616  0.57536567  1
  Li  Li4  1  0.10708960  0.06902984  0.99313008  1
  Li  Li5  1  0.39397755  0.56819374  0.49355044  1
  Li  Li6  1  0.60251434  0.43645213  0.00149005  1
  Li  Li7  1  0.74409055  0.23196738  0.77868511  1
  Li  Li8  1  0.89613045  0.93210419  0.49231740  1
  Ti  Ti9  1  0.13491943  0.99818279  0.51175258  1
  Ti  Ti10  1  0.24785955  0.74739446  0.76385875  1
  Ti  Ti11  1  0.25242241  0.24677492  0.26338454  1
  Ti  Ti12  1  0.36541792  0.49820294  0.01341862  1
  Ti  Ti13  1  0.63482599  0.50075780  0.51373574  1
  Ti  Ti14  1  0.74891857  0.74826486  0.76235352  1
  Ti  Ti15  1  0.75194767  0.25268032  0.26413097  1
  Ti  Ti16  1  0.86580773  0.99977740  0.01331826  1
  P  P17  1  0.99894396  0.84301326  0.76087272  1
  P  P18  1  0.18461683  0.50097139  0.51160972  1
  P  P19  1  0.31650091  0.00131036  0.01246535  1
  P  P20  1  0.50113202  0.34243518  0.26212473  1
  P  P21  1  0.49932825  0.65808221  0.76165514  1
  P  P22  1  0.68411185  0.00166724  0.51328162  1
  P  P23  1  0.81572990  0.49446460  0.01210204  1
  P  P24  1  0.00098794  0.15845221  0.26071335  1
  O  O25  1  0.00057502  0.97589959  0.63898848  1
  O  O26  1  0.00600441  0.02414597  0.38138410  1
  O  O27  1  0.09725822  0.30091231  0.24843851  1
  O  O28  1  0.09658938  0.70224738  0.77282488  1
  O  O29  1  0.11310378  0.68870937  0.48612927  1
  O  O30  1  0.11727215  0.31045183  0.53817180  1
  O  O31  1  0.22641012  0.04429855  0.38758224  1
  O  O32  1  0.22419257  0.95949382  0.64056641  1
  O  O33  1  0.23799350  0.04293568  0.12174897  1
  O  O34  1  0.23917315  0.96258867  0.90044256  1
  O  O35  1  0.26108738  0.46292502  0.40060036  1
  O  O36  1  0.26263765  0.54343280  0.62230287  1
  O  O37  1  0.27562080  0.45862912  0.14000632  1
  O  O38  1  0.27410355  0.54429410  0.88699015  1
  O  O39  1  0.38480583  0.81127603  0.04025706  1
  O  O40  1  0.38619609  0.18990635  0.98769718  1
  O  O41  1  0.40386312  0.20228526  0.27425857  1
  O  O42  1  0.40276089  0.80157823  0.74946274  1
  O  O43  1  0.49535001  0.52379325  0.88226518  1
  O  O44  1  0.49772558  0.47601935  0.14059897  1
  O  O45  1  0.50281748  0.52479151  0.63981692  1
  O  O46  1  0.50717009  0.47682287  0.38267325  1
  O  O47  1  0.59756361  0.19811011  0.24918819  1
  O  O48  1  0.59732647  0.79840273  0.77388947  1
  O  O49  1  0.61807931  0.80785358  0.49212534  1
  O  O50  1  0.61321651  0.18867024  0.53839516  1
  O  O51  1  0.72638684  0.45517693  0.38948836  1
  O  O52  1  0.72771321  0.51772444  0.64706372  1
  O  O53  1  0.73735175  0.45830204  0.12123909  1
  O  O54  1  0.73909695  0.51732742  0.89618358  1
  O  O55  1  0.76139852  0.03645060  0.40285344  1
  O  O56  1  0.76073899  0.97476232  0.62875318  1
  O  O57  1  0.77553359  0.04086242  0.13883428  1
  O  O58  1  0.77239693  0.97430440  0.88111981  1
  O  O59  1  0.88148185  0.68833678  0.03425627  1
  O  O60  1  0.88699583  0.30788226  0.98758069  1
  O  O61  1  0.90365529  0.30023178  0.27449759  1
  O  O62  1  0.90269171  0.69753965  0.74857407  1
  O  O63  1  0.99406281  0.97538454  0.88213179  1
  O  O64  1  0.99644199  0.02410260  0.13926325  1
