# generated using pymatgen
data_LiV2OF5
_symmetry_space_group_name_H-M   'P 1'
_cell_length_a   8.74817072
_cell_length_b   8.69820847
_cell_length_c   4.58043597
_cell_angle_alpha   90.65047492
_cell_angle_beta   89.44403127
_cell_angle_gamma   119.84111395
_symmetry_Int_Tables_number   1
_chemical_formula_structural   LiV2OF5
_chemical_formula_sum   'Li3 V6 O3 F15'
_cell_volume   302.30468387
_cell_formula_units_Z   3
loop_
 _symmetry_equiv_pos_site_id
 _symmetry_equiv_pos_as_xyz
  1  'x, y, z'
loop_
 _atom_site_type_symbol
 _atom_site_label
 _atom_site_symmetry_multiplicity
 _atom_site_fract_x
 _atom_site_fract_y
 _atom_site_fract_z
 _atom_site_occupancy
  Li  Li0  1  0.33114632  0.66685901  0.51669432  1
  Li  Li1  1  0.00052112  0.00027141  0.00440445  1
  Li  Li2  1  0.66668654  0.33505879  0.49167179  1
  V  V3  1  0.00647564  0.64572190  0.98282685  1
  V  V4  1  0.00362137  0.33040045  0.51422851  1
  V  V5  1  0.34328987  0.33495698  0.01618439  1
  V  V6  1  0.31514812  0.00791626  0.48001891  1
  V  V7  1  0.68673806  0.69323501  0.51580734  1
  V  V8  1  0.65814779  0.99246161  0.98547941  1
  O  O9  1  0.09450196  0.53571439  0.74288739  1
  O  O10  1  0.24457039  0.12824444  0.23465323  1
  O  O11  1  0.75869621  0.88539654  0.76479287  1
  F  F12  1  0.11158758  0.88356973  0.75496326  1
  F  F13  1  0.20933301  0.77066802  0.25709530  1
  F  F14  1  0.43340538  0.89843008  0.73559816  1
  F  F15  1  0.22589782  0.44207148  0.26530733  1
  F  F16  1  0.11898470  0.22469612  0.76530272  1
  F  F17  1  0.55408361  0.78447445  0.26572065  1
  F  F18  1  0.45479348  0.55554169  0.74091699  1
  F  F19  1  0.44948457  0.23176482  0.73434315  1
  F  F20  1  0.56735058  0.46422420  0.26415440  1
  F  F21  1  0.54679352  0.10179662  0.25943787  1
  F  F22  1  0.78613302  0.56136609  0.74558640  1
  F  F23  1  0.89078652  0.76848127  0.23561594  1
  F  F24  1  0.77068266  0.21321621  0.73267024  1
  F  F25  1  0.88621383  0.43083835  0.25593322  1
  F  F26  1  0.88482735  0.11262408  0.23770592  1
