# generated using pymatgen
data_Na2NiO2
_symmetry_space_group_name_H-M   'P 1'
_cell_length_a   2.86964910
_cell_length_b   5.53413549
_cell_length_c   4.55105337
_cell_angle_alpha   65.54694860
_cell_angle_beta   90.03277406
_cell_angle_gamma   105.22302466
_symmetry_Int_Tables_number   1
_chemical_formula_structural   Na2NiO2
_chemical_formula_sum   'Na2 Ni1 O2'
_cell_volume   63.00097333
_cell_formula_units_Z   1
loop_
 _symmetry_equiv_pos_site_id
 _symmetry_equiv_pos_as_xyz
  1  'x, y, z'
loop_
 _atom_site_type_symbol
 _atom_site_label
 _atom_site_symmetry_multiplicity
 _atom_site_fract_x
 _atom_site_fract_y
 _atom_site_fract_z
 _atom_site_occupancy
  Na  Na0  1  0.32425398  0.64156177  0.17409976  1
  Na  Na1  1  0.67572229  0.35795171  0.81675778  1
  Ni  Ni2  1  0.00462548  0.99927864  0.49682532  1
  O  O3  1  0.63685693  0.26084606  0.36604592  1
  O  O4  1  0.37171231  0.73715583  0.62604823  1
