# generated using pymatgen
data_V6F13
_symmetry_space_group_name_H-M   'P 1'
_cell_length_a   8.17500612
_cell_length_b   10.58374002
_cell_length_c   8.12772033
_cell_angle_alpha   104.31668612
_cell_angle_beta   118.08899859
_cell_angle_gamma   72.19743436
_symmetry_Int_Tables_number   1
_chemical_formula_structural   V6F13
_chemical_formula_sum   'V12 F26'
_cell_volume   586.20607494
_cell_formula_units_Z   2
loop_
 _symmetry_equiv_pos_site_id
 _symmetry_equiv_pos_as_xyz
  1  'x, y, z'
loop_
 _atom_site_type_symbol
 _atom_site_label
 _atom_site_symmetry_multiplicity
 _atom_site_fract_x
 _atom_site_fract_y
 _atom_site_fract_z
 _atom_site_occupancy
  V  V0  1  0.07374689  0.24571977  0.95512950  1
  V  V1  1  0.28000061  0.50183855  0.86565596  1
  V  V2  1  0.42491729  0.02215046  0.78123167  1
  V  V3  1  0.15546988  0.50196592  0.42011145  1
  V  V4  1  0.63241689  0.24856237  0.67806208  1
  V  V5  1  0.49730505  0.72776554  0.75858719  1
  V  V6  1  0.50269495  0.27223446  0.24141281  1
  V  V7  1  0.36758311  0.75143763  0.32193792  1
  V  V8  1  0.84453012  0.49803408  0.57988855  1
  V  V9  1  0.57508271  0.97784954  0.21876833  1
  V  V10  1  0.71999939  0.49816145  0.13434404  1
  V  V11  1  0.92625311  0.75428023  0.04487050  1
  F  F12  1  0.00496119  0.61392642  0.83745919  1
  F  F13  1  0.16930073  0.12998407  0.76499272  1
  F  F14  1  0.12336578  0.40170464  0.60337421  1
  F  F15  1  0.29497504  0.61280201  0.68558754  1
  F  F16  1  0.45615271  0.13555672  0.63246441  1
  F  F17  1  0.16158128  0.63788255  0.25933901  1
  F  F18  1  0.55486882  0.38619610  0.88454855  1
  F  F19  1  0.31329426  0.14428771  0.17040756  1
  F  F20  1  0.42175972  0.88476573  0.94763923  1
  F  F21  1  0.42845070  0.37580517  0.46608712  1
  F  F22  1  0.31776204  0.86116324  0.55369672  1
  F  F23  1  0.13936902  0.85013379  0.12070698  1
  F  F24  1  0.26873667  0.37124513  0.02195956  1
  F  F25  1  0.73126333  0.62875487  0.97804044  1
  F  F26  1  0.86063098  0.14986621  0.87929302  1
  F  F27  1  0.68223796  0.13883676  0.44630328  1
  F  F28  1  0.57154930  0.62419483  0.53391288  1
  F  F29  1  0.57824028  0.11523427  0.05236077  1
  F  F30  1  0.68670574  0.85571229  0.82959244  1
  F  F31  1  0.44513118  0.61380390  0.11545145  1
  F  F32  1  0.83841872  0.36211745  0.74066099  1
  F  F33  1  0.54384729  0.86444328  0.36753559  1
  F  F34  1  0.70502496  0.38719799  0.31441246  1
  F  F35  1  0.87663422  0.59829536  0.39662579  1
  F  F36  1  0.83069927  0.87001593  0.23500728  1
  F  F37  1  0.99503881  0.38607358  0.16254081  1
