# generated using pymatgen
data_Mg8V5O16
_symmetry_space_group_name_H-M   'P 1'
_cell_length_a   6.05324398
_cell_length_b   6.05416183
_cell_length_c   10.38618659
_cell_angle_alpha   107.21268226
_cell_angle_beta   72.16471616
_cell_angle_gamma   120.17026428
_symmetry_Int_Tables_number   1
_chemical_formula_structural   Mg8V5O16
_chemical_formula_sum   'Mg8 V5 O16'
_cell_volume   308.55265715
_cell_formula_units_Z   1
loop_
 _symmetry_equiv_pos_site_id
 _symmetry_equiv_pos_as_xyz
  1  'x, y, z'
loop_
 _atom_site_type_symbol
 _atom_site_label
 _atom_site_symmetry_multiplicity
 _atom_site_fract_x
 _atom_site_fract_y
 _atom_site_fract_z
 _atom_site_occupancy
  Mg  Mg0  1  0.79964562  0.68394019  0.07411496  1
  Mg  Mg1  1  0.99882069  0.50045747  0.49891564  1
  Mg  Mg2  1  0.24505809  0.75199225  0.75394475  1
  Mg  Mg3  1  0.75682557  0.24959590  0.24635913  1
  Mg  Mg4  1  0.99758151  0.99547970  0.49844612  1
  Mg  Mg5  1  0.50741640  0.50353938  0.49403816  1
  Mg  Mg6  1  0.49995137  0.99712790  0.49824734  1
  Mg  Mg7  1  0.19965655  0.31829368  0.92981531  1
  V  V8  1  0.24191122  0.73496505  0.24638444  1
  V  V9  1  0.24200307  0.24645706  0.24952004  1
  V  V10  1  0.50133341  0.99851290  0.00180937  1
  V  V11  1  0.75515202  0.75072979  0.75025468  1
  V  V12  1  0.75888221  0.26473060  0.75399162  1
  O  O13  1  0.13993123  0.88953856  0.13280552  1
  O  O14  1  0.59837356  0.88450061  0.13000601  1
  O  O15  1  0.12666671  0.38502121  0.13477905  1
  O  O16  1  0.35913502  0.61060964  0.37772499  1
  O  O17  1  0.59692743  0.34021997  0.12949224  1
  O  O18  1  0.11184679  0.85492202  0.62424192  1
  O  O19  1  0.08937252  0.36618627  0.63107860  1
  O  O20  1  0.37290262  0.12284900  0.37976772  1
  O  O21  1  0.62492397  0.87752845  0.62367643  1
  O  O22  1  0.88633660  0.62266357  0.37865645  1
  O  O23  1  0.40096255  0.65886352  0.86921971  1
  O  O24  1  0.88627331  0.14323295  0.37970197  1
  O  O25  1  0.63974184  0.38402739  0.63037171  1
  O  O26  1  0.87071254  0.60753189  0.86485149  1
  O  O27  1  0.41694401  0.12435721  0.86302556  1
  O  O28  1  0.86102956  0.11546786  0.86253607  1
