# generated using pymatgen
data_Li3Cr2CoO6
_symmetry_space_group_name_H-M   'P 1'
_cell_length_a   6.60617252
_cell_length_b   2.96328365
_cell_length_c   5.92981813
_cell_angle_alpha   90.05936115
_cell_angle_beta   102.94446908
_cell_angle_gamma   77.00979697
_symmetry_Int_Tables_number   1
_chemical_formula_structural   Li3Cr2CoO6
_chemical_formula_sum   'Li3 Cr2 Co1 O6'
_cell_volume   110.08801704
_cell_formula_units_Z   1
loop_
 _symmetry_equiv_pos_site_id
 _symmetry_equiv_pos_as_xyz
  1  'x, y, z'
loop_
 _atom_site_type_symbol
 _atom_site_label
 _atom_site_symmetry_multiplicity
 _atom_site_fract_x
 _atom_site_fract_y
 _atom_site_fract_z
 _atom_site_occupancy
  Li  Li0  1  0.00523096  0.98869616  0.50240021  1
  Li  Li1  1  0.33505648  0.32956455  0.83568558  1
  Li  Li2  1  0.65945697  0.66234290  0.16494078  1
  Cr  Cr3  1  0.99928752  0.99715459  0.00059522  1
  Cr  Cr4  1  0.66421756  0.66397606  0.66428840  1
  Co  Co5  1  0.33177349  0.33135036  0.33224648  1
  O  O6  1  0.00951149  0.49300621  0.23639614  1
  O  O7  1  0.34178863  0.82863369  0.56901681  1
  O  O8  1  0.67509556  0.15952714  0.90094546  1
  O  O9  1  0.32193123  0.83410083  0.09460179  1
  O  O10  1  0.65440542  0.16787023  0.42853624  1
  O  O11  1  0.98770368  0.50173127  0.76420389  1
