# generated using pymatgen
data_Li5Mn5O9F
_symmetry_space_group_name_H-M   'P 1'
_cell_length_a   5.36142348
_cell_length_b   5.22176433
_cell_length_c   7.96494874
_cell_angle_alpha   105.73844139
_cell_angle_beta   74.16769662
_cell_angle_gamma   78.36180094
_symmetry_Int_Tables_number   1
_chemical_formula_structural   Li5Mn5O9F
_chemical_formula_sum   'Li5 Mn5 O9 F1'
_cell_volume   197.11896295
_cell_formula_units_Z   1
loop_
 _symmetry_equiv_pos_site_id
 _symmetry_equiv_pos_as_xyz
  1  'x, y, z'
loop_
 _atom_site_type_symbol
 _atom_site_label
 _atom_site_symmetry_multiplicity
 _atom_site_fract_x
 _atom_site_fract_y
 _atom_site_fract_z
 _atom_site_occupancy
  Li  Li0  1  0.51132369  0.21392321  0.90860911  1
  Li  Li1  1  0.50019504  0.58978022  0.70051025  1
  Li  Li2  1  0.49127668  0.98608297  0.48404446  1
  Li  Li3  1  0.49210871  0.40759849  0.30794951  1
  Li  Li4  1  0.50605256  0.80259763  0.10331846  1
  Mn  Mn5  1  0.99404015  0.41812030  0.80319638  1
  Mn  Mn6  1  0.98817935  0.80222758  0.59827543  1
  Mn  Mn7  1  0.00109188  0.19544958  0.39837030  1
  Mn  Mn8  1  0.99523965  0.59009829  0.19773170  1
  Mn  Mn9  1  0.98382706  0.00328333  0.00687194  1
  O  O10  1  0.75828530  0.81657211  0.83528153  1
  O  O11  1  0.21709800  0.57857616  0.94959935  1
  O  O12  1  0.79929229  0.20055975  0.64948338  1
  O  O13  1  0.77261891  0.56658058  0.43340942  1
  O  O14  1  0.22621048  0.43661295  0.57078717  1
  O  O15  1  0.76057721  0.96641699  0.25530079  1
  O  O16  1  0.22735637  0.82296127  0.36751127  1
  O  O17  1  0.76048749  0.39984867  0.02833727  1
  O  O18  1  0.22615358  0.21499470  0.16377707  1
  F  F19  1  0.28858461  0.98771522  0.73763319  1
