# generated using pymatgen
data_Li2Mn3(Si3O8)2
_symmetry_space_group_name_H-M   'P 1'
_cell_length_a   9.86129192
_cell_length_b   10.39167187
_cell_length_c   7.07773881
_cell_angle_alpha   69.73336155
_cell_angle_beta   98.36250079
_cell_angle_gamma   84.68526412
_symmetry_Int_Tables_number   1
_chemical_formula_structural   Li2Mn3(Si3O8)2
_chemical_formula_sum   'Li4 Mn6 Si12 O32'
_cell_volume   665.11846198
_cell_formula_units_Z   2
loop_
 _symmetry_equiv_pos_site_id
 _symmetry_equiv_pos_as_xyz
  1  'x, y, z'
loop_
 _atom_site_type_symbol
 _atom_site_label
 _atom_site_symmetry_multiplicity
 _atom_site_fract_x
 _atom_site_fract_y
 _atom_site_fract_z
 _atom_site_occupancy
  Li  Li0  1  0.11453964  0.53254130  0.37507916  1
  Li  Li1  1  0.41583479  0.18117224  0.64881406  1
  Li  Li2  1  0.58416521  0.81882776  0.35118594  1
  Li  Li3  1  0.88546036  0.46745870  0.62492084  1
  Mn  Mn4  1  0.14061892  0.52721034  0.89447227  1
  Mn  Mn5  1  0.11643200  0.88488854  0.95932700  1
  Mn  Mn6  1  0.12513514  0.88867770  0.46033215  1
  Mn  Mn7  1  0.87486486  0.11132230  0.53966785  1
  Mn  Mn8  1  0.88356800  0.11511146  0.04067300  1
  Mn  Mn9  1  0.85938108  0.47278966  0.10552773  1
  Si  Si10  1  0.13622739  0.23627449  0.75162792  1
  Si  Si11  1  0.13387088  0.23222551  0.31643509  1
  Si  Si12  1  0.31920928  0.06222130  0.15546604  1
  Si  Si13  1  0.39344271  0.64412470  0.61293728  1
  Si  Si14  1  0.40515473  0.86485630  0.78456500  1
  Si  Si15  1  0.39685907  0.62545753  0.18049908  1
  Si  Si16  1  0.60314093  0.37454247  0.81950092  1
  Si  Si17  1  0.59484527  0.13514370  0.21543500  1
  Si  Si18  1  0.60655729  0.35587530  0.38706272  1
  Si  Si19  1  0.68079072  0.93777870  0.84453396  1
  Si  Si20  1  0.86612912  0.76777449  0.68356491  1
  Si  Si21  1  0.86377261  0.76372551  0.24837208  1
  O  O22  1  0.02041494  0.13204655  0.80751709  1
  O  O23  1  0.02144007  0.12480071  0.32626676  1
  O  O24  1  0.08376142  0.39453187  0.72505706  1
  O  O25  1  0.07275433  0.38840754  0.16048358  1
  O  O26  1  0.19304870  0.24441099  0.53900368  1
  O  O27  1  0.28662398  0.15960020  0.91029107  1
  O  O28  1  0.22969531  0.64427405  0.61918008  1
  O  O29  1  0.27812869  0.16710198  0.27151177  1
  O  O30  1  0.24284795  0.92521251  0.72485189  1
  O  O31  1  0.23318998  0.62367967  0.11281433  1
  O  O32  1  0.23883976  0.93018771  0.20628789  1
  O  O33  1  0.49097210  0.01532761  0.23065288  1
  O  O34  1  0.54839435  0.24271600  0.97879843  1
  O  O35  1  0.44015240  0.65178962  0.39649897  1
  O  O36  1  0.44575032  0.78733728  0.62921109  1
  O  O37  1  0.49748547  0.51389795  0.79392223  1
  O  O38  1  0.50251453  0.48610205  0.20607777  1
  O  O39  1  0.55424968  0.21266272  0.37078891  1
  O  O40  1  0.55984760  0.34821038  0.60350103  1
  O  O41  1  0.45160565  0.75728400  0.02120157  1
  O  O42  1  0.50902790  0.98467239  0.76934712  1
  O  O43  1  0.76116024  0.06981229  0.79371211  1
  O  O44  1  0.76681002  0.37632033  0.88718567  1
  O  O45  1  0.75715205  0.07478749  0.27514811  1
  O  O46  1  0.72187131  0.83289802  0.72848823  1
  O  O47  1  0.77030469  0.35572595  0.38081992  1
  O  O48  1  0.71337602  0.84039980  0.08970893  1
  O  O49  1  0.80695130  0.75558901  0.46099632  1
  O  O50  1  0.92724567  0.61159246  0.83951642  1
  O  O51  1  0.91623858  0.60546813  0.27494294  1
  O  O52  1  0.97855993  0.87519929  0.67373324  1
  O  O53  1  0.97958506  0.86795345  0.19248291  1
