# generated using pymatgen
data_MgTiBiO5
_symmetry_space_group_name_H-M   'P 1'
_cell_length_a   5.26742127
_cell_length_b   10.45757191
_cell_length_c   15.22818119
_cell_angle_alpha   90.00000000
_cell_angle_beta   90.00000000
_cell_angle_gamma   90.00000000
_symmetry_Int_Tables_number   1
_chemical_formula_structural   MgTiBiO5
_chemical_formula_sum   'Mg8 Ti8 Bi8 O40'
_cell_volume   838.83578299
_cell_formula_units_Z   8
loop_
 _symmetry_equiv_pos_site_id
 _symmetry_equiv_pos_as_xyz
  1  'x, y, z'
loop_
 _atom_site_type_symbol
 _atom_site_label
 _atom_site_symmetry_multiplicity
 _atom_site_fract_x
 _atom_site_fract_y
 _atom_site_fract_z
 _atom_site_occupancy
  Mg  Mg0  1  0.49229675  0.36762449  0.45202667  1
  Mg  Mg1  1  0.99229675  0.13237551  0.45202667  1
  Mg  Mg2  1  0.99229675  0.63237551  0.04797333  1
  Mg  Mg3  1  0.00770325  0.36762449  0.95202667  1
  Mg  Mg4  1  0.50770325  0.13237551  0.95202667  1
  Mg  Mg5  1  0.00770325  0.86762449  0.54797333  1
  Mg  Mg6  1  0.50770325  0.63237551  0.54797333  1
  Mg  Mg7  1  0.49229675  0.86762449  0.04797333  1
  Ti  Ti8  1  0.99714030  0.38297561  0.58038348  1
  Ti  Ti9  1  0.50285970  0.88297561  0.41961652  1
  Ti  Ti10  1  0.00285970  0.61702439  0.41961652  1
  Ti  Ti11  1  0.49714030  0.11702439  0.58038348  1
  Ti  Ti12  1  0.00285970  0.11702439  0.08038348  1
  Ti  Ti13  1  0.99714030  0.88297561  0.91961652  1
  Ti  Ti14  1  0.50285970  0.38297561  0.08038348  1
  Ti  Ti15  1  0.49714030  0.61702439  0.91961652  1
  Bi  Bi16  1  0.01159098  0.85725675  0.23841265  1
  Bi  Bi17  1  0.98840902  0.14274325  0.76158735  1
  Bi  Bi18  1  0.48840902  0.35725675  0.76158735  1
  Bi  Bi19  1  0.98840902  0.64274325  0.73841265  1
  Bi  Bi20  1  0.51159098  0.14274325  0.26158735  1
  Bi  Bi21  1  0.51159098  0.64274325  0.23841265  1
  Bi  Bi22  1  0.48840902  0.85725675  0.73841265  1
  Bi  Bi23  1  0.01159098  0.35725675  0.26158735  1
  O  O24  1  0.82997046  0.30432704  0.68006415  1
  O  O25  1  0.25481797  0.02351120  0.03065514  1
  O  O26  1  0.24518203  0.52351120  0.96934486  1
  O  O27  1  0.34623742  0.79910162  0.16383086  1
  O  O28  1  0.15376258  0.29910162  0.83616914  1
  O  O29  1  0.82997046  0.80432704  0.81993585  1
  O  O30  1  0.15376258  0.79910162  0.66383086  1
  O  O31  1  0.67002954  0.80432704  0.31993585  1
  O  O32  1  0.25481797  0.52351120  0.46934486  1
  O  O33  1  0.17002954  0.69567296  0.31993585  1
  O  O34  1  0.67002954  0.30432704  0.18006415  1
  O  O35  1  0.68743559  0.22165244  0.51392021  1
  O  O36  1  0.75481797  0.97648880  0.46934486  1
  O  O37  1  0.65376258  0.70089838  0.66383086  1
  O  O38  1  0.20930898  0.99264898  0.84583301  1
  O  O39  1  0.75481797  0.47648880  0.03065514  1
  O  O40  1  0.17002954  0.19567296  0.18006415  1
  O  O41  1  0.84623742  0.20089838  0.33616914  1
  O  O42  1  0.18743559  0.77834756  0.98607979  1
  O  O43  1  0.24518203  0.02351120  0.53065514  1
  O  O44  1  0.31256441  0.77834756  0.48607979  1
  O  O45  1  0.79069102  0.00735102  0.15416699  1
  O  O46  1  0.65376258  0.20089838  0.83616914  1
  O  O47  1  0.70930898  0.00735102  0.65416699  1
  O  O48  1  0.31256441  0.27834756  0.01392021  1
  O  O49  1  0.18743559  0.27834756  0.51392021  1
  O  O50  1  0.74518203  0.47648880  0.53065514  1
  O  O51  1  0.74518203  0.97648880  0.96934486  1
  O  O52  1  0.70930898  0.50735102  0.84583301  1
  O  O53  1  0.81256441  0.72165244  0.48607979  1
  O  O54  1  0.81256441  0.22165244  0.01392021  1
  O  O55  1  0.68743559  0.72165244  0.98607979  1
  O  O56  1  0.79069102  0.50735102  0.34583301  1
  O  O57  1  0.84623742  0.70089838  0.16383086  1
  O  O58  1  0.34623742  0.29910162  0.33616914  1
  O  O59  1  0.20930898  0.49264898  0.65416699  1
  O  O60  1  0.29069102  0.49264898  0.15416699  1
  O  O61  1  0.32997046  0.19567296  0.68006415  1
  O  O62  1  0.29069102  0.99264898  0.34583301  1
  O  O63  1  0.32997046  0.69567296  0.81993585  1
