# generated using pymatgen
data_LiFe2(PO4)2
_symmetry_space_group_name_H-M   'P 1'
_cell_length_a   5.17461436
_cell_length_b   5.17461404
_cell_length_c   6.95067201
_cell_angle_alpha   91.07435495
_cell_angle_beta   88.92565311
_cell_angle_gamma   83.83542011
_symmetry_Int_Tables_number   1
_chemical_formula_structural   LiFe2(PO4)2
_chemical_formula_sum   'Li1 Fe2 P2 O8'
_cell_volume   184.96648887
_cell_formula_units_Z   1
loop_
 _symmetry_equiv_pos_site_id
 _symmetry_equiv_pos_as_xyz
  1  'x, y, z'
loop_
 _atom_site_type_symbol
 _atom_site_label
 _atom_site_symmetry_multiplicity
 _atom_site_fract_x
 _atom_site_fract_y
 _atom_site_fract_z
 _atom_site_occupancy
  Li  Li0  1  0.50104599  0.50104599  1.00000000  1
  Fe  Fe1  1  0.99296952  0.99296952  0.00000000  1
  Fe  Fe2  1  0.51633277  0.51633277  0.50000000  1
  P  P3  1  0.49155214  0.00577373  0.24728002  1
  P  P4  1  0.00577373  0.49155214  0.75271998  1
  O  O5  1  0.56127465  0.70668801  0.24474669  1
  O  O6  1  0.13211523  0.56597411  0.56548661  1
  O  O7  1  0.63871542  0.11644762  0.06914343  1
  O  O8  1  0.19582119  0.07528861  0.20866080  1
  O  O9  1  0.07528861  0.19582119  0.79133920  1
  O  O10  1  0.11644762  0.63871542  0.93085657  1
  O  O11  1  0.56597411  0.13211523  0.43451339  1
  O  O12  1  0.70668801  0.56127465  0.75525331  1
