# generated using pymatgen
data_LiFe(Si2O5)2
_symmetry_space_group_name_H-M   'P 1'
_cell_length_a   4.85494608
_cell_length_b   7.15893113
_cell_length_c   11.44561088
_cell_angle_alpha   90.00000000
_cell_angle_beta   90.00000000
_cell_angle_gamma   90.00000000
_symmetry_Int_Tables_number   1
_chemical_formula_structural   LiFe(Si2O5)2
_chemical_formula_sum   'Li2 Fe2 Si8 O20'
_cell_volume   397.80622273
_cell_formula_units_Z   2
loop_
 _symmetry_equiv_pos_site_id
 _symmetry_equiv_pos_as_xyz
  1  'x, y, z'
loop_
 _atom_site_type_symbol
 _atom_site_label
 _atom_site_symmetry_multiplicity
 _atom_site_fract_x
 _atom_site_fract_y
 _atom_site_fract_z
 _atom_site_occupancy
  Li  Li0  1  0.50000000  0.50000000  0.27726044  1
  Li  Li1  1  0.50000000  0.00000000  0.77726044  1
  Fe  Fe2  1  0.00000000  0.50000000  0.38392663  1
  Fe  Fe3  1  0.00000000  0.00000000  0.88392663  1
  Si  Si4  1  0.03818202  0.21378927  0.16979580  1
  Si  Si5  1  0.03818202  0.28621073  0.66979580  1
  Si  Si6  1  0.45606939  0.71306555  0.01198191  1
  Si  Si7  1  0.45606939  0.78693445  0.51198191  1
  Si  Si8  1  0.54393061  0.21306555  0.51198191  1
  Si  Si9  1  0.54393061  0.28693445  0.01198191  1
  Si  Si10  1  0.96181798  0.71378927  0.66979580  1
  Si  Si11  1  0.96181798  0.78621073  0.16979580  1
  O  O12  1  0.00000000  0.00000000  0.21469611  1
  O  O13  1  0.00000000  0.50000000  0.71469611  1
  O  O14  1  0.23430492  0.20635637  0.05007590  1
  O  O15  1  0.23430492  0.29364363  0.55007590  1
  O  O16  1  0.17695405  0.15851706  0.77008208  1
  O  O17  1  0.17695405  0.34148294  0.27008208  1
  O  O18  1  0.31059692  0.65214532  0.41724883  1
  O  O19  1  0.31059692  0.84785468  0.91724883  1
  O  O20  1  0.26722019  0.70277055  0.13244177  1
  O  O21  1  0.26722019  0.79722945  0.63244177  1
  O  O22  1  0.50000000  0.50000000  0.96461724  1
  O  O23  1  0.50000000  0.00000000  0.46461724  1
  O  O24  1  0.73277981  0.20277055  0.63244177  1
  O  O25  1  0.73277981  0.29722945  0.13244177  1
  O  O26  1  0.68940308  0.34785468  0.41724883  1
  O  O27  1  0.68940308  0.15214532  0.91724883  1
  O  O28  1  0.82304595  0.84148294  0.77008208  1
  O  O29  1  0.82304595  0.65851706  0.27008208  1
  O  O30  1  0.76569508  0.70635637  0.55007590  1
  O  O31  1  0.76569508  0.79364363  0.05007590  1
