# generated using pymatgen
data_Li2Ni(CO3)2
_symmetry_space_group_name_H-M   'P 1'
_cell_length_a   5.15104722
_cell_length_b   6.41055523
_cell_length_c   7.71593301
_cell_angle_alpha   89.76237822
_cell_angle_beta   90.04005247
_cell_angle_gamma   66.73891367
_symmetry_Int_Tables_number   1
_chemical_formula_structural   Li2Ni(CO3)2
_chemical_formula_sum   'Li4 Ni2 C4 O12'
_cell_volume   234.07509297
_cell_formula_units_Z   2
loop_
 _symmetry_equiv_pos_site_id
 _symmetry_equiv_pos_as_xyz
  1  'x, y, z'
loop_
 _atom_site_type_symbol
 _atom_site_label
 _atom_site_symmetry_multiplicity
 _atom_site_fract_x
 _atom_site_fract_y
 _atom_site_fract_z
 _atom_site_occupancy
  Li  Li0  1  0.33348111  0.26074310  0.92227992  1
  Li  Li1  1  0.15067671  0.25805859  0.42466802  1
  Li  Li2  1  0.80771414  0.81164603  0.56416083  1
  Li  Li3  1  0.66161584  0.74492994  0.07723693  1
  Ni  Ni4  1  0.49904691  0.50019995  0.50148155  1
  Ni  Ni5  1  0.99965425  0.00275775  0.00143402  1
  C  C6  1  0.71678017  0.13361608  0.26576132  1
  C  C7  1  0.78284474  0.36625319  0.76407988  1
  C  C8  1  0.21630136  0.63408700  0.23561070  1
  C  C9  1  0.27932894  0.86999263  0.73634767  1
  O  O10  1  0.97155907  0.12414681  0.25596458  1
  O  O11  1  0.60892010  0.08910110  0.12435096  1
  O  O12  1  0.57681516  0.17585982  0.40914639  1
  O  O13  1  0.92588856  0.31900562  0.90599471  1
  O  O14  1  0.88898913  0.40842704  0.62152652  1
  O  O15  1  0.52448421  0.38188318  0.75613369  1
  O  O16  1  0.47260950  0.62137339  0.24563035  1
  O  O17  1  0.10962553  0.58692817  0.37729781  1
  O  O18  1  0.42149851  0.82071100  0.59486069  1
  O  O19  1  0.07210257  0.68461880  0.09448422  1
  O  O20  1  0.38762816  0.91502982  0.87786828  1
  O  O21  1  0.02196034  0.88528398  0.74632395  1
