# generated using pymatgen
data_Li5Si2NiO8
_symmetry_space_group_name_H-M   'P 1'
_cell_length_a   5.21021436
_cell_length_b   5.21021436
_cell_length_c   6.28610192
_cell_angle_alpha   90.18491794
_cell_angle_beta   89.81508206
_cell_angle_gamma   89.16184457
_symmetry_Int_Tables_number   1
_chemical_formula_structural   Li5Si2NiO8
_chemical_formula_sum   'Li5 Si2 Ni1 O8'
_cell_volume   170.62455864
_cell_formula_units_Z   1
loop_
 _symmetry_equiv_pos_site_id
 _symmetry_equiv_pos_as_xyz
  1  'x, y, z'
loop_
 _atom_site_type_symbol
 _atom_site_label
 _atom_site_symmetry_multiplicity
 _atom_site_fract_x
 _atom_site_fract_y
 _atom_site_fract_z
 _atom_site_occupancy
  Li  Li0  1  0.17512633  0.79959772  0.49160086  1
  Li  Li1  1  0.69219039  0.69219039  0.75000000  1
  Li  Li2  1  0.32982112  0.32982112  0.25000000  1
  Li  Li3  1  0.68317975  0.68317975  0.25000000  1
  Li  Li4  1  0.79959772  0.17512633  0.00839914  1
  Si  Si5  1  0.17001677  0.81621089  0.00417395  1
  Si  Si6  1  0.81621089  0.17001677  0.49582605  1
  Ni  Ni7  1  0.32063630  0.32063630  0.75000000  1
  O  O8  1  0.30065827  0.68209383  0.78421534  1
  O  O9  1  0.30438937  0.70225914  0.21534382  1
  O  O10  1  0.13675882  0.22592405  0.51335188  1
  O  O11  1  0.80034815  0.86078910  0.50099797  1
  O  O12  1  0.22592405  0.13675882  0.98664812  1
  O  O13  1  0.86078910  0.80034815  0.99900203  1
  O  O14  1  0.68209383  0.30065827  0.71578466  1
  O  O15  1  0.70225914  0.30438937  0.28465618  1
