# generated using pymatgen
data_Li6CoNiP2(CO7)2
_symmetry_space_group_name_H-M   'P 1'
_cell_length_a   8.38648292
_cell_length_b   4.98143683
_cell_length_c   6.43172288
_cell_angle_alpha   90.00000000
_cell_angle_beta   90.00000000
_cell_angle_gamma   85.30351174
_symmetry_Int_Tables_number   1
_chemical_formula_structural   Li6CoNiP2(CO7)2
_chemical_formula_sum   'Li6 Co1 Ni1 P2 C2 O14'
_cell_volume   267.79420870
_cell_formula_units_Z   1
loop_
 _symmetry_equiv_pos_site_id
 _symmetry_equiv_pos_as_xyz
  1  'x, y, z'
loop_
 _atom_site_type_symbol
 _atom_site_label
 _atom_site_symmetry_multiplicity
 _atom_site_fract_x
 _atom_site_fract_y
 _atom_site_fract_z
 _atom_site_occupancy
  Li  Li0  1  0.09590865  0.76242381  0.25000000  1
  Li  Li1  1  0.27621801  0.24614586  0.02201853  1
  Li  Li2  1  0.27621801  0.24614586  0.47798147  1
  Li  Li3  1  0.72411072  0.75232944  0.52111945  1
  Li  Li4  1  0.72411072  0.75232944  0.97888055  1
  Li  Li5  1  0.90399537  0.23759576  0.75000000  1
  Co  Co6  1  0.66669382  0.20892885  0.25000000  1
  Ni  Ni7  1  0.33188032  0.79327861  0.75000000  1
  P  P8  1  0.41284341  0.71935982  0.25000000  1
  P  P9  1  0.58535163  0.27977149  0.75000000  1
  C  C10  1  0.03851039  0.70455811  0.75000000  1
  C  C11  1  0.96350295  0.29631143  0.25000000  1
  O  O12  1  0.07508944  0.95206691  0.75000000  1
  O  O13  1  0.11078227  0.35753668  0.25000000  1
  O  O14  1  0.15500101  0.51481812  0.75000000  1
  O  O15  1  0.30816907  0.82483826  0.06235897  1
  O  O16  1  0.30816907  0.82483826  0.43764103  1
  O  O17  1  0.41852793  0.17064573  0.75000000  1
  O  O18  1  0.43287056  0.40498319  0.25000000  1
  O  O19  1  0.56259098  0.59402864  0.75000000  1
  O  O20  1  0.58106912  0.82438835  0.25000000  1
  O  O21  1  0.69130429  0.17628995  0.93707745  1
  O  O22  1  0.69130429  0.17628995  0.56292255  1
  O  O23  1  0.84790759  0.48838613  0.25000000  1
  O  O24  1  0.89118147  0.64244097  0.75000000  1
  O  O25  1  0.92669087  0.04927139  0.25000000  1
