# generated using pymatgen
data_V2Co(H4O5)2
_symmetry_space_group_name_H-M   'P 1'
_cell_length_a   8.38556804
_cell_length_b   8.38556804
_cell_length_c   7.12525126
_cell_angle_alpha   74.13624208
_cell_angle_beta   105.86375792
_cell_angle_gamma   106.33451301
_symmetry_Int_Tables_number   1
_chemical_formula_structural   V2Co(H4O5)2
_chemical_formula_sum   'V4 Co2 H16 O20'
_cell_volume   451.89877630
_cell_formula_units_Z   2
loop_
 _symmetry_equiv_pos_site_id
 _symmetry_equiv_pos_as_xyz
  1  'x, y, z'
loop_
 _atom_site_type_symbol
 _atom_site_label
 _atom_site_symmetry_multiplicity
 _atom_site_fract_x
 _atom_site_fract_y
 _atom_site_fract_z
 _atom_site_occupancy
  V  V0  1  0.12460096  0.91611030  0.69096014  1
  V  V1  1  0.08388970  0.87539904  0.19096014  1
  V  V2  1  0.91611030  0.12460096  0.80903986  1
  V  V3  1  0.87539904  0.08388970  0.30903986  1
  Co  Co4  1  0.00000000  0.50000000  0.00000000  1
  Co  Co5  1  0.50000000  0.00000000  0.50000000  1
  H  H6  1  0.41904308  0.80609631  0.00396152  1
  H  H7  1  0.60356255  0.77892659  0.08829302  1
  H  H8  1  0.74043545  0.50688131  0.70854382  1
  H  H9  1  0.19390369  0.58095692  0.50396152  1
  H  H10  1  0.46771978  0.66874144  0.59627191  1
  H  H11  1  0.22107341  0.39643745  0.58829302  1
  H  H12  1  0.49311869  0.25956455  0.20854382  1
  H  H13  1  0.33125856  0.53228022  0.09627191  1
  H  H14  1  0.66874144  0.46771978  0.90372809  1
  H  H15  1  0.50688131  0.74043545  0.79145618  1
  H  H16  1  0.77892659  0.60356255  0.41170698  1
  H  H17  1  0.53228022  0.33125856  0.40372809  1
  H  H18  1  0.80609631  0.41904308  0.49603848  1
  H  H19  1  0.25956455  0.49311869  0.29145618  1
  H  H20  1  0.39643745  0.22107341  0.91170698  1
  H  H21  1  0.58095692  0.19390369  0.99603848  1
  O  O22  1  0.10190929  0.98586043  0.91952729  1
  O  O23  1  0.01413957  0.89809071  0.41952729  1
  O  O24  1  0.10278604  0.70668315  0.80074921  1
  O  O25  1  0.29331685  0.89721396  0.30074921  1
  O  O26  1  0.99546492  0.33192441  0.81425193  1
  O  O27  1  0.53428797  0.76549192  0.65695491  1
  O  O28  1  0.72420431  0.48893573  0.47433105  1
  O  O29  1  0.66807559  0.00453508  0.31425193  1
  O  O30  1  0.23450808  0.46571203  0.15695491  1
  O  O31  1  0.51106427  0.27579569  0.97433105  1
  O  O32  1  0.48893573  0.72420431  0.02566895  1
  O  O33  1  0.76549192  0.53428797  0.84304509  1
  O  O34  1  0.33192441  0.99546492  0.68574807  1
  O  O35  1  0.27579569  0.51106427  0.52566895  1
  O  O36  1  0.46571203  0.23450808  0.34304509  1
  O  O37  1  0.00453508  0.66807559  0.18574807  1
  O  O38  1  0.70668315  0.10278604  0.69925079  1
  O  O39  1  0.89721396  0.29331685  0.19925079  1
  O  O40  1  0.98586043  0.10190929  0.58047271  1
  O  O41  1  0.89809071  0.01413957  0.08047271  1
