# generated using pymatgen
data_Ni6O7
_symmetry_space_group_name_H-M   'P 1'
_cell_length_a   5.07198745
_cell_length_b   5.81760680
_cell_length_c   8.93405053
_cell_angle_alpha   89.87397486
_cell_angle_beta   96.23778799
_cell_angle_gamma   106.84163072
_symmetry_Int_Tables_number   1
_chemical_formula_structural   Ni6O7
_chemical_formula_sum   'Ni12 O14'
_cell_volume   250.69623613
_cell_formula_units_Z   2
loop_
 _symmetry_equiv_pos_site_id
 _symmetry_equiv_pos_as_xyz
  1  'x, y, z'
loop_
 _atom_site_type_symbol
 _atom_site_label
 _atom_site_symmetry_multiplicity
 _atom_site_fract_x
 _atom_site_fract_y
 _atom_site_fract_z
 _atom_site_occupancy
  Ni  Ni0  1  0.85655362  0.21404029  0.71314112  1
  Ni  Ni1  1  0.84552334  0.71072682  0.71137439  1
  Ni  Ni2  1  0.71677317  0.43073377  0.42449014  1
  Ni  Ni3  1  0.42608383  0.85498023  0.86122386  1
  Ni  Ni4  1  0.57142900  0.14285700  0.14285700  1
  Ni  Ni5  1  0.57142900  0.64285700  0.14285700  1
  Ni  Ni6  1  0.28630338  0.07167371  0.57257388  1
  Ni  Ni7  1  0.29733466  0.57498818  0.57433961  1
  Ni  Ni8  1  0.13102915  0.27874549  0.28878131  1
  Ni  Ni9  1  0.14804360  0.78962343  0.29023969  1
  Ni  Ni10  1  0.01182785  0.00696851  0.99693269  1
  Ni  Ni11  1  0.99481340  0.49609057  0.99547531  1
  O  O12  1  0.03454940  0.73812719  0.50483319  1
  O  O13  1  0.73642817  0.16619742  0.93124882  1
  O  O14  1  0.73628787  0.70419562  0.94056655  1
  O  O15  1  0.86178821  0.45966282  0.21728906  1
  O  O16  1  0.87368813  0.97343238  0.20332837  1
  O  O17  1  0.58014182  0.41164685  0.62890591  1
  O  O18  1  0.56271518  0.87406715  0.65680809  1
  O  O19  1  0.40642883  0.11951658  0.35446518  1
  O  O20  1  0.40656913  0.58151838  0.34514745  1
  O  O21  1  0.11384392  0.00686355  0.77597666  1
  O  O22  1  0.10830760  0.54758681  0.78088081  1
  O  O23  1  0.26916987  0.31228162  0.08238563  1
  O  O24  1  0.28106879  0.82605118  0.06842494  1
  O  O25  1  0.02901408  0.27885045  0.50973734  1
