# generated using pymatgen
data_MnCu4H14(SO9)2
_symmetry_space_group_name_H-M   'P 1'
_cell_length_a   6.09073730
_cell_length_b   11.57137097
_cell_length_c   11.36423323
_cell_angle_alpha   80.22408874
_cell_angle_beta   90.00000000
_cell_angle_gamma   74.74108568
_symmetry_Int_Tables_number   1
_chemical_formula_structural   MnCu4H14(SO9)2
_chemical_formula_sum   'Mn2 Cu8 H28 S4 O36'
_cell_volume   760.63317930
_cell_formula_units_Z   2
loop_
 _symmetry_equiv_pos_site_id
 _symmetry_equiv_pos_as_xyz
  1  'x, y, z'
loop_
 _atom_site_type_symbol
 _atom_site_label
 _atom_site_symmetry_multiplicity
 _atom_site_fract_x
 _atom_site_fract_y
 _atom_site_fract_z
 _atom_site_occupancy
  Mn  Mn0  1  0.92721969  0.92528684  0.26614680  1
  Mn  Mn1  1  0.85250654  0.07471316  0.73385320  1
  Cu  Cu2  1  0.75805240  0.49821302  0.00156538  1
  Cu  Cu3  1  0.00511421  0.52432643  0.74501906  1
  Cu  Cu4  1  0.50396919  0.52557065  0.74738683  1
  Cu  Cu5  1  0.77213872  0.50241749  0.49758266  1
  Cu  Cu6  1  0.27455621  0.49758251  0.50241734  1
  Cu  Cu7  1  0.02953984  0.47442935  0.25261317  1
  Cu  Cu8  1  0.52943964  0.47567357  0.25498094  1
  Cu  Cu9  1  0.25626542  0.50178698  0.99843462  1
  H  H10  1  0.24142165  0.93011276  0.83838593  1
  H  H11  1  0.91691112  0.88962048  0.92799583  1
  H  H12  1  0.64609389  0.93403758  0.93249177  1
  H  H13  1  0.25369281  0.93690659  0.70088370  1
  H  H14  1  0.90859977  0.87956243  0.62173977  1
  H  H15  1  0.64294498  0.92832824  0.58607750  1
  H  H16  1  0.58765664  0.83576643  0.35073643  1
  H  H17  1  0.59122437  0.83374998  0.20705630  1
  H  H18  1  0.68215060  0.68450718  0.82137562  1
  H  H19  1  0.17436861  0.68372690  0.82812667  1
  H  H20  1  0.96073986  0.67737688  0.48835462  1
  H  H21  1  0.72325831  0.64983759  0.30142980  1
  H  H22  1  0.91301423  0.66899454  0.03644033  1
  H  H23  1  0.19755962  0.64447000  0.29354888  1
  H  H24  1  0.84202962  0.35553000  0.70645112  1
  H  H25  1  0.58200777  0.33100546  0.96355967  1
  H  H26  1  0.37309590  0.35016241  0.69857020  1
  H  H27  1  0.63811674  0.32262312  0.51164538  1
  H  H28  1  0.85809651  0.31627310  0.17187333  1
  H  H29  1  0.36665779  0.31549282  0.17862438  1
  H  H30  1  0.42497435  0.16625002  0.79294370  1
  H  H31  1  0.42342307  0.16423357  0.64926357  1
  H  H32  1  0.57127222  0.07167176  0.41392250  1
  H  H33  1  0.78816120  0.12043757  0.37826023  1
  H  H34  1  0.19059940  0.06309341  0.29911630  1
  H  H35  1  0.58013247  0.06596242  0.06750823  1
  H  H36  1  0.80653160  0.11037952  0.07200417  1
  H  H37  1  0.17153441  0.06988724  0.16161407  1
  S  S38  1  0.31045301  0.78870577  0.51870736  1
  S  S39  1  0.31901659  0.76905955  0.06145776  1
  S  S40  1  0.08807614  0.23094045  0.93854224  1
  S  S41  1  0.09915978  0.21129423  0.48129264  1
  O  O42  1  0.77696330  0.94855922  0.88845305  1
  O  O43  1  0.76275171  0.93383703  0.64079223  1
  O  O44  1  0.20643110  0.01025071  0.23729230  1
  O  O45  1  0.19481691  0.80837590  0.94103516  1
  O  O46  1  0.20633373  0.82753068  0.62880835  1
  O  O47  1  0.46974630  0.86236772  0.47426042  1
  O  O48  1  0.68865175  0.81235267  0.28300965  1
  O  O49  1  0.12319638  0.80462310  0.42572357  1
  O  O50  1  0.49148728  0.83826040  0.06675979  1
  O  O51  1  0.15136039  0.78840837  0.15703266  1
  O  O52  1  0.72020367  0.59637885  0.82748286  1
  O  O53  1  0.43577863  0.65695285  0.54725191  1
  O  O54  1  0.21080017  0.59608151  0.82654689  1
  O  O55  1  0.97654232  0.59545199  0.53418312  1
  O  O56  1  0.43476292  0.63579172  0.07558394  1
  O  O57  1  0.74745350  0.55990460  0.32188817  1
  O  O58  1  0.96516531  0.58066085  0.05467128  1
  O  O59  1  0.23827042  0.55600234  0.32415195  1
  O  O60  1  0.79427277  0.44399766  0.67584805  1
  O  O61  1  0.54582616  0.41933915  0.94532872  1
  O  O62  1  0.30735809  0.44009540  0.67811183  1
  O  O63  1  0.07055465  0.36420828  0.92441606  1
  O  O64  1  0.57199431  0.40454801  0.46581688  1
  O  O65  1  0.80688269  0.40391849  0.17345311  1
  O  O66  1  0.09273049  0.34304715  0.45274809  1
  O  O67  1  0.31658251  0.40362115  0.17251714  1
  O  O68  1  0.93976875  0.21159163  0.84296734  1
  O  O69  1  0.32974769  0.16173960  0.93324021  1
  O  O70  1  0.92781948  0.19537690  0.57427643  1
  O  O71  1  0.50100442  0.18764733  0.71699035  1
  O  O72  1  0.33211401  0.13763228  0.52573958  1
  O  O73  1  0.03386442  0.17246932  0.37119165  1
  O  O74  1  0.00319281  0.19162410  0.05896484  1
  O  O75  1  0.21668181  0.98974929  0.76270770  1
  O  O76  1  0.69658875  0.06616297  0.35920777  1
  O  O77  1  0.72552252  0.05144078  0.11154695  1
