# generated using pymatgen
data_Li3FePCO7
_symmetry_space_group_name_H-M   'P 1'
_cell_length_a   8.53719321
_cell_length_b   9.95816535
_cell_length_c   6.49054108
_cell_angle_alpha   90.03840582
_cell_angle_beta   90.44467028
_cell_angle_gamma   84.82400283
_symmetry_Int_Tables_number   1
_chemical_formula_structural   Li3FePCO7
_chemical_formula_sum   'Li12 Fe4 P4 C4 O28'
_cell_volume   549.52532858
_cell_formula_units_Z   4
loop_
 _symmetry_equiv_pos_site_id
 _symmetry_equiv_pos_as_xyz
  1  'x, y, z'
loop_
 _atom_site_type_symbol
 _atom_site_label
 _atom_site_symmetry_multiplicity
 _atom_site_fract_x
 _atom_site_fract_y
 _atom_site_fract_z
 _atom_site_occupancy
  Li  Li0  1  0.10358584  0.38976578  0.25666344  1
  Li  Li1  1  0.09623507  0.87934904  0.25424937  1
  Li  Li2  1  0.27598181  0.13198209  0.48603242  1
  Li  Li3  1  0.27447138  0.61173212  0.01345434  1
  Li  Li4  1  0.27566420  0.61248300  0.48464592  1
  Li  Li5  1  0.34624527  0.39989803  0.74684674  1
  Li  Li6  1  0.71915449  0.37710033  0.52749682  1
  Li  Li7  1  0.71923211  0.37671833  0.97144740  1
  Li  Li8  1  0.72501752  0.87227619  0.52445567  1
  Li  Li9  1  0.72656345  0.87372956  0.97872359  1
  Li  Li10  1  0.90201151  0.11852108  0.74920441  1
  Li  Li11  1  0.90147966  0.61427188  0.74897942  1
  Fe  Fe12  1  0.26653017  0.14018386  0.99822878  1
  Fe  Fe13  1  0.33799626  0.88576878  0.74664541  1
  Fe  Fe14  1  0.66469745  0.10577437  0.25044924  1
  Fe  Fe15  1  0.66588485  0.60480756  0.24957733  1
  P  P16  1  0.40900481  0.36156858  0.24937212  1
  P  P17  1  0.41199112  0.86079219  0.25132936  1
  P  P18  1  0.59004017  0.14192961  0.74991229  1
  P  P19  1  0.58601962  0.64093312  0.75012168  1
  C  C20  1  0.03711531  0.35027360  0.75605113  1
  C  C21  1  0.03503872  0.85120268  0.75154855  1
  C  C22  1  0.96345442  0.15063712  0.24913702  1
  C  C23  1  0.96435892  0.64992800  0.24986493  1
  O  O24  1  0.07099776  0.47221300  0.74990636  1
  O  O25  1  0.10936944  0.18403727  0.24752284  1
  O  O26  1  0.06885372  0.97568685  0.75318393  1
  O  O27  1  0.15037814  0.25047867  0.76383453  1
  O  O28  1  0.10991568  0.67833797  0.24925863  1
  O  O29  1  0.15053209  0.75605734  0.74954029  1
  O  O30  1  0.30883567  0.40822522  0.05873666  1
  O  O31  1  0.31057585  0.40891852  0.43895280  1
  O  O32  1  0.31118146  0.92032615  0.06267841  1
  O  O33  1  0.30858506  0.91536974  0.43562069  1
  O  O34  1  0.42369670  0.08817456  0.74920273  1
  O  O35  1  0.42822969  0.20067692  0.24466887  1
  O  O36  1  0.42040293  0.59363025  0.74955150  1
  O  O37  1  0.42673897  0.70420316  0.24570937  1
  O  O38  1  0.57249396  0.29685896  0.74895053  1
  O  O39  1  0.57675411  0.40915354  0.24977361  1
  O  O40  1  0.57417573  0.79923479  0.75176447  1
  O  O41  1  0.57790073  0.90986043  0.25270627  1
  O  O42  1  0.69086325  0.08546243  0.93724370  1
  O  O43  1  0.68800170  0.08352524  0.56307748  1
  O  O44  1  0.68904991  0.58818974  0.56381284  1
  O  O45  1  0.68963218  0.58677126  0.93641224  1
  O  O46  1  0.84934501  0.24518775  0.25104579  1
  O  O47  1  0.89205480  0.31830766  0.75036494  1
  O  O48  1  0.85080728  0.74720601  0.25028215  1
  O  O49  1  0.93366456  0.02618924  0.25024099  1
  O  O50  1  0.89117053  0.81957080  0.75087726  1
  O  O51  1  0.92801997  0.52652160  0.25064075  1
