# generated using pymatgen
data_LiMnCO3F2
_symmetry_space_group_name_H-M   'P 1'
_cell_length_a   6.39932296
_cell_length_b   8.10446727
_cell_length_c   7.12820970
_cell_angle_alpha   90.00000000
_cell_angle_beta   90.00000000
_cell_angle_gamma   90.00000000
_symmetry_Int_Tables_number   1
_chemical_formula_structural   LiMnCO3F2
_chemical_formula_sum   'Li4 Mn4 C4 O12 F8'
_cell_volume   369.69107729
_cell_formula_units_Z   4
loop_
 _symmetry_equiv_pos_site_id
 _symmetry_equiv_pos_as_xyz
  1  'x, y, z'
loop_
 _atom_site_type_symbol
 _atom_site_label
 _atom_site_symmetry_multiplicity
 _atom_site_fract_x
 _atom_site_fract_y
 _atom_site_fract_z
 _atom_site_occupancy
  Li  Li0  1  0.25000000  0.29026230  0.73790399  1
  Li  Li1  1  0.25000000  0.20973770  0.23790399  1
  Li  Li2  1  0.75000000  0.70973770  0.26209601  1
  Li  Li3  1  0.75000000  0.79026230  0.76209601  1
  Mn  Mn4  1  0.25000000  0.62348632  0.07278193  1
  Mn  Mn5  1  0.25000000  0.87651368  0.57278193  1
  Mn  Mn6  1  0.75000000  0.12348632  0.42721807  1
  Mn  Mn7  1  0.75000000  0.37651368  0.92721807  1
  C  C8  1  0.25000000  0.54701416  0.42561803  1
  C  C9  1  0.25000000  0.95298584  0.92561803  1
  C  C10  1  0.75000000  0.04701416  0.07438197  1
  C  C11  1  0.75000000  0.45298584  0.57438197  1
  O  O12  1  0.25000000  0.04526419  0.77301981  1
  O  O13  1  0.25000000  0.45473581  0.27301981  1
  O  O14  1  0.25000000  0.49521519  0.58870902  1
  O  O15  1  0.25000000  0.00478481  0.08870902  1
  O  O16  1  0.25000000  0.79302101  0.87875944  1
  O  O17  1  0.25000000  0.70697899  0.37875944  1
  O  O18  1  0.75000000  0.99521519  0.91129098  1
  O  O19  1  0.75000000  0.20697899  0.12124056  1
  O  O20  1  0.75000000  0.29302101  0.62124056  1
  O  O21  1  0.75000000  0.50478481  0.41129098  1
  O  O22  1  0.75000000  0.54526419  0.72698019  1
  O  O23  1  0.75000000  0.95473581  0.22698019  1
  F  F24  1  0.04331503  0.14131749  0.42418312  1
  F  F25  1  0.04331503  0.35868251  0.92418312  1
  F  F26  1  0.45668497  0.14131749  0.42418312  1
  F  F27  1  0.45668497  0.35868251  0.92418312  1
  F  F28  1  0.54331503  0.85868251  0.57581688  1
  F  F29  1  0.54331503  0.64131749  0.07581688  1
  F  F30  1  0.95668497  0.64131749  0.07581688  1
  F  F31  1  0.95668497  0.85868251  0.57581688  1
