# generated using pymatgen
data_Li3Cu2SbO6
_symmetry_space_group_name_H-M   'P 1'
_cell_length_a   5.17544861
_cell_length_b   5.17544861
_cell_length_c   9.90253454
_cell_angle_alpha   88.22180341
_cell_angle_beta   91.77819659
_cell_angle_gamma   65.17542694
_symmetry_Int_Tables_number   1
_chemical_formula_structural   Li3Cu2SbO6
_chemical_formula_sum   'Li6 Cu4 Sb2 O12'
_cell_volume   240.33314147
_cell_formula_units_Z   2
loop_
 _symmetry_equiv_pos_site_id
 _symmetry_equiv_pos_as_xyz
  1  'x, y, z'
loop_
 _atom_site_type_symbol
 _atom_site_label
 _atom_site_symmetry_multiplicity
 _atom_site_fract_x
 _atom_site_fract_y
 _atom_site_fract_z
 _atom_site_occupancy
  Li  Li0  1  0.32012320  0.84495868  0.99859574  1
  Li  Li1  1  0.15504132  0.67987680  0.49859574  1
  Li  Li2  1  0.91052577  0.91052577  0.75000000  1
  Li  Li3  1  0.08947423  0.08947423  0.25000000  1
  Li  Li4  1  0.84495868  0.32012320  0.50140426  1
  Li  Li5  1  0.67987680  0.15504132  0.00140426  1
  Cu  Cu6  1  0.00000000  0.50000000  0.00000000  1
  Cu  Cu7  1  0.58773635  0.58773635  0.75000000  1
  Cu  Cu8  1  0.41226365  0.41226365  0.25000000  1
  Cu  Cu9  1  0.50000000  0.00000000  0.50000000  1
  Sb  Sb10  1  0.24890164  0.24890164  0.75000000  1
  Sb  Sb11  1  0.75109836  0.75109836  0.25000000  1
  O  O12  1  0.57177635  0.92013346  0.85141723  1
  O  O13  1  0.30140788  0.53453976  0.87008504  1
  O  O14  1  0.07986654  0.42822365  0.35141723  1
  O  O15  1  0.98753748  0.20810100  0.88578092  1
  O  O16  1  0.46546024  0.69859212  0.37008504  1
  O  O17  1  0.79189900  0.01246252  0.38578092  1
  O  O18  1  0.20810100  0.98753748  0.61421908  1
  O  O19  1  0.53453976  0.30140788  0.62991496  1
  O  O20  1  0.01246252  0.79189900  0.11421908  1
  O  O21  1  0.92013346  0.57177635  0.64858277  1
  O  O22  1  0.69859212  0.46546024  0.12991496  1
  O  O23  1  0.42822365  0.07986654  0.14858277  1
