# generated using pymatgen
data_Zn(MoO2)2
_symmetry_space_group_name_H-M   'P 1'
_cell_length_a   3.25005818
_cell_length_b   7.70407735
_cell_length_c   7.87767733
_cell_angle_alpha   79.63984762
_cell_angle_beta   76.16237961
_cell_angle_gamma   75.80102934
_symmetry_Int_Tables_number   1
_chemical_formula_structural   Zn(MoO2)2
_chemical_formula_sum   'Zn2 Mo4 O8'
_cell_volume   184.12646580
_cell_formula_units_Z   2
loop_
 _symmetry_equiv_pos_site_id
 _symmetry_equiv_pos_as_xyz
  1  'x, y, z'
loop_
 _atom_site_type_symbol
 _atom_site_label
 _atom_site_symmetry_multiplicity
 _atom_site_fract_x
 _atom_site_fract_y
 _atom_site_fract_z
 _atom_site_occupancy
  Zn  Zn0  1  0.11090503  0.06978754  0.11465108  1
  Zn  Zn1  1  0.84290729  0.91551988  0.91643716  1
  Mo  Mo2  1  0.63861296  0.17135727  0.55017099  1
  Mo  Mo3  1  0.16599734  0.49013151  0.20522357  1
  Mo  Mo4  1  0.84586483  0.48811190  0.82778867  1
  Mo  Mo5  1  0.37131072  0.80556954  0.48278994  1
  O  O6  1  0.87380201  0.66944203  0.61826413  1
  O  O7  1  0.48526063  0.34693802  0.74904099  1
  O  O8  1  0.52783451  0.62979946  0.28444387  1
  O  O9  1  0.13732277  0.30722036  0.41434283  1
  O  O10  1  0.15640469  0.00159952  0.67119559  1
  O  O11  1  0.81896648  0.34607472  0.08995701  1
  O  O12  1  0.85079284  0.97432786  0.36302157  1
  O  O13  1  0.19032889  0.63092138  0.94411360  1
