# generated using pymatgen
data_LiFeSiO4
_symmetry_space_group_name_H-M   'P 1'
_cell_length_a   5.10122843
_cell_length_b   6.38102818
_cell_length_c   10.84451042
_cell_angle_alpha   90.06272434
_cell_angle_beta   90.00000000
_cell_angle_gamma   90.00000000
_symmetry_Int_Tables_number   1
_chemical_formula_structural   LiFeSiO4
_chemical_formula_sum   'Li4 Fe4 Si4 O16'
_cell_volume   353.00034041
_cell_formula_units_Z   4
loop_
 _symmetry_equiv_pos_site_id
 _symmetry_equiv_pos_as_xyz
  1  'x, y, z'
loop_
 _atom_site_type_symbol
 _atom_site_label
 _atom_site_symmetry_multiplicity
 _atom_site_fract_x
 _atom_site_fract_y
 _atom_site_fract_z
 _atom_site_occupancy
  Li  Li0  1  0.17357275  0.71021644  0.66904031  1
  Li  Li1  1  0.32642725  0.71021644  0.16904031  1
  Li  Li2  1  0.67332958  0.21038163  0.82621982  1
  Li  Li3  1  0.82667042  0.21038163  0.32621982  1
  Fe  Fe4  1  0.17591197  0.96147124  0.91300445  1
  Fe  Fe5  1  0.32408803  0.96147124  0.41300445  1
  Fe  Fe6  1  0.67601717  0.46100172  0.58252954  1
  Fe  Fe7  1  0.82398283  0.46100172  0.08252954  1
  Si  Si8  1  0.17172891  0.20776856  0.66251073  1
  Si  Si9  1  0.32827109  0.20776856  0.16251073  1
  Si  Si10  1  0.67180919  0.70806883  0.83312277  1
  Si  Si11  1  0.82819081  0.70806883  0.33312277  1
  O  O12  1  0.14888848  0.73730698  0.33377582  1
  O  O13  1  0.21976867  0.17956837  0.30495773  1
  O  O14  1  0.19066667  0.42243041  0.10673524  1
  O  O15  1  0.24377811  0.99564961  0.58165669  1
  O  O16  1  0.25622189  0.99564961  0.08165669  1
  O  O17  1  0.30933333  0.42243041  0.60673524  1
  O  O18  1  0.28023133  0.17956837  0.80495773  1
  O  O19  1  0.35111152  0.73730698  0.83377582  1
  O  O20  1  0.64901709  0.23667428  0.16147285  1
  O  O21  1  0.71906004  0.67893993  0.19081852  1
  O  O22  1  0.69078106  0.92304631  0.38883921  1
  O  O23  1  0.74314194  0.49622370  0.91407032  1
  O  O24  1  0.75685806  0.49622370  0.41407032  1
  O  O25  1  0.80921894  0.92304631  0.88883921  1
  O  O26  1  0.78093996  0.67893993  0.69081852  1
  O  O27  1  0.85098291  0.23667428  0.66147285  1
