# generated using pymatgen
data_Li3VCrP2(HO5)2
_symmetry_space_group_name_H-M   'P 1'
_cell_length_a   5.22824342
_cell_length_b   5.57622176
_cell_length_c   7.56144685
_cell_angle_alpha   108.83346223
_cell_angle_beta   109.69480763
_cell_angle_gamma   94.91723830
_symmetry_Int_Tables_number   1
_chemical_formula_structural   Li3VCrP2(HO5)2
_chemical_formula_sum   'Li3 V1 Cr1 P2 H2 O10'
_cell_volume   191.70048538
_cell_formula_units_Z   1
loop_
 _symmetry_equiv_pos_site_id
 _symmetry_equiv_pos_as_xyz
  1  'x, y, z'
loop_
 _atom_site_type_symbol
 _atom_site_label
 _atom_site_symmetry_multiplicity
 _atom_site_fract_x
 _atom_site_fract_y
 _atom_site_fract_z
 _atom_site_occupancy
  Li  Li0  1  0.76511148  0.39631654  0.82843417  1
  Li  Li1  1  0.22540614  0.59224907  0.26054336  1
  Li  Li2  1  0.51985627  0.85065696  0.15632572  1
  V  V3  1  0.01056078  0.00390174  0.50717851  1
  Cr  Cr4  1  0.99717019  0.99980060  0.99153002  1
  P  P5  1  0.65671522  0.36187711  0.22244306  1
  P  P6  1  0.33769916  0.63323625  0.75526766  1
  H  H7  1  0.33511613  0.08908007  0.34803000  1
  H  H8  1  0.64666630  0.93815677  0.66315941  1
  O  O9  1  0.83654192  0.04896465  0.73001100  1
  O  O10  1  0.71984980  0.21202070  0.36602608  1
  O  O11  1  0.33798436  0.34522479  0.66620471  1
  O  O12  1  0.35096275  0.24787484  0.06694161  1
  O  O13  1  0.86515633  0.33405963  0.11196690  1
  O  O14  1  0.13594414  0.67587795  0.87182582  1
  O  O15  1  0.63958289  0.76018470  0.92839810  1
  O  O16  1  0.66906156  0.65402686  0.32444933  1
  O  O17  1  0.28363061  0.76067613  0.59775279  1
  O  O18  1  0.17106997  0.94488764  0.26164175  1
