# generated using pymatgen
data_Li2VF5
_symmetry_space_group_name_H-M   'P 1'
_cell_length_a   8.10121897
_cell_length_b   7.45598891
_cell_length_c   6.70457770
_cell_angle_alpha   90.00000000
_cell_angle_beta   90.00000000
_cell_angle_gamma   90.00000000
_symmetry_Int_Tables_number   1
_chemical_formula_structural   Li2VF5
_chemical_formula_sum   'Li8 V4 F20'
_cell_volume   404.97391692
_cell_formula_units_Z   4
loop_
 _symmetry_equiv_pos_site_id
 _symmetry_equiv_pos_as_xyz
  1  'x, y, z'
loop_
 _atom_site_type_symbol
 _atom_site_label
 _atom_site_symmetry_multiplicity
 _atom_site_fract_x
 _atom_site_fract_y
 _atom_site_fract_z
 _atom_site_occupancy
  Li  Li0  1  0.12302821  0.23363838  0.84875896  1
  Li  Li1  1  0.12378309  0.94642198  0.26395574  1
  Li  Li2  1  0.37621691  0.44642198  0.76395574  1
  Li  Li3  1  0.37697179  0.73363838  0.34875896  1
  Li  Li4  1  0.62302821  0.23363838  0.65124104  1
  Li  Li5  1  0.62378309  0.94642198  0.23604426  1
  Li  Li6  1  0.87621691  0.44642198  0.73604426  1
  Li  Li7  1  0.87697179  0.73363838  0.15124104  1
  V  V8  1  0.12528900  0.75909302  0.74871625  1
  V  V9  1  0.37471100  0.25909302  0.24871625  1
  V  V10  1  0.62528900  0.75909302  0.75128375  1
  V  V11  1  0.87471100  0.25909302  0.25128375  1
  F  F12  1  0.09187975  0.77304953  0.03726751  1
  F  F13  1  0.12340102  0.01148124  0.73624662  1
  F  F14  1  0.12532578  0.48846334  0.74572879  1
  F  F15  1  0.12481937  0.22060742  0.27762748  1
  F  F16  1  0.16053886  0.76225908  0.46025985  1
  F  F17  1  0.33946114  0.26225908  0.96025985  1
  F  F18  1  0.37518063  0.72060742  0.77762748  1
  F  F19  1  0.37659898  0.51148124  0.23624662  1
  F  F20  1  0.37467422  0.98846334  0.24572879  1
  F  F21  1  0.40812025  0.27304953  0.53726751  1
  F  F22  1  0.59187975  0.77304953  0.46273249  1
  F  F23  1  0.62340102  0.01148124  0.76375338  1
  F  F24  1  0.62532578  0.48846334  0.75427121  1
  F  F25  1  0.62481937  0.22060742  0.22237252  1
  F  F26  1  0.66053886  0.76225908  0.03974015  1
  F  F27  1  0.83946114  0.26225908  0.53974015  1
  F  F28  1  0.87518063  0.72060742  0.72237252  1
  F  F29  1  0.87659898  0.51148124  0.26375338  1
  F  F30  1  0.87467422  0.98846334  0.25427121  1
  F  F31  1  0.90812025  0.27304953  0.96273249  1
