# generated using pymatgen
data_Li3Cu2(SO4)3
_symmetry_space_group_name_H-M   'P 1'
_cell_length_a   8.66466561
_cell_length_b   12.64368418
_cell_length_c   8.77893557
_cell_angle_alpha   90.00000000
_cell_angle_beta   90.00000000
_cell_angle_gamma   90.54637161
_symmetry_Int_Tables_number   1
_chemical_formula_structural   Li3Cu2(SO4)3
_chemical_formula_sum   'Li12 Cu8 S12 O48'
_cell_volume   961.71759371
_cell_formula_units_Z   4
loop_
 _symmetry_equiv_pos_site_id
 _symmetry_equiv_pos_as_xyz
  1  'x, y, z'
loop_
 _atom_site_type_symbol
 _atom_site_label
 _atom_site_symmetry_multiplicity
 _atom_site_fract_x
 _atom_site_fract_y
 _atom_site_fract_z
 _atom_site_occupancy
  Li  Li0  1  0.07700361  0.69842439  0.08300258  1
  Li  Li1  1  0.08843420  0.75331715  0.69653310  1
  Li  Li2  1  0.20965837  0.17890554  0.77288338  1
  Li  Li3  1  0.29034163  0.32109446  0.27288338  1
  Li  Li4  1  0.41156580  0.74668285  0.19653310  1
  Li  Li5  1  0.42299639  0.80157561  0.58300258  1
  Li  Li6  1  0.57700361  0.19842439  0.41699742  1
  Li  Li7  1  0.58843420  0.25331715  0.80346690  1
  Li  Li8  1  0.70965837  0.67890554  0.72711662  1
  Li  Li9  1  0.79034163  0.82109446  0.22711662  1
  Li  Li10  1  0.91156580  0.24668285  0.30346690  1
  Li  Li11  1  0.92299639  0.30157561  0.91699742  1
  Cu  Cu12  1  0.24662033  0.59825815  0.53571671  1
  Cu  Cu13  1  0.25337967  0.90174185  0.03571671  1
  Cu  Cu14  1  0.24409595  0.09950873  0.45779429  1
  Cu  Cu15  1  0.25590405  0.40049127  0.95779429  1
  Cu  Cu16  1  0.74409595  0.59950873  0.04220571  1
  Cu  Cu17  1  0.75590405  0.90049127  0.54220571  1
  Cu  Cu18  1  0.74662033  0.09825815  0.96428329  1
  Cu  Cu19  1  0.75337967  0.40174185  0.46428329  1
  S  S20  1  0.03890431  0.49387458  0.25035091  1
  S  S21  1  0.10063565  0.85055735  0.38372237  1
  S  S22  1  0.09696258  0.15347333  0.10010549  1
  S  S23  1  0.39936435  0.64944265  0.88372237  1
  S  S24  1  0.40303742  0.34652667  0.60010549  1
  S  S25  1  0.46109569  0.00612542  0.75035091  1
  S  S26  1  0.53890431  0.99387458  0.24964909  1
  S  S27  1  0.59696258  0.65347333  0.39989451  1
  S  S28  1  0.60063565  0.35055735  0.11627763  1
  S  S29  1  0.90303742  0.84652667  0.89989451  1
  S  S30  1  0.89936435  0.14944265  0.61627763  1
  S  S31  1  0.96109569  0.50612542  0.74964909  1
  O  O32  1  0.03634349  0.43835176  0.86808507  1
  O  O33  1  0.07673399  0.84616052  0.88188342  1
  O  O34  1  0.06982437  0.59094177  0.69462179  1
  O  O35  1  0.06821560  0.17307484  0.59569943  1
  O  O36  1  0.08907690  0.56509667  0.37328303  1
  O  O37  1  0.14708364  0.80786845  0.22984437  1
  O  O38  1  0.13071289  0.96389186  0.39260711  1
  O  O39  1  0.13436214  0.23059847  0.97372655  1
  O  O40  1  0.15818720  0.19593033  0.24856805  1
  O  O41  1  0.17339146  0.43783784  0.18233369  1
  O  O42  1  0.15715348  0.05029303  0.06387184  1
  O  O43  1  0.18878539  0.79274257  0.50499446  1
  O  O44  1  0.31121461  0.70725743  0.00499446  1
  O  O45  1  0.34284652  0.44970697  0.56387184  1
  O  O46  1  0.32660854  0.06216216  0.68233369  1
  O  O47  1  0.34181280  0.30406967  0.74856805  1
  O  O48  1  0.36928711  0.53610814  0.89260711  1
  O  O49  1  0.36563786  0.26940153  0.47372655  1
  O  O50  1  0.35291636  0.69213155  0.72984437  1
  O  O51  1  0.41092310  0.93490333  0.87328303  1
  O  O52  1  0.43017563  0.90905823  0.19462179  1
  O  O53  1  0.42326601  0.65383948  0.38188342  1
  O  O54  1  0.43178440  0.32692516  0.09569943  1
  O  O55  1  0.46365651  0.06164824  0.36808507  1
  O  O56  1  0.53634349  0.93835176  0.63191493  1
  O  O57  1  0.56821560  0.67307484  0.90430057  1
  O  O58  1  0.57673399  0.34616052  0.61811658  1
  O  O59  1  0.56982437  0.09094177  0.80537821  1
  O  O60  1  0.58907690  0.06509667  0.12671697  1
  O  O61  1  0.64708364  0.30786845  0.27015563  1
  O  O62  1  0.63436214  0.73059847  0.52627345  1
  O  O63  1  0.63071289  0.46389186  0.10739289  1
  O  O64  1  0.65818720  0.69593033  0.25143195  1
  O  O65  1  0.67339146  0.93783784  0.31766631  1
  O  O66  1  0.65715348  0.55029303  0.43612816  1
  O  O67  1  0.68878539  0.29274257  0.99500554  1
  O  O68  1  0.81121461  0.20725743  0.49500554  1
  O  O69  1  0.84284652  0.94970697  0.93612816  1
  O  O70  1  0.82660854  0.56216216  0.81766631  1
  O  O71  1  0.84181280  0.80406967  0.75143195  1
  O  O72  1  0.86563786  0.76940153  0.02627345  1
  O  O73  1  0.86928711  0.03610814  0.60739289  1
  O  O74  1  0.85291636  0.19213155  0.77015563  1
  O  O75  1  0.91092310  0.43490333  0.62671697  1
  O  O76  1  0.93178440  0.82692516  0.40430057  1
  O  O77  1  0.93017563  0.40905823  0.30537821  1
  O  O78  1  0.92326601  0.15383948  0.11811658  1
  O  O79  1  0.96365651  0.56164824  0.13191493  1
