# generated using pymatgen
data_Ca4Ta2O9
_symmetry_space_group_name_H-M   'P 1'
_cell_length_a   5.69076691
_cell_length_b   9.83352456
_cell_length_c   14.94847833
_cell_angle_alpha   90.00000000
_cell_angle_beta   90.00000000
_cell_angle_gamma   90.00000000
_symmetry_Int_Tables_number   1
_chemical_formula_structural   Ca4Ta2O9
_chemical_formula_sum   'Ca16 Ta8 O36'
_cell_volume   836.52127471
_cell_formula_units_Z   4
loop_
 _symmetry_equiv_pos_site_id
 _symmetry_equiv_pos_as_xyz
  1  'x, y, z'
loop_
 _atom_site_type_symbol
 _atom_site_label
 _atom_site_symmetry_multiplicity
 _atom_site_fract_x
 _atom_site_fract_y
 _atom_site_fract_z
 _atom_site_occupancy
  Ca  Ca0  1  0.00577973  0.33611379  0.29735629  1
  Ca  Ca1  1  0.00577973  0.66388621  0.20264371  1
  Ca  Ca2  1  0.01156299  0.66410858  0.48755454  1
  Ca  Ca3  1  0.01156299  0.33589042  0.01244546  1
  Ca  Ca4  1  0.48843701  0.16410958  0.51244546  1
  Ca  Ca5  1  0.48843701  0.83589142  0.98755454  1
  Ca  Ca6  1  0.49422027  0.83611379  0.70264371  1
  Ca  Ca7  1  0.49422027  0.16388621  0.79735629  1
  Ca  Ca8  1  0.50577973  0.83611379  0.20264371  1
  Ca  Ca9  1  0.50577973  0.16388621  0.29735629  1
  Ca  Ca10  1  0.51156299  0.16410958  0.01244546  1
  Ca  Ca11  1  0.51156299  0.83589142  0.48755454  1
  Ca  Ca12  1  0.98843701  0.33589042  0.51244546  1
  Ca  Ca13  1  0.98843701  0.66410858  0.98755454  1
  Ca  Ca14  1  0.99422027  0.66388621  0.70264371  1
  Ca  Ca15  1  0.99422027  0.33611379  0.79735629  1
  Ta  Ta16  1  0.00324727  0.00524705  0.14732835  1
  Ta  Ta17  1  0.00324727  0.99475295  0.35267165  1
  Ta  Ta18  1  0.49675273  0.49475295  0.64732835  1
  Ta  Ta19  1  0.49675273  0.50524705  0.85267165  1
  Ta  Ta20  1  0.50324727  0.50524705  0.35267165  1
  Ta  Ta21  1  0.50324727  0.49475295  0.14732835  1
  Ta  Ta22  1  0.99675273  0.00524705  0.64732835  1
  Ta  Ta23  1  0.99675273  0.99475295  0.85267165  1
  O  O24  1  0.12567575  0.13151429  0.74705107  1
  O  O25  1  0.12567575  0.86848571  0.75294893  1
  O  O26  1  0.15207065  0.85209824  0.41601909  1
  O  O27  1  0.15207065  0.14790176  0.08398091  1
  O  O28  1  0.19528006  0.48736521  0.40749987  1
  O  O29  1  0.19528006  0.51263479  0.09250013  1
  O  O30  1  0.16564698  0.15765353  0.40178852  1
  O  O31  1  0.16564698  0.84234647  0.09821148  1
  O  O32  1  0.23714602  0.50000000  0.75000000  1
  O  O33  1  0.26285398  0.00000000  0.25000000  1
  O  O34  1  0.33435302  0.34234647  0.90178852  1
  O  O35  1  0.33435302  0.65765353  0.59821148  1
  O  O36  1  0.30471994  0.98736521  0.59250013  1
  O  O37  1  0.30471994  0.01263479  0.90749987  1
  O  O38  1  0.34792935  0.35209824  0.58398091  1
  O  O39  1  0.34792935  0.64790176  0.91601909  1
  O  O40  1  0.37432425  0.36848571  0.24705107  1
  O  O41  1  0.37432425  0.63151429  0.25294893  1
  O  O42  1  0.62567575  0.63151429  0.75294893  1
  O  O43  1  0.62567575  0.36848571  0.74705107  1
  O  O44  1  0.65207065  0.64790176  0.41601909  1
  O  O45  1  0.65207065  0.35209824  0.08398091  1
  O  O46  1  0.69528006  0.01263479  0.40749987  1
  O  O47  1  0.69528006  0.98736521  0.09250013  1
  O  O48  1  0.66564698  0.34234647  0.40178852  1
  O  O49  1  0.66564698  0.65765353  0.09821148  1
  O  O50  1  0.73714602  0.00000000  0.75000000  1
  O  O51  1  0.76285398  0.50000000  0.25000000  1
  O  O52  1  0.83435302  0.15765353  0.90178852  1
  O  O53  1  0.83435302  0.84234647  0.59821148  1
  O  O54  1  0.80471994  0.48736521  0.90749987  1
  O  O55  1  0.80471994  0.51263479  0.59250013  1
  O  O56  1  0.84792935  0.14790176  0.58398091  1
  O  O57  1  0.84792935  0.85209824  0.91601909  1
  O  O58  1  0.87432425  0.13151429  0.24705107  1
  O  O59  1  0.87432425  0.86848571  0.25294893  1
