# generated using pymatgen
data_Na3Ni2P2(CO7)2
_symmetry_space_group_name_H-M   'P 1'
_cell_length_a   8.86216626
_cell_length_b   5.17153955
_cell_length_c   6.51292333
_cell_angle_alpha   90.02195399
_cell_angle_beta   89.07676630
_cell_angle_gamma   88.36052731
_symmetry_Int_Tables_number   1
_chemical_formula_structural   Na3Ni2P2(CO7)2
_chemical_formula_sum   'Na3 Ni2 P2 C2 O14'
_cell_volume   298.33303953
_cell_formula_units_Z   1
loop_
 _symmetry_equiv_pos_site_id
 _symmetry_equiv_pos_as_xyz
  1  'x, y, z'
loop_
 _atom_site_type_symbol
 _atom_site_label
 _atom_site_symmetry_multiplicity
 _atom_site_fract_x
 _atom_site_fract_y
 _atom_site_fract_z
 _atom_site_occupancy
  Na  Na0  1  0.25586401  0.24461247  0.47378417  1
  Na  Na1  1  0.74478581  0.75302975  0.51237859  1
  Na  Na2  1  0.74649142  0.75383778  0.98573156  1
  Ni  Ni3  1  0.34247359  0.78294776  0.75931324  1
  Ni  Ni4  1  0.65340181  0.22071382  0.25005274  1
  P  P5  1  0.42210668  0.71892529  0.25195030  1
  P  P6  1  0.57340892  0.28014671  0.75168239  1
  C  C7  1  0.07041002  0.71090164  0.74928380  1
  C  C8  1  0.92759907  0.28428155  0.24750880  1
  O  O9  1  0.06501840  0.32147251  0.25075176  1
  O  O10  1  0.12731864  0.93876093  0.75180482  1
  O  O11  1  0.17269610  0.52621726  0.75217756  1
  O  O12  1  0.32397757  0.78502804  0.06663302  1
  O  O13  1  0.32108813  0.78951019  0.44133556  1
  O  O14  1  0.42535743  0.13484792  0.74509596  1
  O  O15  1  0.46521835  0.42469439  0.25979151  1
  O  O16  1  0.53871209  0.57937482  0.75174415  1
  O  O17  1  0.57271352  0.86626444  0.25110452  1
  O  O18  1  0.67774677  0.21207624  0.56352911  1
  O  O19  1  0.67320379  0.20790319  0.93728611  1
  O  O20  1  0.82616244  0.47402265  0.24627135  1
  O  O21  1  0.86832858  0.05691914  0.24605843  1
  O  O22  1  0.93120589  0.67249750  0.74488554  1
