# generated using pymatgen
data_Sn5P6O25
_symmetry_space_group_name_H-M   'P 1'
_cell_length_a   10.09937667
_cell_length_b   10.09937667
_cell_length_c   10.09937667
_cell_angle_alpha   49.63405351
_cell_angle_beta   49.63405351
_cell_angle_gamma   49.63405357
_symmetry_Int_Tables_number   1
_chemical_formula_structural   Sn5P6O25
_chemical_formula_sum   'Sn5 P6 O25'
_cell_volume   549.86971392
_cell_formula_units_Z   1
loop_
 _symmetry_equiv_pos_site_id
 _symmetry_equiv_pos_as_xyz
  1  'x, y, z'
loop_
 _atom_site_type_symbol
 _atom_site_label
 _atom_site_symmetry_multiplicity
 _atom_site_fract_x
 _atom_site_fract_y
 _atom_site_fract_z
 _atom_site_occupancy
  Sn  Sn0  1  0.82686775  0.82686775  0.82686775  1
  Sn  Sn1  1  0.17313225  0.17313225  0.17313225  1
  Sn  Sn2  1  0.57173913  0.57173913  0.57173913  1
  Sn  Sn3  1  0.42826087  0.42826087  0.42826087  1
  Sn  Sn4  1  0.00000000  0.00000000  0.00000000  1
  P  P5  1  0.06106240  0.82070160  0.38635047  1
  P  P6  1  0.17929840  0.61364953  0.93893760  1
  P  P7  1  0.61364953  0.93893760  0.17929840  1
  P  P8  1  0.38635047  0.06106240  0.82070160  1
  P  P9  1  0.82070160  0.38635047  0.06106240  1
  P  P10  1  0.93893760  0.17929840  0.61364953  1
  O  O11  1  0.27386844  0.95531983  0.90013988  1
  O  O12  1  0.21463667  0.89681145  0.27371875  1
  O  O13  1  0.10318855  0.72628125  0.78536333  1
  O  O14  1  0.09986012  0.72613156  0.04468017  1
  O  O15  1  0.16721967  0.59864151  0.44186285  1
  O  O16  1  0.56276144  0.91224696  0.86407193  1
  O  O17  1  0.13592807  0.43723856  0.08775304  1
  O  O18  1  0.55813715  0.83278033  0.40135849  1
  O  O19  1  0.40135849  0.55813715  0.83278033  1
  O  O20  1  0.04468017  0.09986012  0.72613156  1
  O  O21  1  0.72628125  0.78536333  0.10318855  1
  O  O22  1  0.08775304  0.13592807  0.43723856  1
  O  O23  1  0.50000000  0.50000000  0.50000000  1
  O  O24  1  0.91224696  0.86407193  0.56276144  1
  O  O25  1  0.27371875  0.21463667  0.89681145  1
  O  O26  1  0.95531983  0.90013988  0.27386844  1
  O  O27  1  0.59864151  0.44186285  0.16721967  1
  O  O28  1  0.44186285  0.16721967  0.59864151  1
  O  O29  1  0.86407193  0.56276144  0.91224696  1
  O  O30  1  0.43723856  0.08775304  0.13592807  1
  O  O31  1  0.83278033  0.40135849  0.55813715  1
  O  O32  1  0.90013988  0.27386844  0.95531983  1
  O  O33  1  0.89681145  0.27371875  0.21463667  1
  O  O34  1  0.78536333  0.10318855  0.72628125  1
  O  O35  1  0.72613156  0.04468017  0.09986012  1
