# generated using pymatgen
data_Li4B2O5
_symmetry_space_group_name_H-M   'P 1'
_cell_length_a   6.01748257
_cell_length_b   6.01748257
_cell_length_c   6.05708692
_cell_angle_alpha   74.98856392
_cell_angle_beta   105.01143608
_cell_angle_gamma   106.76526412
_symmetry_Int_Tables_number   1
_chemical_formula_structural   Li4B2O5
_chemical_formula_sum   'Li8 B4 O10'
_cell_volume   198.76999335
_cell_formula_units_Z   2
loop_
 _symmetry_equiv_pos_site_id
 _symmetry_equiv_pos_as_xyz
  1  'x, y, z'
loop_
 _atom_site_type_symbol
 _atom_site_label
 _atom_site_symmetry_multiplicity
 _atom_site_fract_x
 _atom_site_fract_y
 _atom_site_fract_z
 _atom_site_occupancy
  Li  Li0  1  0.67177629  0.93461277  0.73521932  1
  Li  Li1  1  0.34199892  0.60972802  0.53268969  1
  Li  Li2  1  0.06538723  0.32822371  0.23521932  1
  Li  Li3  1  0.39027198  0.65800108  0.03268969  1
  Li  Li4  1  0.60972802  0.34199892  0.96731031  1
  Li  Li5  1  0.93461277  0.67177629  0.76478068  1
  Li  Li6  1  0.65800108  0.39027198  0.46731031  1
  Li  Li7  1  0.32822371  0.06538723  0.26478068  1
  B  B8  1  0.05523905  0.24731016  0.84116396  1
  B  B9  1  0.75268984  0.94476095  0.34116396  1
  B  B10  1  0.24731016  0.05523905  0.65883604  1
  B  B11  1  0.94476095  0.75268984  0.15883604  1
  O  O12  1  0.32479468  0.85222393  0.71514139  1
  O  O13  1  0.14777607  0.67520532  0.21514139  1
  O  O14  1  0.26321171  0.33543324  0.98098750  1
  O  O15  1  0.04536730  0.04536730  0.75000000  1
  O  O16  1  0.66456676  0.73678829  0.48098750  1
  O  O17  1  0.33543324  0.26321171  0.51901250  1
  O  O18  1  0.95463270  0.95463270  0.25000000  1
  O  O19  1  0.73678829  0.66456676  0.01901250  1
  O  O20  1  0.85222393  0.32479468  0.78485861  1
  O  O21  1  0.67520532  0.14777607  0.28485861  1
