# generated using pymatgen
data_Li8Nb2S9
_symmetry_space_group_name_H-M   'P 1'
_cell_length_a   18.72701952
_cell_length_b   10.94265912
_cell_length_c   7.25302004
_cell_angle_alpha   70.45179131
_cell_angle_beta   78.64865731
_cell_angle_gamma   85.53677842
_symmetry_Int_Tables_number   1
_chemical_formula_structural   Li8Nb2S9
_chemical_formula_sum   'Li32 Nb8 S36'
_cell_volume   1373.12927238
_cell_formula_units_Z   4
loop_
 _symmetry_equiv_pos_site_id
 _symmetry_equiv_pos_as_xyz
  1  'x, y, z'
loop_
 _atom_site_type_symbol
 _atom_site_label
 _atom_site_symmetry_multiplicity
 _atom_site_fract_x
 _atom_site_fract_y
 _atom_site_fract_z
 _atom_site_occupancy
  Li  Li0  1  0.04128110  0.12527224  0.74686213  1
  Li  Li1  1  0.04894287  0.62746062  0.54174296  1
  Li  Li2  1  0.05274797  0.62587566  0.03468966  1
  Li  Li3  1  0.03945122  0.12312533  0.33410319  1
  Li  Li4  1  0.15781233  0.40041580  0.85163182  1
  Li  Li5  1  0.15833961  0.85177001  0.12172592  1
  Li  Li6  1  0.23950692  0.62636818  0.97142806  1
  Li  Li7  1  0.24084020  0.63434916  0.41236206  1
  Li  Li8  1  0.25703103  0.12549308  0.65988000  1
  Li  Li9  1  0.25780614  0.11849232  0.20992643  1
  Li  Li10  1  0.33941326  0.34297789  0.78421073  1
  Li  Li11  1  0.34346911  0.89157014  0.50489355  1
  Li  Li12  1  0.46051724  0.63064766  0.87302343  1
  Li  Li13  1  0.44578357  0.12207728  0.60408835  1
  Li  Li14  1  0.45808482  0.62439098  0.29398551  1
  Li  Li15  1  0.54843155  0.86981788  0.92437441  1
  Li  Li16  1  0.45156845  0.13018212  0.07562559  1
  Li  Li17  1  0.54191518  0.37560802  0.70601449  1
  Li  Li18  1  0.55421643  0.87792272  0.39591165  1
  Li  Li19  1  0.53948276  0.36935234  0.12697657  1
  Li  Li20  1  0.65653089  0.10842986  0.49510645  1
  Li  Li21  1  0.66058674  0.65702211  0.21578927  1
  Li  Li22  1  0.74219386  0.88150768  0.79007357  1
  Li  Li23  1  0.74296897  0.87450692  0.34012000  1
  Li  Li24  1  0.75915980  0.36565084  0.58763794  1
  Li  Li25  1  0.76049308  0.37363182  0.02857194  1
  Li  Li26  1  0.84166039  0.14822999  0.87827408  1
  Li  Li27  1  0.84218767  0.59958420  0.14836818  1
  Li  Li28  1  0.96054878  0.87687467  0.66589681  1
  Li  Li29  1  0.94725203  0.37412434  0.96531034  1
  Li  Li30  1  0.95105713  0.37253938  0.45825704  1
  Li  Li31  1  0.95871890  0.87472776  0.25313787  1
  Nb  Nb32  1  0.14423668  0.86475203  0.64650659  1
  Nb  Nb33  1  0.13609900  0.37507597  0.36537069  1
  Nb  Nb34  1  0.36473891  0.87158471  0.03322846  1
  Nb  Nb35  1  0.35638376  0.35620649  0.28142567  1
  Nb  Nb36  1  0.64361624  0.64379351  0.71857433  1
  Nb  Nb37  1  0.63526109  0.12841529  0.96677154  1
  Nb  Nb38  1  0.86390100  0.62492403  0.63462931  1
  Nb  Nb39  1  0.85576332  0.13524797  0.35349341  1
  S  S40  1  0.05284910  0.88063019  0.90371142  1
  S  S41  1  0.06721846  0.88786854  0.40060432  1
  S  S42  1  0.05994371  0.36055563  0.67276502  1
  S  S43  1  0.05442850  0.36778728  0.16324819  1
  S  S44  1  0.15254940  0.63797058  0.73173953  1
  S  S45  1  0.14166088  0.60672223  0.25641126  1
  S  S46  1  0.15313693  0.12677130  0.48532695  1
  S  S47  1  0.24693776  0.87805575  0.79744986  1
  S  S48  1  0.25402912  0.87501642  0.30270020  1
  S  S49  1  0.25137521  0.37776561  0.54266273  1
  S  S50  1  0.24877402  0.37623122  0.09025090  1
  S  S51  1  0.34445674  0.10348716  0.90310720  1
  S  S52  1  0.34636626  0.63638103  0.13683302  1
  S  S53  1  0.35835540  0.13306425  0.38047590  1
  S  S54  1  0.44207486  0.86991617  0.73007181  1
  S  S55  1  0.43226856  0.39353891  0.95808823  1
  S  S56  1  0.45029903  0.86688439  0.22469087  1
  S  S57  1  0.44262204  0.38596401  0.45605572  1
  S  S58  1  0.55737796  0.61403599  0.54394428  1
  S  S59  1  0.54970097  0.13311561  0.77530913  1
  S  S60  1  0.56773144  0.60646109  0.04191177  1
  S  S61  1  0.55792514  0.13008383  0.26992819  1
  S  S62  1  0.64164460  0.86693575  0.61952410  1
  S  S63  1  0.65363374  0.36361897  0.86316698  1
  S  S64  1  0.65554326  0.89651284  0.09689280  1
  S  S65  1  0.75122598  0.62376878  0.90974910  1
  S  S66  1  0.74862479  0.62223439  0.45733727  1
  S  S67  1  0.74597088  0.12498358  0.69729980  1
  S  S68  1  0.75306224  0.12194425  0.20255014  1
  S  S69  1  0.84686307  0.87322870  0.51467305  1
  S  S70  1  0.85833912  0.39327777  0.74358874  1
  S  S71  1  0.84745060  0.36202942  0.26826047  1
  S  S72  1  0.94557150  0.63221272  0.83675181  1
  S  S73  1  0.94005629  0.63944437  0.32723498  1
  S  S74  1  0.93278154  0.11213146  0.59939568  1
  S  S75  1  0.94715090  0.11936981  0.09628858  1
