# generated using pymatgen
data_Mg(ReO4)2
_symmetry_space_group_name_H-M   'P 1'
_cell_length_a   10.43632019
_cell_length_b   10.43622307
_cell_length_c   5.12739589
_cell_angle_alpha   89.99953357
_cell_angle_beta   90.00093228
_cell_angle_gamma   120.00129492
_symmetry_Int_Tables_number   1
_chemical_formula_structural   Mg(ReO4)2
_chemical_formula_sum   'Mg3 Re6 O24'
_cell_volume   483.62925529
_cell_formula_units_Z   3
loop_
 _symmetry_equiv_pos_site_id
 _symmetry_equiv_pos_as_xyz
  1  'x, y, z'
loop_
 _atom_site_type_symbol
 _atom_site_label
 _atom_site_symmetry_multiplicity
 _atom_site_fract_x
 _atom_site_fract_y
 _atom_site_fract_z
 _atom_site_occupancy
  Mg  Mg0  1  0.33332868  0.66665657  0.36173631  1
  Mg  Mg1  1  0.00000556  0.99999912  0.86271877  1
  Mg  Mg2  1  0.66667231  0.33333993  0.36173844  1
  Re  Re3  1  -0.00001784  0.68266979  0.48782587  1
  Re  Re4  1  -0.00000003  0.35514373  0.00643405  1
  Re  Re5  1  0.31731313  0.31732631  0.48782218  1
  Re  Re6  1  0.64485737  0.64485675  0.00642798  1
  Re  Re7  1  0.35515102  0.00000534  0.00647701  1
  Re  Re8  1  0.68267980  0.00000142  0.48783703  1
  O  O9  1  0.99998345  0.83695143  0.62830909  1
  O  O10  1  0.99998441  0.69359107  0.15221919  1
  O  O11  1  0.16223728  0.68017636  0.57664523  1
  O  O12  1  -0.00000118  0.36992139  0.67152553  1
  O  O13  1  0.15907894  0.51062461  0.13199735  1
  O  O14  1  0.99999744  0.18955012  0.07712353  1
  O  O15  1  0.35154972  0.84092324  0.13205827  1
  O  O16  1  0.31980588  0.48209130  0.57661333  1
  O  O17  1  0.16303278  0.16304812  0.62829481  1
  O  O18  1  0.30639435  0.30640683  0.15222685  1
  O  O19  1  0.51791925  0.83773030  0.57663388  1
  O  O20  1  0.48937834  0.64845631  0.13199801  1
  O  O21  1  0.18955272  0.00000024  0.07712051  1
  O  O22  1  0.48206473  0.31982420  0.57663965  1
  O  O23  1  0.63007170  0.63008383  0.67152743  1
  O  O24  1  0.64845742  0.48937780  0.13199455  1
  O  O25  1  0.81045029  0.81045100  0.07712306  1
  O  O26  1  0.36994458  0.99999643  0.67159313  1
  O  O27  1  0.51063205  0.15908111  0.13204100  1
  O  O28  1  0.83771327  0.51790504  0.57662474  1
  O  O29  1  0.68018988  0.16226814  0.57664119  1
  O  O30  1  0.84092214  0.35154319  0.13200489  1
  O  O31  1  0.69360712  0.00000163  0.15224593  1
  O  O32  1  0.83694441  0.00000035  0.62835424  1
