# generated using pymatgen
data_NaVPCO7
_symmetry_space_group_name_H-M   'P 1'
_cell_length_a   9.10800791
_cell_length_b   6.32957322
_cell_length_c   5.29342022
_cell_angle_alpha   90.00000000
_cell_angle_beta   87.34683791
_cell_angle_gamma   90.00000000
_symmetry_Int_Tables_number   1
_chemical_formula_structural   NaVPCO7
_chemical_formula_sum   'Na2 V2 P2 C2 O14'
_cell_volume   304.83751134
_cell_formula_units_Z   2
loop_
 _symmetry_equiv_pos_site_id
 _symmetry_equiv_pos_as_xyz
  1  'x, y, z'
loop_
 _atom_site_type_symbol
 _atom_site_label
 _atom_site_symmetry_multiplicity
 _atom_site_fract_x
 _atom_site_fract_y
 _atom_site_fract_z
 _atom_site_occupancy
  Na  Na0  1  0.23278841  0.47795584  0.23939418  1
  Na  Na1  1  0.76721159  0.97795584  0.76060582  1
  V  V2  1  0.33458451  0.77030089  0.78831785  1
  V  V3  1  0.66541549  0.27030089  0.21168215  1
  P  P4  1  0.43666503  0.26085917  0.71867871  1
  P  P5  1  0.56333497  0.76085917  0.28132129  1
  C  C6  1  0.07584975  0.74131553  0.72408991  1
  C  C7  1  0.92415025  0.24131553  0.27591009  1
  O  O8  1  0.05594891  0.24250725  0.30836227  1
  O  O9  1  0.13871923  0.74457195  0.94926010  1
  O  O10  1  0.18308660  0.73932713  0.54037342  1
  O  O11  1  0.33861828  0.06113592  0.78078841  1
  O  O12  1  0.33909408  0.45159063  0.79438757  1
  O  O13  1  0.42573758  0.74597744  0.12563943  1
  O  O14  1  0.47596212  0.26230723  0.43138921  1
  O  O15  1  0.52403788  0.76230723  0.56861079  1
  O  O16  1  0.57426242  0.24597744  0.87436057  1
  O  O17  1  0.66090592  0.95159063  0.20561243  1
  O  O18  1  0.66138172  0.56113592  0.21921159  1
  O  O19  1  0.81691340  0.23932713  0.45962658  1
  O  O20  1  0.86128077  0.24457195  0.05073990  1
  O  O21  1  0.94405109  0.74250725  0.69163773  1
