# generated using pymatgen
data_MgTa2CoO7
_symmetry_space_group_name_H-M   'P 1'
_cell_length_a   6.89702113
_cell_length_b   12.24645995
_cell_length_c   14.77286771
_cell_angle_alpha   89.96207360
_cell_angle_beta   90.04050765
_cell_angle_gamma   101.11089564
_symmetry_Int_Tables_number   1
_chemical_formula_structural   MgTa2CoO7
_chemical_formula_sum   'Mg8 Ta16 Co8 O56'
_cell_volume   1224.38810647
_cell_formula_units_Z   8
loop_
 _symmetry_equiv_pos_site_id
 _symmetry_equiv_pos_as_xyz
  1  'x, y, z'
loop_
 _atom_site_type_symbol
 _atom_site_label
 _atom_site_symmetry_multiplicity
 _atom_site_fract_x
 _atom_site_fract_y
 _atom_site_fract_z
 _atom_site_occupancy
  Mg  Mg0  1  0.01809183  0.73391469  0.51398276  1
  Mg  Mg1  1  0.27588528  0.90732461  0.87751815  1
  Mg  Mg2  1  0.72379170  0.59224001  0.37771058  1
  Mg  Mg3  1  0.72411472  0.09267539  0.12248185  1
  Mg  Mg4  1  0.27620830  0.40775999  0.62228942  1
  Mg  Mg5  1  0.01773386  0.23334880  0.98565271  1
  Mg  Mg6  1  0.98190817  0.26608531  0.48601724  1
  Mg  Mg7  1  0.98226614  0.76665120  0.01434729  1
  Ta  Ta8  1  0.80215679  0.97525842  0.90670264  1
  Ta  Ta9  1  0.43789306  0.68116891  0.02105688  1
  Ta  Ta10  1  0.43772491  0.18096862  0.47927465  1
  Ta  Ta11  1  0.56210694  0.31883109  0.97894312  1
  Ta  Ta12  1  0.51052348  0.80035273  0.72902333  1
  Ta  Ta13  1  0.48934065  0.69930297  0.22913761  1
  Ta  Ta14  1  0.48947652  0.19964727  0.27097667  1
  Ta  Ta15  1  0.51065935  0.30069703  0.77086239  1
  Ta  Ta16  1  0.56227509  0.81903138  0.52072535  1
  Ta  Ta17  1  0.86816791  0.50689152  0.15030204  1
  Ta  Ta18  1  0.13043425  0.99395299  0.65062960  1
  Ta  Ta19  1  0.13183209  0.49310848  0.84969796  1
  Ta  Ta20  1  0.19726676  0.52411103  0.40656671  1
  Ta  Ta21  1  0.80273324  0.47588897  0.59343329  1
  Ta  Ta22  1  0.19784321  0.02474158  0.09329736  1
  Ta  Ta23  1  0.86956575  0.00604701  0.34937040  1
  Co  Co24  1  0.67578431  0.08718134  0.63991050  1
  Co  Co25  1  0.32182370  0.41255142  0.13899874  1
  Co  Co26  1  0.32421569  0.91281866  0.36008950  1
  Co  Co27  1  0.67817630  0.58744858  0.86100126  1
  Co  Co28  1  0.97755172  0.21885265  0.77378908  1
  Co  Co29  1  0.02225520  0.28059047  0.27368804  1
  Co  Co30  1  0.02244828  0.78114735  0.22621092  1
  Co  Co31  1  0.97774480  0.71940953  0.72631196  1
  O  O32  1  0.70424521  0.98049977  0.01943055  1
  O  O33  1  0.29585569  0.51955944  0.51924905  1
  O  O34  1  0.29575479  0.01950023  0.98056945  1
  O  O35  1  0.70414431  0.48044056  0.48075095  1
  O  O36  1  0.97450383  0.87409943  0.90665706  1
  O  O37  1  0.02548978  0.62559303  0.40679152  1
  O  O38  1  0.02549617  0.12590057  0.09334294  1
  O  O39  1  0.97451022  0.37440697  0.59320848  1
  O  O40  1  0.94547583  0.11931828  0.88220514  1
  O  O41  1  0.05436271  0.37988538  0.38211361  1
  O  O42  1  0.05452417  0.88068172  0.11779486  1
  O  O43  1  0.94563729  0.62011462  0.61788639  1
  O  O44  1  0.73776061  0.00953203  0.24391738  1
  O  O45  1  0.26269813  0.49085271  0.74375218  1
  O  O46  1  0.26223939  0.99046797  0.75608262  1
  O  O47  1  0.73730187  0.50914729  0.25624782  1
  O  O48  1  0.99443018  0.15345173  0.37753566  1
  O  O49  1  0.00618800  0.34531435  0.87628523  1
  O  O50  1  0.00556982  0.84654827  0.62246434  1
  O  O51  1  0.99381200  0.65468565  0.12371477  1
  O  O52  1  0.05219158  0.91516295  0.32473561  1
  O  O53  1  0.31162775  0.81256572  0.46796694  1
  O  O54  1  0.94891404  0.58415074  0.82596834  1
  O  O55  1  0.05108596  0.41584926  0.17403166  1
  O  O56  1  0.72540139  0.72959793  0.47062318  1
  O  O57  1  0.27420172  0.77037687  0.97083894  1
  O  O58  1  0.27459961  0.27040207  0.52937682  1
  O  O59  1  0.72579928  0.22962313  0.02916106  1
  O  O60  1  0.69884552  0.95098655  0.44810779  1
  O  O61  1  0.30113325  0.54830812  0.94893367  1
  O  O62  1  0.30115448  0.04901345  0.55189221  1
  O  O63  1  0.69886675  0.45169188  0.05106633  1
  O  O64  1  0.46431606  0.21682698  0.88201132  1
  O  O65  1  0.53718745  0.28265283  0.38223527  1
  O  O66  1  0.53568394  0.78317302  0.11798868  1
  O  O67  1  0.46281255  0.71734717  0.61776473  1
  O  O68  1  0.68883181  0.21311898  0.72828757  1
  O  O69  1  0.31134137  0.28754486  0.22823335  1
  O  O70  1  0.31116819  0.78688102  0.27171243  1
  O  O71  1  0.68865863  0.71245514  0.77176665  1
  O  O72  1  0.58395684  0.41966853  0.67208733  1
  O  O73  1  0.41620982  0.08015985  0.17255888  1
  O  O74  1  0.41604316  0.58033147  0.32791267  1
  O  O75  1  0.58379018  0.91984015  0.82744112  1
  O  O76  1  0.25717993  0.26417489  0.72424553  1
  O  O77  1  0.74350189  0.23561428  0.22466711  1
  O  O78  1  0.74282007  0.73582511  0.27575447  1
  O  O79  1  0.25649811  0.76438572  0.77533289  1
  O  O80  1  0.59316612  0.42087955  0.86675908  1
  O  O81  1  0.40484698  0.07946266  0.36674634  1
  O  O82  1  0.40683388  0.57912045  0.13324092  1
  O  O83  1  0.59515302  0.92053734  0.63325366  1
  O  O84  1  0.31113341  0.31164029  0.03127321  1
  O  O85  1  0.68837225  0.18743428  0.53203306  1
  O  O86  1  0.68886659  0.68835971  0.96872679  1
  O  O87  1  0.94780842  0.08483705  0.67526439  1
