# generated using pymatgen
data_LiVBO4
_symmetry_space_group_name_H-M   'P 1'
_cell_length_a   9.08791749
_cell_length_b   9.41504431
_cell_length_c   3.11395339
_cell_angle_alpha   90.00000000
_cell_angle_beta   90.00000000
_cell_angle_gamma   90.00000000
_symmetry_Int_Tables_number   1
_chemical_formula_structural   LiVBO4
_chemical_formula_sum   'Li4 V4 B4 O16'
_cell_volume   266.43964809
_cell_formula_units_Z   4
loop_
 _symmetry_equiv_pos_site_id
 _symmetry_equiv_pos_as_xyz
  1  'x, y, z'
loop_
 _atom_site_type_symbol
 _atom_site_label
 _atom_site_symmetry_multiplicity
 _atom_site_fract_x
 _atom_site_fract_y
 _atom_site_fract_z
 _atom_site_occupancy
  Li  Li0  1  0.12199192  0.06507876  0.75000000  1
  Li  Li1  1  0.37800808  0.56507876  0.25000000  1
  Li  Li2  1  0.62199192  0.43492124  0.75000000  1
  Li  Li3  1  0.87800808  0.93492124  0.25000000  1
  V  V4  1  0.10756923  0.70911419  0.75000000  1
  V  V5  1  0.39243077  0.20911419  0.25000000  1
  V  V6  1  0.60756923  0.79088581  0.75000000  1
  V  V7  1  0.89243077  0.29088581  0.25000000  1
  B  B8  1  0.16504408  0.38543243  0.75000000  1
  B  B9  1  0.33495592  0.88543243  0.25000000  1
  B  B10  1  0.66504408  0.11456757  0.75000000  1
  B  B11  1  0.83495592  0.61456757  0.25000000  1
  O  O12  1  0.02521308  0.86932143  0.75000000  1
  O  O13  1  0.01127679  0.36757274  0.75000000  1
  O  O14  1  0.22564441  0.51547846  0.75000000  1
  O  O15  1  0.24868810  0.25867910  0.75000000  1
  O  O16  1  0.25131190  0.75867910  0.25000000  1
  O  O17  1  0.27435559  0.01547846  0.25000000  1
  O  O18  1  0.48872321  0.86757274  0.25000000  1
  O  O19  1  0.47478692  0.36932143  0.25000000  1
  O  O20  1  0.52521308  0.63067857  0.75000000  1
  O  O21  1  0.51127679  0.13242726  0.75000000  1
  O  O22  1  0.72564441  0.98452154  0.75000000  1
  O  O23  1  0.74868810  0.24132090  0.75000000  1
  O  O24  1  0.75131190  0.74132090  0.25000000  1
  O  O25  1  0.77435559  0.48452154  0.25000000  1
  O  O26  1  0.98872321  0.63242726  0.25000000  1
  O  O27  1  0.97478692  0.13067857  0.25000000  1
