# generated using pymatgen
data_Mn2Hg2O7
_symmetry_space_group_name_H-M   'P 1'
_cell_length_a   7.16362752
_cell_length_b   7.16355466
_cell_length_c   7.16354199
_cell_angle_alpha   59.99278800
_cell_angle_beta   59.99313223
_cell_angle_gamma   59.99314276
_symmetry_Int_Tables_number   1
_chemical_formula_structural   Mn2Hg2O7
_chemical_formula_sum   'Mn4 Hg4 O14'
_cell_volume   259.89962945
_cell_formula_units_Z   2
loop_
 _symmetry_equiv_pos_site_id
 _symmetry_equiv_pos_as_xyz
  1  'x, y, z'
loop_
 _atom_site_type_symbol
 _atom_site_label
 _atom_site_symmetry_multiplicity
 _atom_site_fract_x
 _atom_site_fract_y
 _atom_site_fract_z
 _atom_site_occupancy
  Mn  Mn0  1  0.00000129  -0.00000372  0.00000411  1
  Mn  Mn1  1  0.49999696  0.00000580  0.99999441  1
  Mn  Mn2  1  -0.00000335  0.00000090  0.50000018  1
  Mn  Mn3  1  0.00000951  0.49999591  0.99999788  1
  Hg  Hg4  1  0.49999761  0.99999997  0.50000052  1
  Hg  Hg5  1  0.50000108  0.50000082  0.00000014  1
  Hg  Hg6  1  0.99999929  0.49999877  0.50000196  1
  Hg  Hg7  1  0.49999985  0.50000196  0.49999788  1
  O  O8  1  0.67887238  0.07111388  0.07112138  1
  O  O9  1  0.92891390  0.32111199  0.32110953  1
  O  O10  1  0.07109702  0.07111669  0.67889415  1
  O  O11  1  0.67887635  0.67888968  0.07110385  1
  O  O12  1  0.37496627  0.37499639  0.37500561  1
  O  O13  1  0.67887142  0.07110366  0.67888986  1
  O  O14  1  0.07109902  0.67888660  0.07112516  1
  O  O15  1  0.32112260  0.92889933  0.32110894  1
  O  O16  1  0.92889897  0.92887963  0.32111111  1
  O  O17  1  0.32113071  0.32111157  0.92888983  1
  O  O18  1  0.62503281  0.62500375  0.62499438  1
  O  O19  1  0.92890333  0.32110797  0.92887770  1
  O  O20  1  0.07108619  0.67888984  0.67888785  1
  O  O21  1  0.32112378  0.92888561  0.92888058  1
