# generated using pymatgen
data_Na3Ni2P2(CO7)2
_symmetry_space_group_name_H-M   'P 1'
_cell_length_a   10.15417211
_cell_length_b   10.42541076
_cell_length_c   8.37573821
_cell_angle_alpha   108.28754400
_cell_angle_beta   71.97220602
_cell_angle_gamma   60.47157552
_symmetry_Int_Tables_number   1
_chemical_formula_structural   Na3Ni2P2(CO7)2
_chemical_formula_sum   'Na6 Ni4 P4 C4 O28'
_cell_volume   606.01166841
_cell_formula_units_Z   2
loop_
 _symmetry_equiv_pos_site_id
 _symmetry_equiv_pos_as_xyz
  1  'x, y, z'
loop_
 _atom_site_type_symbol
 _atom_site_label
 _atom_site_symmetry_multiplicity
 _atom_site_fract_x
 _atom_site_fract_y
 _atom_site_fract_z
 _atom_site_occupancy
  Na  Na0  1  0.97226610  0.76734388  0.03904482  1
  Na  Na1  1  0.52773390  0.73265612  0.96095518  1
  Na  Na2  1  0.49681012  0.25522735  0.00216991  1
  Na  Na3  1  0.25573731  0.49029722  0.48606342  1
  Na  Na4  1  0.00318988  0.24477265  0.99783009  1
  Na  Na5  1  0.24426269  0.00970278  0.51393658  1
  Ni  Ni6  1  0.84324602  0.81079607  0.74383371  1
  Ni  Ni7  1  0.65675398  0.68920393  0.25616629  1
  Ni  Ni8  1  0.34617553  0.30900982  0.74549212  1
  Ni  Ni9  1  0.15382447  0.19099018  0.25450788  1
  P  P10  1  0.47543160  0.95156892  0.75189478  1
  P  P11  1  0.97906020  0.44442793  0.74932036  1
  P  P12  1  0.02456840  0.54843108  0.24810522  1
  P  P13  1  0.52093980  0.05557207  0.25067964  1
  C  C14  1  0.94746508  0.97824039  0.74742079  1
  C  C15  1  0.55253492  0.52175961  0.25257921  1
  C  C16  1  0.44183127  0.48345367  0.75243438  1
  C  C17  1  0.05816873  0.01654633  0.24756562  1
  O  O18  1  0.01047278  0.92687969  0.24512428  1
  O  O19  1  0.69906524  0.97534314  0.06240684  1
  O  O20  1  0.97900971  0.59314361  0.74915270  1
  O  O21  1  0.86100473  0.67204821  0.24193170  1
  O  O22  1  0.63899527  0.82795179  0.75806830  1
  O  O23  1  0.52099029  0.90685639  0.25084730  1
  O  O24  1  0.48215085  0.85242228  0.56567145  1
  O  O25  1  0.80093476  0.52465686  0.93759316  1
  O  O26  1  0.99807843  0.32894419  0.56055092  1
  O  O27  1  0.20275013  0.97446869  0.24886936  1
  O  O28  1  0.69545849  0.47822887  0.25453891  1
  O  O29  1  0.46814043  0.66729800  0.25728877  1
  O  O30  1  0.97189190  0.15892345  0.24901367  1
  O  O31  1  0.48952722  0.57312031  0.75487572  1
  O  O32  1  0.50134419  0.43385044  0.24606792  1
  O  O33  1  0.03185957  0.83270200  0.74271123  1
  O  O34  1  0.52810810  0.34107655  0.75098633  1
  O  O35  1  0.29724987  0.52553131  0.75113064  1
  O  O36  1  0.80454151  0.02177113  0.74546109  1
  O  O37  1  0.01784915  0.64757772  0.43432855  1
  O  O38  1  0.20378532  0.47053519  0.06014117  1
  O  O39  1  0.50192157  0.17105581  0.43944908  1
  O  O40  1  0.47187452  0.10292546  0.75889422  1
  O  O41  1  0.35473834  0.18337165  0.24651166  1
  O  O42  1  0.14526166  0.31662835  0.75348834  1
  O  O43  1  0.02812548  0.39707454  0.24110578  1
  O  O44  1  0.29621468  0.02946481  0.93985883  1
  O  O45  1  0.99865581  0.06614956  0.75393208  1
