# generated using pymatgen
data_CaCr2CoO7
_symmetry_space_group_name_H-M   'P 1'
_cell_length_a   6.84246697
_cell_length_b   11.28713997
_cell_length_c   14.64378956
_cell_angle_alpha   90.00000000
_cell_angle_beta   90.00000000
_cell_angle_gamma   99.51034570
_symmetry_Int_Tables_number   1
_chemical_formula_structural   CaCr2CoO7
_chemical_formula_sum   'Ca8 Cr16 Co8 O56'
_cell_volume   1115.42317205
_cell_formula_units_Z   8
loop_
 _symmetry_equiv_pos_site_id
 _symmetry_equiv_pos_as_xyz
  1  'x, y, z'
loop_
 _atom_site_type_symbol
 _atom_site_label
 _atom_site_symmetry_multiplicity
 _atom_site_fract_x
 _atom_site_fract_y
 _atom_site_fract_z
 _atom_site_occupancy
  Ca  Ca0  1  0.07778193  0.72778453  0.50249573  1
  Ca  Ca1  1  0.33022768  0.96219358  0.87987305  1
  Ca  Ca2  1  0.66977232  0.53780642  0.37987305  1
  Ca  Ca3  1  0.66977232  0.03780642  0.12012695  1
  Ca  Ca4  1  0.33022768  0.46219358  0.62012695  1
  Ca  Ca5  1  0.07778193  0.22778453  0.99750427  1
  Ca  Ca6  1  0.92221807  0.27221547  0.49750427  1
  Ca  Ca7  1  0.92221807  0.77221547  0.00249573  1
  Cr  Cr8  1  0.84136734  0.98469667  0.86900691  1
  Cr  Cr9  1  0.42256456  0.68948227  0.01537647  1
  Cr  Cr10  1  0.42256456  0.18948227  0.48462353  1
  Cr  Cr11  1  0.57743544  0.31051773  0.98462353  1
  Cr  Cr12  1  0.50560594  0.78610967  0.70411830  1
  Cr  Cr13  1  0.49439406  0.71389033  0.20411830  1
  Cr  Cr14  1  0.49439406  0.21389033  0.29588170  1
  Cr  Cr15  1  0.50560594  0.28610967  0.79588170  1
  Cr  Cr16  1  0.57743544  0.81051773  0.51537647  1
  Cr  Cr17  1  0.86890321  0.48283249  0.13674330  1
  Cr  Cr18  1  0.13109679  0.01716751  0.63674330  1
  Cr  Cr19  1  0.13109679  0.51716751  0.86325670  1
  Cr  Cr20  1  0.15863266  0.51530333  0.36900691  1
  Cr  Cr21  1  0.84136734  0.48469667  0.63099309  1
  Cr  Cr22  1  0.15863266  0.01530333  0.13099309  1
  Cr  Cr23  1  0.86890321  0.98283249  0.36325670  1
  Co  Co24  1  0.63404836  0.07326812  0.67209079  1
  Co  Co25  1  0.36595164  0.42673188  0.17209079  1
  Co  Co26  1  0.36595164  0.92673188  0.32790921  1
  Co  Co27  1  0.63404836  0.57326812  0.82790921  1
  Co  Co28  1  0.99893300  0.24880828  0.75402523  1
  Co  Co29  1  0.00106700  0.25119172  0.25402523  1
  Co  Co30  1  0.00106700  0.75119172  0.24597477  1
  Co  Co31  1  0.99893300  0.74880828  0.74597477  1
  O  O32  1  0.75895625  0.95634533  0.97746041  1
  O  O33  1  0.24104375  0.54365467  0.47746041  1
  O  O34  1  0.24104375  0.04365467  0.02253959  1
  O  O35  1  0.75895625  0.45634533  0.52253959  1
  O  O36  1  0.99172004  0.87503430  0.85156750  1
  O  O37  1  0.00827996  0.62496570  0.35156750  1
  O  O38  1  0.00827996  0.12496570  0.14843250  1
  O  O39  1  0.99172004  0.37503430  0.64843250  1
  O  O40  1  0.99569196  0.12104288  0.85748784  1
  O  O41  1  0.00430804  0.37895712  0.35748784  1
  O  O42  1  0.00430804  0.87895712  0.14251216  1
  O  O43  1  0.99569196  0.62104288  0.64251216  1
  O  O44  1  0.68529190  0.95566510  0.28843435  1
  O  O45  1  0.31470810  0.54433490  0.78843435  1
  O  O46  1  0.31470810  0.04433490  0.71156565  1
  O  O47  1  0.68529190  0.45566510  0.21156565  1
  O  O48  1  0.96694811  0.12934211  0.36306409  1
  O  O49  1  0.03305189  0.37065789  0.86306409  1
  O  O50  1  0.03305189  0.87065789  0.63693591  1
  O  O51  1  0.96694811  0.62934211  0.13693591  1
  O  O52  1  0.04393757  0.89589562  0.33960336  1
  O  O53  1  0.37891361  0.83017894  0.44162145  1
  O  O54  1  0.95606243  0.60410438  0.83960336  1
  O  O55  1  0.04393757  0.39589562  0.16039664  1
  O  O56  1  0.73158371  0.70960747  0.47916512  1
  O  O57  1  0.26841629  0.79039253  0.97916512  1
  O  O58  1  0.26841629  0.29039253  0.52083488  1
  O  O59  1  0.73158371  0.20960747  0.02083488  1
  O  O60  1  0.77586543  0.95025599  0.46619840  1
  O  O61  1  0.22413457  0.54974401  0.96619840  1
  O  O62  1  0.22413457  0.04974401  0.53380160  1
  O  O63  1  0.77586543  0.45025699  0.03380160  1
  O  O64  1  0.42428704  0.19842819  0.89407778  1
  O  O65  1  0.57571296  0.30157181  0.39407778  1
  O  O66  1  0.57571296  0.80157181  0.10592222  1
  O  O67  1  0.42428704  0.69842819  0.60592222  1
  O  O68  1  0.69365426  0.22037939  0.75102620  1
  O  O69  1  0.30634574  0.27962061  0.25102620  1
  O  O70  1  0.30634574  0.77962061  0.24897380  1
  O  O71  1  0.69365426  0.72037939  0.74897380  1
  O  O72  1  0.63536045  0.46844710  0.70220512  1
  O  O73  1  0.36463955  0.03155290  0.20220512  1
  O  O74  1  0.36463955  0.53155290  0.29779488  1
  O  O75  1  0.63536045  0.96844710  0.79779488  1
  O  O76  1  0.29716505  0.29658362  0.73685178  1
  O  O77  1  0.70283495  0.20341638  0.23685178  1
  O  O78  1  0.70283495  0.70341638  0.26314822  1
  O  O79  1  0.29716505  0.79658362  0.76314822  1
  O  O80  1  0.59583521  0.40486747  0.87651473  1
  O  O81  1  0.40416479  0.09513253  0.37651473  1
  O  O82  1  0.40416479  0.59513253  0.12348527  1
  O  O83  1  0.59583521  0.90486747  0.62348527  1
  O  O84  1  0.37891361  0.33017894  0.05837855  1
  O  O85  1  0.62108639  0.16982106  0.55837855  1
  O  O86  1  0.62108639  0.66982106  0.94162145  1
  O  O87  1  0.95606243  0.10410438  0.66039664  1
