# generated using pymatgen
data_Li3Fe2P2(CO7)2
_symmetry_space_group_name_H-M   'P 1'
_cell_length_a   8.37448017
_cell_length_b   5.12290152
_cell_length_c   6.48248023
_cell_angle_alpha   89.95275506
_cell_angle_beta   90.61385113
_cell_angle_gamma   85.28964306
_symmetry_Int_Tables_number   1
_chemical_formula_structural   Li3Fe2P2(CO7)2
_chemical_formula_sum   'Li3 Fe2 P2 C2 O14'
_cell_volume   277.15340607
_cell_formula_units_Z   1
loop_
 _symmetry_equiv_pos_site_id
 _symmetry_equiv_pos_as_xyz
  1  'x, y, z'
loop_
 _atom_site_type_symbol
 _atom_site_label
 _atom_site_symmetry_multiplicity
 _atom_site_fract_x
 _atom_site_fract_y
 _atom_site_fract_z
 _atom_site_occupancy
  Li  Li0  1  0.10852619  0.77243114  0.25659504  1
  Li  Li1  1  0.71822912  0.75336711  0.96140159  1
  Li  Li2  1  0.90348807  0.24149505  0.74036738  1
  Fe  Fe3  1  0.32962337  0.80281313  0.75004494  1
  Fe  Fe4  1  0.66661845  0.19870587  0.25973067  1
  P  P5  1  0.42229045  0.72163575  0.24624612  1
  P  P6  1  0.57963394  0.27268546  0.75444736  1
  C  C7  1  0.03802805  0.70869291  0.75821729  1
  C  C8  1  0.95634014  0.29675191  0.24289522  1
  O  O9  1  0.07218511  0.95293319  0.75093413  1
  O  O10  1  0.09354384  0.37966284  0.24649007  1
  O  O11  1  0.16050139  0.53712127  0.74258664  1
  O  O12  1  0.30667205  0.79353014  0.06298736  1
  O  O13  1  0.32015489  0.79324602  0.43807615  1
  O  O14  1  0.42535435  0.13262289  0.74660823  1
  O  O15  1  0.47509850  0.42432940  0.24483685  1
  O  O16  1  0.53759382  0.57375286  0.77899789  1
  O  O17  1  0.57956978  0.86193500  0.23156768  1
  O  O18  1  0.68934038  0.21445165  0.56440145  1
  O  O19  1  0.69436567  0.17110961  0.93539300  1
  O  O20  1  0.82922707  0.46631563  0.23229132  1
  O  O21  1  0.89792752  0.63341890  0.78013538  1
  O  O22  1  0.92457284  0.05176127  0.25276026  1
