# generated using pymatgen
data_Li2TiFe2O5
_symmetry_space_group_name_H-M   'P 1'
_cell_length_a   5.13522706
_cell_length_b   5.13225873
_cell_length_c   7.97833623
_cell_angle_alpha   84.26290734
_cell_angle_beta   71.22646686
_cell_angle_gamma   71.90728988
_symmetry_Int_Tables_number   1
_chemical_formula_structural   Li2TiFe2O5
_chemical_formula_sum   'Li4 Ti2 Fe4 O10'
_cell_volume   189.24100118
_cell_formula_units_Z   2
loop_
 _symmetry_equiv_pos_site_id
 _symmetry_equiv_pos_as_xyz
  1  'x, y, z'
loop_
 _atom_site_type_symbol
 _atom_site_label
 _atom_site_symmetry_multiplicity
 _atom_site_fract_x
 _atom_site_fract_y
 _atom_site_fract_z
 _atom_site_occupancy
  Li  Li0  1  0.19946966  0.00022122  0.60122303  1
  Li  Li1  1  0.00568138  0.99883844  0.99506159  1
  Li  Li2  1  0.70074064  0.50026041  0.59869831  1
  Li  Li3  1  0.90069348  0.49889378  0.20499556  1
  Ti  Ti4  1  0.09211277  0.49991096  0.80685319  1
  Ti  Ti5  1  0.79890417  -0.00006001  0.39317028  1
  Fe  Fe6  1  0.60295698  0.00342377  0.79407348  1
  Fe  Fe7  1  0.40667369  0.99633378  0.19180269  1
  Fe  Fe8  1  0.29701557  0.50343326  0.40592498  1
  Fe  Fe9  1  0.49850589  0.49631621  0.00819141  1
  O  O10  1  0.04511737  0.22884016  0.39495142  1
  O  O11  1  0.34008665  0.72881568  0.80504602  1
  O  O12  1  0.45170296  0.24944112  0.59857527  1
  O  O13  1  0.12016483  0.76434096  0.21576837  1
  O  O14  1  0.23599413  0.26428419  0.98424224  1
  O  O15  1  0.86472475  0.26507964  0.79868366  1
  O  O16  1  0.65725504  0.24354160  0.21133722  1
  O  O17  1  0.56334694  0.76508810  0.40130647  1
  O  O18  1  0.95027589  0.74947252  0.60140749  1
  O  O19  1  0.76857721  0.74352521  0.98868633  1
