# generated using pymatgen
data_Li11(NiO4)2
_symmetry_space_group_name_H-M   'P 1'
_cell_length_a   6.56718409
_cell_length_b   6.54887770
_cell_length_c   9.37127924
_cell_angle_alpha   89.99996299
_cell_angle_beta   89.95368246
_cell_angle_gamma   91.47113378
_symmetry_Int_Tables_number   1
_chemical_formula_structural   Li11(NiO4)2
_chemical_formula_sum   'Li22 Ni4 O16'
_cell_volume   402.90405187
_cell_formula_units_Z   2
loop_
 _symmetry_equiv_pos_site_id
 _symmetry_equiv_pos_as_xyz
  1  'x, y, z'
loop_
 _atom_site_type_symbol
 _atom_site_label
 _atom_site_symmetry_multiplicity
 _atom_site_fract_x
 _atom_site_fract_y
 _atom_site_fract_z
 _atom_site_occupancy
  Li  Li0  1  0.05056655  0.54274088  0.37298806  1
  Li  Li1  1  0.03455534  0.54164579  0.87805802  1
  Li  Li2  1  0.02736855  0.97345943  0.37458822  1
  Li  Li3  1  0.27739507  0.26922837  0.34378565  1
  Li  Li4  1  0.24860423  0.25377462  0.09656579  1
  Li  Li5  1  0.22680522  0.23008976  0.84907755  1
  Li  Li6  1  0.25074889  0.24906591  0.59313774  1
  Li  Li7  1  0.48021374  0.52028354  0.87529131  1
  Li  Li8  1  0.45606663  0.94928059  0.37585449  1
  Li  Li9  1  0.46067589  0.96515634  0.87232576  1
  Li  Li10  1  0.53092940  0.03466241  0.12362031  1
  Li  Li11  1  0.52351567  0.47277697  0.13942605  1
  Li  Li12  1  0.53116650  0.03043486  0.62503876  1
  Li  Li13  1  0.52926896  0.47423129  0.61191419  1
  Li  Li14  1  0.75114231  0.74866202  0.15474123  1
  Li  Li15  1  0.73125056  0.72433441  0.40583484  1
  Li  Li16  1  0.74570567  0.75238420  0.65475512  1
  Li  Li17  1  0.76920261  0.77358337  0.90101624  1
  Li  Li18  1  0.97585542  0.02773368  0.10510821  1
  Li  Li19  1  0.97012408  0.02682543  0.64576547  1
  Li  Li20  1  0.97246004  0.47056761  0.12550711  1
  Li  Li21  1  0.96274368  0.46678980  0.62669967  1
  Ni  Ni22  1  0.25023078  0.75128071  0.12242696  1
  Ni  Ni23  1  0.24930843  0.74989281  0.62600714  1
  Ni  Ni24  1  0.74700769  0.25284764  0.37588396  1
  Ni  Ni25  1  0.75553302  0.24544524  0.87620177  1
  O  O26  1  0.00103792  0.25085378  0.47853346  1
  O  O27  1  0.00796707  0.26938230  0.98183977  1
  O  O28  1  0.24759416  0.48329021  0.72560644  1
  O  O29  1  0.25057388  0.01552849  0.22876617  1
  O  O30  1  0.25636132  0.01487066  0.71616654  1
  O  O31  1  0.24528814  0.48955694  0.21930085  1
  O  O32  1  0.48591998  0.24713682  0.97806697  1
  O  O33  1  0.50441344  0.23497242  0.47959578  1
  O  O34  1  0.51949292  0.75124354  0.02452903  1
  O  O35  1  0.50913073  0.75467722  0.52995549  1
  O  O36  1  0.73036003  0.99529703  0.76744105  1
  O  O37  1  0.74816260  0.99811215  0.27236116  1
  O  O38  1  0.76551063  0.49445373  0.27056454  1
  O  O39  1  0.75145198  0.51044363  0.77029504  1
  O  O40  1  0.98244282  0.74460137  0.03416917  1
  O  O41  1  0.98602545  0.74858303  0.52118692  1
