# generated using pymatgen
data_Li3Cr3CoO8
_symmetry_space_group_name_H-M   'P 1'
_cell_length_a   5.09022046
_cell_length_b   5.86035060
_cell_length_c   10.56391007
_cell_angle_alpha   73.79443167
_cell_angle_beta   76.30558757
_cell_angle_gamma   73.42769906
_symmetry_Int_Tables_number   1
_chemical_formula_structural   Li3Cr3CoO8
_chemical_formula_sum   'Li6 Cr6 Co2 O16'
_cell_volume   285.77672005
_cell_formula_units_Z   2
loop_
 _symmetry_equiv_pos_site_id
 _symmetry_equiv_pos_as_xyz
  1  'x, y, z'
loop_
 _atom_site_type_symbol
 _atom_site_label
 _atom_site_symmetry_multiplicity
 _atom_site_fract_x
 _atom_site_fract_y
 _atom_site_fract_z
 _atom_site_occupancy
  Li  Li0  1  -0.00002070  0.12855863  0.25001384  1
  Li  Li1  1  0.00190247  0.25779506  0.49706975  1
  Li  Li2  1  0.00131051  0.62050005  0.25153480  1
  Li  Li3  1  0.00589956  0.86391693  0.74733491  1
  Li  Li4  1  0.99635132  0.99868950  0.00071083  1
  Li  Li5  1  0.99674584  0.38484236  0.75381490  1
  Cr  Cr6  1  0.49996763  0.31497252  0.12619171  1
  Cr  Cr7  1  0.50840142  0.06156820  0.62245648  1
  Cr  Cr8  1  0.50118621  0.93470526  0.37409832  1
  Cr  Cr9  1  0.50442168  0.56216086  0.62137638  1
  Cr  Cr10  1  0.49028326  0.19011535  0.87715442  1
  Cr  Cr11  1  0.49685757  0.68628151  0.87793360  1
  Co  Co12  1  0.49158667  0.44038392  0.37420878  1
  Co  Co13  1  0.50692988  0.80952774  0.12584733  1
  O  O14  1  0.28467448  0.12854437  0.06759846  1
  O  O15  1  0.27253948  0.27679185  0.31180195  1
  O  O16  1  0.28672676  0.66128936  0.06712685  1
  O  O17  1  0.27273286  0.02789134  0.80570840  1
  O  O18  1  0.28863090  0.38572889  0.56016411  1
  O  O19  1  0.29054856  0.77218207  0.29971594  1
  O  O20  1  0.28908243  0.90665001  0.56163354  1
  O  O21  1  0.27768852  0.52943981  0.80432150  1
  O  O22  1  0.70859211  0.48309844  0.19664705  1
  O  O23  1  0.71328536  0.11433218  0.43779681  1
  O  O24  1  0.71350419  0.59122144  0.43405659  1
  O  O25  1  0.72564301  0.96935870  0.18707263  1
  O  O26  1  0.72880902  0.21893242  0.68874096  1
  O  O27  1  0.71952710  0.72972257  0.69201514  1
  O  O28  1  0.71564395  0.34637010  0.93951289  1
  O  O29  1  0.71052094  0.85442658  0.94633514  1
