# generated using pymatgen
data_Li4CrF6
_symmetry_space_group_name_H-M   'P 1'
_cell_length_a   4.96913538
_cell_length_b   4.96018162
_cell_length_c   9.35161654
_cell_angle_alpha   90.00074728
_cell_angle_beta   93.03124958
_cell_angle_gamma   90.00134732
_symmetry_Int_Tables_number   1
_chemical_formula_structural   Li4CrF6
_chemical_formula_sum   'Li8 Cr2 F12'
_cell_volume   230.17440293
_cell_formula_units_Z   2
loop_
 _symmetry_equiv_pos_site_id
 _symmetry_equiv_pos_as_xyz
  1  'x, y, z'
loop_
 _atom_site_type_symbol
 _atom_site_label
 _atom_site_symmetry_multiplicity
 _atom_site_fract_x
 _atom_site_fract_y
 _atom_site_fract_z
 _atom_site_occupancy
  Li  Li0  1  0.01114872  0.01461313  0.64091041  1
  Li  Li1  1  0.00313910  0.48529058  0.24863840  1
  Li  Li2  1  0.48889130  0.51443968  0.85911905  1
  Li  Li3  1  0.50319252  0.01472376  0.74867354  1
  Li  Li4  1  0.49677026  0.98527795  0.25137327  1
  Li  Li5  1  0.51125673  0.48538409  0.14093315  1
  Li  Li6  1  0.99676738  0.51472623  0.75135282  1
  Li  Li7  1  0.98874375  0.98555846  0.35908961  1
  Cr  Cr8  1  0.00039170  0.99985711  -0.00006660  1
  Cr  Cr9  1  0.50006648  0.49998226  0.49984549  1
  F  F10  1  0.21478539  0.22263434  0.81167117  1
  F  F11  1  0.20758027  0.19840066  0.16994744  1
  F  F12  1  0.21022896  0.20657433  0.49424466  1
  F  F13  1  0.28992003  0.70599866  0.00572875  1
  F  F14  1  0.28502158  0.72272634  0.68839628  1
  F  F15  1  0.29227450  0.69858152  0.33006302  1
  F  F16  1  0.70742874  0.30167616  0.66979888  1
  F  F17  1  0.71473325  0.27741709  0.31161810  1
  F  F18  1  0.71058605  0.29334738  0.99434897  1
  F  F19  1  0.78957229  0.79394435  0.50563868  1
  F  F20  1  0.79246512  0.80151129  0.83020701  1
  F  F21  1  0.78503687  0.77733262  0.18845592  1
