# generated using pymatgen
data_Li2TiFe2O5
_symmetry_space_group_name_H-M   'P 1'
_cell_length_a   5.18785691
_cell_length_b   7.97385651
_cell_length_c   5.18978334
_cell_angle_alpha   70.79278633
_cell_angle_beta   109.36890682
_cell_angle_gamma   96.08676698
_symmetry_Int_Tables_number   1
_chemical_formula_structural   Li2TiFe2O5
_chemical_formula_sum   'Li4 Ti2 Fe4 O10'
_cell_volume   191.26093069
_cell_formula_units_Z   2
loop_
 _symmetry_equiv_pos_site_id
 _symmetry_equiv_pos_as_xyz
  1  'x, y, z'
loop_
 _atom_site_type_symbol
 _atom_site_label
 _atom_site_symmetry_multiplicity
 _atom_site_fract_x
 _atom_site_fract_y
 _atom_site_fract_z
 _atom_site_occupancy
  Li  Li0  1  0.49991383  0.19767238  0.90190469  1
  Li  Li1  1  0.49759639  0.00462386  0.49885132  1
  Li  Li2  1  -0.00021400  0.19838962  0.39979465  1
  Li  Li3  1  -0.00083289  0.59161353  0.20487776  1
  Ti  Ti4  1  0.49703343  0.38582285  0.31130084  1
  Ti  Ti5  1  0.99986329  0.00553167  0.99320248  1
  Fe  Fe6  1  0.50115982  0.60406518  0.69703485  1
  Fe  Fe7  1  0.00228302  0.39328266  0.80500255  1
  Fe  Fe8  1  0.99629623  0.80144447  0.59871193  1
  Fe  Fe9  1  0.50067784  0.80556068  0.09784669  1
  O  O10  1  0.76995637  0.81958560  0.85085394  1
  O  O11  1  0.26242483  0.58753629  0.97617577  1
  O  O12  1  0.74534836  0.20003196  0.64161013  1
  O  O13  1  0.74123429  0.58419310  0.44133569  1
  O  O14  1  0.23821730  0.81248133  0.34233886  1
  O  O15  1  0.22694100  0.00428287  0.77200334  1
  O  O16  1  0.26597378  0.39736537  0.53247287  1
  O  O17  1  0.77121165  0.00266701  0.22082514  1
  O  O18  1  0.72815762  0.40399358  0.05605886  1
  O  O19  1  0.25675783  0.19985401  0.15779763  1
