# generated using pymatgen
data_Li14Mn2O9
_symmetry_space_group_name_H-M   'P 1'
_cell_length_a   5.91665638
_cell_length_b   5.91668425
_cell_length_c   8.13279975
_cell_angle_alpha   89.99993185
_cell_angle_beta   89.99984956
_cell_angle_gamma   120.00045301
_symmetry_Int_Tables_number   1
_chemical_formula_structural   Li14Mn2O9
_chemical_formula_sum   'Li14 Mn2 O9'
_cell_volume   246.56048122
_cell_formula_units_Z   1
loop_
 _symmetry_equiv_pos_site_id
 _symmetry_equiv_pos_as_xyz
  1  'x, y, z'
loop_
 _atom_site_type_symbol
 _atom_site_label
 _atom_site_symmetry_multiplicity
 _atom_site_fract_x
 _atom_site_fract_y
 _atom_site_fract_z
 _atom_site_occupancy
  Li  Li0  1  0.06499668  0.70560525  0.90446395  1
  Li  Li1  1  0.31113985  0.93795418  0.58523099  1
  Li  Li2  1  0.06203721  0.37320229  0.58523547  1
  Li  Li3  1  0.99999640  0.00000575  0.26030592  1
  Li  Li4  1  0.99999393  -0.00000077  0.73969558  1
  Li  Li5  1  0.29439436  0.35939705  0.90447083  1
  Li  Li6  1  0.64058335  0.93498529  0.90446493  1
  Li  Li7  1  0.37318959  0.31115610  0.41476626  1
  Li  Li8  1  0.62679304  0.68884649  0.58523375  1
  Li  Li9  1  0.35938895  0.06500271  0.09552774  1
  Li  Li10  1  0.70560798  0.64059636  0.09553973  1
  Li  Li11  1  0.93794119  0.62679812  0.41476503  1
  Li  Li12  1  0.68883509  0.06204445  0.41476419  1
  Li  Li13  1  0.93499322  0.29440529  0.09553093  1
  Mn  Mn14  1  0.33332889  0.66668238  0.25220253  1
  Mn  Mn15  1  0.66665677  0.33332535  0.74780587  1
  O  O16  1  0.30994815  0.97907608  0.34143639  1
  O  O17  1  0.02091906  0.33088862  0.34143595  1
  O  O18  1  0.33331741  0.66665796  0.00459862  1
  O  O19  1  0.00000329  0.99999375  0.00000184  1
  O  O20  1  0.33087223  0.30995095  0.65856109  1
  O  O21  1  0.66911011  0.69005355  0.34143839  1
  O  O22  1  0.66665917  0.33333325  0.99540216  1
  O  O23  1  0.97905807  0.66911440  0.65855971  1
  O  O24  1  0.69003603  0.02092515  0.65856316  1
