# generated using pymatgen
data_Li3Co(CuO2)4
_symmetry_space_group_name_H-M   'P 1'
_cell_length_a   6.18605666
_cell_length_b   6.18605679
_cell_length_c   6.03372292
_cell_angle_alpha   80.83556127
_cell_angle_beta   53.96492473
_cell_angle_gamma   54.44018272
_symmetry_Int_Tables_number   1
_chemical_formula_structural   Li3Co(CuO2)4
_chemical_formula_sum   'Li3 Co1 Cu4 O8'
_cell_volume   145.90853721
_cell_formula_units_Z   1
loop_
 _symmetry_equiv_pos_site_id
 _symmetry_equiv_pos_as_xyz
  1  'x, y, z'
loop_
 _atom_site_type_symbol
 _atom_site_label
 _atom_site_symmetry_multiplicity
 _atom_site_fract_x
 _atom_site_fract_y
 _atom_site_fract_z
 _atom_site_occupancy
  Li  Li0  1  0.00000000  0.00000000  0.50000000  1
  Li  Li1  1  0.50000000  0.00000000  0.50000000  1
  Li  Li2  1  0.50000000  0.50000000  0.50000000  1
  Co  Co3  1  0.50000000  0.50000000  0.00000000  1
  Cu  Cu4  1  0.00000000  0.50000000  0.50000000  1
  Cu  Cu5  1  0.00000000  0.00000000  0.00000000  1
  Cu  Cu6  1  0.50000000  0.00000000  0.00000000  1
  Cu  Cu7  1  0.00000000  0.50000000  0.00000000  1
  O  O8  1  0.46747037  0.29472362  0.82725325  1
  O  O9  1  0.98524076  0.24287211  0.71825503  1
  O  O10  1  0.52461708  0.70349579  0.71825503  1
  O  O11  1  0.96452630  0.79402397  0.82949767  1
  O  O12  1  0.03547370  0.20597603  0.17050233  1
  O  O13  1  0.47538292  0.29650421  0.28174497  1
  O  O14  1  0.01475924  0.75712789  0.28174497  1
  O  O15  1  0.53252963  0.70527638  0.17274675  1
