# generated using pymatgen
data_Li4Ti3Mn3(FeO8)2
_symmetry_space_group_name_H-M   'P 1'
_cell_length_a   5.93935358
_cell_length_b   5.99450960
_cell_length_c   9.59183423
_cell_angle_alpha   89.47428191
_cell_angle_beta   90.43019068
_cell_angle_gamma   120.88613973
_symmetry_Int_Tables_number   1
_chemical_formula_structural   Li4Ti3Mn3(FeO8)2
_chemical_formula_sum   'Li4 Ti3 Mn3 Fe2 O16'
_cell_volume   293.06024885
_cell_formula_units_Z   1
loop_
 _symmetry_equiv_pos_site_id
 _symmetry_equiv_pos_as_xyz
  1  'x, y, z'
loop_
 _atom_site_type_symbol
 _atom_site_label
 _atom_site_symmetry_multiplicity
 _atom_site_fract_x
 _atom_site_fract_y
 _atom_site_fract_z
 _atom_site_occupancy
  Li  Li0  1  0.34124364  0.67352349  0.89025061  1
  Li  Li1  1  0.00041489  0.99803374  0.99544696  1
  Li  Li2  1  0.98911391  0.99414426  0.49671907  1
  Li  Li3  1  0.66157808  0.33268911  0.39528553  1
  Ti  Ti4  1  0.17114882  0.83128492  0.21632778  1
  Ti  Ti5  1  0.17331483  0.34074287  0.21566941  1
  Ti  Ti6  1  0.33999573  0.16809597  0.71406562  1
  Mn  Mn7  1  0.66216639  0.83302701  0.21215098  1
  Mn  Mn8  1  0.82794190  0.65899659  0.71379199  1
  Mn  Mn9  1  0.83299319  0.17292945  0.71559630  1
  Fe  Fe10  1  0.33345542  0.66416419  0.49259937  1
  Fe  Fe11  1  0.68033136  0.34202477  0.98966950  1
  O  O12  1  0.15867775  0.83537579  0.60203154  1
  O  O13  1  0.03176127  0.51223687  0.33178484  1
  O  O14  1  0.34085129  0.67220301  0.10606032  1
  O  O15  1  0.99212079  0.99515842  0.30876972  1
  O  O16  1  0.00350450  0.98332402  0.81027301  1
  O  O17  1  0.15506412  0.32025447  0.60353233  1
  O  O18  1  0.46135656  0.95918874  0.34558736  1
  O  O19  1  0.46519778  0.50682012  0.34104621  1
  O  O20  1  0.33294637  0.16796491  0.10458150  1
  O  O21  1  0.66972581  0.82050785  0.60155050  1
  O  O22  1  0.51835990  0.47911052  0.83583709  1
  O  O23  1  0.52511944  0.04389894  0.83508160  1
  O  O24  1  0.65519667  0.34538357  0.60301235  1
  O  O25  1  0.85669115  0.67321095  0.09835767  1
  O  O26  1  0.96615605  0.49905485  0.83672238  1
  O  O27  1  0.85357037  0.17695061  0.09603745  1
