# generated using pymatgen
data_LiMnV(PO4)3
_symmetry_space_group_name_H-M   'P 1'
_cell_length_a   8.85337078
_cell_length_b   8.28784580
_cell_length_c   8.39890903
_cell_angle_alpha   59.43059833
_cell_angle_beta   64.13629591
_cell_angle_gamma   90.36890398
_symmetry_Int_Tables_number   1
_chemical_formula_structural   LiMnV(PO4)3
_chemical_formula_sum   'Li2 Mn2 V2 P6 O24'
_cell_volume   456.27024631
_cell_formula_units_Z   2
loop_
 _symmetry_equiv_pos_site_id
 _symmetry_equiv_pos_as_xyz
  1  'x, y, z'
loop_
 _atom_site_type_symbol
 _atom_site_label
 _atom_site_symmetry_multiplicity
 _atom_site_fract_x
 _atom_site_fract_y
 _atom_site_fract_z
 _atom_site_occupancy
  Li  Li0  1  0.12350556  0.31323937  0.94721302  1
  Li  Li1  1  0.87649444  0.68676063  0.05278698  1
  Mn  Mn2  1  0.56598219  0.86365256  0.28946778  1
  Mn  Mn3  1  0.43401781  0.13634744  0.71053222  1
  V  V4  1  0.05234984  0.34719246  0.30934189  1
  V  V5  1  0.94765016  0.65280754  0.69065811  1
  P  P6  1  0.24832133  0.04032164  0.22012992  1
  P  P7  1  0.25439870  0.46960564  0.50186596  1
  P  P8  1  0.24739791  0.75078759  0.79379627  1
  P  P9  1  0.75260209  0.24921241  0.20620373  1
  P  P10  1  0.74560130  0.53039436  0.49813404  1
  P  P11  1  0.75167867  0.95967836  0.77987008  1
  O  O12  1  0.10520212  0.83441146  0.39733795  1
  O  O13  1  0.25066848  0.12583037  0.01166041  1
  O  O14  1  0.18711979  0.18000828  0.29857763  1
  O  O15  1  0.17814475  0.47358336  0.36139282  1
  O  O16  1  0.11049368  0.48820699  0.68193460  1
  O  O17  1  0.08683721  0.77266333  0.75502461  1
  O  O18  1  0.42475223  0.02622935  0.20117088  1
  O  O19  1  0.27456539  0.26727536  0.62207895  1
  O  O20  1  0.42361376  0.63565744  0.35207828  1
  O  O21  1  0.18215478  0.53278751  0.00291325  1
  O  O22  1  0.26170330  0.89058650  0.85722283  1
  O  O23  1  0.41056242  0.77187803  0.61288699  1
  O  O24  1  0.58943758  0.22812197  0.38711301  1
  O  O25  1  0.73829670  0.10941350  0.14277717  1
  O  O26  1  0.81784522  0.46721249  0.99708675  1
  O  O27  1  0.57638624  0.36434256  0.64792172  1
  O  O28  1  0.72543461  0.73272464  0.37792105  1
  O  O29  1  0.57524777  0.97377065  0.79882912  1
  O  O30  1  0.91316279  0.22733667  0.24497539  1
  O  O31  1  0.88950632  0.51179301  0.31806540  1
  O  O32  1  0.82185525  0.52641664  0.63860718  1
  O  O33  1  0.81288021  0.81999172  0.70142237  1
  O  O34  1  0.74933152  0.87416963  0.98833959  1
  O  O35  1  0.89479788  0.16558854  0.60266205  1
