# generated using pymatgen
data_Li4Mn3Ni3(SbO8)2
_symmetry_space_group_name_H-M   'P 1'
_cell_length_a   5.92434952
_cell_length_b   5.89009511
_cell_length_c   9.60297825
_cell_angle_alpha   89.93473648
_cell_angle_beta   91.20662843
_cell_angle_gamma   119.86170009
_symmetry_Int_Tables_number   1
_chemical_formula_structural   Li4Mn3Ni3(SbO8)2
_chemical_formula_sum   'Li4 Mn3 Ni3 Sb2 O16'
_cell_volume   290.52369546
_cell_formula_units_Z   1
loop_
 _symmetry_equiv_pos_site_id
 _symmetry_equiv_pos_as_xyz
  1  'x, y, z'
loop_
 _atom_site_type_symbol
 _atom_site_label
 _atom_site_symmetry_multiplicity
 _atom_site_fract_x
 _atom_site_fract_y
 _atom_site_fract_z
 _atom_site_occupancy
  Li  Li0  1  0.32093340  0.66048854  0.89827224  1
  Li  Li1  1  0.99798268  0.99907239  0.98668841  1
  Li  Li2  1  0.00380366  0.00181871  0.49314680  1
  Li  Li3  1  0.65672883  0.32864831  0.40631134  1
  Mn  Mn4  1  0.17127806  0.83150904  0.21384613  1
  Mn  Mn5  1  0.17072993  0.33924346  0.21343644  1
  Mn  Mn6  1  0.34377249  0.17164896  0.71531213  1
  Ni  Ni7  1  0.66026716  0.83004478  0.21374465  1
  Ni  Ni8  1  0.83140106  0.66152184  0.71230880  1
  Ni  Ni9  1  0.83137096  0.16983463  0.71236064  1
  Sb  Sb10  1  0.34263592  0.67104733  0.49053125  1
  Sb  Sb11  1  0.67822958  0.33870443  0.98445712  1
  O  O12  1  0.17953931  0.84366894  0.59653094  1
  O  O13  1  0.03340603  0.51866346  0.34201085  1
  O  O14  1  0.31049866  0.65569428  0.10990168  1
  O  O15  1  0.01805985  0.00856516  0.30376094  1
  O  O16  1  0.01591839  0.00793867  0.80093120  1
  O  O17  1  0.17921188  0.33574342  0.59654838  1
  O  O18  1  0.46856552  0.96213544  0.34391082  1
  O  O19  1  0.46934116  0.50740261  0.34451764  1
  O  O20  1  0.33708330  0.16701150  0.10026621  1
  O  O21  1  0.67974537  0.84006353  0.58875527  1
  O  O22  1  0.50124672  0.46969454  0.84618772  1
  O  O23  1  0.50105449  0.03146757  0.84594513  1
  O  O24  1  0.65011782  0.32506914  0.60975693  1
  O  O25  1  0.84338633  0.67355615  0.09566848  1
  O  O26  1  0.96105032  0.48059414  0.84736397  1
  O  O27  1  0.84264213  0.16945001  0.09536888  1
