# generated using pymatgen
data_Li6Cr3Fe(PO4)6
_symmetry_space_group_name_H-M   'P 1'
_cell_length_a   8.53711141
_cell_length_b   8.57713443
_cell_length_c   8.57675290
_cell_angle_alpha   61.57418994
_cell_angle_beta   61.56032453
_cell_angle_gamma   61.54343925
_symmetry_Int_Tables_number   1
_chemical_formula_structural   Li6Cr3Fe(PO4)6
_chemical_formula_sum   'Li6 Cr3 Fe1 P6 O24'
_cell_volume   459.61730001
_cell_formula_units_Z   1
loop_
 _symmetry_equiv_pos_site_id
 _symmetry_equiv_pos_as_xyz
  1  'x, y, z'
loop_
 _atom_site_type_symbol
 _atom_site_label
 _atom_site_symmetry_multiplicity
 _atom_site_fract_x
 _atom_site_fract_y
 _atom_site_fract_z
 _atom_site_occupancy
  Li  Li0  1  0.02647126  0.00349148  0.99528162  1
  Li  Li1  1  0.75001387  0.14797916  0.35114809  1
  Li  Li2  1  0.47262375  0.50447182  0.49605092  1
  Li  Li3  1  0.24998652  0.85014187  0.65434334  1
  Li  Li4  1  0.65541273  0.24988674  0.84631412  1
  Li  Li5  1  0.84914964  0.65765091  0.24816100  1
  Cr  Cr6  1  0.14151159  0.14543338  0.13872990  1
  Cr  Cr7  1  0.35917379  0.36145949  0.35531564  1
  Cr  Cr8  1  0.64383046  0.64535498  0.64489797  1
  Fe  Fe9  1  0.85314957  0.85161438  0.85176072  1
  P  P10  1  0.04880594  0.75084712  0.44818218  1
  P  P11  1  0.44892949  0.04954058  0.74955394  1
  P  P12  1  0.75012160  0.45235868  0.04560626  1
  P  P13  1  0.25074722  0.54137121  0.95975738  1
  P  P14  1  0.54296741  0.96320742  0.25122945  1
  P  P15  1  0.95806444  0.25041990  0.53754345  1
  O  O16  1  0.13041463  0.28994327  0.49823125  1
  O  O17  1  0.29851280  0.51328039  0.12227569  1
  O  O18  1  0.04782916  0.92226367  0.26576924  1
  O  O19  1  0.53139938  0.12224474  0.29657437  1
  O  O20  1  0.23898672  0.59257603  0.42976567  1
  O  O21  1  0.01528010  0.80828542  0.61069544  1
  O  O22  1  0.25844353  0.07226491  0.90677885  1
  O  O23  1  0.45411797  0.23176896  0.57786036  1
  O  O24  1  0.59302058  0.43249915  0.23970754  1
  O  O25  1  0.20222807  0.37926231  0.98761614  1
  O  O26  1  0.09024786  0.73645972  0.93261426  1
  O  O27  1  0.37102438  0.00291009  0.21058930  1
  O  O28  1  0.61068308  0.01228546  0.81120689  1
  O  O29  1  0.90636985  0.25793953  0.06939503  1
  O  O30  1  0.81122645  0.61071463  0.01297578  1
  O  O31  1  0.41286727  0.56491999  0.76504525  1
  O  O32  1  0.56335003  0.76952654  0.41323625  1
  O  O33  1  0.73445740  0.93229107  0.08872646  1
  O  O34  1  0.96955054  0.20472417  0.37862087  1
  O  O35  1  0.76673117  0.41461574  0.56507428  1
  O  O36  1  0.47936122  0.88759447  0.69411408  1
  O  O37  1  0.93402966  0.09008786  0.73153708  1
  O  O38  1  0.69180746  0.48313423  0.88676232  1
  O  O39  1  0.88710138  0.69217754  0.48195263  1
