# generated using pymatgen
data_Li5Mn2P2(CO7)2
_symmetry_space_group_name_H-M   'P 1'
_cell_length_a   8.52570913
_cell_length_b   10.08072916
_cell_length_c   6.48286667
_cell_angle_alpha   90.04720503
_cell_angle_beta   89.62895617
_cell_angle_gamma   86.02533548
_symmetry_Int_Tables_number   1
_chemical_formula_structural   Li5Mn2P2(CO7)2
_chemical_formula_sum   'Li10 Mn4 P4 C4 O28'
_cell_volume   555.82012008
_cell_formula_units_Z   2
loop_
 _symmetry_equiv_pos_site_id
 _symmetry_equiv_pos_as_xyz
  1  'x, y, z'
loop_
 _atom_site_type_symbol
 _atom_site_label
 _atom_site_symmetry_multiplicity
 _atom_site_fract_x
 _atom_site_fract_y
 _atom_site_fract_z
 _atom_site_occupancy
  Li  Li0  1  0.09112034  0.37880994  0.24840606  1
  Li  Li1  1  0.26304678  0.12074898  0.02794447  1
  Li  Li2  1  0.26427889  0.12118629  0.47186397  1
  Li  Li3  1  0.26689219  0.63313905  0.02868769  1
  Li  Li4  1  0.26449071  0.63247444  0.47217610  1
  Li  Li5  1  0.72591802  0.37524649  0.54313245  1
  Li  Li6  1  0.73656655  0.87411425  0.51570516  1
  Li  Li7  1  0.73682579  0.87238630  0.98162414  1
  Li  Li8  1  0.90119468  0.11845730  0.75485553  1
  Li  Li9  1  0.89981040  0.61308926  0.75810623  1
  Mn  Mn10  1  0.33953969  0.39460704  0.75262934  1
  Mn  Mn11  1  0.33942851  0.89508368  0.74848113  1
  Mn  Mn12  1  0.66613866  0.10876970  0.24722043  1
  Mn  Mn13  1  0.67011503  0.59585462  0.24629570  1
  P  P14  1  0.41240481  0.36394157  0.25614946  1
  P  P15  1  0.41819813  0.86348780  0.24871223  1
  P  P16  1  0.58394699  0.13852272  0.74437031  1
  P  P17  1  0.58598759  0.64384867  0.74795573  1
  C  C18  1  0.03845074  0.35077097  0.74313976  1
  C  C19  1  0.03737442  0.85407998  0.74938791  1
  C  C20  1  0.96083980  0.14256142  0.25500184  1
  C  C21  1  0.96472458  0.64189764  0.25357293  1
  O  O22  1  0.06888823  0.47502416  0.75234048  1
  O  O23  1  0.10457941  0.18017268  0.25265909  1
  O  O24  1  0.06803225  0.97725759  0.74958537  1
  O  O25  1  0.15870002  0.26086741  0.75996857  1
  O  O26  1  0.10542722  0.67530192  0.25000201  1
  O  O27  1  0.15613351  0.76315440  0.74900140  1
  O  O28  1  0.31640973  0.41825285  0.06700219  1
  O  O29  1  0.30232916  0.41378659  0.43773899  1
  O  O30  1  0.32492303  0.91788776  0.05908095  1
  O  O31  1  0.32477137  0.92018396  0.43845694  1
  O  O32  1  0.41646064  0.08733933  0.75152467  1
  O  O33  1  0.43082419  0.20911826  0.25115996  1
  O  O34  1  0.41938842  0.59171690  0.75079460  1
  O  O35  1  0.43184313  0.70841747  0.25083057  1
  O  O36  1  0.56384641  0.29107293  0.72604592  1
  O  O37  1  0.57666263  0.41723648  0.27254683  1
  O  O38  1  0.56912551  0.79850489  0.73573561  1
  O  O39  1  0.58861487  0.91199899  0.24514978  1
  O  O40  1  0.68619199  0.08935049  0.93161146  1
  O  O41  1  0.68619692  0.07891065  0.56178118  1
  O  O42  1  0.68936116  0.58693733  0.56447987  1
  O  O43  1  0.68833609  0.60172284  0.93600114  1
  O  O44  1  0.84583251  0.23667423  0.26896946  1
  O  O45  1  0.90109142  0.31156000  0.71713621  1
  O  O46  1  0.84337293  0.73194845  0.25103763  1
  O  O47  1  0.92561329  0.02257610  0.24185393  1
  O  O48  1  0.89534468  0.81593096  0.74959445  1
  O  O49  1  0.92818300  0.51917725  0.25867517  1
