# generated using pymatgen
data_Li3Fe2P2(CO7)2
_symmetry_space_group_name_H-M   'P 1'
_cell_length_a   9.44350287
_cell_length_b   10.26536532
_cell_length_c   6.47815169
_cell_angle_alpha   90.00000000
_cell_angle_beta   90.00000000
_cell_angle_gamma   62.00886212
_symmetry_Int_Tables_number   1
_chemical_formula_structural   Li3Fe2P2(CO7)2
_chemical_formula_sum   'Li6 Fe4 P4 C4 O28'
_cell_volume   554.53540105
_cell_formula_units_Z   2
loop_
 _symmetry_equiv_pos_site_id
 _symmetry_equiv_pos_as_xyz
  1  'x, y, z'
loop_
 _atom_site_type_symbol
 _atom_site_label
 _atom_site_symmetry_multiplicity
 _atom_site_fract_x
 _atom_site_fract_y
 _atom_site_fract_z
 _atom_site_occupancy
  Li  Li0  1  0.89340233  0.43756170  0.74971828  1
  Li  Li1  1  0.89883428  0.93314169  0.75388435  1
  Li  Li2  1  0.71742118  0.76627047  0.53627585  1
  Li  Li3  1  0.28257882  0.23372953  0.03627585  1
  Li  Li4  1  0.10116572  0.06685831  0.25388435  1
  Li  Li5  1  0.10659767  0.56243830  0.24971828  1
  Fe  Fe6  1  0.67000017  0.06836956  0.24720508  1
  Fe  Fe7  1  0.66569214  0.56358873  0.24476266  1
  Fe  Fe8  1  0.33430786  0.43641127  0.74476266  1
  Fe  Fe9  1  0.32999983  0.93163044  0.74720508  1
  P  P10  1  0.57869296  0.07005608  0.75155165  1
  P  P11  1  0.57826118  0.57659925  0.74927476  1
  P  P12  1  0.42173982  0.42340075  0.24927476  1
  P  P13  1  0.42130704  0.92994392  0.25155165  1
  C  C14  1  0.96094785  0.37477672  0.24280962  1
  C  C15  1  0.95786775  0.87133668  0.25552387  1
  C  C16  1  0.04213225  0.12866332  0.75552387  1
  C  C17  1  0.03905215  0.62522328  0.74280962  1
  O  O18  1  0.92632692  0.00904555  0.24607973  1
  O  O19  1  0.92719227  0.51339855  0.25134353  1
  O  O20  1  0.90517870  0.23829410  0.75182774  1
  O  O21  1  0.83801940  0.35026511  0.25809321  1
  O  O22  1  0.89854382  0.73242053  0.71829584  1
  O  O23  1  0.83096424  0.85031948  0.26770222  1
  O  O24  1  0.69480241  0.04140759  0.93579222  1
  O  O25  1  0.68410039  0.05721298  0.56172458  1
  O  O26  1  0.68810577  0.55607762  0.93782680  1
  O  O27  1  0.68999957  0.56639161  0.56472768  1
  O  O28  1  0.57762423  0.27621778  0.24846539  1
  O  O29  1  0.52872044  0.45315467  0.74106184  1
  O  O30  1  0.57677747  0.78228795  0.27470890  1
  O  O31  1  0.53200265  0.94284839  0.73333220  1
  O  O32  1  0.46799735  0.05715161  0.23333220  1
  O  O33  1  0.42322253  0.21771205  0.77470890  1
  O  O34  1  0.47127956  0.54684533  0.24106184  1
  O  O35  1  0.42237577  0.72378222  0.74846539  1
  O  O36  1  0.31189423  0.44392238  0.43782680  1
  O  O37  1  0.31000043  0.43360839  0.06472768  1
  O  O38  1  0.31589961  0.94278702  0.06172458  1
  O  O39  1  0.30519759  0.95859241  0.43579222  1
  O  O40  1  0.16903576  0.14968052  0.76770222  1
  O  O41  1  0.10145618  0.26757947  0.21829584  1
  O  O42  1  0.16198060  0.64973489  0.75809321  1
  O  O43  1  0.09482130  0.76170590  0.25182774  1
  O  O44  1  0.07280773  0.48660145  0.75134353  1
  O  O45  1  0.07367308  0.99095445  0.74607973  1
