# generated using pymatgen
data_Tb2(WO4)3
_symmetry_space_group_name_H-M   'P 1'
_cell_length_a   10.51632532
_cell_length_b   10.55710262
_cell_length_c   10.80770027
_cell_angle_alpha   90.00000000
_cell_angle_beta   90.00000000
_cell_angle_gamma   90.00000000
_symmetry_Int_Tables_number   1
_chemical_formula_structural   Tb2(WO4)3
_chemical_formula_sum   'Tb8 W12 O48'
_cell_volume   1199.89169516
_cell_formula_units_Z   4
loop_
 _symmetry_equiv_pos_site_id
 _symmetry_equiv_pos_as_xyz
  1  'x, y, z'
loop_
 _atom_site_type_symbol
 _atom_site_label
 _atom_site_symmetry_multiplicity
 _atom_site_fract_x
 _atom_site_fract_y
 _atom_site_fract_z
 _atom_site_occupancy
  Tb  Tb0  1  0.00664526  0.81193986  0.26280515  1
  Tb  Tb1  1  0.18820074  0.49625765  0.73783169  1
  Tb  Tb2  1  0.31179926  0.99625765  0.73783169  1
  Tb  Tb3  1  0.49335474  0.31193986  0.26280515  1
  Tb  Tb4  1  0.50664526  0.68806014  0.26280515  1
  Tb  Tb5  1  0.68820074  0.00374235  0.73783169  1
  Tb  Tb6  1  0.81179926  0.50374235  0.73783169  1
  Tb  Tb7  1  0.99335474  0.18806014  0.26280515  1
  W  W8  1  0.00269518  0.20614720  0.64316956  1
  W  W9  1  0.20530271  0.48883412  0.35737129  1
  W  W10  1  0.24202185  0.24378761  0.99960235  1
  W  W11  1  0.25797815  0.74378761  0.99960235  1
  W  W12  1  0.29469729  0.98883412  0.35737129  1
  W  W13  1  0.49730482  0.70614720  0.64316956  1
  W  W14  1  0.50269518  0.29385280  0.64316956  1
  W  W15  1  0.70530271  0.01116588  0.35737129  1
  W  W16  1  0.74202185  0.25621239  0.99960235  1
  W  W17  1  0.75797815  0.75621239  0.99960235  1
  W  W18  1  0.79469729  0.51116588  0.35737129  1
  W  W19  1  0.99730482  0.79385280  0.64316956  1
  O  O20  1  0.00625937  0.62626817  0.69104106  1
  O  O21  1  0.02238716  0.80561957  0.47822718  1
  O  O22  1  0.11321153  0.61679889  0.29159267  1
  O  O23  1  0.11971261  0.88439140  0.72051894  1
  O  O24  1  0.12096842  0.17062382  0.09482805  1
  O  O25  1  0.12660917  0.00562543  0.31036527  1
  O  O26  1  0.14312920  0.81971778  0.10032688  1
  O  O27  1  0.15363190  0.33444855  0.30574047  1
  O  O28  1  0.16067002  0.15239796  0.68202097  1
  O  O29  1  0.16824700  0.35931309  0.89887694  1
  O  O30  1  0.18201795  0.62454162  0.90444675  1
  O  O31  1  0.19288480  0.49059319  0.52347978  1
  O  O32  1  0.30711520  0.99059319  0.52347978  1
  O  O33  1  0.31798205  0.12454162  0.90444675  1
  O  O34  1  0.33175300  0.85931309  0.89887694  1
  O  O35  1  0.33932998  0.65239696  0.68202097  1
  O  O36  1  0.34636810  0.83444855  0.30574047  1
  O  O37  1  0.35687080  0.31971778  0.10032688  1
  O  O38  1  0.37339083  0.50562543  0.31036527  1
  O  O39  1  0.37903158  0.67062382  0.09482805  1
  O  O40  1  0.38028739  0.38439140  0.72051894  1
  O  O41  1  0.38678847  0.11679889  0.29159267  1
  O  O42  1  0.47761284  0.30561957  0.47822718  1
  O  O43  1  0.49374063  0.12626817  0.69104106  1
  O  O44  1  0.50625937  0.87373183  0.69104106  1
  O  O45  1  0.52238716  0.69438043  0.47822718  1
  O  O46  1  0.61321153  0.88320111  0.29159267  1
  O  O47  1  0.61971261  0.61560860  0.72051894  1
  O  O48  1  0.62096842  0.32937618  0.09482805  1
  O  O49  1  0.62660917  0.49437457  0.31036527  1
  O  O50  1  0.64312920  0.68028222  0.10032688  1
  O  O51  1  0.65363190  0.16555145  0.30574047  1
  O  O52  1  0.66067002  0.34760204  0.68202097  1
  O  O53  1  0.66824700  0.14068691  0.89887694  1
  O  O54  1  0.68201795  0.87545838  0.90444675  1
  O  O55  1  0.69288480  0.00940681  0.52347978  1
  O  O56  1  0.80711520  0.50940681  0.52347978  1
  O  O57  1  0.81798205  0.37545838  0.90444675  1
  O  O58  1  0.83175300  0.64068691  0.89887694  1
  O  O59  1  0.83932998  0.84760304  0.68202097  1
  O  O60  1  0.84636810  0.66555145  0.30574047  1
  O  O61  1  0.85687080  0.18028222  0.10032688  1
  O  O62  1  0.87339083  0.99437457  0.31036527  1
  O  O63  1  0.87903158  0.82937618  0.09482805  1
  O  O64  1  0.88028739  0.11560860  0.72051894  1
  O  O65  1  0.88678847  0.38320111  0.29159267  1
  O  O66  1  0.97761284  0.19438043  0.47822718  1
  O  O67  1  0.99374063  0.37373183  0.69104106  1
