# generated using pymatgen
data_Ga2WO6
_symmetry_space_group_name_H-M   'P 1'
_cell_length_a   4.65287760
_cell_length_b   4.65251735
_cell_length_c   9.03835198
_cell_angle_alpha   90.00000000
_cell_angle_beta   90.00000000
_cell_angle_gamma   90.00035490
_symmetry_Int_Tables_number   1
_chemical_formula_structural   Ga2WO6
_chemical_formula_sum   'Ga4 W2 O12'
_cell_volume   195.65857193
_cell_formula_units_Z   2
loop_
 _symmetry_equiv_pos_site_id
 _symmetry_equiv_pos_as_xyz
  1  'x, y, z'
loop_
 _atom_site_type_symbol
 _atom_site_label
 _atom_site_symmetry_multiplicity
 _atom_site_fract_x
 _atom_site_fract_y
 _atom_site_fract_z
 _atom_site_occupancy
  Ga  Ga0  1  0.00001149  0.00001243  0.33648469  1
  Ga  Ga1  1  0.00001149  0.00001243  0.66351531  1
  Ga  Ga2  1  0.50001961  0.50002285  0.16351615  1
  Ga  Ga3  1  0.50001961  0.50002285  0.83648385  1
  W  W4  1  0.00003563  0.00003490  0.00000000  1
  W  W5  1  0.50000893  0.50000595  0.50000000  1
  O  O6  1  0.19565602  0.19566964  0.16131982  1
  O  O7  1  0.19565602  0.19566964  0.83868018  1
  O  O8  1  0.20053301  0.20040886  0.50000000  1
  O  O9  1  0.29961644  0.70055119  0.00000000  1
  O  O10  1  0.30434367  0.69560708  0.33868166  1
  O  O11  1  0.30434367  0.69560708  0.66131834  1
  O  O12  1  0.69566564  0.30440119  0.33868195  1
  O  O13  1  0.69566564  0.30440119  0.66131805  1
  O  O14  1  0.70053234  0.29959810  0.00000000  1
  O  O15  1  0.79947257  0.79959917  0.50000000  1
  O  O16  1  0.80440411  0.80438822  0.16131529  1
  O  O17  1  0.80440411  0.80438822  0.83868471  1
