# generated using pymatgen
data_LuTa3O9
_symmetry_space_group_name_H-M   'P 1'
_cell_length_a   6.43588512
_cell_length_b   7.62050425
_cell_length_c   12.61095979
_cell_angle_alpha   90.00000000
_cell_angle_beta   90.00000000
_cell_angle_gamma   90.00000000
_symmetry_Int_Tables_number   1
_chemical_formula_structural   LuTa3O9
_chemical_formula_sum   'Lu4 Ta12 O36'
_cell_volume   618.50061236
_cell_formula_units_Z   4
loop_
 _symmetry_equiv_pos_site_id
 _symmetry_equiv_pos_as_xyz
  1  'x, y, z'
loop_
 _atom_site_type_symbol
 _atom_site_label
 _atom_site_symmetry_multiplicity
 _atom_site_fract_x
 _atom_site_fract_y
 _atom_site_fract_z
 _atom_site_occupancy
  Lu  Lu0  1  0.05498141  0.25000000  0.45877362  1
  Lu  Lu1  1  0.44501859  0.75000000  0.95877362  1
  Lu  Lu2  1  0.55498141  0.25000000  0.04122638  1
  Lu  Lu3  1  0.94501859  0.75000000  0.54122638  1
  Ta  Ta4  1  0.00000000  0.00000000  0.00000000  1
  Ta  Ta5  1  0.00000000  0.50000000  0.00000000  1
  Ta  Ta6  1  0.20528735  0.00265957  0.71257279  1
  Ta  Ta7  1  0.20528735  0.49734043  0.71257279  1
  Ta  Ta8  1  0.29471265  0.50265957  0.21257279  1
  Ta  Ta9  1  0.29471265  0.99734043  0.21257279  1
  Ta  Ta10  1  0.50000000  0.00000000  0.50000000  1
  Ta  Ta11  1  0.50000000  0.50000000  0.50000000  1
  Ta  Ta12  1  0.70528735  0.00265957  0.78742721  1
  Ta  Ta13  1  0.70528735  0.49734043  0.78742721  1
  Ta  Ta14  1  0.79471265  0.50265957  0.28742721  1
  Ta  Ta15  1  0.79471265  0.99734043  0.28742721  1
  O  O16  1  0.01600506  0.04241330  0.84288320  1
  O  O17  1  0.01600506  0.45758670  0.84288320  1
  O  O18  1  0.08753304  0.75000000  0.97504561  1
  O  O19  1  0.10236738  0.03925724  0.33307804  1
  O  O20  1  0.10236738  0.46074276  0.33307804  1
  O  O21  1  0.16515205  0.25000000  0.66967012  1
  O  O22  1  0.20617460  0.75000000  0.69674707  1
  O  O23  1  0.20456203  0.54107472  0.53596020  1
  O  O24  1  0.20456203  0.95892528  0.53596020  1
  O  O25  1  0.29543797  0.45892528  0.03596020  1
  O  O26  1  0.29543797  0.04107472  0.03596020  1
  O  O27  1  0.29382540  0.25000000  0.19674707  1
  O  O28  1  0.33484795  0.75000000  0.16967012  1
  O  O29  1  0.39763262  0.53925724  0.83307804  1
  O  O30  1  0.39763262  0.96074276  0.83307804  1
  O  O31  1  0.41246696  0.25000000  0.47504561  1
  O  O32  1  0.48399494  0.54241330  0.34288320  1
  O  O33  1  0.48399494  0.95758670  0.34288320  1
  O  O34  1  0.51600506  0.04241330  0.65711680  1
  O  O35  1  0.51600506  0.45758670  0.65711680  1
  O  O36  1  0.58753304  0.75000000  0.52495439  1
  O  O37  1  0.60236738  0.03925724  0.16692196  1
  O  O38  1  0.60236738  0.46074276  0.16692196  1
  O  O39  1  0.66515205  0.25000000  0.83032988  1
  O  O40  1  0.70617460  0.75000000  0.80325293  1
  O  O41  1  0.70456203  0.54107472  0.96403980  1
  O  O42  1  0.70456203  0.95892528  0.96403980  1
  O  O43  1  0.79543797  0.04107472  0.46403980  1
  O  O44  1  0.79543797  0.45892528  0.46403980  1
  O  O45  1  0.79382540  0.25000000  0.30325293  1
  O  O46  1  0.83484795  0.75000000  0.33032988  1
  O  O47  1  0.89763262  0.53925724  0.66692196  1
  O  O48  1  0.89763262  0.96074276  0.66692196  1
  O  O49  1  0.91246696  0.25000000  0.02495439  1
  O  O50  1  0.98399494  0.54241330  0.15711680  1
  O  O51  1  0.98399494  0.95758670  0.15711680  1
