# generated using pymatgen
data_Mg3(AsO4)2
_symmetry_space_group_name_H-M   'P 1'
_cell_length_a   9.16533570
_cell_length_b   11.56852189
_cell_length_c   6.38598071
_cell_angle_alpha   90.00000000
_cell_angle_beta   99.75182467
_cell_angle_gamma   90.00000000
_symmetry_Int_Tables_number   1
_chemical_formula_structural   Mg3(AsO4)2
_chemical_formula_sum   'Mg12 As8 O32'
_cell_volume   667.31795054
_cell_formula_units_Z   4
loop_
 _symmetry_equiv_pos_site_id
 _symmetry_equiv_pos_as_xyz
  1  'x, y, z'
loop_
 _atom_site_type_symbol
 _atom_site_label
 _atom_site_symmetry_multiplicity
 _atom_site_fract_x
 _atom_site_fract_y
 _atom_site_fract_z
 _atom_site_occupancy
  Mg  Mg0  1  0.08109401  0.61161520  0.61464861  1
  Mg  Mg1  1  0.08109401  0.88838480  0.11464861  1
  Mg  Mg2  1  0.26405333  0.91620684  0.66121873  1
  Mg  Mg3  1  0.36230003  0.29820133  0.63220937  1
  Mg  Mg4  1  0.26405333  0.58379316  0.16121873  1
  Mg  Mg5  1  0.36230003  0.20179867  0.13220937  1
  Mg  Mg6  1  0.63769997  0.79820133  0.86779063  1
  Mg  Mg7  1  0.73594667  0.41620684  0.83878127  1
  Mg  Mg8  1  0.63769997  0.70179867  0.36779063  1
  Mg  Mg9  1  0.73594667  0.08379316  0.33878127  1
  Mg  Mg10  1  0.91890599  0.11161520  0.88535139  1
  Mg  Mg11  1  0.91890599  0.38838480  0.38535139  1
  As  As12  1  0.08822134  0.36505327  0.89208191  1
  As  As13  1  0.08822134  0.13494673  0.39208191  1
  As  As14  1  0.39742586  0.58027776  0.68735727  1
  As  As15  1  0.39742586  0.91972224  0.18735727  1
  As  As16  1  0.60257414  0.08027776  0.81264273  1
  As  As17  1  0.60257414  0.41972224  0.31264273  1
  As  As18  1  0.91177866  0.86505327  0.60791809  1
  As  As19  1  0.91177866  0.63494673  0.10791809  1
  O  O20  1  0.07356847  0.78897391  0.60457674  1
  O  O21  1  0.07229395  0.43488498  0.65039815  1
  O  O22  1  0.07356847  0.71102609  0.10457674  1
  O  O23  1  0.12881845  0.05418702  0.61758514  1
  O  O24  1  0.07229395  0.06511502  0.15039815  1
  O  O25  1  0.23544935  0.27380666  0.88067716  1
  O  O26  1  0.12881845  0.44581298  0.11758514  1
  O  O27  1  0.26281664  0.91372834  0.96538196  1
  O  O28  1  0.23544935  0.22619334  0.38067716  1
  O  O29  1  0.28491832  0.61592153  0.86715913  1
  O  O30  1  0.26281664  0.58627166  0.46538196  1
  O  O31  1  0.28491832  0.88407847  0.36715913  1
  O  O32  1  0.47845979  0.44571581  0.73478396  1
  O  O33  1  0.47344487  0.18389163  0.83435637  1
  O  O34  1  0.47845979  0.05428419  0.23478396  1
  O  O35  1  0.47344487  0.31610837  0.33435637  1
  O  O36  1  0.52655513  0.68389163  0.66564363  1
  O  O37  1  0.52154021  0.94571481  0.76521604  1
  O  O38  1  0.52655513  0.81610837  0.16564363  1
  O  O39  1  0.52154021  0.55428519  0.26521604  1
  O  O40  1  0.71508168  0.11592153  0.63284087  1
  O  O41  1  0.73718336  0.41372834  0.53461804  1
  O  O42  1  0.71508168  0.38407847  0.13284087  1
  O  O43  1  0.76455065  0.77380666  0.61932284  1
  O  O44  1  0.73718336  0.08627166  0.03461804  1
  O  O45  1  0.87118155  0.55418702  0.88241486  1
  O  O46  1  0.76455065  0.72619334  0.11932284  1
  O  O47  1  0.92770605  0.93488498  0.84960185  1
  O  O48  1  0.87118155  0.94581298  0.38241486  1
  O  O49  1  0.92643153  0.28897391  0.89542326  1
  O  O50  1  0.92770605  0.56511502  0.34960185  1
  O  O51  1  0.92643153  0.21102609  0.39542326  1
