# generated using pymatgen
data_LiMnAsCO7
_symmetry_space_group_name_H-M   'P 1'
_cell_length_a   8.90729946
_cell_length_b   6.41167108
_cell_length_c   5.21530672
_cell_angle_alpha   90.00000000
_cell_angle_beta   85.82154831
_cell_angle_gamma   90.00000000
_symmetry_Int_Tables_number   1
_chemical_formula_structural   LiMnAsCO7
_chemical_formula_sum   'Li2 Mn2 As2 C2 O14'
_cell_volume   297.05798431
_cell_formula_units_Z   2
loop_
 _symmetry_equiv_pos_site_id
 _symmetry_equiv_pos_as_xyz
  1  'x, y, z'
loop_
 _atom_site_type_symbol
 _atom_site_label
 _atom_site_symmetry_multiplicity
 _atom_site_fract_x
 _atom_site_fract_y
 _atom_site_fract_z
 _atom_site_occupancy
  Li  Li0  1  0.20965459  0.50146344  0.21985307  1
  Li  Li1  1  0.79034541  0.00146344  0.78014693  1
  Mn  Mn2  1  0.33231131  0.75056086  0.79513073  1
  Mn  Mn3  1  0.66768869  0.25056086  0.20486927  1
  As  As4  1  0.43042227  0.24568025  0.72082901  1
  As  As5  1  0.56957773  0.74568025  0.27917099  1
  C  C6  1  0.06728812  0.74995982  0.72458845  1
  C  C7  1  0.93271188  0.24995982  0.27541155  1
  O  O8  1  0.06616948  0.27734697  0.31193275  1
  O  O9  1  0.12340624  0.74422204  0.95288218  1
  O  O10  1  0.17702279  0.73004947  0.53968935  1
  O  O11  1  0.30896934  0.04547957  0.79974223  1
  O  O12  1  0.31782502  0.44962001  0.82808527  1
  O  O13  1  0.40041586  0.73689316  0.14364506  1
  O  O14  1  0.47174701  0.26657441  0.39250632  1
  O  O15  1  0.52825299  0.76657441  0.60749368  1
  O  O16  1  0.59958414  0.23689316  0.85635494  1
  O  O17  1  0.68217498  0.94962001  0.17191473  1
  O  O18  1  0.69103066  0.54547957  0.20025777  1
  O  O19  1  0.82297721  0.23004947  0.46031065  1
  O  O20  1  0.87659376  0.24422204  0.04711782  1
  O  O21  1  0.93383052  0.77734697  0.68806725  1
