# generated using pymatgen
data_Na6Cu2P(CO4)4
_symmetry_space_group_name_H-M   'P 1'
_cell_length_a   9.80759979
_cell_length_b   9.80780071
_cell_length_c   9.80735340
_cell_angle_alpha   60.00004714
_cell_angle_beta   60.00144214
_cell_angle_gamma   59.99860014
_symmetry_Int_Tables_number   1
_chemical_formula_structural   Na6Cu2P(CO4)4
_chemical_formula_sum   'Na12 Cu4 P2 C8 O32'
_cell_volume   667.07012080
_cell_formula_units_Z   2
loop_
 _symmetry_equiv_pos_site_id
 _symmetry_equiv_pos_as_xyz
  1  'x, y, z'
loop_
 _atom_site_type_symbol
 _atom_site_label
 _atom_site_symmetry_multiplicity
 _atom_site_fract_x
 _atom_site_fract_y
 _atom_site_fract_z
 _atom_site_occupancy
  Na  Na0  1  0.08544280  0.66456258  0.08543609  1
  Na  Na1  1  0.08543782  0.08543537  0.66456386  1
  Na  Na2  1  0.66456326  0.08544562  0.08543139  1
  Na  Na3  1  0.08549861  0.66453930  0.66454559  1
  Na  Na4  1  0.33543584  0.91451847  0.33544522  1
  Na  Na5  1  0.33544689  0.33543894  0.91452063  1
  Na  Na6  1  0.66453533  0.66454392  0.08549671  1
  Na  Na7  1  0.66454629  0.08549950  0.66453711  1
  Na  Na8  1  0.33541862  0.91457236  0.91458653  1
  Na  Na9  1  0.91451966  0.33544329  0.33543660  1
  Na  Na10  1  0.91457439  0.33541949  0.91458153  1
  Na  Na11  1  0.91458004  0.91458246  0.33541784  1
  Cu  Cu12  1  0.00000030  0.50000057  0.50000141  1
  Cu  Cu13  1  0.50000086  0.00000003  0.50000096  1
  Cu  Cu14  1  0.50000081  0.50000167  0.00000011  1
  Cu  Cu15  1  0.50000183  0.50000055  0.50000150  1
  P  P16  1  0.12500305  0.12500458  0.12500170  1
  P  P17  1  0.87499624  0.87499557  0.87499778  1
  C  C18  1  0.28210554  0.28211588  0.28211980  1
  C  C19  1  0.28201421  0.65369433  0.28208217  1
  C  C20  1  0.28206936  0.28203168  0.65368854  1
  C  C21  1  0.65369659  0.28204874  0.28204017  1
  C  C22  1  0.34630209  0.71795142  0.71795977  1
  C  C23  1  0.71793097  0.71796821  0.34631005  1
  C  C24  1  0.71798538  0.34630427  0.71791842  1
  C  C25  1  0.71789434  0.71788492  0.71788039  1
  O  O26  1  0.06034407  0.06034567  0.06034332  1
  O  O27  1  0.06035424  0.06035210  0.31894668  1
  O  O28  1  0.06035303  0.31894248  0.06035440  1
  O  O29  1  0.31894295  0.06035371  0.06035356  1
  O  O30  1  0.14019877  0.40230293  0.30151200  1
  O  O31  1  0.30149990  0.14020291  0.40230680  1
  O  O32  1  0.14018909  0.30148916  0.65595779  1
  O  O33  1  0.40229379  0.30149278  0.14022134  1
  O  O34  1  0.14022203  0.65597877  0.40229067  1
  O  O35  1  0.30146713  0.65597067  0.14019636  1
  O  O36  1  0.40228229  0.14021971  0.65598257  1
  O  O37  1  0.30147928  0.40228512  0.65606776  1
  O  O38  1  0.65596422  0.14018173  0.30149039  1
  O  O39  1  0.40228574  0.65607878  0.30147955  1
  O  O40  1  0.65599578  0.40227758  0.14022881  1
  O  O41  1  0.34392813  0.69853381  0.59770207  1
  O  O42  1  0.65606949  0.30146748  0.40229822  1
  O  O43  1  0.34400231  0.59772198  0.85977174  1
  O  O44  1  0.59771508  0.34391937  0.69852123  1
  O  O45  1  0.34403354  0.85981907  0.69850990  1
  O  O46  1  0.69852158  0.59771547  0.34393018  1
  O  O47  1  0.59771769  0.85978039  0.34401563  1
  O  O48  1  0.69853338  0.34402759  0.85980421  1
  O  O49  1  0.85977872  0.34401929  0.59770934  1
  O  O50  1  0.59770759  0.69850809  0.85977816  1
  O  O51  1  0.85981076  0.69851114  0.34404094  1
  O  O52  1  0.69850063  0.85979661  0.59769428  1
  O  O53  1  0.85980146  0.59769705  0.69848885  1
  O  O54  1  0.68103039  0.93965469  0.93965525  1
  O  O55  1  0.93965519  0.93965666  0.68102649  1
  O  O56  1  0.93965557  0.68103034  0.93965460  1
  O  O57  1  0.93966505  0.93966315  0.93966503  1
