# generated using pymatgen
data_SrCe2O4
_symmetry_space_group_name_H-M   'P 1'
_cell_length_a   10.21857327
_cell_length_b   12.30871125
_cell_length_c   3.58126181
_cell_angle_alpha   89.99998382
_cell_angle_beta   89.99967145
_cell_angle_gamma   89.99723788
_symmetry_Int_Tables_number   1
_chemical_formula_structural   SrCe2O4
_chemical_formula_sum   'Sr4 Ce8 O16'
_cell_volume   450.44204161
_cell_formula_units_Z   4
loop_
 _symmetry_equiv_pos_site_id
 _symmetry_equiv_pos_as_xyz
  1  'x, y, z'
loop_
 _atom_site_type_symbol
 _atom_site_label
 _atom_site_symmetry_multiplicity
 _atom_site_fract_x
 _atom_site_fract_y
 _atom_site_fract_z
 _atom_site_occupancy
  Sr  Sr0  1  0.24873334  0.85394235  0.26109488  1
  Sr  Sr1  1  0.25130976  0.35398973  0.76109994  1
  Sr  Sr2  1  0.74872676  0.64600448  0.26109395  1
  Sr  Sr3  1  0.75122529  0.14607175  0.76110700  1
  Ce  Ce4  1  0.09146204  0.10758867  0.75416994  1
  Ce  Ce5  1  0.07414942  0.61479729  0.75775470  1
  Ce  Ce6  1  0.42592429  0.11478005  0.25769470  1
  Ce  Ce7  1  0.40852075  0.60754298  0.25419151  1
  Ce  Ce8  1  0.59144583  0.39249689  0.75420809  1
  Ce  Ce9  1  0.57409075  0.88521751  0.75771893  1
  Ce  Ce10  1  0.92586945  0.38521446  0.25771496  1
  Ce  Ce11  1  0.90853462  0.89241633  0.25423294  1
  O  O12  1  0.99901293  0.28614701  0.75750869  1
  O  O13  1  0.06690413  0.91686688  0.75517133  1
  O  O14  1  0.13507575  0.48614906  0.25789228  1
  O  O15  1  0.22136650  0.19305389  0.25628633  1
  O  O16  1  0.27864548  0.69306610  0.75627736  1
  O  O17  1  0.36494105  0.98614681  0.75791786  1
  O  O18  1  0.43308014  0.41688387  0.25518677  1
  O  O19  1  0.50099055  0.78613716  0.25750880  1
  O  O20  1  0.49898387  0.21384327  0.75751529  1
  O  O21  1  0.56692678  0.58312932  0.75517579  1
  O  O22  1  0.63505003  0.01383507  0.25789934  1
  O  O23  1  0.72135584  0.30695755  0.25628755  1
  O  O24  1  0.77864269  0.80693478  0.75626848  1
  O  O25  1  0.86493801  0.51384741  0.75790888  1
  O  O26  1  0.93309175  0.08310106  0.25517919  1
  O  O27  1  0.00100219  0.71383827  0.25751854  1
