# generated using pymatgen
data_CaBiWO5
_symmetry_space_group_name_H-M   'P 1'
_cell_length_a   5.56331501
_cell_length_b   11.68705381
_cell_length_c   16.46722054
_cell_angle_alpha   90.00000000
_cell_angle_beta   90.00000000
_cell_angle_gamma   90.00000000
_symmetry_Int_Tables_number   1
_chemical_formula_structural   CaBiWO5
_chemical_formula_sum   'Ca8 Bi8 W8 O40'
_cell_volume   1070.67829118
_cell_formula_units_Z   8
loop_
 _symmetry_equiv_pos_site_id
 _symmetry_equiv_pos_as_xyz
  1  'x, y, z'
loop_
 _atom_site_type_symbol
 _atom_site_label
 _atom_site_symmetry_multiplicity
 _atom_site_fract_x
 _atom_site_fract_y
 _atom_site_fract_z
 _atom_site_occupancy
  Ca  Ca0  1  0.50171948  0.35920073  0.44540243  1
  Ca  Ca1  1  0.00171948  0.14079927  0.44540243  1
  Ca  Ca2  1  0.00171948  0.64079927  0.05459757  1
  Ca  Ca3  1  0.99828052  0.35920073  0.94540243  1
  Ca  Ca4  1  0.49828052  0.14079927  0.94540243  1
  Ca  Ca5  1  0.99828052  0.85920073  0.55459757  1
  Ca  Ca6  1  0.49828052  0.64079927  0.55459757  1
  Ca  Ca7  1  0.50171948  0.85920073  0.05459757  1
  Bi  Bi8  1  0.94575755  0.84032331  0.22953133  1
  Bi  Bi9  1  0.05424245  0.15967669  0.77046867  1
  Bi  Bi10  1  0.55424245  0.34032331  0.77046867  1
  Bi  Bi11  1  0.05424245  0.65967669  0.72953133  1
  Bi  Bi12  1  0.44575755  0.15967669  0.27046867  1
  Bi  Bi13  1  0.44575755  0.65967669  0.22953133  1
  Bi  Bi14  1  0.55424245  0.84032331  0.72953133  1
  Bi  Bi15  1  0.94575755  0.34032331  0.27046867  1
  W  W16  1  0.99848634  0.40203406  0.59464766  1
  W  W17  1  0.50151366  0.90203406  0.40535234  1
  W  W18  1  0.00151366  0.59796594  0.40535234  1
  W  W19  1  0.49848634  0.09796594  0.59464766  1
  W  W20  1  0.00151366  0.09796594  0.09464766  1
  W  W21  1  0.99848634  0.90203406  0.90535234  1
  W  W22  1  0.50151366  0.40203406  0.09464766  1
  W  W23  1  0.49848634  0.59796594  0.90535234  1
  O  O24  1  0.94830427  0.32651343  0.69698995  1
  O  O25  1  0.27933340  0.03454447  0.04870720  1
  O  O26  1  0.22066660  0.53454447  0.95129280  1
  O  O27  1  0.23884909  0.77057229  0.15352127  1
  O  O28  1  0.26115091  0.27057229  0.84647873  1
  O  O29  1  0.94830427  0.82651343  0.80301005  1
  O  O30  1  0.26115091  0.77057229  0.65352127  1
  O  O31  1  0.55169573  0.82651343  0.30301005  1
  O  O32  1  0.27933340  0.53454447  0.45129280  1
  O  O33  1  0.05169573  0.67348657  0.30301005  1
  O  O34  1  0.55169573  0.32651343  0.19698995  1
  O  O35  1  0.64407793  0.20167879  0.52459321  1
  O  O36  1  0.77933340  0.96545553  0.45129280  1
  O  O37  1  0.76115091  0.72942771  0.65352127  1
  O  O38  1  0.17696208  0.03080570  0.86740669  1
  O  O39  1  0.77933340  0.46545553  0.04870720  1
  O  O40  1  0.05169573  0.17348657  0.19698995  1
  O  O41  1  0.73884909  0.22942771  0.34647873  1
  O  O42  1  0.14407793  0.79832121  0.97540679  1
  O  O43  1  0.22066660  0.03454447  0.54870720  1
  O  O44  1  0.35592207  0.79832121  0.47540679  1
  O  O45  1  0.82303792  0.96919430  0.13259331  1
  O  O46  1  0.76115091  0.22942771  0.84647873  1
  O  O47  1  0.67696208  0.96919430  0.63259331  1
  O  O48  1  0.35592207  0.29832121  0.02459321  1
  O  O49  1  0.14407793  0.29832121  0.52459321  1
  O  O50  1  0.72066660  0.46545553  0.54870720  1
  O  O51  1  0.72066660  0.96545553  0.95129280  1
  O  O52  1  0.67696208  0.46919430  0.86740669  1
  O  O53  1  0.85592207  0.70167879  0.47540679  1
  O  O54  1  0.85592207  0.20167879  0.02459321  1
  O  O55  1  0.64407793  0.70167879  0.97540679  1
  O  O56  1  0.82303792  0.46919430  0.36740669  1
  O  O57  1  0.73884909  0.72942771  0.15352127  1
  O  O58  1  0.23884909  0.27057229  0.34647873  1
  O  O59  1  0.17696208  0.53080570  0.63259331  1
  O  O60  1  0.32303792  0.53080570  0.13259331  1
  O  O61  1  0.44830427  0.17348657  0.69698995  1
  O  O62  1  0.32303792  0.03080570  0.36740669  1
  O  O63  1  0.44830427  0.67348657  0.80301005  1
