# generated using pymatgen
data_Ga2WO6
_symmetry_space_group_name_H-M   'P 1'
_cell_length_a   4.56930383
_cell_length_b   16.88223256
_cell_length_c   5.00002703
_cell_angle_alpha   90.00000000
_cell_angle_beta   90.00000000
_cell_angle_gamma   90.00000000
_symmetry_Int_Tables_number   1
_chemical_formula_structural   Ga2WO6
_chemical_formula_sum   'Ga8 W4 O24'
_cell_volume   385.70233457
_cell_formula_units_Z   4
loop_
 _symmetry_equiv_pos_site_id
 _symmetry_equiv_pos_as_xyz
  1  'x, y, z'
loop_
 _atom_site_type_symbol
 _atom_site_label
 _atom_site_symmetry_multiplicity
 _atom_site_fract_x
 _atom_site_fract_y
 _atom_site_fract_z
 _atom_site_occupancy
  Ga  Ga0  1  0.00000000  0.05363088  0.25000000  1
  Ga  Ga1  1  0.00000000  0.27544450  0.75000000  1
  Ga  Ga2  1  0.00000000  0.72455550  0.25000000  1
  Ga  Ga3  1  0.00000000  0.94636912  0.75000000  1
  Ga  Ga4  1  0.50000000  0.22455550  0.25000000  1
  Ga  Ga5  1  0.50000000  0.55363088  0.25000000  1
  Ga  Ga6  1  0.50000000  0.77544450  0.75000000  1
  Ga  Ga7  1  0.50000000  0.44636912  0.75000000  1
  W  W8  1  0.00000000  0.38507727  0.25000000  1
  W  W9  1  0.00000000  0.61492273  0.75000000  1
  W  W10  1  0.50000000  0.88507727  0.25000000  1
  W  W11  1  0.50000000  0.11492273  0.75000000  1
  O  O12  1  0.23430624  0.03978657  0.59225009  1
  O  O13  1  0.23430624  0.96021343  0.09225009  1
  O  O14  1  0.27350448  0.20299025  0.57768304  1
  O  O15  1  0.27350448  0.79700975  0.07768304  1
  O  O16  1  0.22997561  0.37366560  0.57205986  1
  O  O17  1  0.22997561  0.62633440  0.07205986  1
  O  O18  1  0.27002439  0.12633440  0.07205986  1
  O  O19  1  0.27002439  0.87366560  0.57205986  1
  O  O20  1  0.22649552  0.29700975  0.07768304  1
  O  O21  1  0.22649552  0.70299025  0.57768304  1
  O  O22  1  0.26569376  0.46021343  0.09225009  1
  O  O23  1  0.26569376  0.53978657  0.59225009  1
  O  O24  1  0.73430624  0.46021343  0.40774991  1
  O  O25  1  0.73430624  0.53978657  0.90774991  1
  O  O26  1  0.77350448  0.29700975  0.42231696  1
  O  O27  1  0.77350448  0.70299025  0.92231696  1
  O  O28  1  0.72997561  0.12633440  0.42794014  1
  O  O29  1  0.72997561  0.87366560  0.92794014  1
  O  O30  1  0.77002439  0.62633440  0.42794014  1
  O  O31  1  0.77002439  0.37366560  0.92794014  1
  O  O32  1  0.72649552  0.20299025  0.92231696  1
  O  O33  1  0.72649552  0.79700975  0.42231696  1
  O  O34  1  0.76569376  0.03978657  0.90774991  1
  O  O35  1  0.76569376  0.96021343  0.40774991  1
