# generated using pymatgen
data_Mn15CrO32
_symmetry_space_group_name_H-M   'P 1'
_cell_length_a   8.22793647
_cell_length_b   10.06833760
_cell_length_c   8.21919116
_cell_angle_alpha   65.95012817
_cell_angle_beta   89.99069103
_cell_angle_gamma   114.13674530
_symmetry_Int_Tables_number   1
_chemical_formula_structural   Mn15CrO32
_chemical_formula_sum   'Mn15 Cr1 O32'
_cell_volume   555.93914421
_cell_formula_units_Z   1
loop_
 _symmetry_equiv_pos_site_id
 _symmetry_equiv_pos_as_xyz
  1  'x, y, z'
loop_
 _atom_site_type_symbol
 _atom_site_label
 _atom_site_symmetry_multiplicity
 _atom_site_fract_x
 _atom_site_fract_y
 _atom_site_fract_z
 _atom_site_occupancy
  Mn  Mn0  1  0.74961528  0.00046464  0.25123424  1
  Mn  Mn1  1  0.25060616  0.99850906  0.75291900  1
  Mn  Mn2  1  0.50153299  0.00064288  0.00113682  1
  Mn  Mn3  1  0.37463468  0.24906361  0.87658694  1
  Mn  Mn4  1  0.87627724  0.25124762  0.37604535  1
  Mn  Mn5  1  0.62520344  0.25120456  0.62504074  1
  Mn  Mn6  1  0.12574653  0.25062801  0.12579339  1
  Mn  Mn7  1  0.24924879  0.49902287  0.75131324  1
  Mn  Mn8  1  0.00051877  0.50096114  0.50009205  1
  Mn  Mn9  1  0.75142753  0.50050554  0.24930704  1
  Mn  Mn10  1  0.49994597  0.49960608  0.00030133  1
  Mn  Mn11  1  0.87392384  0.74862707  0.87529282  1
  Mn  Mn12  1  0.37570788  0.74959433  0.37651382  1
  Mn  Mn13  1  0.12509384  0.74897331  0.62619422  1
  Mn  Mn14  1  0.62560652  0.75005651  0.12538642  1
  Cr  Cr15  1  0.00045625  -0.00007644  0.50128605  1
  O  O16  1  0.99181580  0.01610676  0.25750169  1
  O  O17  1  0.77182941  0.01653699  0.47778332  1
  O  O18  1  0.49456376  0.01533469  0.75819722  1
  O  O19  1  0.27292276  0.01355492  0.98114319  1
  O  O20  1  0.10324976  0.23603563  0.36835408  1
  O  O21  1  0.88330194  0.23688427  0.14742611  1
  O  O22  1  0.60389644  0.23659105  0.86815953  1
  O  O23  1  0.38117872  0.23415775  0.64859727  1
  O  O24  1  0.14629185  0.26341670  0.88364448  1
  O  O25  1  0.36764803  0.26414387  0.10465838  1
  O  O26  1  0.64794378  0.26541790  0.38217650  1
  O  O27  1  0.86783080  0.26582028  0.60417919  1
  O  O28  1  0.47742352  0.48444316  0.77218566  1
  O  O29  1  0.98024562  0.48700295  0.27156262  1
  O  O30  1  0.25750522  0.48586630  0.99347385  1
  O  O31  1  0.75818555  0.48727596  0.49176515  1
  O  O32  1  0.24257177  0.51384389  0.50850571  1
  O  O33  1  0.74205379  0.51314097  0.00720606  1
  O  O34  1  0.02113286  0.51363197  0.72930977  1
  O  O35  1  0.52270945  0.51432203  0.22831900  1
  O  O36  1  0.85382549  0.73570082  0.11704661  1
  O  O37  1  0.35334091  0.73469606  0.61976283  1
  O  O38  1  0.63185670  0.73503056  0.89655189  1
  O  O39  1  0.13362564  0.73606286  0.39708403  1
  O  O40  1  0.11674782  0.76237305  0.85505430  1
  O  O41  1  0.89740649  0.76335902  0.63325248  1
  O  O42  1  0.61835446  0.76437739  0.35414245  1
  O  O43  1  0.39773140  0.76466221  0.13319866  1
  O  O44  1  0.72910461  0.98576281  0.02288758  1
  O  O45  1  0.00810371  0.98318932  0.74566387  1
  O  O46  1  0.22830408  0.98352431  0.52562569  1
  O  O47  1  0.50693715  0.98529876  0.24462436  1
