# generated using pymatgen
data_Li4Mn5Co3O16
_symmetry_space_group_name_H-M   'P 1'
_cell_length_a   5.74186282
_cell_length_b   5.72988784
_cell_length_c   9.40871030
_cell_angle_alpha   89.79672477
_cell_angle_beta   89.26464480
_cell_angle_gamma   119.99523547
_symmetry_Int_Tables_number   1
_chemical_formula_structural   Li4Mn5Co3O16
_chemical_formula_sum   'Li4 Mn5 Co3 O16'
_cell_volume   268.05011171
_cell_formula_units_Z   1
loop_
 _symmetry_equiv_pos_site_id
 _symmetry_equiv_pos_as_xyz
  1  'x, y, z'
loop_
 _atom_site_type_symbol
 _atom_site_label
 _atom_site_symmetry_multiplicity
 _atom_site_fract_x
 _atom_site_fract_y
 _atom_site_fract_z
 _atom_site_occupancy
  Li  Li0  1  0.33315678  0.66619940  0.90172927  1
  Li  Li1  1  0.01222052  0.00715593  0.99937888  1
  Li  Li2  1  0.01354237  0.00798005  0.49281595  1
  Li  Li3  1  0.66259801  0.33049742  0.39157291  1
  Mn  Mn4  1  0.32393110  0.66197103  0.48395940  1
  Mn  Mn5  1  0.65504768  0.82658440  0.21397127  1
  Mn  Mn6  1  0.66195001  0.33104921  0.99092418  1
  Mn  Mn7  1  0.83639307  0.66704264  0.71543616  1
  Mn  Mn8  1  0.83584669  0.17014447  0.71561328  1
  Co  Co9  1  0.16458088  0.82475297  0.21190103  1
  Co  Co10  1  0.16493536  0.33906962  0.21206265  1
  Co  Co11  1  0.34348570  0.17230712  0.71595339  1
  O  O12  1  0.16474350  0.84083317  0.60398831  1
  O  O13  1  0.02025818  0.50860952  0.32521091  1
  O  O14  1  0.33321703  0.66689723  0.10845964  1
  O  O15  1  0.99338780  0.99535711  0.30549119  1
  O  O16  1  0.00497006  0.00256102  0.81257009  1
  O  O17  1  0.16481050  0.32631852  0.60349017  1
  O  O18  1  0.47156397  0.95623074  0.33737234  1
  O  O19  1  0.47179855  0.51262562  0.33644362  1
  O  O20  1  0.33093899  0.16563871  0.09803262  1
  O  O21  1  0.68921755  0.84560778  0.60838370  1
  O  O22  1  0.52132300  0.48091403  0.84043608  1
  O  O23  1  0.52114782  0.04057576  0.84050450  1
  O  O24  1  0.67434832  0.33807892  0.60918308  1
  O  O25  1  0.83363136  0.67180075  0.09629922  1
  O  O26  1  0.96325964  0.48154203  0.84021489  1
  O  O27  1  0.83369257  0.16195485  0.09644226  1
