# generated using pymatgen
data_LaAlO3
_symmetry_space_group_name_H-M   'P 1'
_cell_length_a   6.85887315
_cell_length_b   6.85171424
_cell_length_c   9.85453580
_cell_angle_alpha   86.91555657
_cell_angle_beta   109.81046734
_cell_angle_gamma   101.58085221
_symmetry_Int_Tables_number   1
_chemical_formula_structural   LaAlO3
_chemical_formula_sum   'La6 Al6 O18'
_cell_volume   426.78585302
_cell_formula_units_Z   6
loop_
 _symmetry_equiv_pos_site_id
 _symmetry_equiv_pos_as_xyz
  1  'x, y, z'
loop_
 _atom_site_type_symbol
 _atom_site_label
 _atom_site_symmetry_multiplicity
 _atom_site_fract_x
 _atom_site_fract_y
 _atom_site_fract_z
 _atom_site_occupancy
  La  La0  1  0.25200195  0.75956832  0.99503232  1
  La  La1  1  0.12023063  0.57300871  0.34823638  1
  La  La2  1  0.26695985  0.07579150  0.65112661  1
  La  La3  1  0.73304015  0.92420850  0.34887339  1
  La  La4  1  0.87976937  0.42699129  0.65176362  1
  La  La5  1  0.74799805  0.24043168  0.00496768  1
  Al  Al6  1  0.38693978  0.61310704  0.70742027  1
  Al  Al7  1  0.75683206  0.72775053  0.99209567  1
  Al  Al8  1  0.25323802  0.04274129  0.29075878  1
  Al  Al9  1  0.74676198  0.95725871  0.70924122  1
  Al  Al10  1  0.24316794  0.27224947  0.00790433  1
  Al  Al11  1  0.61306022  0.38689296  0.29257973  1
  O  O12  1  0.05649443  0.40716703  0.89453208  1
  O  O13  1  0.20017619  0.74171225  0.73478578  1
  O  O14  1  0.10638501  0.92481917  0.40023433  1
  O  O15  1  0.20807501  0.41703447  0.59075717  1
  O  O16  1  0.34443795  0.11786482  0.92057359  1
  O  O17  1  0.55730140  0.54486365  0.87280412  1
  O  O18  1  0.35610597  0.83658025  0.25583474  1
  O  O19  1  0.53270858  0.76908231  0.60946770  1
  O  O20  1  0.11182532  0.13694438  0.12400520  1
  O  O21  1  0.88817468  0.86305562  0.87599480  1
  O  O22  1  0.46729142  0.23091769  0.39053230  1
  O  O23  1  0.64389403  0.16341975  0.74416526  1
  O  O24  1  0.44269860  0.45513635  0.12719588  1
  O  O25  1  0.65556205  0.88213518  0.07942641  1
  O  O26  1  0.79192499  0.58296553  0.40924283  1
  O  O27  1  0.89361499  0.07518083  0.59976567  1
  O  O28  1  0.79982381  0.25828775  0.26521422  1
  O  O29  1  0.94350557  0.59283297  0.10546792  1
