# generated using pymatgen
data_LiMnB2O5
_symmetry_space_group_name_H-M   'P 1'
_cell_length_a   6.89281051
_cell_length_b   9.30512147
_cell_length_c   6.05304254
_cell_angle_alpha   90.00000000
_cell_angle_beta   75.55919863
_cell_angle_gamma   90.00000000
_symmetry_Int_Tables_number   1
_chemical_formula_structural   LiMnB2O5
_chemical_formula_sum   'Li4 Mn4 B8 O20'
_cell_volume   375.96680570
_cell_formula_units_Z   4
loop_
 _symmetry_equiv_pos_site_id
 _symmetry_equiv_pos_as_xyz
  1  'x, y, z'
loop_
 _atom_site_type_symbol
 _atom_site_label
 _atom_site_symmetry_multiplicity
 _atom_site_fract_x
 _atom_site_fract_y
 _atom_site_fract_z
 _atom_site_occupancy
  Li  Li0  1  0.21155644  0.43795301  0.33413273  1
  Li  Li1  1  0.21155644  0.06204699  0.83413273  1
  Li  Li2  1  0.78844356  0.93795301  0.16586727  1
  Li  Li3  1  0.78844356  0.56204699  0.66586727  1
  Mn  Mn4  1  0.24077911  0.82518914  0.22112930  1
  Mn  Mn5  1  0.24077911  0.67481086  0.72112930  1
  Mn  Mn6  1  0.75922089  0.32518914  0.27887070  1
  Mn  Mn7  1  0.75922089  0.17481086  0.77887070  1
  B  B8  1  0.09229410  0.12101196  0.32041113  1
  B  B9  1  0.09229410  0.37898804  0.82041113  1
  B  B10  1  0.45675977  0.08913298  0.26277716  1
  B  B11  1  0.54324023  0.58913298  0.23722284  1
  B  B12  1  0.45675977  0.41086702  0.76277716  1
  B  B13  1  0.54324023  0.91086702  0.73722284  1
  B  B14  1  0.90770590  0.62101196  0.17958887  1
  B  B15  1  0.90770590  0.87898804  0.67958887  1
  O  O16  1  0.06365192  0.70979067  0.08590897  1
  O  O17  1  0.06991651  0.99491840  0.21163946  1
  O  O18  1  0.06365192  0.79020933  0.58590897  1
  O  O19  1  0.06991651  0.50508160  0.71163946  1
  O  O20  1  0.28074980  0.16971220  0.33796317  1
  O  O21  1  0.36093064  0.65374725  0.31366100  1
  O  O22  1  0.28074980  0.33028780  0.83796317  1
  O  O23  1  0.45955521  0.94232356  0.25712297  1
  O  O24  1  0.36093064  0.84625275  0.81366100  1
  O  O25  1  0.54044479  0.44232356  0.24287703  1
  O  O26  1  0.45955521  0.55767644  0.75712297  1
  O  O27  1  0.63906936  0.15374725  0.18633900  1
  O  O28  1  0.54044479  0.05767644  0.74287703  1
  O  O29  1  0.71925020  0.66971220  0.16203683  1
  O  O30  1  0.63906936  0.34625275  0.68633900  1
  O  O31  1  0.71925020  0.83028780  0.66203683  1
  O  O32  1  0.93008349  0.49491840  0.28836054  1
  O  O33  1  0.93634808  0.20979067  0.41409103  1
  O  O34  1  0.93008349  0.00508160  0.78836054  1
  O  O35  1  0.93634808  0.29020933  0.91409103  1
