# generated using pymatgen
data_Li3CoPCO7
_symmetry_space_group_name_H-M   'P 1'
_cell_length_a   8.37991848
_cell_length_b   5.08395387
_cell_length_c   6.51859800
_cell_angle_alpha   90.00000000
_cell_angle_beta   90.00000000
_cell_angle_gamma   88.08211956
_symmetry_Int_Tables_number   1
_chemical_formula_structural   Li3CoPCO7
_chemical_formula_sum   'Li6 Co2 P2 C2 O14'
_cell_volume   277.55703745
_cell_formula_units_Z   2
loop_
 _symmetry_equiv_pos_site_id
 _symmetry_equiv_pos_as_xyz
  1  'x, y, z'
loop_
 _atom_site_type_symbol
 _atom_site_label
 _atom_site_symmetry_multiplicity
 _atom_site_fract_x
 _atom_site_fract_y
 _atom_site_fract_z
 _atom_site_occupancy
  Li  Li0  1  0.99597494  0.02617807  0.51115441  1
  Li  Li1  1  0.17985745  0.43708231  0.20034294  1
  Li  Li2  1  0.52358827  0.44370103  0.40937368  1
  Li  Li3  1  0.47641173  0.55629897  0.90937368  1
  Li  Li4  1  0.82014255  0.56291769  0.70034294  1
  Li  Li5  1  0.00402506  0.97382193  0.01115441  1
  Co  Co6  1  0.27931061  0.04062806  0.73856740  1
  Co  Co7  1  0.72068939  0.95937194  0.23856740  1
  P  P8  1  0.33568791  0.95999896  0.24624614  1
  P  P9  1  0.66431209  0.04000104  0.74624614  1
  C  C10  1  0.13440009  0.52122911  0.74371776  1
  C  C11  1  0.86559991  0.47877089  0.24371776  1
  O  O12  1  0.02434645  0.35226828  0.71729174  1
  O  O13  1  0.09572810  0.76978982  0.76415288  1
  O  O14  1  0.23723957  0.08595950  0.06545487  1
  O  O15  1  0.23084726  0.02425471  0.43788461  1
  O  O16  1  0.28335303  0.44379088  0.75349545  1
  O  O17  1  0.36596504  0.66048470  0.21357415  1
  O  O18  1  0.49642137  0.09979205  0.27334396  1
  O  O19  1  0.50357863  0.90020795  0.77334396  1
  O  O20  1  0.63403496  0.33951530  0.71357415  1
  O  O21  1  0.71664697  0.55620912  0.25349545  1
  O  O22  1  0.76915274  0.97574429  0.93788461  1
  O  O23  1  0.76276043  0.91404050  0.56545487  1
  O  O24  1  0.90427190  0.23021018  0.26415288  1
  O  O25  1  0.97565355  0.64773172  0.21729174  1
