# generated using pymatgen
data_Mn(IO3)2
_symmetry_space_group_name_H-M   'P 1'
_cell_length_a   6.86257616
_cell_length_b   11.30133040
_cell_length_c   7.49691181
_cell_angle_alpha   90.00000000
_cell_angle_beta   108.75317191
_cell_angle_gamma   90.00000000
_symmetry_Int_Tables_number   1
_chemical_formula_structural   Mn(IO3)2
_chemical_formula_sum   'Mn4 I8 O24'
_cell_volume   550.56541159
_cell_formula_units_Z   4
loop_
 _symmetry_equiv_pos_site_id
 _symmetry_equiv_pos_as_xyz
  1  'x, y, z'
loop_
 _atom_site_type_symbol
 _atom_site_label
 _atom_site_symmetry_multiplicity
 _atom_site_fract_x
 _atom_site_fract_y
 _atom_site_fract_z
 _atom_site_occupancy
  Mn  Mn0  1  0.20409311  0.89887986  0.01885323  1
  Mn  Mn1  1  0.29590689  0.39887986  0.48114677  1
  Mn  Mn2  1  0.70409311  0.60112014  0.51885323  1
  Mn  Mn3  1  0.79590689  0.10112014  0.98114677  1
  I  I4  1  0.27504936  0.21173037  0.93796272  1
  I  I5  1  0.22495064  0.71173037  0.56203728  1
  I  I6  1  0.23799911  0.07827240  0.46527771  1
  I  I7  1  0.26200089  0.57827240  0.03472229  1
  I  I8  1  0.73799911  0.42172760  0.96527771  1
  I  I9  1  0.76200089  0.92172760  0.53472229  1
  I  I10  1  0.77504936  0.28826963  0.43796272  1
  I  I11  1  0.72495064  0.78826963  0.06203728  1
  O  O12  1  0.11403327  0.08949401  0.97882015  1
  O  O13  1  0.04091834  0.90413811  0.66724026  1
  O  O14  1  0.03008102  0.61313249  0.59669967  1
  O  O15  1  0.14377226  0.23685630  0.68540775  1
  O  O16  1  0.35622774  0.73685630  0.81459225  1
  O  O17  1  0.16447905  0.71299025  0.11651762  1
  O  O18  1  0.18887470  0.46174817  0.17216115  1
  O  O19  1  0.46991898  0.11313249  0.90330033  1
  O  O20  1  0.31112530  0.96174817  0.32783885  1
  O  O21  1  0.33552095  0.21299025  0.38348238  1
  O  O22  1  0.45908166  0.40413811  0.83275974  1
  O  O23  1  0.38596673  0.58949401  0.52117985  1
  O  O24  1  0.61403327  0.41050599  0.47882015  1
  O  O25  1  0.54091834  0.59586189  0.16724026  1
  O  O26  1  0.66447905  0.78700975  0.61651762  1
  O  O27  1  0.68887470  0.03825183  0.67216115  1
  O  O28  1  0.53008102  0.88686751  0.09669967  1
  O  O29  1  0.81112530  0.53825183  0.82783885  1
  O  O30  1  0.83552095  0.28700975  0.88348238  1
  O  O31  1  0.64377226  0.26314370  0.18540775  1
  O  O32  1  0.85622774  0.76314370  0.31459225  1
  O  O33  1  0.96991898  0.38686751  0.40330033  1
  O  O34  1  0.95908166  0.09586189  0.33275974  1
  O  O35  1  0.88596673  0.91050599  0.02117985  1
