# generated using pymatgen
data_Li3Mn2NiO6
_symmetry_space_group_name_H-M   'P 1'
_cell_length_a   15.25313531
_cell_length_b   9.80266081
_cell_length_c   9.80266097
_cell_angle_alpha   17.51081048
_cell_angle_beta   16.73845115
_cell_angle_gamma   16.73844871
_symmetry_Int_Tables_number   1
_chemical_formula_structural   Li3Mn2NiO6
_chemical_formula_sum   'Li3 Mn2 Ni1 O6'
_cell_volume   109.09439630
_cell_formula_units_Z   1
loop_
 _symmetry_equiv_pos_site_id
 _symmetry_equiv_pos_as_xyz
  1  'x, y, z'
loop_
 _atom_site_type_symbol
 _atom_site_label
 _atom_site_symmetry_multiplicity
 _atom_site_fract_x
 _atom_site_fract_y
 _atom_site_fract_z
 _atom_site_occupancy
  Li  Li0  1  0.16666700  0.50000000  0.50000000  1
  Li  Li1  1  0.50424803  0.49851821  0.49851821  1
  Li  Li2  1  0.82908597  0.50148179  0.50148179  1
  Mn  Mn3  1  0.00943157  0.99251854  0.99251854  1
  Mn  Mn4  1  0.32390143  0.00748146  0.00748146  1
  Ni  Ni5  1  0.66666700  0.00000000  0.00000000  1
  O  O6  1  0.22608711  0.27240706  0.27240706  1
  O  O7  1  0.58725039  0.25452301  0.25452301  1
  O  O8  1  0.10724689  0.72759294  0.72759294  1
  O  O9  1  0.93996080  0.23752327  0.23752327  1
  O  O10  1  0.39337320  0.76247673  0.76247673  1
  O  O11  1  0.74608361  0.74547699  0.74547699  1
