# generated using pymatgen
data_CrAs2O7
_symmetry_space_group_name_H-M   'P 1'
_cell_length_a   7.05791327
_cell_length_b   9.01661140
_cell_length_c   9.41481194
_cell_angle_alpha   90.00000000
_cell_angle_beta   106.08035151
_cell_angle_gamma   90.00000000
_symmetry_Int_Tables_number   1
_chemical_formula_structural   CrAs2O7
_chemical_formula_sum   'Cr4 As8 O28'
_cell_volume   575.70214985
_cell_formula_units_Z   4
loop_
 _symmetry_equiv_pos_site_id
 _symmetry_equiv_pos_as_xyz
  1  'x, y, z'
loop_
 _atom_site_type_symbol
 _atom_site_label
 _atom_site_symmetry_multiplicity
 _atom_site_fract_x
 _atom_site_fract_y
 _atom_site_fract_z
 _atom_site_occupancy
  Cr  Cr0  1  0.80465158  0.07687712  0.71223969  1
  Cr  Cr1  1  0.19534842  0.57687712  0.78776031  1
  Cr  Cr2  1  0.19534842  0.92312288  0.28776031  1
  Cr  Cr3  1  0.80465158  0.42312288  0.21223969  1
  As  As4  1  0.41491997  0.25031729  0.76442412  1
  As  As5  1  0.58508003  0.75031729  0.73557588  1
  As  As6  1  0.58508003  0.74968271  0.23557588  1
  As  As7  1  0.41491997  0.24968271  0.26442412  1
  As  As8  1  0.02536391  0.29957611  0.96164622  1
  As  As9  1  0.97463609  0.79957611  0.53835378  1
  As  As10  1  0.97463609  0.70042389  0.03835378  1
  As  As11  1  0.02536391  0.20042389  0.46164622  1
  O  O12  1  0.83661998  0.32464993  0.04612523  1
  O  O13  1  0.16338002  0.82464993  0.45387477  1
  O  O14  1  0.16338002  0.67535007  0.95387477  1
  O  O15  1  0.83661998  0.17535007  0.54612523  1
  O  O16  1  0.37789275  0.44634936  0.75850007  1
  O  O17  1  0.62210725  0.94634936  0.74149993  1
  O  O18  1  0.62210725  0.55365064  0.24149993  1
  O  O19  1  0.37789275  0.05365064  0.25850007  1
  O  O20  1  0.37615795  0.16502661  0.90722550  1
  O  O21  1  0.62384205  0.66502661  0.59277450  1
  O  O22  1  0.62384205  0.83497339  0.09277450  1
  O  O23  1  0.37615795  0.33497339  0.40722550  1
  O  O24  1  0.24353714  0.17219803  0.59943569  1
  O  O25  1  0.75646286  0.67219803  0.90056431  1
  O  O26  1  0.75646286  0.82780197  0.40056431  1
  O  O27  1  0.24353714  0.32780197  0.09943569  1
  O  O28  1  0.01926938  0.08305936  0.32001126  1
  O  O29  1  0.98073062  0.58305936  0.17998874  1
  O  O30  1  0.98073062  0.91694064  0.67998874  1
  O  O31  1  0.01926938  0.41694064  0.82001126  1
  O  O32  1  0.63848527  0.25645385  0.22579733  1
  O  O33  1  0.36151473  0.75645385  0.27420267  1
  O  O34  1  0.36151473  0.74354615  0.77420267  1
  O  O35  1  0.63848527  0.24354615  0.72579733  1
  O  O36  1  0.98587933  0.38018176  0.38834414  1
  O  O37  1  0.01412067  0.88018176  0.11165586  1
  O  O38  1  0.01412067  0.61981824  0.61165586  1
  O  O39  1  0.98587933  0.11981824  0.88834414  1
