# generated using pymatgen
data_Li5Mn2P2(CO7)2
_symmetry_space_group_name_H-M   'P 1'
_cell_length_a   16.94274004
_cell_length_b   5.09316945
_cell_length_c   6.50145615
_cell_angle_alpha   90.00000000
_cell_angle_beta   90.00000000
_cell_angle_gamma   85.48217333
_symmetry_Int_Tables_number   1
_chemical_formula_structural   Li5Mn2P2(CO7)2
_chemical_formula_sum   'Li10 Mn4 P4 C4 O28'
_cell_volume   559.28207702
_cell_formula_units_Z   2
loop_
 _symmetry_equiv_pos_site_id
 _symmetry_equiv_pos_as_xyz
  1  'x, y, z'
loop_
 _atom_site_type_symbol
 _atom_site_label
 _atom_site_symmetry_multiplicity
 _atom_site_fract_x
 _atom_site_fract_y
 _atom_site_fract_z
 _atom_site_occupancy
  Li  Li0  1  0.13193205  0.25220702  0.02829651  1
  Li  Li1  1  0.13193205  0.25220702  0.47170349  1
  Li  Li2  1  0.36806795  0.74779298  0.52829651  1
  Li  Li3  1  0.36806795  0.74779298  0.97170349  1
  Li  Li4  1  0.54905394  0.75990901  0.25000000  1
  Li  Li5  1  0.62475477  0.24967952  0.00143170  1
  Li  Li6  1  0.62475477  0.24967952  0.49856830  1
  Li  Li7  1  0.87524523  0.75032048  0.99856830  1
  Li  Li8  1  0.87524523  0.75032048  0.50143170  1
  Li  Li9  1  0.95094606  0.24009099  0.75000000  1
  Mn  Mn10  1  0.17168546  0.79403843  0.75000000  1
  Mn  Mn11  1  0.32831454  0.20596157  0.25000000  1
  Mn  Mn12  1  0.67019220  0.77556066  0.75000000  1
  Mn  Mn13  1  0.82980780  0.22443934  0.25000000  1
  P  P14  1  0.20817157  0.72699502  0.25000000  1
  P  P15  1  0.29182843  0.27300498  0.75000000  1
  P  P16  1  0.70897962  0.72142941  0.25000000  1
  P  P17  1  0.79102038  0.27857059  0.75000000  1
  C  C18  1  0.01819381  0.71169562  0.75000000  1
  C  C19  1  0.48180619  0.28830438  0.25000000  1
  C  C20  1  0.52324382  0.69892299  0.75000000  1
  C  C21  1  0.97675618  0.30107701  0.25000000  1
  O  O22  1  0.03220019  0.95584245  0.75000000  1
  O  O23  1  0.05040911  0.32186804  0.25000000  1
  O  O24  1  0.07775764  0.53196021  0.75000000  1
  O  O25  1  0.16250992  0.84082219  0.05997224  1
  O  O26  1  0.16250992  0.84082219  0.44002776  1
  O  O27  1  0.20494733  0.19027111  0.75000000  1
  O  O28  1  0.21250066  0.41874361  0.25000000  1
  O  O29  1  0.28749934  0.58125639  0.75000000  1
  O  O30  1  0.29505267  0.80972889  0.25000000  1
  O  O31  1  0.33749008  0.15917781  0.94002776  1
  O  O32  1  0.33749008  0.15917781  0.55997224  1
  O  O33  1  0.42224236  0.46803979  0.25000000  1
  O  O34  1  0.44959089  0.67813196  0.75000000  1
  O  O35  1  0.46779981  0.04415755  0.25000000  1
  O  O36  1  0.55307808  0.92931732  0.75000000  1
  O  O37  1  0.55397702  0.36337194  0.25000000  1
  O  O38  1  0.57633501  0.49593729  0.75000000  1
  O  O39  1  0.65699039  0.82054246  0.06478471  1
  O  O40  1  0.65699039  0.82054246  0.43521529  1
  O  O41  1  0.70809697  0.17500715  0.75000000  1
  O  O42  1  0.71879287  0.41330675  0.25000000  1
  O  O43  1  0.78120713  0.58669325  0.75000000  1
  O  O44  1  0.79190303  0.82499285  0.25000000  1
  O  O45  1  0.84300961  0.17945754  0.93521529  1
  O  O46  1  0.84300961  0.17945754  0.56478471  1
  O  O47  1  0.92366499  0.50406271  0.25000000  1
  O  O48  1  0.94602298  0.63662806  0.75000000  1
  O  O49  1  0.94692192  0.07068268  0.25000000  1
