# generated using pymatgen
data_Na8Li9(FeO4)4
_symmetry_space_group_name_H-M   'P 1'
_cell_length_a   8.25572636
_cell_length_b   8.04104562
_cell_length_c   6.64760882
_cell_angle_alpha   90.32079730
_cell_angle_beta   90.88653589
_cell_angle_gamma   89.82535425
_symmetry_Int_Tables_number   1
_chemical_formula_structural   Na8Li9(FeO4)4
_chemical_formula_sum   'Na8 Li9 Fe4 O16'
_cell_volume   441.23765559
_cell_formula_units_Z   1
loop_
 _symmetry_equiv_pos_site_id
 _symmetry_equiv_pos_as_xyz
  1  'x, y, z'
loop_
 _atom_site_type_symbol
 _atom_site_label
 _atom_site_symmetry_multiplicity
 _atom_site_fract_x
 _atom_site_fract_y
 _atom_site_fract_z
 _atom_site_occupancy
  Na  Na0  1  0.98835445  0.49726833  0.25505671  1
  Na  Na1  1  0.02532232  0.49641151  0.74788554  1
  Na  Na2  1  0.25063385  0.74327977  0.00971589  1
  Na  Na3  1  0.25100293  0.24551983  0.50657658  1
  Na  Na4  1  0.50909540  0.99857430  0.76197633  1
  Na  Na5  1  0.47475353  0.00305186  0.24209194  1
  Na  Na6  1  0.73558651  0.73681844  0.46821260  1
  Na  Na7  1  0.74806426  0.27525675  0.02721417  1
  Li  Li8  1  0.08390553  0.79014313  0.47996032  1
  Li  Li9  1  0.15562117  0.99086108  0.75016178  1
  Li  Li10  1  0.36290609  0.48605308  0.24537899  1
  Li  Li11  1  0.41111116  0.28642631  0.97645874  1
  Li  Li12  1  0.58214359  0.70677199  0.02052995  1
  Li  Li13  1  0.63996778  0.51112982  0.75034366  1
  Li  Li14  1  0.86061649  0.01387387  0.25531867  1
  Li  Li15  1  0.84934013  0.02206615  0.74009532  1
  Li  Li16  1  0.91774770  0.23298160  0.50460789  1
  Fe  Fe17  1  0.12291930  0.21561368  0.01608618  1
  Fe  Fe18  1  0.37526899  0.71860516  0.51437968  1
  Fe  Fe19  1  0.62565311  0.27716005  0.49316196  1
  Fe  Fe20  1  0.87628260  0.77639589  0.98785393  1
  O  O21  1  0.99076737  0.20877637  0.24127277  1
  O  O22  1  0.01690188  0.19282964  0.75673701  1
  O  O23  1  0.22263046  0.55317998  0.48734942  1
  O  O24  1  0.21738757  0.43032847  0.02418331  1
  O  O25  1  0.28933334  0.93002708  0.52409645  1
  O  O26  1  0.29055449  0.05818343  0.98028190  1
  O  O27  1  0.49349541  0.70358566  0.74803653  1
  O  O28  1  0.46508667  0.71013687  0.26188754  1
  O  O29  1  0.50946039  0.29214436  0.25736380  1
  O  O30  1  0.54474004  0.28915822  0.74584789  1
  O  O31  1  0.73569053  0.95429009  0.99412637  1
  O  O32  1  0.71995234  0.06187606  0.49101046  1
  O  O33  1  0.78981834  0.56904839  0.97332430  1
  O  O34  1  0.77538635  0.44472153  0.51155491  1
  O  O35  1  0.95566414  0.78687039  0.24276760  1
  O  O36  1  0.98451782  0.80620082  0.74991488  1
