# generated using pymatgen
data_Li4Co5SnO12
_symmetry_space_group_name_H-M   'P 1'
_cell_length_a   4.99501925
_cell_length_b   5.00134577
_cell_length_c   9.83221357
_cell_angle_alpha   94.67599350
_cell_angle_beta   99.39547471
_cell_angle_gamma   60.04182456
_symmetry_Int_Tables_number   1
_chemical_formula_structural   Li4Co5SnO12
_chemical_formula_sum   'Li4 Co5 Sn1 O12'
_cell_volume   209.95363400
_cell_formula_units_Z   1
loop_
 _symmetry_equiv_pos_site_id
 _symmetry_equiv_pos_as_xyz
  1  'x, y, z'
loop_
 _atom_site_type_symbol
 _atom_site_label
 _atom_site_symmetry_multiplicity
 _atom_site_fract_x
 _atom_site_fract_y
 _atom_site_fract_z
 _atom_site_occupancy
  Li  Li0  1  0.24652038  0.33252451  0.74109416  1
  Li  Li1  1  0.42095511  0.33252451  0.25890584  1
  Li  Li2  1  0.57904489  0.66747549  0.74109416  1
  Li  Li3  1  0.75347962  0.66747549  0.25890584  1
  Co  Co4  1  0.16553342  0.66893316  0.50000000  1
  Co  Co5  1  0.66663071  0.66673857  1.00000000  1
  Co  Co6  1  0.33336929  0.33326143  0.00000000  1
  Co  Co7  1  0.83446658  0.33106684  0.50000000  1
  Co  Co8  1  0.50000000  0.00000000  0.50000000  1
  Sn  Sn9  1  0.00000000  0.00000000  0.00000000  1
  O  O10  1  0.03581007  0.64311178  0.11105489  1
  O  O11  1  0.32107815  0.64311178  0.88894511  1
  O  O12  1  0.13755348  0.33650330  0.39939933  1
  O  O13  1  0.47405677  0.66349670  0.39939933  1
  O  O14  1  0.52594323  0.33650330  0.60060067  1
  O  O15  1  0.20879949  0.00000000  0.60156077  1
  O  O16  1  0.86244652  0.66349670  0.60060067  1
  O  O17  1  0.67892185  0.35688822  0.11105489  1
  O  O18  1  0.39266809  0.00000000  0.11098536  1
  O  O19  1  0.96418993  0.35688822  0.88894511  1
  O  O20  1  0.60733191  1.00000000  0.88901464  1
  O  O21  1  0.79120051  0.00000000  0.39843923  1
