# generated using pymatgen
data_Li6Cr2O7
_symmetry_space_group_name_H-M   'P 1'
_cell_length_a   5.70304573
_cell_length_b   5.75063278
_cell_length_c   9.63468685
_cell_angle_alpha   80.61803474
_cell_angle_beta   90.00000000
_cell_angle_gamma   60.27335677
_symmetry_Int_Tables_number   1
_chemical_formula_structural   Li6Cr2O7
_chemical_formula_sum   'Li12 Cr4 O14'
_cell_volume   269.51963913
_cell_formula_units_Z   2
loop_
 _symmetry_equiv_pos_site_id
 _symmetry_equiv_pos_as_xyz
  1  'x, y, z'
loop_
 _atom_site_type_symbol
 _atom_site_label
 _atom_site_symmetry_multiplicity
 _atom_site_fract_x
 _atom_site_fract_y
 _atom_site_fract_z
 _atom_site_occupancy
  Li  Li0  1  0.47144222  0.85868068  0.61487799  1
  Li  Li1  1  0.92199457  0.86663610  0.60002509  1
  Li  Li2  1  0.66987809  0.85868068  0.11487799  1
  Li  Li3  1  0.21136933  0.86663610  0.10002509  1
  Li  Li4  1  0.33123213  0.59076431  0.88438656  1
  Li  Li5  1  0.07800355  0.59076431  0.38438656  1
  Li  Li6  1  0.92199645  0.40923569  0.61561344  1
  Li  Li7  1  0.66876787  0.40923569  0.11561344  1
  Li  Li8  1  0.78863067  0.13336390  0.89997491  1
  Li  Li9  1  0.33012191  0.14131932  0.88512201  1
  Li  Li10  1  0.07800543  0.13336390  0.39997491  1
  Li  Li11  1  0.52855778  0.14131932  0.38512201  1
  Cr  Cr12  1  0.80773854  0.63144716  0.86927599  1
  Cr  Cr13  1  0.56081429  0.63144716  0.36927599  1
  Cr  Cr14  1  0.43918571  0.36855284  0.63072401  1
  Cr  Cr15  1  0.19226146  0.36855284  0.13072401  1
  O  O16  1  0.51056751  0.75336466  0.97143871  1
  O  O17  1  0.73606783  0.75336466  0.47143871  1
  O  O18  1  0.27158824  0.72652237  0.50224198  1
  O  O19  1  0.12725620  0.50774436  0.75090096  1
  O  O20  1  0.63500055  0.49225564  0.74909904  1
  O  O21  1  0.00188939  0.72652237  0.00224198  1
  O  O22  1  0.99811061  0.27347763  0.99775802  1
  O  O23  1  0.36499945  0.50774436  0.25090096  1
  O  O24  1  0.87274380  0.49225564  0.24909904  1
  O  O25  1  0.72841176  0.27347763  0.49775802  1
  O  O26  1  0.26393217  0.24663534  0.52856129  1
  O  O27  1  0.65191372  0.00000000  0.75000000  1
  O  O28  1  0.48943249  0.24663534  0.02856129  1
  O  O29  1  0.34808628  1.00000000  0.25000000  1
