# generated using pymatgen
data_Li2Cr2O7
_symmetry_space_group_name_H-M   'P 1'
_cell_length_a   7.10903938
_cell_length_b   6.76408116
_cell_length_c   6.56265445
_cell_angle_alpha   96.79748065
_cell_angle_beta   90.21020613
_cell_angle_gamma   67.86029282
_symmetry_Int_Tables_number   1
_chemical_formula_structural   Li2Cr2O7
_chemical_formula_sum   'Li4 Cr4 O14'
_cell_volume   289.96235228
_cell_formula_units_Z   2
loop_
 _symmetry_equiv_pos_site_id
 _symmetry_equiv_pos_as_xyz
  1  'x, y, z'
loop_
 _atom_site_type_symbol
 _atom_site_label
 _atom_site_symmetry_multiplicity
 _atom_site_fract_x
 _atom_site_fract_y
 _atom_site_fract_z
 _atom_site_occupancy
  Li  Li0  1  0.35398402  0.70301817  0.37317233  1
  Li  Li1  1  0.73700983  0.89130429  0.18628785  1
  Li  Li2  1  0.26299017  0.10869571  0.81371215  1
  Li  Li3  1  0.64601598  0.29698183  0.62682767  1
  Cr  Cr4  1  0.18541245  0.65958848  0.89187073  1
  Cr  Cr5  1  0.25335909  0.23639877  0.34030327  1
  Cr  Cr6  1  0.74664091  0.76360123  0.65969673  1
  Cr  Cr7  1  0.81458755  0.34041152  0.10812927  1
  O  O8  1  0.16982226  0.76401813  0.13239475  1
  O  O9  1  0.24095420  0.81022525  0.74335870  1
  O  O10  1  0.06087984  0.34259593  0.16536096  1
  O  O11  1  0.56640852  0.97781008  0.77724418  1
  O  O12  1  0.34814323  0.41588707  0.42218857  1
  O  O13  1  0.16248296  0.16708472  0.53606389  1
  O  O14  1  0.35415807  0.41393578  0.85660423  1
  O  O15  1  0.64584193  0.58606422  0.14339577  1
  O  O16  1  0.83751704  0.83291528  0.46393611  1
  O  O17  1  0.65185677  0.58411293  0.57781143  1
  O  O18  1  0.43359148  0.02218992  0.22275582  1
  O  O19  1  0.93912016  0.65740407  0.83463904  1
  O  O20  1  0.75904580  0.18977475  0.25664130  1
  O  O21  1  0.83017674  0.23598187  0.86760525  1
