# generated using pymatgen
data_Ho2(WO4)3
_symmetry_space_group_name_H-M   'P 1'
_cell_length_a   6.92624746
_cell_length_b   6.92624746
_cell_length_c   11.42713224
_cell_angle_alpha   79.02965759
_cell_angle_beta   100.97034241
_cell_angle_gamma   67.84343765
_symmetry_Int_Tables_number   1
_chemical_formula_structural   Ho2(WO4)3
_chemical_formula_sum   'Ho4 W6 O24'
_cell_volume   477.28096331
_cell_formula_units_Z   2
loop_
 _symmetry_equiv_pos_site_id
 _symmetry_equiv_pos_as_xyz
  1  'x, y, z'
loop_
 _atom_site_type_symbol
 _atom_site_label
 _atom_site_symmetry_multiplicity
 _atom_site_fract_x
 _atom_site_fract_y
 _atom_site_fract_z
 _atom_site_occupancy
  Ho  Ho0  1  0.30543002  0.94968154  0.59311513  1
  Ho  Ho1  1  0.05031846  0.69456998  0.09311513  1
  Ho  Ho2  1  0.94968154  0.30543002  0.90688487  1
  Ho  Ho3  1  0.69456998  0.05031846  0.40688487  1
  W  W4  1  0.49032237  0.79576073  0.95082212  1
  W  W5  1  0.20423927  0.50967763  0.45082212  1
  W  W6  1  0.88192791  0.88192791  0.75000000  1
  W  W7  1  0.11807209  0.11807209  0.25000000  1
  W  W8  1  0.79576073  0.49032237  0.54917788  1
  W  W9  1  0.50967763  0.20423927  0.04917788  1
  O  O10  1  0.34700645  0.79737966  0.79826941  1
  O  O11  1  0.59098496  0.98956251  0.71941784  1
  O  O12  1  0.97342035  0.94709581  0.89412036  1
  O  O13  1  0.32892509  0.60854262  0.56177008  1
  O  O14  1  0.78118700  0.61916089  0.96212134  1
  O  O15  1  0.10342092  0.32065174  0.57596277  1
  O  O16  1  0.20262034  0.65299355  0.29826941  1
  O  O17  1  0.32065174  0.10342092  0.92403723  1
  O  O18  1  0.61916089  0.78118700  0.53787866  1
  O  O19  1  0.60854262  0.32892509  0.93822992  1
  O  O20  1  0.94709581  0.97342035  0.60587964  1
  O  O21  1  0.01043749  0.40901504  0.21941784  1
  O  O22  1  0.98956251  0.59098496  0.78058216  1
  O  O23  1  0.05290419  0.02657965  0.39412036  1
  O  O24  1  0.39145738  0.67107491  0.06177008  1
  O  O25  1  0.38083911  0.21881300  0.46212134  1
  O  O26  1  0.67934826  0.89657908  0.07596277  1
  O  O27  1  0.79737966  0.34700645  0.70173059  1
  O  O28  1  0.89657908  0.67934826  0.42403723  1
  O  O29  1  0.21881300  0.38083911  0.03787866  1
  O  O30  1  0.67107491  0.39145738  0.43822992  1
  O  O31  1  0.02657965  0.05290419  0.10587964  1
  O  O32  1  0.40901504  0.01043749  0.28058216  1
  O  O33  1  0.65299355  0.20262034  0.20173059  1
