# generated using pymatgen
data_Ba3La2Cl12
_symmetry_space_group_name_H-M   'P 1'
_cell_length_a   8.99773312
_cell_length_b   8.99773302
_cell_length_c   15.97292682
_cell_angle_alpha   79.19103555
_cell_angle_beta   100.80896229
_cell_angle_gamma   70.07143699
_symmetry_Int_Tables_number   1
_chemical_formula_structural   Ba3La2Cl12
_chemical_formula_sum   'Ba6 La4 Cl24'
_cell_volume   1149.02432797
_cell_formula_units_Z   2
loop_
 _symmetry_equiv_pos_site_id
 _symmetry_equiv_pos_as_xyz
  1  'x, y, z'
loop_
 _atom_site_type_symbol
 _atom_site_label
 _atom_site_symmetry_multiplicity
 _atom_site_fract_x
 _atom_site_fract_y
 _atom_site_fract_z
 _atom_site_occupancy
  Ba  Ba0  1  0.11983856  0.11983856  0.25000000  1
  Ba  Ba1  1  0.20614957  0.54073713  0.42007012  1
  Ba  Ba2  1  0.45926287  0.79385043  0.92007012  1
  Ba  Ba3  1  0.54073713  0.20614957  0.07992988  1
  Ba  Ba4  1  0.79385043  0.45926287  0.57992988  1
  Ba  Ba5  1  0.88016144  0.88016144  0.75000000  1
  La  La6  1  0.04080464  0.70925462  0.08996523  1
  La  La7  1  0.29074538  0.95919536  0.58996523  1
  La  La8  1  0.70925462  0.04080464  0.41003477  1
  La  La9  1  0.95919536  0.29074538  0.91003477  1
  Cl  Cl10  1  0.30499659  0.17435391  0.91712541  1
  Cl  Cl11  1  0.13291045  0.33103860  0.07335977  1
  Cl  Cl12  1  0.17435391  0.30499659  0.58287459  1
  Cl  Cl13  1  0.24202956  0.76648139  0.73978492  1
  Cl  Cl14  1  0.03706652  0.49447314  0.24265431  1
  Cl  Cl15  1  0.08223558  0.93118962  0.92529414  1
  Cl  Cl16  1  0.33103860  0.13291045  0.42664023  1
  Cl  Cl17  1  0.06881038  0.91776442  0.42529414  1
  Cl  Cl18  1  0.23351861  0.75797044  0.23978492  1
  Cl  Cl19  1  0.63538400  0.42419553  0.93006705  1
  Cl  Cl20  1  0.49447314  0.03706652  0.25734569  1
  Cl  Cl21  1  0.42419553  0.63538400  0.56993295  1
  Cl  Cl22  1  0.57580447  0.36461600  0.43006705  1
  Cl  Cl23  1  0.50552686  0.96293348  0.74265431  1
  Cl  Cl24  1  0.36461600  0.57580447  0.06993295  1
  Cl  Cl25  1  0.76648139  0.24202956  0.76021508  1
  Cl  Cl26  1  0.93118962  0.08223558  0.57470586  1
  Cl  Cl27  1  0.66896140  0.86708955  0.57335977  1
  Cl  Cl28  1  0.91776442  0.06881038  0.07470586  1
  Cl  Cl29  1  0.96293348  0.50552686  0.75734569  1
  Cl  Cl30  1  0.75797044  0.23351861  0.26021508  1
  Cl  Cl31  1  0.82564609  0.69500341  0.41712541  1
  Cl  Cl32  1  0.86708955  0.66896140  0.92664023  1
  Cl  Cl33  1  0.69500341  0.82564609  0.08287459  1
