# generated using pymatgen
data_Na6Fe2B4PO16
_symmetry_space_group_name_H-M   'P 1'
_cell_length_a   9.99043635
_cell_length_b   9.99043676
_cell_length_c   9.99043649
_cell_angle_alpha   59.99999968
_cell_angle_beta   59.99999704
_cell_angle_gamma   59.99999789
_symmetry_Int_Tables_number   1
_chemical_formula_structural   Na6Fe2B4PO16
_chemical_formula_sum   'Na12 Fe4 B8 P2 O32'
_cell_volume   705.07997460
_cell_formula_units_Z   2
loop_
 _symmetry_equiv_pos_site_id
 _symmetry_equiv_pos_as_xyz
  1  'x, y, z'
loop_
 _atom_site_type_symbol
 _atom_site_label
 _atom_site_symmetry_multiplicity
 _atom_site_fract_x
 _atom_site_fract_y
 _atom_site_fract_z
 _atom_site_occupancy
  Na  Na0  1  0.08757925  0.66242075  0.08757925  1
  Na  Na1  1  0.08757925  0.08757925  0.66242075  1
  Na  Na2  1  0.66242075  0.08757925  0.08757925  1
  Na  Na3  1  0.08757925  0.66242075  0.66242075  1
  Na  Na4  1  0.33757925  0.91242075  0.33757925  1
  Na  Na5  1  0.33757925  0.33757925  0.91242075  1
  Na  Na6  1  0.66242075  0.66242075  0.08757925  1
  Na  Na7  1  0.66242075  0.08757925  0.66242075  1
  Na  Na8  1  0.91242075  0.33757925  0.33757925  1
  Na  Na9  1  0.33757925  0.91242075  0.91242075  1
  Na  Na10  1  0.91242075  0.33757925  0.91242075  1
  Na  Na11  1  0.91242075  0.91242075  0.33757925  1
  Fe  Fe12  1  0.00000000  0.50000000  0.50000000  1
  Fe  Fe13  1  0.50000000  0.00000000  0.50000000  1
  Fe  Fe14  1  0.50000000  0.50000000  0.00000000  1
  Fe  Fe15  1  0.50000000  0.50000000  0.50000000  1
  B  B16  1  0.28734771  0.28734771  0.28734771  1
  B  B17  1  0.28734771  0.28734771  0.63795687  1
  B  B18  1  0.28734771  0.63795687  0.28734771  1
  B  B19  1  0.63795687  0.28734771  0.28734771  1
  B  B20  1  0.36204313  0.71265229  0.71265229  1
  B  B21  1  0.71265229  0.36204313  0.71265229  1
  B  B22  1  0.71265229  0.71265229  0.36204313  1
  B  B23  1  0.71265229  0.71265229  0.71265229  1
  P  P24  1  0.12500000  0.12500000  0.12500000  1
  P  P25  1  0.87500000  0.87500000  0.87500000  1
  O  O26  1  0.06151708  0.06151708  0.06151708  1
  O  O27  1  0.06151708  0.06151708  0.31544975  1
  O  O28  1  0.06151708  0.31544975  0.06151708  1
  O  O29  1  0.31544975  0.06151708  0.06151708  1
  O  O30  1  0.13618229  0.40822357  0.31372718  1
  O  O31  1  0.31372718  0.13618229  0.40822357  1
  O  O32  1  0.13618229  0.31372718  0.64186696  1
  O  O33  1  0.40822357  0.31372718  0.13618229  1
  O  O34  1  0.13618229  0.64186696  0.40822357  1
  O  O35  1  0.31372718  0.64186696  0.13618229  1
  O  O36  1  0.40822357  0.13618229  0.64186696  1
  O  O37  1  0.31372718  0.40822357  0.64186696  1
  O  O38  1  0.64186696  0.13618229  0.31372718  1
  O  O39  1  0.40822357  0.64186696  0.31372718  1
  O  O40  1  0.64186696  0.40822357  0.13618229  1
  O  O41  1  0.35813304  0.68627282  0.59177643  1
  O  O42  1  0.64186696  0.31372718  0.40822357  1
  O  O43  1  0.35813304  0.59177643  0.86381771  1
  O  O44  1  0.59177643  0.35813304  0.68627282  1
  O  O45  1  0.35813304  0.86381771  0.68627282  1
  O  O46  1  0.68627282  0.59177643  0.35813304  1
  O  O47  1  0.59177643  0.86381771  0.35813304  1
  O  O48  1  0.68627282  0.35813304  0.86381771  1
  O  O49  1  0.86381771  0.35813304  0.59177643  1
  O  O50  1  0.59177643  0.68627282  0.86381771  1
  O  O51  1  0.86381771  0.68627282  0.35813304  1
  O  O52  1  0.68627282  0.86381771  0.59177643  1
  O  O53  1  0.86381771  0.59177643  0.68627282  1
  O  O54  1  0.68455025  0.93848292  0.93848292  1
  O  O55  1  0.93848292  0.68455025  0.93848292  1
  O  O56  1  0.93848292  0.93848292  0.68455025  1
  O  O57  1  0.93848292  0.93848292  0.93848292  1
