# generated using pymatgen
data_LiCr3O8
_symmetry_space_group_name_H-M   'P 1'
_cell_length_a   14.66766136
_cell_length_b   5.58265828
_cell_length_c   8.13674846
_cell_angle_alpha   89.99999784
_cell_angle_beta   90.00501047
_cell_angle_gamma   89.99956932
_symmetry_Int_Tables_number   1
_chemical_formula_structural   LiCr3O8
_chemical_formula_sum   'Li4 Cr12 O32'
_cell_volume   666.27391146
_cell_formula_units_Z   4
loop_
 _symmetry_equiv_pos_site_id
 _symmetry_equiv_pos_as_xyz
  1  'x, y, z'
loop_
 _atom_site_type_symbol
 _atom_site_label
 _atom_site_symmetry_multiplicity
 _atom_site_fract_x
 _atom_site_fract_y
 _atom_site_fract_z
 _atom_site_occupancy
  Li  Li0  1  0.28505784  0.24999999  0.99934723  1
  Li  Li1  1  0.21494639  0.75000004  0.49939287  1
  Li  Li2  1  0.78504456  0.25000098  0.50060263  1
  Li  Li3  1  0.71494807  0.75000069  0.00059684  1
  Cr  Cr4  1  0.05655404  0.74998834  0.73814266  1
  Cr  Cr5  1  0.08758856  0.75000007  0.14671558  1
  Cr  Cr6  1  0.12195154  0.24999909  0.53159648  1
  Cr  Cr7  1  0.37797693  0.74999903  0.03147298  1
  Cr  Cr8  1  0.41242773  0.24999830  0.64667972  1
  Cr  Cr9  1  0.44345448  0.25001698  0.23811785  1
  Cr  Cr10  1  0.55653755  0.75000095  0.76189263  1
  Cr  Cr11  1  0.58758161  0.75000375  0.35334542  1
  Cr  Cr12  1  0.62198164  0.25000301  0.96852525  1
  Cr  Cr13  1  0.87806629  0.75000094  0.46841929  1
  Cr  Cr14  1  0.91241234  0.25000097  0.85329118  1
  Cr  Cr15  1  0.94345829  0.24999288  0.26185886  1
  O  O16  1  0.01331693  0.24999987  0.47302212  1
  O  O17  1  0.02495383  0.99415882  0.18034135  1
  O  O18  1  0.02495595  0.50584517  0.18034297  1
  O  O19  1  0.12397339  0.75000104  0.95006889  1
  O  O20  1  0.14349575  0.50818858  0.63908991  1
  O  O21  1  0.14349485  0.99181444  0.63908779  1
  O  O22  1  0.17742317  0.74999900  0.26629472  1
  O  O23  1  0.18742180  0.25000184  0.37410183  1
  O  O24  1  0.31257445  0.74999701  0.87408687  1
  O  O25  1  0.32258701  0.25000002  0.76627484  1
  O  O26  1  0.35650355  0.49182119  0.13906205  1
  O  O27  1  0.35650365  0.00817550  0.13906168  1
  O  O28  1  0.37603957  0.24999706  0.45004189  1
  O  O29  1  0.47504655  0.49415574  0.68033560  1
  O  O30  1  0.47504759  0.00583810  0.68033316  1
  O  O31  1  0.48668065  0.74999881  0.97302432  1
  O  O32  1  0.51332011  0.25000376  0.02698176  1
  O  O33  1  0.52494790  0.99416396  0.31966958  1
  O  O34  1  0.52494683  0.50584242  0.31967762  1
  O  O35  1  0.62396249  0.75000088  0.54998183  1
  O  O36  1  0.64348653  0.99181884  0.86093934  1
  O  O37  1  0.64348566  0.50817497  0.86093661  1
  O  O38  1  0.67740314  0.74999770  0.23374219  1
  O  O39  1  0.68742423  0.25000466  0.12591327  1
  O  O40  1  0.81258705  0.75000156  0.62587184  1
  O  O41  1  0.82258418  0.24999536  0.73371667  1
  O  O42  1  0.85651143  0.49180883  0.36090048  1
  O  O43  1  0.85651253  0.00819170  0.36090197  1
  O  O44  1  0.87603648  0.24999890  0.04992666  1
  O  O45  1  0.97504881  0.49416687  0.81965945  1
  O  O46  1  0.97504841  0.00583168  0.81965826  1
  O  O47  1  0.98668765  0.74999970  0.52695500  1
