# generated using pymatgen
data_Li3ZnPCO7
_symmetry_space_group_name_H-M   'P 1'
_cell_length_a   8.38279524
_cell_length_b   5.11829627
_cell_length_c   6.49925649
_cell_angle_alpha   90.00000000
_cell_angle_beta   90.00000000
_cell_angle_gamma   88.23802094
_symmetry_Int_Tables_number   1
_chemical_formula_structural   Li3ZnPCO7
_chemical_formula_sum   'Li6 Zn2 P2 C2 O14'
_cell_volume   278.72284467
_cell_formula_units_Z   2
loop_
 _symmetry_equiv_pos_site_id
 _symmetry_equiv_pos_as_xyz
  1  'x, y, z'
loop_
 _atom_site_type_symbol
 _atom_site_label
 _atom_site_symmetry_multiplicity
 _atom_site_fract_x
 _atom_site_fract_y
 _atom_site_fract_z
 _atom_site_occupancy
  Li  Li0  1  0.99582647  0.04027308  0.51336680  1
  Li  Li1  1  0.17952829  0.43860976  0.19142890  1
  Li  Li2  1  0.51301918  0.44343708  0.42301700  1
  Li  Li3  1  0.48698082  0.55656292  0.92301700  1
  Li  Li4  1  0.82047171  0.56139024  0.69142890  1
  Li  Li5  1  0.00417353  0.95972692  0.01336680  1
  Zn  Zn6  1  0.28811500  0.03556635  0.74563252  1
  Zn  Zn7  1  0.71188500  0.96443365  0.24563252  1
  P  P8  1  0.33084408  0.96129515  0.24891667  1
  P  P9  1  0.66915592  0.03870485  0.74891667  1
  C  C10  1  0.13642391  0.52142193  0.73789976  1
  C  C11  1  0.86357609  0.47857807  0.23789976  1
  O  O12  1  0.02324241  0.35775431  0.71332880  1
  O  O13  1  0.09964918  0.76952984  0.76246495  1
  O  O14  1  0.23518552  0.08654378  0.06513572  1
  O  O15  1  0.22628250  0.02310039  0.43991663  1
  O  O16  1  0.28568375  0.44244858  0.74214458  1
  O  O17  1  0.36423442  0.66472252  0.21409642  1
  O  O18  1  0.49125193  0.10487053  0.27725226  1
  O  O19  1  0.50874807  0.89512947  0.77725226  1
  O  O20  1  0.63576558  0.33527748  0.71409642  1
  O  O21  1  0.71431625  0.55755142  0.24214458  1
  O  O22  1  0.77371750  0.97689961  0.93991663  1
  O  O23  1  0.76481448  0.91345622  0.56513572  1
  O  O24  1  0.90035082  0.23047016  0.26246495  1
  O  O25  1  0.97675759  0.64224569  0.21332880  1
