# generated using pymatgen
data_Li3Fe3SbO8
_symmetry_space_group_name_H-M   'P 1'
_cell_length_a   10.58984394
_cell_length_b   10.56666853
_cell_length_c   14.94921444
_cell_angle_alpha   19.46741727
_cell_angle_beta   19.54102472
_cell_angle_gamma   33.65421805
_symmetry_Int_Tables_number   1
_chemical_formula_structural   Li3Fe3SbO8
_chemical_formula_sum   'Li3 Fe3 Sb1 O8'
_cell_volume   161.10935112
_cell_formula_units_Z   1
loop_
 _symmetry_equiv_pos_site_id
 _symmetry_equiv_pos_as_xyz
  1  'x, y, z'
loop_
 _atom_site_type_symbol
 _atom_site_label
 _atom_site_symmetry_multiplicity
 _atom_site_fract_x
 _atom_site_fract_y
 _atom_site_fract_z
 _atom_site_occupancy
  Li  Li0  1  0.00000163  0.49999887  0.49999902  1
  Li  Li1  1  0.50000204  -0.00000035  0.49999857  1
  Li  Li2  1  0.50000264  0.50000006  0.49999797  1
  Fe  Fe3  1  0.00000057  0.50000058  -0.00000165  1
  Fe  Fe4  1  0.49998623  -0.00000811  0.00001900  1
  Fe  Fe5  1  0.50000490  0.50000179  -0.00000461  1
  Sb  Sb6  1  0.00000140  0.00000206  -0.00000278  1
  O  O7  1  0.97154679  0.00061797  0.27933398  1
  O  O8  1  0.01532649  0.53478828  0.22530742  1
  O  O9  1  0.52428088  0.00001964  0.24188683  1
  O  O10  1  0.02844990  0.99938576  0.72066422  1
  O  O11  1  0.48026598  0.46487387  0.29512742  1
  O  O12  1  0.98467353  0.46520576  0.77469638  1
  O  O13  1  0.47572436  -0.00001628  0.75810697  1
  O  O14  1  0.51973365  0.53512909  0.70487024  1
