# generated using pymatgen
data_CoH8(CO5)2
_symmetry_space_group_name_H-M   'P 1'
_cell_length_a   11.01144721
_cell_length_b   6.03132735
_cell_length_c   6.45880821
_cell_angle_alpha   90.00000000
_cell_angle_beta   97.79664502
_cell_angle_gamma   90.00000000
_symmetry_Int_Tables_number   1
_chemical_formula_structural   CoH8(CO5)2
_chemical_formula_sum   'Co2 H16 C4 O20'
_cell_volume   424.98764769
_cell_formula_units_Z   2
loop_
 _symmetry_equiv_pos_site_id
 _symmetry_equiv_pos_as_xyz
  1  'x, y, z'
loop_
 _atom_site_type_symbol
 _atom_site_label
 _atom_site_symmetry_multiplicity
 _atom_site_fract_x
 _atom_site_fract_y
 _atom_site_fract_z
 _atom_site_occupancy
  Co  Co0  1  0.00000000  0.00000000  0.00000000  1
  Co  Co1  1  0.50000000  0.50000000  0.50000000  1
  H  H2  1  0.06941312  0.31625316  0.78460000  1
  H  H3  1  0.01727232  0.30972776  0.22881696  1
  H  H4  1  0.11531462  0.08882232  0.69332364  1
  H  H5  1  0.13981867  0.14738737  0.31054880  1
  H  H6  1  0.38468538  0.58882232  0.80667636  1
  H  H7  1  0.36018133  0.64738737  0.18945120  1
  H  H8  1  0.43058688  0.81625316  0.71540000  1
  H  H9  1  0.48272768  0.80972776  0.27118304  1
  H  H10  1  0.51727232  0.19027224  0.72881696  1
  H  H11  1  0.56941312  0.18374684  0.28460000  1
  H  H12  1  0.63981867  0.35261263  0.81054880  1
  H  H13  1  0.61531462  0.41117768  0.19332364  1
  H  H14  1  0.86018133  0.85261263  0.68945120  1
  H  H15  1  0.88468538  0.91117768  0.30667636  1
  H  H16  1  0.98272768  0.69027224  0.77118304  1
  H  H17  1  0.93058688  0.68374684  0.21540000  1
  C  C18  1  0.17460511  0.65585161  0.92083006  1
  C  C19  1  0.32539489  0.15585161  0.57916994  1
  C  C20  1  0.67460511  0.84414839  0.42083006  1
  C  C21  1  0.82539489  0.34414839  0.07916994  1
  O  O22  1  0.04630045  0.15252793  0.76270409  1
  O  O23  1  0.09926234  0.57062758  0.77267619  1
  O  O24  1  0.08655184  0.21045079  0.18197370  1
  O  O25  1  0.14287870  0.82459768  0.03245979  1
  O  O26  1  0.21643115  0.08403674  0.52783757  1
  O  O27  1  0.28356885  0.58403674  0.97216243  1
  O  O28  1  0.35712130  0.32459768  0.46754021  1
  O  O29  1  0.40073766  0.07062758  0.72732381  1
  O  O30  1  0.45369955  0.65252793  0.73729591  1
  O  O31  1  0.41344816  0.71045079  0.31802630  1
  O  O32  1  0.58655184  0.28954921  0.68197370  1
  O  O33  1  0.54630045  0.34747207  0.26270409  1
  O  O34  1  0.59926234  0.92937242  0.27267619  1
  O  O35  1  0.64287870  0.67540232  0.53245979  1
  O  O36  1  0.71643115  0.41596326  0.02783757  1
  O  O37  1  0.78356885  0.91596326  0.47216243  1
  O  O38  1  0.85712130  0.17540232  0.96754021  1
  O  O39  1  0.91344816  0.78954921  0.81802630  1
  O  O40  1  0.90073766  0.42937242  0.22732381  1
  O  O41  1  0.95369955  0.84747207  0.23729591  1
