# generated using pymatgen
data_Li4Fe3Ni3(WO8)2
_symmetry_space_group_name_H-M   'P 1'
_cell_length_a   5.94650818
_cell_length_b   5.93423815
_cell_length_c   9.70643718
_cell_angle_alpha   89.98528202
_cell_angle_beta   89.82318240
_cell_angle_gamma   119.89431204
_symmetry_Int_Tables_number   1
_chemical_formula_structural   Li4Fe3Ni3(WO8)2
_chemical_formula_sum   'Li4 Fe3 Ni3 W2 O16'
_cell_volume   296.94499087
_cell_formula_units_Z   1
loop_
 _symmetry_equiv_pos_site_id
 _symmetry_equiv_pos_as_xyz
  1  'x, y, z'
loop_
 _atom_site_type_symbol
 _atom_site_label
 _atom_site_symmetry_multiplicity
 _atom_site_fract_x
 _atom_site_fract_y
 _atom_site_fract_z
 _atom_site_occupancy
  Li  Li0  1  0.33070373  0.66540135  0.90639700  1
  Li  Li1  1  0.00004974  0.00003569  0.98610255  1
  Li  Li2  1  0.99904101  0.99950894  0.48954009  1
  Li  Li3  1  0.66516681  0.33257619  0.40824241  1
  Fe  Fe4  1  0.17698045  0.83422614  0.21698087  1
  Fe  Fe5  1  0.17711716  0.34281400  0.21701872  1
  Fe  Fe6  1  0.34449973  0.17249744  0.71800138  1
  Ni  Ni7  1  0.65970587  0.82986196  0.21141072  1
  Ni  Ni8  1  0.82942894  0.66037433  0.71304834  1
  Ni  Ni9  1  0.82996110  0.16932111  0.71257995  1
  W  W10  1  0.34080093  0.67064089  0.48832891  1
  W  W11  1  0.67655399  0.33846709  0.98504491  1
  O  O12  1  0.17556489  0.82999760  0.58814408  1
  O  O13  1  0.03895711  0.51949457  0.34950865  1
  O  O14  1  0.31974317  0.65992556  0.10988414  1
  O  O15  1  0.00582985  0.00293424  0.30088711  1
  O  O16  1  0.00662875  0.00371330  0.79868640  1
  O  O17  1  0.17535962  0.34525673  0.58830495  1
  O  O18  1  0.47621470  0.96079068  0.35193530  1
  O  O19  1  0.47627818  0.51544371  0.35196865  1
  O  O20  1  0.34422630  0.17209160  0.08997592  1
  O  O21  1  0.65608405  0.82818497  0.58735370  1
  O  O22  1  0.51162633  0.47500527  0.85068721  1
  O  O23  1  0.51180650  0.03667236  0.85043836  1
  O  O24  1  0.65845060  0.32871895  0.61202596  1
  O  O25  1  0.82734802  0.65535792  0.08657958  1
  O  O26  1  0.95853582  0.47902750  0.85217808  1
  O  O27  1  0.82733563  0.17195991  0.08658506  1
