# generated using pymatgen
data_FeAs2O7
_symmetry_space_group_name_H-M   'P 1'
_cell_length_a   7.13499965
_cell_length_b   9.43740090
_cell_length_c   9.58460487
_cell_angle_alpha   90.00000000
_cell_angle_beta   106.04268071
_cell_angle_gamma   90.00000000
_symmetry_Int_Tables_number   1
_chemical_formula_structural   FeAs2O7
_chemical_formula_sum   'Fe4 As8 O28'
_cell_volume   620.25362967
_cell_formula_units_Z   4
loop_
 _symmetry_equiv_pos_site_id
 _symmetry_equiv_pos_as_xyz
  1  'x, y, z'
loop_
 _atom_site_type_symbol
 _atom_site_label
 _atom_site_symmetry_multiplicity
 _atom_site_fract_x
 _atom_site_fract_y
 _atom_site_fract_z
 _atom_site_occupancy
  Fe  Fe0  1  0.82032407  0.06864979  0.71448567  1
  Fe  Fe1  1  0.17967593  0.56864979  0.78551433  1
  Fe  Fe2  1  0.17967593  0.93135021  0.28551433  1
  Fe  Fe3  1  0.82032407  0.43135021  0.21448567  1
  As  As4  1  0.40949796  0.25758903  0.74409792  1
  As  As5  1  0.59050204  0.75758903  0.75590208  1
  As  As6  1  0.59050204  0.74241097  0.25590208  1
  As  As7  1  0.40949796  0.24241097  0.24409792  1
  As  As8  1  0.02199939  0.29732868  0.96285217  1
  As  As9  1  0.97800061  0.79732868  0.53714783  1
  As  As10  1  0.97800061  0.70267132  0.03714783  1
  As  As11  1  0.02199939  0.20267132  0.46285217  1
  O  O12  1  0.84263291  0.32260992  0.04563169  1
  O  O13  1  0.15736709  0.82260992  0.45436831  1
  O  O14  1  0.15736709  0.67739008  0.95436831  1
  O  O15  1  0.84263291  0.17739008  0.54563169  1
  O  O16  1  0.36788597  0.43501059  0.74437344  1
  O  O17  1  0.63211403  0.93501059  0.75562656  1
  O  O18  1  0.63211403  0.56498941  0.25562656  1
  O  O19  1  0.36788597  0.06498941  0.24437344  1
  O  O20  1  0.39009565  0.16253979  0.89377798  1
  O  O21  1  0.60990435  0.66253979  0.60622202  1
  O  O22  1  0.60990435  0.83746021  0.10622202  1
  O  O23  1  0.39009565  0.33746021  0.39377798  1
  O  O24  1  0.24690854  0.16821738  0.59537341  1
  O  O25  1  0.75309146  0.66821738  0.90462659  1
  O  O26  1  0.75309146  0.83178262  0.40462659  1
  O  O27  1  0.24690854  0.33178262  0.09537341  1
  O  O28  1  0.02475162  0.08640208  0.32852928  1
  O  O29  1  0.97524838  0.58640208  0.17147072  1
  O  O30  1  0.97524838  0.91359792  0.67147072  1
  O  O31  1  0.02475162  0.41359792  0.82852928  1
  O  O32  1  0.63809769  0.27387581  0.23041213  1
  O  O33  1  0.36190231  0.77387581  0.26958787  1
  O  O34  1  0.36190231  0.72612419  0.76958787  1
  O  O35  1  0.63809769  0.22612419  0.73041213  1
  O  O36  1  0.01645619  0.37155540  0.39332555  1
  O  O37  1  0.98354381  0.87155540  0.10667445  1
  O  O38  1  0.98354381  0.62844460  0.60667445  1
  O  O39  1  0.01645619  0.12844460  0.89332555  1
