# generated using pymatgen
data_TiMn3O8
_symmetry_space_group_name_H-M   'P 1'
_cell_length_a   5.78655489
_cell_length_b   5.78662177
_cell_length_c   9.03595239
_cell_angle_alpha   89.99868031
_cell_angle_beta   90.00139228
_cell_angle_gamma   120.00116685
_symmetry_Int_Tables_number   1
_chemical_formula_structural   TiMn3O8
_chemical_formula_sum   'Ti2 Mn6 O16'
_cell_volume   262.02614812
_cell_formula_units_Z   2
loop_
 _symmetry_equiv_pos_site_id
 _symmetry_equiv_pos_as_xyz
  1  'x, y, z'
loop_
 _atom_site_type_symbol
 _atom_site_label
 _atom_site_symmetry_multiplicity
 _atom_site_fract_x
 _atom_site_fract_y
 _atom_site_fract_z
 _atom_site_occupancy
  Ti  Ti0  1  0.33332669  0.66667457  0.49709550  1
  Ti  Ti1  1  0.66667193  0.33334550  0.99709772  1
  Mn  Mn2  1  0.16825709  0.83176489  0.21282804  1
  Mn  Mn3  1  0.16825474  0.33651250  0.21284065  1
  Mn  Mn4  1  0.66350441  0.83176148  0.21282785  1
  Mn  Mn5  1  0.33649220  0.16825412  0.71282697  1
  Mn  Mn6  1  0.83175052  0.66351318  0.71283171  1
  Mn  Mn7  1  0.83174501  0.16825969  0.71283494  1
  O  O8  1  0.16676567  0.83323614  0.59973308  1
  O  O9  1  0.03989988  0.51995399  0.33447581  1
  O  O10  1  0.33332469  0.66667556  0.10352702  1
  O  O11  1  0.00000327  0.00000134  0.31610394  1
  O  O12  1  0.00000041  0.00000563  0.81610964  1
  O  O13  1  0.16675965  0.33353378  0.59973023  1
  O  O14  1  0.48005739  0.96010096  0.33447400  1
  O  O15  1  0.48005258  0.51996747  0.33448098  1
  O  O16  1  0.33354388  0.16678609  0.09974140  1
  O  O17  1  0.66646113  0.83324272  0.59973828  1
  O  O18  1  0.51994932  0.48005193  0.83447498  1
  O  O19  1  0.51994817  0.03991295  0.83447753  1
  O  O20  1  0.66666681  0.33334587  0.60352485  1
  O  O21  1  0.83322916  0.66647014  0.09973617  1
  O  O22  1  0.96010072  0.48005891  0.83447737  1
  O  O23  1  0.83323567  0.16677158  0.09973134  1
