# generated using pymatgen
data_Li2MnSnO4
_symmetry_space_group_name_H-M   'P 1'
_cell_length_a   6.27917331
_cell_length_b   6.27917249
_cell_length_c   6.29071935
_cell_angle_alpha   120.68127619
_cell_angle_beta   120.68127969
_cell_angle_gamma   88.77832337
_symmetry_Int_Tables_number   1
_chemical_formula_structural   Li2MnSnO4
_chemical_formula_sum   'Li4 Mn2 Sn2 O8'
_cell_volume   173.60604394
_cell_formula_units_Z   2
loop_
 _symmetry_equiv_pos_site_id
 _symmetry_equiv_pos_as_xyz
  1  'x, y, z'
loop_
 _atom_site_type_symbol
 _atom_site_label
 _atom_site_symmetry_multiplicity
 _atom_site_fract_x
 _atom_site_fract_y
 _atom_site_fract_z
 _atom_site_occupancy
  Li  Li0  1  -0.00000000  0.50000000  0.50000000  1
  Li  Li1  1  0.50000000  0.50000000  0.50000000  1
  Li  Li2  1  0.50000000  0.00000000  0.00000000  1
  Li  Li3  1  0.50000000  0.50000000  0.00000000  1
  Mn  Mn4  1  -0.00000000  0.50000000  -0.00000000  1
  Mn  Mn5  1  0.50000000  0.00000000  0.50000000  1
  Sn  Sn6  1  -0.00000000  0.00000000  0.50000000  1
  Sn  Sn7  1  -0.00000000  0.00000000  0.00000000  1
  O  O8  1  0.23224914  0.76160832  0.00150550  1
  O  O9  1  0.23053900  0.23703113  0.48851824  1
  O  O10  1  0.23839168  0.76775086  0.49849450  1
  O  O11  1  0.76296887  0.76946100  0.01148176  1
  O  O12  1  0.23703113  0.23053900  0.98851824  1
  O  O13  1  0.76160832  0.23224914  0.50150550  1
  O  O14  1  0.76946100  0.76296887  0.51148176  1
  O  O15  1  0.76775086  0.23839168  0.99849450  1
