# generated using pymatgen
data_NaLi2MnPCO7
_symmetry_space_group_name_H-M   'P 1'
_cell_length_a   8.66575200
_cell_length_b   6.71940228
_cell_length_c   10.13029496
_cell_angle_alpha   90.03571012
_cell_angle_beta   88.55307681
_cell_angle_gamma   89.81484691
_symmetry_Int_Tables_number   1
_chemical_formula_structural   NaLi2MnPCO7
_chemical_formula_sum   'Na4 Li8 Mn4 P4 C4 O28'
_cell_volume   589.68233043
_cell_formula_units_Z   4
loop_
 _symmetry_equiv_pos_site_id
 _symmetry_equiv_pos_as_xyz
  1  'x, y, z'
loop_
 _atom_site_type_symbol
 _atom_site_label
 _atom_site_symmetry_multiplicity
 _atom_site_fract_x
 _atom_site_fract_y
 _atom_site_fract_z
 _atom_site_occupancy
  Na  Na0  1  0.08493802  0.23955219  0.37695902  1
  Na  Na1  1  0.24836963  0.99824331  0.62860987  1
  Na  Na2  1  0.25113897  0.50185514  0.12510546  1
  Na  Na3  1  0.75050241  0.50038350  0.37443069  1
  Li  Li4  1  0.07850735  0.25408068  0.87176703  1
  Li  Li5  1  0.27321673  0.47115375  0.61729257  1
  Li  Li6  1  0.27534686  0.02761602  0.11106244  1
  Li  Li7  1  0.73523989  0.52410544  0.88324514  1
  Li  Li8  1  0.73511773  0.97444876  0.88306746  1
  Li  Li9  1  0.72593699  0.97177028  0.38901221  1
  Li  Li10  1  0.91191588  0.74341103  0.63084621  1
  Li  Li11  1  0.90968832  0.77380990  0.12525645  1
  Mn  Mn12  1  0.35383720  0.75338899  0.88658882  1
  Mn  Mn13  1  0.36094866  0.74525354  0.38989121  1
  Mn  Mn14  1  0.64654465  0.24363081  0.61566436  1
  Mn  Mn15  1  0.64895716  0.25053905  0.10623664  1
  P  P16  1  0.40713529  0.25650474  0.85163060  1
  P  P17  1  0.41665438  0.23728625  0.35371675  1
  P  P18  1  0.59416996  0.74270363  0.64930408  1
  P  P19  1  0.59328006  0.76038388  0.14097168  1
  C  C20  1  0.03774003  0.74929883  0.86675087  1
  C  C21  1  0.04336672  0.76121198  0.36421762  1
  C  C22  1  0.94916215  0.25949294  0.64382362  1
  C  C23  1  0.95824659  0.24040762  0.12824787  1
  O  O24  1  0.09626778  0.28249310  0.66264913  1
  O  O25  1  0.10410197  0.21697743  0.14913706  1
  O  O26  1  0.07964188  0.74774747  0.98843101  1
  O  O27  1  0.07933996  0.75650323  0.48848704  1
  O  O28  1  0.14098671  0.75364681  0.77105711  1
  O  O29  1  0.15127701  0.74339700  0.27323867  1
  O  O30  1  0.30992615  0.07224817  0.89619746  1
  O  O31  1  0.31346228  0.43936696  0.90182557  1
  O  O32  1  0.31888603  0.05869199  0.40451853  1
  O  O33  1  0.32720113  0.42744381  0.40100268  1
  O  O34  1  0.41926677  0.26329275  0.69719980  1
  O  O35  1  0.42660767  0.72906703  0.59738779  1
  O  O36  1  0.42598754  0.23306329  0.19922383  1
  O  O37  1  0.42560685  0.77163124  0.09011630  1
  O  O38  1  0.57514256  0.25029914  0.90273249  1
  O  O39  1  0.58177288  0.75505695  0.80381818  1
  O  O40  1  0.58351316  0.23095261  0.40551887  1
  O  O41  1  0.58228959  0.76880435  0.29529291  1
  O  O42  1  0.69513141  0.56142170  0.60775688  1
  O  O43  1  0.68406309  0.92591830  0.59432363  1
  O  O44  1  0.68112412  0.56899544  0.09564783  1
  O  O45  1  0.69621793  0.93355618  0.08704579  1
  O  O46  1  0.85592634  0.24023032  0.74557290  1
  O  O47  1  0.86077396  0.25388393  0.22824314  1
  O  O48  1  0.89394948  0.25402578  0.52619593  1
  O  O49  1  0.90766970  0.25128021  0.00900264  1
  O  O50  1  0.89231519  0.74682766  0.83603731  1
  O  O51  1  0.90159024  0.78264288  0.32864286  1
