# generated using pymatgen
data_Mn3CrO8
_symmetry_space_group_name_H-M   'P 1'
_cell_length_a   5.76800544
_cell_length_b   5.76812341
_cell_length_c   8.89973758
_cell_angle_alpha   89.99803266
_cell_angle_beta   90.00019559
_cell_angle_gamma   120.00071378
_symmetry_Int_Tables_number   1
_chemical_formula_structural   Mn3CrO8
_chemical_formula_sum   'Mn6 Cr2 O16'
_cell_volume   256.42768651
_cell_formula_units_Z   2
loop_
 _symmetry_equiv_pos_site_id
 _symmetry_equiv_pos_as_xyz
  1  'x, y, z'
loop_
 _atom_site_type_symbol
 _atom_site_label
 _atom_site_symmetry_multiplicity
 _atom_site_fract_x
 _atom_site_fract_y
 _atom_site_fract_z
 _atom_site_occupancy
  Mn  Mn0  1  0.16792568  0.83206824  0.21089640  1
  Mn  Mn1  1  0.16793117  0.33588468  0.21090198  1
  Mn  Mn2  1  0.66412423  0.83206708  0.21089248  1
  Mn  Mn3  1  0.33587062  0.16794204  0.71088753  1
  Mn  Mn4  1  0.83207362  0.66414195  0.71089037  1
  Mn  Mn5  1  0.83206887  0.16794649  0.71088868  1
  Cr  Cr6  1  0.33335131  0.66668063  0.49050803  1
  Cr  Cr7  1  0.66665039  0.33331716  0.99044574  1
  O  O8  1  0.16827066  0.83176290  0.60067932  1
  O  O9  1  0.04151399  0.52076068  0.33842046  1
  O  O10  1  0.33332433  0.66668185  0.10030164  1
  O  O11  1  0.99999515  0.00000076  0.31718586  1
  O  O12  1  0.99999182  0.99999648  0.81718679  1
  O  O13  1  0.16826332  0.33653049  0.60068061  1
  O  O14  1  0.47925052  0.95849712  0.33841151  1
  O  O15  1  0.47924798  0.52076628  0.33841840  1
  O  O16  1  0.33654756  0.16829293  0.10067649  1
  O  O17  1  0.66348498  0.83175989  0.60068791  1
  O  O18  1  0.52071372  0.47927159  0.83837670  1
  O  O19  1  0.52071773  0.04145220  0.83838063  1
  O  O20  1  0.66667891  0.33335707  0.60028911  1
  O  O21  1  0.83171896  0.66345894  0.10066768  1
  O  O22  1  0.95855308  0.47927598  0.83837500  1
  O  O23  1  0.83172943  0.16828756  0.10066968  1
