# generated using pymatgen
data_Zn3Fe4(WO4)6
_symmetry_space_group_name_H-M   'P 1'
_cell_length_a   7.21697509
_cell_length_b   8.41068555
_cell_length_c   10.33678109
_cell_angle_alpha   105.07654837
_cell_angle_beta   104.32145211
_cell_angle_gamma   101.26237389
_symmetry_Int_Tables_number   1
_chemical_formula_structural   Zn3Fe4(WO4)6
_chemical_formula_sum   'Zn3 Fe4 W6 O24'
_cell_volume   563.95632344
_cell_formula_units_Z   1
loop_
 _symmetry_equiv_pos_site_id
 _symmetry_equiv_pos_as_xyz
  1  'x, y, z'
loop_
 _atom_site_type_symbol
 _atom_site_label
 _atom_site_symmetry_multiplicity
 _atom_site_fract_x
 _atom_site_fract_y
 _atom_site_fract_z
 _atom_site_occupancy
  Zn  Zn0  1  0.00000000  0.50000000  0.50000000  1
  Zn  Zn1  1  0.27682424  0.26736157  0.78810130  1
  Zn  Zn2  1  0.72317576  0.73263843  0.21189870  1
  Fe  Fe3  1  0.38535939  0.95138319  0.60412931  1
  Fe  Fe4  1  0.61464061  0.04861681  0.39587069  1
  Fe  Fe5  1  0.04171515  0.19854329  0.01214304  1
  Fe  Fe6  1  0.95828485  0.80145671  0.98785696  1
  W  W7  1  0.77515123  0.34027849  0.73198540  1
  W  W8  1  0.22484877  0.65972151  0.26801460  1
  W  W9  1  0.90149697  0.90086497  0.66187012  1
  W  W10  1  0.41180766  0.72303022  0.88192726  1
  W  W11  1  0.09850303  0.09913503  0.33812988  1
  W  W12  1  0.58819234  0.27696978  0.11807274  1
  O  O13  1  0.88989323  0.68207233  0.55463669  1
  O  O14  1  0.11010677  0.31792767  0.44536331  1
  O  O15  1  0.29790606  0.49819217  0.77419994  1
  O  O16  1  0.70209394  0.50180783  0.22580006  1
  O  O17  1  0.78058846  0.31534356  0.55189547  1
  O  O18  1  0.21941154  0.68465644  0.44810453  1
  O  O19  1  0.67067893  0.96649087  0.58234514  1
  O  O20  1  0.32932107  0.03350913  0.41765486  1
  O  O21  1  0.65153260  0.75099995  0.01509880  1
  O  O22  1  0.34846740  0.24900005  0.98490120  1
  O  O23  1  0.46904916  0.76595268  0.26393808  1
  O  O24  1  0.53095084  0.23404732  0.73606192  1
  O  O25  1  0.14755437  0.03098661  0.65559255  1
  O  O26  1  0.06791299  0.05096861  0.14449408  1
  O  O27  1  0.93208701  0.94903139  0.85550592  1
  O  O28  1  0.55795515  0.15399949  0.23352133  1
  O  O29  1  0.44204485  0.84600051  0.76647867  1
  O  O30  1  0.17605742  0.43578516  0.17729003  1
  O  O31  1  0.82394258  0.56421484  0.82270997  1
  O  O32  1  0.98131633  0.27305649  0.82609000  1
  O  O33  1  0.01868367  0.72694351  0.17391000  1
  O  O34  1  0.24296629  0.78804935  0.97127739  1
  O  O35  1  0.75703371  0.21195065  0.02872261  1
  O  O36  1  0.85244563  0.96901339  0.34440745  1
