# generated using pymatgen
data_Li2V6O15
_symmetry_space_group_name_H-M   'P 1'
_cell_length_a   10.39932918
_cell_length_b   8.08146072
_cell_length_c   8.08146072
_cell_angle_alpha   26.25768901
_cell_angle_beta   112.24887459
_cell_angle_gamma   112.24887459
_symmetry_Int_Tables_number   1
_chemical_formula_structural   Li2V6O15
_chemical_formula_sum   'Li2 V6 O15'
_cell_volume   276.83564832
_cell_formula_units_Z   1
loop_
 _symmetry_equiv_pos_site_id
 _symmetry_equiv_pos_as_xyz
  1  'x, y, z'
loop_
 _atom_site_type_symbol
 _atom_site_label
 _atom_site_symmetry_multiplicity
 _atom_site_fract_x
 _atom_site_fract_y
 _atom_site_fract_z
 _atom_site_occupancy
  Li  Li0  1  0.67704702  0.99281120  0.99281120  1
  Li  Li1  1  0.32295298  0.00718880  0.00718880  1
  V  V2  1  0.10329813  0.33795580  0.33795580  1
  V  V3  1  0.11242921  0.12105539  0.12105539  1
  V  V4  1  0.58595864  0.71175524  0.71175524  1
  V  V5  1  0.41404136  0.28824476  0.28824476  1
  V  V6  1  0.88757079  0.87894461  0.87894461  1
  V  V7  1  0.89670187  0.66204420  0.66204420  1
  O  O8  1  0.04085873  0.81402717  0.81402717  1
  O  O9  1  0.00000000  0.00000000  0.00000000  1
  O  O10  1  0.07207760  0.63280024  0.63280024  1
  O  O11  1  0.23752012  0.44207616  0.44207616  1
  O  O12  1  0.43231843  0.75993719  0.75993719  1
  O  O13  1  0.22952727  0.26558767  0.26558767  1
  O  O14  1  0.51013334  0.59916260  0.59916260  1
  O  O15  1  0.26826974  0.11432716  0.11432716  1
  O  O16  1  0.73173026  0.88567284  0.88567284  1
  O  O17  1  0.48986666  0.40083740  0.40083740  1
  O  O18  1  0.77047273  0.73441233  0.73441233  1
  O  O19  1  0.56768157  0.24006281  0.24006281  1
  O  O20  1  0.76247988  0.55792384  0.55792384  1
  O  O21  1  0.92792240  0.36719976  0.36719976  1
  O  O22  1  0.95914127  0.18597283  0.18597283  1
