# generated using pymatgen
data_Li5Fe3(NiO5)2
_symmetry_space_group_name_H-M   'P 1'
_cell_length_a   5.16873762
_cell_length_b   5.09475192
_cell_length_c   7.82961594
_cell_angle_alpha   110.08357054
_cell_angle_beta   102.97698353
_cell_angle_gamma   98.50347275
_symmetry_Int_Tables_number   1
_chemical_formula_structural   Li5Fe3(NiO5)2
_chemical_formula_sum   'Li5 Fe3 Ni2 O10'
_cell_volume   182.90746469
_cell_formula_units_Z   1
loop_
 _symmetry_equiv_pos_site_id
 _symmetry_equiv_pos_as_xyz
  1  'x, y, z'
loop_
 _atom_site_type_symbol
 _atom_site_label
 _atom_site_symmetry_multiplicity
 _atom_site_fract_x
 _atom_site_fract_y
 _atom_site_fract_z
 _atom_site_occupancy
  Li  Li0  1  0.22103595  0.89866288  0.41305893  1
  Li  Li1  1  0.38557371  0.28804994  0.77497761  1
  Li  Li2  1  0.50000000  0.50000000  0.50000000  1
  Li  Li3  1  0.61442629  0.71195006  0.22502239  1
  Li  Li4  1  0.77896405  0.10133712  0.58694107  1
  Fe  Fe5  1  0.00000000  0.50000000  0.00000000  1
  Fe  Fe6  1  0.68681526  0.88920074  0.88257085  1
  Fe  Fe7  1  0.31318474  0.11079926  0.11742915  1
  Ni  Ni8  1  0.09934075  0.70082585  0.69228876  1
  Ni  Ni9  1  0.90065925  0.29917415  0.30771124  1
  O  O10  1  0.04870128  0.09543308  0.85713177  1
  O  O11  1  0.32558099  0.70804241  0.93376600  1
  O  O12  1  0.12599138  0.32041572  0.54114813  1
  O  O13  1  0.24297040  0.49184116  0.23125265  1
  O  O14  1  0.45610522  0.90239117  0.66109055  1
  O  O15  1  0.54389478  0.09760883  0.33890945  1
  O  O16  1  0.75702960  0.50815884  0.76874735  1
  O  O17  1  0.87400862  0.67958428  0.45885187  1
  O  O18  1  0.67441901  0.29195759  0.06623400  1
  O  O19  1  0.95129872  0.90456692  0.14286823  1
