# generated using pymatgen
data_Ba6Ti7(Sb3O14)3
_symmetry_space_group_name_H-M   'P 1'
_cell_length_a   9.13843008
_cell_length_b   9.15361259
_cell_length_c   12.12420779
_cell_angle_alpha   90.17176837
_cell_angle_beta   89.91385580
_cell_angle_gamma   120.05510646
_symmetry_Int_Tables_number   1
_chemical_formula_structural   Ba6Ti7(Sb3O14)3
_chemical_formula_sum   'Ba6 Ti7 Sb9 O42'
_cell_volume   877.81853101
_cell_formula_units_Z   1
loop_
 _symmetry_equiv_pos_site_id
 _symmetry_equiv_pos_as_xyz
  1  'x, y, z'
loop_
 _atom_site_type_symbol
 _atom_site_label
 _atom_site_symmetry_multiplicity
 _atom_site_fract_x
 _atom_site_fract_y
 _atom_site_fract_z
 _atom_site_occupancy
  Ba  Ba0  1  0.99999833  0.59370951  0.24487406  1
  Ba  Ba1  1  0.99999987  0.41168242  0.75077697  1
  Ba  Ba2  1  0.40873270  0.40755185  0.24428028  1
  Ba  Ba3  1  0.59883759  0.59513633  0.75047842  1
  Ba  Ba4  1  0.40116567  0.99629625  0.75047838  1
  Ba  Ba5  1  0.59126281  0.99881867  0.24428327  1
  Ti  Ti6  1  0.99999616  0.75024917  0.91164251  1
  Ti  Ti7  1  0.00000041  0.75176109  0.60530705  1
  Ti  Ti8  1  0.99999765  0.25075884  0.10252545  1
  Ti  Ti9  1  0.25119253  0.25158738  0.60332604  1
  Ti  Ti10  1  0.24406776  0.99166988  0.09698867  1
  Ti  Ti11  1  0.75592710  0.74760008  0.09698927  1
  Ti  Ti12  1  0.74880852  0.00039362  0.60332147  1
  Sb  Sb13  1  0.00000238  0.24241857  0.41344178  1
  Sb  Sb14  1  0.33391940  0.66594723  0.99991453  1
  Sb  Sb15  1  0.33286751  0.66700713  0.50017039  1
  Sb  Sb16  1  0.24175172  0.23903455  0.91424163  1
  Sb  Sb17  1  0.24133548  0.00015319  0.41109569  1
  Sb  Sb18  1  0.75867012  0.75882021  0.41109484  1
  Sb  Sb19  1  0.66607778  0.33202494  0.99991944  1
  Sb  Sb20  1  0.66713534  0.33413973  0.50017166  1
  Sb  Sb21  1  0.75824987  0.99728287  0.91423708  1
  O  O22  1  0.99999796  0.79646956  0.07092082  1
  O  O23  1  0.00000174  0.79721319  0.42181780  1
  O  O24  1  0.99999875  0.78269198  0.75243270  1
  O  O25  1  0.17025668  0.68868884  0.60150032  1
  O  O26  1  0.16935293  0.68799757  0.90043343  1
  O  O27  1  0.00000696  0.21443923  0.25007411  1
  O  O28  1  0.31437259  0.82907191  0.10185274  1
  O  O29  1  0.31477316  0.82808394  0.39424954  1
  O  O30  1  0.00000257  0.20011616  0.57697147  1
  O  O31  1  0.00000017  0.20340674  0.92341465  1
  O  O32  1  0.16979291  0.48281427  0.09965590  1
  O  O33  1  0.17143788  0.48715119  0.39416942  1
  O  O34  1  0.31412936  0.48458415  0.89401996  1
  O  O35  1  0.31230277  0.48172544  0.59940819  1
  O  O36  1  0.19965039  0.20317279  0.07646259  1
  O  O37  1  0.20352429  0.20403527  0.42365092  1
  O  O38  1  0.51861112  0.83087511  0.59979659  1
  O  O39  1  0.51107380  0.82889665  0.89277348  1
  O  O40  1  0.21573360  0.21532356  0.75095428  1
  O  O41  1  0.51267517  0.68458257  0.39411844  1
  O  O42  1  0.52094216  0.68761147  0.09562578  1
  O  O43  1  0.19853689  0.00027620  0.57556207  1
  O  O44  1  0.20364996  0.00281462  0.92576636  1
  O  O45  1  0.21519768  0.00115973  0.24739863  1
  O  O46  1  0.48138810  0.31226352  0.59979602  1
  O  O47  1  0.48892900  0.31783214  0.89277935  1
  O  O48  1  0.78480283  0.78596918  0.24739717  1
  O  O49  1  0.47904844  0.16666893  0.09562634  1
  O  O50  1  0.48732902  0.17190979  0.39411724  1
  O  O51  1  0.80146912  0.80174526  0.57556132  1
  O  O52  1  0.79634600  0.79915916  0.92576480  1
  O  O53  1  0.68562793  0.51469806  0.10185825  1
  O  O54  1  0.68523205  0.51331035  0.39425286  1
  O  O55  1  0.82974226  0.51843461  0.60149924  1
  O  O56  1  0.83063922  0.51864118  0.90043271  1
  O  O57  1  0.68770063  0.16942407  0.59940808  1
  O  O58  1  0.68586655  0.17044968  0.89402583  1
  O  O59  1  0.82856556  0.31571208  0.39416858  1
  O  O60  1  0.83019821  0.31301469  0.09966340  1
  O  O61  1  0.78426934  0.99959350  0.75095053  1
  O  O62  1  0.79648272  0.00051352  0.42365136  1
  O  O63  1  0.80034485  0.00351864  0.07645783  1
