# generated using pymatgen
data_NaFeAsCO7
_symmetry_space_group_name_H-M   'P 1'
_cell_length_a   9.35208895
_cell_length_b   6.68170509
_cell_length_c   5.39750267
_cell_angle_alpha   90.00000000
_cell_angle_beta   87.34009641
_cell_angle_gamma   90.00000000
_symmetry_Int_Tables_number   1
_chemical_formula_structural   NaFeAsCO7
_chemical_formula_sum   'Na2 Fe2 As2 C2 O14'
_cell_volume   336.91522363
_cell_formula_units_Z   2
loop_
 _symmetry_equiv_pos_site_id
 _symmetry_equiv_pos_as_xyz
  1  'x, y, z'
loop_
 _atom_site_type_symbol
 _atom_site_label
 _atom_site_symmetry_multiplicity
 _atom_site_fract_x
 _atom_site_fract_y
 _atom_site_fract_z
 _atom_site_occupancy
  Na  Na0  1  0.23054985  0.48256297  0.23272811  1
  Na  Na1  1  0.76945015  0.98256297  0.76727189  1
  Fe  Fe2  1  0.35205977  0.76283992  0.79264754  1
  Fe  Fe3  1  0.64794023  0.26283992  0.20735246  1
  As  As4  1  0.42844134  0.25356740  0.72223458  1
  As  As5  1  0.57155866  0.75356740  0.27776542  1
  C  C6  1  0.08243450  0.74575552  0.72445981  1
  C  C7  1  0.91756550  0.24575552  0.27554019  1
  O  O8  1  0.04961043  0.25152807  0.30747132  1
  O  O9  1  0.13421252  0.74866547  0.94249745  1
  O  O10  1  0.17738405  0.73860957  0.54100331  1
  O  O11  1  0.32255018  0.05117310  0.78763354  1
  O  O12  1  0.32590431  0.45781620  0.80121552  1
  O  O13  1  0.41161019  0.74029078  0.13343009  1
  O  O14  1  0.47021256  0.26503900  0.40543534  1
  O  O15  1  0.52978744  0.76503900  0.59456466  1
  O  O16  1  0.58838981  0.24029078  0.86656991  1
  O  O17  1  0.67409569  0.95781620  0.19878448  1
  O  O18  1  0.67744982  0.55117310  0.21236646  1
  O  O19  1  0.82261595  0.23860957  0.45899669  1
  O  O20  1  0.86578748  0.24866547  0.05750255  1
  O  O21  1  0.95038957  0.75152807  0.69252868  1
