# generated using pymatgen
data_Li10Co4O9
_symmetry_space_group_name_H-M   'P 1'
_cell_length_a   9.81032708
_cell_length_b   7.75333416
_cell_length_c   7.57874160
_cell_angle_alpha   60.98290575
_cell_angle_beta   103.93655333
_cell_angle_gamma   88.58056776
_symmetry_Int_Tables_number   1
_chemical_formula_structural   Li10Co4O9
_chemical_formula_sum   'Li20 Co8 O18'
_cell_volume   482.40345221
_cell_formula_units_Z   2
loop_
 _symmetry_equiv_pos_site_id
 _symmetry_equiv_pos_as_xyz
  1  'x, y, z'
loop_
 _atom_site_type_symbol
 _atom_site_label
 _atom_site_symmetry_multiplicity
 _atom_site_fract_x
 _atom_site_fract_y
 _atom_site_fract_z
 _atom_site_occupancy
  Li  Li0  1  0.12737050  0.91915583  0.65113943  1
  Li  Li1  1  0.14224600  0.71158071  0.13043042  1
  Li  Li2  1  0.09866568  0.60940756  0.49460656  1
  Li  Li3  1  0.15038928  0.33583858  0.39907518  1
  Li  Li4  1  0.34362097  0.86735314  0.95921231  1
  Li  Li5  1  0.12895522  0.15410564  0.80701401  1
  Li  Li6  1  0.39371224  0.62091064  0.84957979  1
  Li  Li7  1  0.37189723  0.46835421  0.23877193  1
  Li  Li8  1  0.62300923  0.92632962  0.48893372  1
  Li  Li9  1  0.61559633  0.81494527  0.86377501  1
  Li  Li10  1  0.38440367  0.18505473  0.13622499  1
  Li  Li11  1  0.37699077  0.07367038  0.51106628  1
  Li  Li12  1  0.62810277  0.53164579  0.76122807  1
  Li  Li13  1  0.60628776  0.37908936  0.15042021  1
  Li  Li14  1  0.87104478  0.84589436  0.19298599  1
  Li  Li15  1  0.65637903  0.13264686  0.04078769  1
  Li  Li16  1  0.84961072  0.66416142  0.60092482  1
  Li  Li17  1  0.90133432  0.39059344  0.50539344  1
  Li  Li18  1  0.85775400  0.28841929  0.86956958  1
  Li  Li19  1  0.87262950  0.08084417  0.34886057  1
  Co  Co20  1  0.13177937  0.47162554  0.92966863  1
  Co  Co21  1  0.36591572  0.75503373  0.41006397  1
  Co  Co22  1  0.14148516  0.03911768  0.24212424  1
  Co  Co23  1  0.37048158  0.30699446  0.71210099  1
  Co  Co24  1  0.62951842  0.69300554  0.28789901  1
  Co  Co25  1  0.85851484  0.96088232  0.75787576  1
  Co  Co26  1  0.63408428  0.24496627  0.58993603  1
  Co  Co27  1  0.86822063  0.52837446  0.07033137  1
  O  O28  1  0.02808763  0.89142779  0.38996756  1
  O  O29  1  0.25820221  0.95462958  0.11983890  1
  O  O30  1  0.01832256  0.42271370  0.73636506  1
  O  O31  1  0.22120138  0.67822545  0.92714654  1
  O  O32  1  0.28364136  0.53296235  0.42258220  1
  O  O33  1  0.22558797  0.26223827  0.22335658  1
  O  O34  1  0.47211256  0.79332379  0.61569177  1
  O  O35  1  0.27894393  0.11300054  0.68436571  1
  O  O36  1  0.52140964  0.65894174  0.07898132  1
  O  O37  1  0.47859036  0.34105826  0.92101868  1
  O  O38  1  0.72105607  0.88699946  0.31563429  1
  O  O39  1  0.52788744  0.20667621  0.38430823  1
  O  O40  1  0.77441203  0.73776173  0.77664342  1
  O  O41  1  0.71635864  0.46703765  0.57741780  1
  O  O42  1  0.77879862  0.32177455  0.07285346  1
  O  O43  1  0.98167744  0.57728630  0.26363494  1
  O  O44  1  0.74179779  0.04537042  0.88016110  1
  O  O45  1  0.97191237  0.10857221  0.61003244  1
