# generated using pymatgen
data_Na3Cr(BO3)2
_symmetry_space_group_name_H-M   'P 1'
_cell_length_a   5.52375545
_cell_length_b   9.21372543
_cell_length_c   10.42152088
_cell_angle_alpha   90.00000000
_cell_angle_beta   94.34331738
_cell_angle_gamma   90.00000000
_symmetry_Int_Tables_number   1
_chemical_formula_structural   Na3Cr(BO3)2
_chemical_formula_sum   'Na12 Cr4 B8 O24'
_cell_volume   528.87348484
_cell_formula_units_Z   4
loop_
 _symmetry_equiv_pos_site_id
 _symmetry_equiv_pos_as_xyz
  1  'x, y, z'
loop_
 _atom_site_type_symbol
 _atom_site_label
 _atom_site_symmetry_multiplicity
 _atom_site_fract_x
 _atom_site_fract_y
 _atom_site_fract_z
 _atom_site_occupancy
  Na  Na0  1  0.12953708  0.93899191  0.63605490  1
  Na  Na1  1  0.17938012  0.63061381  0.62488695  1
  Na  Na2  1  0.18042170  0.95571094  0.12339252  1
  Na  Na3  1  0.32061988  0.13061381  0.87511305  1
  Na  Na4  1  0.31957830  0.45571094  0.37660748  1
  Na  Na5  1  0.37046292  0.43899191  0.86394510  1
  Na  Na6  1  0.62953708  0.56100809  0.13605490  1
  Na  Na7  1  0.68042170  0.54428906  0.62339252  1
  Na  Na8  1  0.67938012  0.86938619  0.12488695  1
  Na  Na9  1  0.81957830  0.04428906  0.87660748  1
  Na  Na10  1  0.82061988  0.36938619  0.37511305  1
  Na  Na11  1  0.87046292  0.06100809  0.36394510  1
  Cr  Cr12  1  0.09463057  0.28540345  0.12291241  1
  Cr  Cr13  1  0.40536943  0.78540345  0.37708759  1
  Cr  Cr14  1  0.59463057  0.21459655  0.62291241  1
  Cr  Cr15  1  0.90536943  0.71459655  0.87708759  1
  B  B16  1  0.15917460  0.29671389  0.61657997  1
  B  B17  1  0.16614281  0.63511566  0.13581494  1
  B  B18  1  0.34082540  0.79671389  0.88342003  1
  B  B19  1  0.33385719  0.13511566  0.36418506  1
  B  B20  1  0.66614281  0.86488434  0.63581494  1
  B  B21  1  0.65917460  0.20328611  0.11657997  1
  B  B22  1  0.83385719  0.36488434  0.86418506  1
  B  B23  1  0.84082540  0.70328611  0.38342003  1
  O  O24  1  0.04478270  0.31160234  0.92874748  1
  O  O25  1  0.08315300  0.67133279  0.40643179  1
  O  O26  1  0.15444856  0.89881588  0.89600938  1
  O  O27  1  0.15879143  0.23620115  0.31484019  1
  O  O28  1  0.24913176  0.66167630  0.84718893  1
  O  O29  1  0.25086824  0.16167630  0.65281107  1
  O  O30  1  0.27720638  0.98952311  0.34744736  1
  O  O31  1  0.22279362  0.48952311  0.15255264  1
  O  O32  1  0.34120857  0.73620115  0.18515981  1
  O  O33  1  0.34555144  0.39881588  0.60399062  1
  O  O34  1  0.45521730  0.81160234  0.57125252  1
  O  O35  1  0.41684700  0.17133279  0.09356821  1
  O  O36  1  0.58315300  0.82866721  0.90643179  1
  O  O37  1  0.54478270  0.18839766  0.42874748  1
  O  O38  1  0.65444856  0.60118412  0.39600938  1
  O  O39  1  0.65879143  0.26379885  0.81484019  1
  O  O40  1  0.77720638  0.51047689  0.84744736  1
  O  O41  1  0.72279362  0.01047689  0.65255264  1
  O  O42  1  0.74913176  0.83832370  0.34718893  1
  O  O43  1  0.75086824  0.33832370  0.15281107  1
  O  O44  1  0.84120857  0.76379885  0.68515981  1
  O  O45  1  0.84555144  0.10118412  0.10399062  1
  O  O46  1  0.91684700  0.32866721  0.59356821  1
  O  O47  1  0.95521730  0.68839766  0.07125252  1
