# generated using pymatgen
data_NaLi2MnPCO7
_symmetry_space_group_name_H-M   'P 1'
_cell_length_a   8.68655445
_cell_length_b   6.69945266
_cell_length_c   10.09877143
_cell_angle_alpha   90.00367986
_cell_angle_beta   88.48119143
_cell_angle_gamma   90.67218375
_symmetry_Int_Tables_number   1
_chemical_formula_structural   NaLi2MnPCO7
_chemical_formula_sum   'Na4 Li8 Mn4 P4 C4 O28'
_cell_volume   587.45270263
_cell_formula_units_Z   4
loop_
 _symmetry_equiv_pos_site_id
 _symmetry_equiv_pos_as_xyz
  1  'x, y, z'
loop_
 _atom_site_type_symbol
 _atom_site_label
 _atom_site_symmetry_multiplicity
 _atom_site_fract_x
 _atom_site_fract_y
 _atom_site_fract_z
 _atom_site_occupancy
  Na  Na0  1  0.08480255  0.25663141  0.37713686  1
  Na  Na1  1  0.24980714  0.99870813  0.62722866  1
  Na  Na2  1  0.25165151  0.99747843  0.12382790  1
  Na  Na3  1  0.74997705  0.50048531  0.37471342  1
  Li  Li4  1  0.07838662  0.26505440  0.87274224  1
  Li  Li5  1  0.27209570  0.47319561  0.61528457  1
  Li  Li6  1  0.27238009  0.47385870  0.11140185  1
  Li  Li7  1  0.73616815  0.52120646  0.88106404  1
  Li  Li8  1  0.73672470  0.97637831  0.88420526  1
  Li  Li9  1  0.72852508  0.97528698  0.38750897  1
  Li  Li10  1  0.91294412  0.74283188  0.63011058  1
  Li  Li11  1  0.90999365  0.74930951  0.12447706  1
  Mn  Mn12  1  0.35426999  0.74521762  0.88612299  1
  Mn  Mn13  1  0.36013908  0.74270299  0.38881996  1
  Mn  Mn14  1  0.64565384  0.24603808  0.61620641  1
  Mn  Mn15  1  0.64824576  0.24919686  0.10716483  1
  P  P16  1  0.40689104  0.25435283  0.85194681  1
  P  P17  1  0.41493288  0.24629595  0.35368263  1
  P  P18  1  0.59464140  0.74497514  0.64975216  1
  P  P19  1  0.59423853  0.75014382  0.14188637  1
  C  C20  1  0.03909296  0.74881281  0.86643254  1
  C  C21  1  0.04477635  0.75806820  0.36450642  1
  C  C22  1  0.94812278  0.25922526  0.64318523  1
  C  C23  1  0.95644187  0.26069955  0.12841671  1
  O  O24  1  0.09576561  0.27683742  0.66099084  1
  O  O25  1  0.10285866  0.27755497  0.14887539  1
  O  O26  1  0.08265271  0.75352563  0.98837902  1
  O  O27  1  0.08250631  0.75225430  0.48816300  1
  O  O28  1  0.14150277  0.74314324  0.76975023  1
  O  O29  1  0.15057001  0.73666205  0.27141385  1
  O  O30  1  0.31398493  0.06241026  0.89036015  1
  O  O31  1  0.30881598  0.42951325  0.90877743  1
  O  O32  1  0.31509260  0.05904360  0.39040702  1
  O  O33  1  0.32682708  0.42726606  0.41435501  1
  O  O34  1  0.41896258  0.27198559  0.69761452  1
  O  O35  1  0.42729164  0.73430558  0.59779361  1
  O  O36  1  0.42543804  0.27017828  0.19954968  1
  O  O37  1  0.42704368  0.73193111  0.09129340  1
  O  O38  1  0.57454405  0.25556067  0.90278893  1
  O  O39  1  0.58231128  0.75322695  0.80488016  1
  O  O40  1  0.58070457  0.22949812  0.40544133  1
  O  O41  1  0.58229230  0.76597685  0.29644038  1
  O  O42  1  0.69423767  0.56430154  0.60699505  1
  O  O43  1  0.68585535  0.92978408  0.59578554  1
  O  O44  1  0.69628842  0.56940397  0.10038704  1
  O  O45  1  0.68382793  0.93404147  0.08443144  1
  O  O46  1  0.85530763  0.24362183  0.74581223  1
  O  O47  1  0.85938526  0.25034034  0.22921160  1
  O  O48  1  0.89212191  0.25638404  0.52548349  1
  O  O49  1  0.90561214  0.25306121  0.00905704  1
  O  O50  1  0.89406609  0.74881903  0.83739684  1
  O  O51  1  0.90323096  0.78321333  0.33034531  1
