# generated using pymatgen
data_Li4V3Cr3(FeO8)2
_symmetry_space_group_name_H-M   'P 1'
_cell_length_a   5.86601478
_cell_length_b   5.93129077
_cell_length_c   9.58529294
_cell_angle_alpha   90.00329789
_cell_angle_beta   89.31278300
_cell_angle_gamma   120.35211175
_symmetry_Int_Tables_number   1
_chemical_formula_structural   Li4V3Cr3(FeO8)2
_chemical_formula_sum   'Li4 V3 Cr3 Fe2 O16'
_cell_volume   287.76286770
_cell_formula_units_Z   1
loop_
 _symmetry_equiv_pos_site_id
 _symmetry_equiv_pos_as_xyz
  1  'x, y, z'
loop_
 _atom_site_type_symbol
 _atom_site_label
 _atom_site_symmetry_multiplicity
 _atom_site_fract_x
 _atom_site_fract_y
 _atom_site_fract_z
 _atom_site_occupancy
  Li  Li0  1  0.33487743  0.66692240  0.89078074  1
  Li  Li1  1  0.00341501  0.00317152  0.99623668  1
  Li  Li2  1  0.99393460  0.99582697  0.49617063  1
  Li  Li3  1  0.67441879  0.33767266  0.39363797  1
  V  V4  1  0.82950196  0.65788257  0.71512983  1
  V  V5  1  0.65923990  0.83072763  0.21596919  1
  V  V6  1  0.82591396  0.16563040  0.71337421  1
  Cr  Cr7  1  0.17198239  0.83277992  0.21522727  1
  Cr  Cr8  1  0.17223097  0.34047483  0.21539889  1
  Cr  Cr9  1  0.33952246  0.17028354  0.71032561  1
  Fe  Fe10  1  0.32534906  0.66281025  0.49029855  1
  Fe  Fe11  1  0.65854736  0.33055961  0.99123737  1
  O  O12  1  0.15121476  0.83057283  0.60011746  1
  O  O13  1  0.04299298  0.52200983  0.33940135  1
  O  O14  1  0.35499894  0.67804819  0.10487717  1
  O  O15  1  0.98887995  0.99510881  0.31093423  1
  O  O16  1  0.99512226  0.99615096  0.81091865  1
  O  O17  1  0.14914860  0.31989033  0.60124287  1
  O  O18  1  0.49679741  0.96423208  0.33670063  1
  O  O19  1  0.49675331  0.53354780  0.33677445  1
  O  O20  1  0.32549671  0.16323517  0.09857365  1
  O  O21  1  0.66734589  0.83249164  0.60407092  1
  O  O22  1  0.52627513  0.48668451  0.83498356  1
  O  O23  1  0.52689090  0.03805215  0.83412759  1
  O  O24  1  0.67659265  0.33778451  0.60039783  1
  O  O25  1  0.82477217  0.67570783  0.10597212  1
  O  O26  1  0.96326084  0.48152428  0.83880605  1
  O  O27  1  0.82452460  0.15051474  0.10615654  1
