# generated using pymatgen
data_Li4Ti3Cr3(WO8)2
_symmetry_space_group_name_H-M   'P 1'
_cell_length_a   5.97479598
_cell_length_b   5.96534425
_cell_length_c   9.84283121
_cell_angle_alpha   90.00379816
_cell_angle_beta   90.95583156
_cell_angle_gamma   119.95459947
_symmetry_Int_Tables_number   1
_chemical_formula_structural   Li4Ti3Cr3(WO8)2
_chemical_formula_sum   'Li4 Ti3 Cr3 W2 O16'
_cell_volume   303.89736223
_cell_formula_units_Z   1
loop_
 _symmetry_equiv_pos_site_id
 _symmetry_equiv_pos_as_xyz
  1  'x, y, z'
loop_
 _atom_site_type_symbol
 _atom_site_label
 _atom_site_symmetry_multiplicity
 _atom_site_fract_x
 _atom_site_fract_y
 _atom_site_fract_z
 _atom_site_occupancy
  Li  Li0  1  0.32970031  0.66483023  0.89697320  1
  Li  Li1  1  0.99783792  0.99895340  0.99208279  1
  Li  Li2  1  0.99344482  0.99671621  0.49452220  1
  Li  Li3  1  0.66714170  0.33357120  0.40049144  1
  Ti  Ti4  1  0.17309220  0.83553952  0.21541496  1
  Ti  Ti5  1  0.17302612  0.33754543  0.21538714  1
  Ti  Ti6  1  0.33827707  0.16908121  0.71423373  1
  Cr  Cr7  1  0.65977270  0.82993254  0.21169720  1
  Cr  Cr8  1  0.83198565  0.66085407  0.71324848  1
  Cr  Cr9  1  0.83204385  0.17119429  0.71326471  1
  W  W10  1  0.33747049  0.66880707  0.48821442  1
  W  W11  1  0.67279432  0.33644757  0.98542914  1
  O  O12  1  0.16685219  0.84097068  0.60288506  1
  O  O13  1  0.03780231  0.51898552  0.34088189  1
  O  O14  1  0.32301792  0.66152242  0.10531046  1
  O  O15  1  0.99882360  0.99936622  0.30996812  1
  O  O16  1  0.00815262  0.00408637  0.80840773  1
  O  O17  1  0.16682620  0.32580217  0.60295191  1
  O  O18  1  0.48041589  0.96348434  0.33764556  1
  O  O19  1  0.48053466  0.51710179  0.33764848  1
  O  O20  1  0.32614178  0.16306560  0.10494788  1
  O  O21  1  0.67254476  0.83630850  0.59866564  1
  O  O22  1  0.51781289  0.47904822  0.83919402  1
  O  O23  1  0.51771160  0.03880389  0.83917086  1
  O  O24  1  0.65384068  0.32688451  0.60691871  1
  O  O25  1  0.83830294  0.67527160  0.09800746  1
  O  O26  1  0.96642799  0.48319922  0.83623249  1
  O  O27  1  0.83820382  0.16292619  0.09804232  1
