# generated using pymatgen
data_Na7(CuO3)2
_symmetry_space_group_name_H-M   'P 1'
_cell_length_a   5.76321968
_cell_length_b   7.83062515
_cell_length_c   10.72614675
_cell_angle_alpha   76.30869065
_cell_angle_beta   90.00000000
_cell_angle_gamma   68.40814897
_symmetry_Int_Tables_number   1
_chemical_formula_structural   Na7(CuO3)2
_chemical_formula_sum   'Na14 Cu4 O12'
_cell_volume   435.27250784
_cell_formula_units_Z   2
loop_
 _symmetry_equiv_pos_site_id
 _symmetry_equiv_pos_as_xyz
  1  'x, y, z'
loop_
 _atom_site_type_symbol
 _atom_site_label
 _atom_site_symmetry_multiplicity
 _atom_site_fract_x
 _atom_site_fract_y
 _atom_site_fract_z
 _atom_site_occupancy
  Na  Na0  1  0.69614467  0.88153830  0.65101467  1
  Na  Na1  1  0.57366429  0.66541956  0.90546310  1
  Na  Na2  1  0.42231703  0.88153830  0.15101467  1
  Na  Na3  1  0.18872412  0.55240833  0.80358233  1
  Na  Na4  1  0.76091615  0.66541956  0.40546310  1
  Na  Na5  1  0.74113245  0.44759167  0.69641767  1
  Na  Na6  1  0.25886755  0.55240833  0.30358233  1
  Na  Na7  1  0.23908385  0.33458044  0.59453690  1
  Na  Na8  1  0.81127588  0.44759167  0.19641767  1
  Na  Na9  1  0.57768297  0.11846170  0.84898533  1
  Na  Na10  1  0.42633571  0.33458044  0.09453690  1
  Na  Na11  1  0.06931926  0.00000000  0.75000000  1
  Na  Na12  1  0.30385533  0.11846170  0.34898533  1
  Na  Na13  1  0.93068074  0.00000000  0.25000000  1
  Cu  Cu14  1  0.24389464  0.75313149  0.53899435  1
  Cu  Cu15  1  0.00297387  0.75313149  0.03899435  1
  Cu  Cu16  1  0.99702613  0.24686851  0.96100565  1
  Cu  Cu17  1  0.75610536  0.24686851  0.46100565  1
  O  O18  1  0.86841171  0.80526703  0.87235249  1
  O  O19  1  0.39267148  0.75659233  0.69112252  1
  O  O20  1  0.32632126  0.80526703  0.37235249  1
  O  O21  1  0.00001447  0.65230342  0.58220121  1
  O  O22  1  0.85073619  0.75659233  0.19112252  1
  O  O23  1  0.65231790  0.34769658  0.91779879  1
  O  O24  1  0.34768210  0.65230342  0.08220121  1
  O  O25  1  0.14926381  0.24340767  0.80887748  1
  O  O26  1  -0.00001447  0.34769658  0.41779879  1
  O  O27  1  0.67367874  0.19473297  0.62764751  1
  O  O28  1  0.60732852  0.24340767  0.30887748  1
  O  O29  1  0.13158829  0.19473297  0.12764751  1
