# generated using pymatgen
data_Li3Fe2(PO4)3
_symmetry_space_group_name_H-M   'P 1'
_cell_length_a   9.79586311
_cell_length_b   9.79586311
_cell_length_c   9.75104501
_cell_angle_alpha   86.42361655
_cell_angle_beta   93.57638345
_cell_angle_gamma   94.41762593
_symmetry_Int_Tables_number   1
_chemical_formula_structural   Li3Fe2(PO4)3
_chemical_formula_sum   'Li12 Fe8 P12 O48'
_cell_volume   929.54338594
_cell_formula_units_Z   4
loop_
 _symmetry_equiv_pos_site_id
 _symmetry_equiv_pos_as_xyz
  1  'x, y, z'
loop_
 _atom_site_type_symbol
 _atom_site_label
 _atom_site_symmetry_multiplicity
 _atom_site_fract_x
 _atom_site_fract_y
 _atom_site_fract_z
 _atom_site_occupancy
  Li  Li0  1  0.01125870  0.50171327  0.23515070  1
  Li  Li1  1  0.37773490  0.74745192  0.79909015  1
  Li  Li2  1  0.20961753  0.55832456  0.47209553  1
  Li  Li3  1  0.23403326  0.73214667  0.18107632  1
  Li  Li4  1  0.71100885  0.93089370  0.96790592  1
  Li  Li5  1  0.99856916  0.25348328  0.39217722  1
  Li  Li6  1  0.25348328  0.99856916  0.60782278  1
  Li  Li7  1  0.93089370  0.71100885  0.03209408  1
  Li  Li8  1  0.73214667  0.23403326  0.81892368  1
  Li  Li9  1  0.55832456  0.20961753  0.52790447  1
  Li  Li10  1  0.74745192  0.37773490  0.20090985  1
  Li  Li11  1  0.50171327  0.01125870  0.76484930  1
  Fe  Fe12  1  0.02507021  0.25374491  0.77766881  1
  Fe  Fe13  1  0.74746403  0.97060926  0.27736532  1
  Fe  Fe14  1  0.52585959  0.52585959  0.50000000  1
  Fe  Fe15  1  0.74952151  0.74952151  0.50000000  1
  Fe  Fe16  1  0.24779008  0.24779008  0.00000000  1
  Fe  Fe17  1  0.47262446  0.47262446  0.00000000  1
  Fe  Fe18  1  0.97060926  0.74746403  0.72263468  1
  Fe  Fe19  1  0.25374491  0.02507021  0.22233119  1
  P  P20  1  0.17374518  0.94712035  0.90335973  1
  P  P21  1  0.05082885  0.82028972  0.40580660  1
  P  P22  1  0.15805007  0.55121908  0.92921727  1
  P  P23  1  0.44529576  0.83703756  0.42935409  1
  P  P24  1  0.65290242  0.68214761  0.80107539  1
  P  P25  1  0.33890754  0.31764009  0.69903226  1
  P  P26  1  0.31764009  0.33890754  0.30096774  1
  P  P27  1  0.68214761  0.65290242  0.19892461  1
  P  P28  1  0.83703756  0.44529576  0.57064591  1
  P  P29  1  0.55121908  0.15805007  0.07078273  1
  P  P30  1  0.82028972  0.05082885  0.59419340  1
  P  P31  1  0.94712035  0.17374518  0.09664027  1
  O  O32  1  0.03157267  0.87252683  0.86742788  1
  O  O33  1  0.11611881  0.96055678  0.35197714  1
  O  O34  1  0.08341492  0.81126210  0.56476551  1
  O  O35  1  0.20565193  0.90878764  0.05896287  1
  O  O36  1  0.28524050  0.91281634  0.81042833  1
  O  O37  1  0.10260687  0.69772428  0.33841026  1
  O  O38  1  0.09623305  0.61438540  0.79280113  1
  O  O39  1  0.40636118  0.90970643  0.55314716  1
  O  O40  1  0.37361499  0.88307463  0.28926608  1
  O  O41  1  0.09953625  0.60202972  0.05812238  1
  O  O42  1  0.12463921  0.39119197  0.92460951  1
  O  O43  1  0.31614816  0.58801188  0.92962587  1
  O  O44  1  0.57883156  0.80512548  0.84073896  1
  O  O45  1  0.40776860  0.67882628  0.44452469  1
  O  O46  1  0.60563795  0.86952285  0.41375899  1
  O  O47  1  0.19143139  0.40303656  0.34773955  1
  O  O48  1  0.18136414  0.30851011  0.66853769  1
  O  O49  1  0.70226966  0.80913263  0.15685843  1
  O  O50  1  0.39062121  0.45648583  0.62950890  1
  O  O51  1  0.62356450  0.66871447  0.64022010  1
  O  O52  1  0.82539602  0.89095718  0.62735296  1
  O  O53  1  0.15893036  0.10654622  0.87631372  1
  O  O54  1  0.54268343  0.59715501  0.13535201  1
  O  O55  1  0.37587954  0.32708939  0.85983488  1
  O  O56  1  0.32708939  0.37587954  0.14016512  1
  O  O57  1  0.59715501  0.54268343  0.86464799  1
  O  O58  1  0.10654622  0.15893036  0.12368628  1
  O  O59  1  0.89095718  0.82539602  0.37264704  1
  O  O60  1  0.66871447  0.62356450  0.35977990  1
  O  O61  1  0.45648583  0.39062121  0.37049110  1
  O  O62  1  0.80913263  0.70226966  0.84314157  1
  O  O63  1  0.30851011  0.18136414  0.33146231  1
  O  O64  1  0.40303656  0.19143139  0.65226045  1
  O  O65  1  0.86952285  0.60563795  0.58624101  1
  O  O66  1  0.67882628  0.40776860  0.55547531  1
  O  O67  1  0.80512548  0.57883156  0.15926104  1
  O  O68  1  0.58801188  0.31614816  0.07037413  1
  O  O69  1  0.39119197  0.12463921  0.07539049  1
  O  O70  1  0.60202972  0.09953625  0.94187762  1
  O  O71  1  0.88307463  0.37361499  0.71073392  1
  O  O72  1  0.90970643  0.40636118  0.44685284  1
  O  O73  1  0.61438540  0.09623305  0.20719887  1
  O  O74  1  0.69772428  0.10260687  0.66158974  1
  O  O75  1  0.91281634  0.28524050  0.18957167  1
  O  O76  1  0.90878764  0.20565193  0.94103713  1
  O  O77  1  0.81126210  0.08341492  0.43523449  1
  O  O78  1  0.96055678  0.11611881  0.64802286  1
  O  O79  1  0.87252683  0.03157267  0.13257212  1
