# generated using pymatgen
data_Li5V18O44
_symmetry_space_group_name_H-M   'P 1'
_cell_length_a   22.08209084
_cell_length_b   3.67351767
_cell_length_c   10.37041930
_cell_angle_alpha   90.00000000
_cell_angle_beta   107.30011356
_cell_angle_gamma   90.00000000
_symmetry_Int_Tables_number   1
_chemical_formula_structural   Li5V18O44
_chemical_formula_sum   'Li5 V18 O44'
_cell_volume   803.18012463
_cell_formula_units_Z   1
loop_
 _symmetry_equiv_pos_site_id
 _symmetry_equiv_pos_as_xyz
  1  'x, y, z'
loop_
 _atom_site_type_symbol
 _atom_site_label
 _atom_site_symmetry_multiplicity
 _atom_site_fract_x
 _atom_site_fract_y
 _atom_site_fract_z
 _atom_site_occupancy
  Li  Li0  1  0.16158630  0.75000000  0.62748563  1
  Li  Li1  1  0.18255703  0.75000000  0.28865417  1
  Li  Li2  1  0.48358229  0.25000000  0.46702080  1
  Li  Li3  1  0.81849192  0.25000000  0.71073642  1
  Li  Li4  1  0.83891826  0.25000000  0.37329981  1
  V  V5  1  0.02608894  0.25000000  0.40736687  1
  V  V6  1  0.08629450  0.75000000  0.86571261  1
  V  V7  1  0.06154844  0.25000000  0.09159981  1
  V  V8  1  0.28249998  0.25000000  0.82891057  1
  V  V9  1  0.25362804  0.75000000  0.04769585  1
  V  V10  1  0.31458403  0.25000000  0.51030590  1
  V  V11  1  0.36403961  0.75000000  0.31971360  1
  V  V12  1  0.42946006  0.25000000  0.77700383  1
  V  V13  1  0.40437826  0.75000000  0.00522060  1
  V  V14  1  0.59569112  0.25000000  0.99061344  1
  V  V15  1  0.57053264  0.75000000  0.21840847  1
  V  V16  1  0.63658497  0.25000000  0.67949764  1
  V  V17  1  0.68584053  0.75000000  0.49019057  1
  V  V18  1  0.74621144  0.25000000  0.95115154  1
  V  V19  1  0.71717807  0.75000000  0.17121547  1
  V  V20  1  0.93829770  0.75000000  0.90855498  1
  V  V21  1  0.91303875  0.25000000  0.13336511  1
  V  V22  1  0.97387780  0.75000000  0.59208169  1
  O  O23  1  0.00713954  0.75000000  0.43036192  1
  O  O24  1  0.08112533  0.25000000  0.91116405  1
  O  O25  1  0.01207390  0.25000000  0.22636081  1
  O  O26  1  0.09186315  0.75000000  0.70866947  1
  O  O27  1  0.04425856  0.75000000  0.03610467  1
  O  O28  1  0.10360484  0.25000000  0.46878519  1
  O  O29  1  0.17225997  0.75000000  0.96143770  1
  O  O30  1  0.13310077  0.25000000  0.20755263  1
  O  O31  1  0.21085589  0.25000000  0.71309858  1
  O  O32  1  0.23691176  0.25000000  0.45240378  1
  O  O33  1  0.30104896  0.75000000  0.88795804  1
  O  O34  1  0.25365652  0.75000000  0.21028884  1
  O  O35  1  0.33160228  0.25000000  0.69214476  1
  O  O36  1  0.26433100  0.25000000  0.00909402  1
  O  O37  1  0.38796167  0.25000000  0.95662404  1
  O  O38  1  0.33236196  0.75000000  0.48604984  1
  O  O39  1  0.34694917  0.25000000  0.34610898  1
  O  O40  1  0.42535836  0.75000000  0.82968949  1
  O  O41  1  0.35666367  0.75000000  0.14358154  1
  O  O42  1  0.43501611  0.25000000  0.62125947  1
  O  O43  1  0.44202305  0.75000000  0.38934812  1
  O  O44  1  0.52094783  0.25000000  0.88115529  1
  O  O45  1  0.47933759  0.75000000  0.11674112  1
  O  O46  1  0.56005158  0.25000000  0.61470713  1
  O  O47  1  0.56429192  0.75000000  0.37278920  1
  O  O48  1  0.64567861  0.25000000  0.85830075  1
  O  O49  1  0.57454394  0.25000000  0.16902756  1
  O  O50  1  0.65573861  0.75000000  0.65474699  1
  O  O51  1  0.66743628  0.25000000  0.51197266  1
  O  O52  1  0.61274309  0.75000000  0.04254287  1
  O  O53  1  0.73659108  0.75000000  0.99248099  1
  O  O54  1  0.66807412  0.75000000  0.30648718  1
  O  O55  1  0.74836611  0.25000000  0.79069184  1
  O  O56  1  0.69982106  0.25000000  0.11816469  1
  O  O57  1  0.76353590  0.75000000  0.54663303  1
  O  O58  1  0.78881215  0.75000000  0.28656219  1
  O  O59  1  0.86679752  0.75000000  0.79214338  1
  O  O60  1  0.82804817  0.25000000  0.04039404  1
  O  O61  1  0.89636571  0.75000000  0.53099458  1
  O  O62  1  0.95586527  0.25000000  0.96602222  1
  O  O63  1  0.90842417  0.25000000  0.29132964  1
  O  O64  1  0.98818581  0.75000000  0.77367544  1
  O  O65  1  0.91902375  0.75000000  0.08938460  1
  O  O66  1  0.99287058  0.25000000  0.56976422  1
