# generated using pymatgen
data_RbH2SNO3
_symmetry_space_group_name_H-M   'P 1'
_cell_length_a   7.54896435
_cell_length_b   7.95446821
_cell_length_c   14.81702285
_cell_angle_alpha   90.00000000
_cell_angle_beta   90.00000000
_cell_angle_gamma   90.00000000
_symmetry_Int_Tables_number   1
_chemical_formula_structural   RbH2SNO3
_chemical_formula_sum   'Rb8 H16 S8 N8 O24'
_cell_volume   889.73254276
_cell_formula_units_Z   8
loop_
 _symmetry_equiv_pos_site_id
 _symmetry_equiv_pos_as_xyz
  1  'x, y, z'
loop_
 _atom_site_type_symbol
 _atom_site_label
 _atom_site_symmetry_multiplicity
 _atom_site_fract_x
 _atom_site_fract_y
 _atom_site_fract_z
 _atom_site_occupancy
  Rb  Rb0  1  0.13059235  0.85794443  0.08272736  1
  Rb  Rb1  1  0.13059235  0.64205557  0.58272836  1
  Rb  Rb2  1  0.36940765  0.35794443  0.08272736  1
  Rb  Rb3  1  0.36940765  0.14205557  0.58272836  1
  Rb  Rb4  1  0.63059235  0.85794443  0.41727264  1
  Rb  Rb5  1  0.63059235  0.64205557  0.91727164  1
  Rb  Rb6  1  0.86940765  0.35794443  0.41727264  1
  Rb  Rb7  1  0.86940765  0.14205557  0.91727164  1
  H  H8  1  0.07408033  0.47335984  0.22474418  1
  H  H9  1  0.07408033  0.02664016  0.72474418  1
  H  H10  1  0.09050182  0.10200739  0.30860137  1
  H  H11  1  0.09050182  0.39799261  0.80860137  1
  H  H12  1  0.40949818  0.60200739  0.30860137  1
  H  H13  1  0.40949818  0.89799261  0.80860137  1
  H  H14  1  0.42591967  0.52664016  0.72474418  1
  H  H15  1  0.42591967  0.97335984  0.22474418  1
  H  H16  1  0.57408033  0.47335984  0.27525582  1
  H  H17  1  0.57408033  0.02664016  0.77525582  1
  H  H18  1  0.59050182  0.10200739  0.19139863  1
  H  H19  1  0.59050182  0.39799261  0.69139863  1
  H  H20  1  0.90949818  0.60200739  0.19139863  1
  H  H21  1  0.90949818  0.89799261  0.69139863  1
  H  H22  1  0.92591967  0.52664016  0.77525582  1
  H  H23  1  0.92591967  0.97335984  0.27525582  1
  S  S24  1  0.12348180  0.84350609  0.36301732  1
  S  S25  1  0.12348180  0.65649391  0.86301732  1
  S  S26  1  0.37651820  0.34350609  0.36301732  1
  S  S27  1  0.37651820  0.15649391  0.86301732  1
  S  S28  1  0.62348180  0.84350609  0.13698268  1
  S  S29  1  0.62348180  0.65649391  0.63698268  1
  S  S30  1  0.87651820  0.34350609  0.13698268  1
  S  S31  1  0.87651820  0.15649391  0.63698268  1
  N  N32  1  0.00349359  0.00926393  0.32915797  1
  N  N33  1  0.00349359  0.49073607  0.82915797  1
  N  N34  1  0.49650641  0.50926393  0.32915797  1
  N  N35  1  0.49650641  0.99073607  0.82915797  1
  N  N36  1  0.50349359  0.00926393  0.17084203  1
  N  N37  1  0.50349359  0.49073607  0.67084203  1
  N  N38  1  0.99650641  0.50926393  0.17084203  1
  N  N39  1  0.99650641  0.99073607  0.67084203  1
  O  O40  1  0.00746630  0.21422295  0.11334667  1
  O  O41  1  0.00746630  0.28577705  0.61334667  1
  O  O42  1  0.22618719  0.90397806  0.44073154  1
  O  O43  1  0.22618719  0.59602194  0.94073154  1
  O  O44  1  0.23946133  0.79213722  0.28693825  1
  O  O45  1  0.23946133  0.70786278  0.78693825  1
  O  O46  1  0.26053867  0.20786278  0.78693825  1
  O  O47  1  0.26053867  0.29213722  0.28693825  1
  O  O48  1  0.27381281  0.40397806  0.44073154  1
  O  O49  1  0.27381281  0.09602194  0.94073154  1
  O  O50  1  0.49253370  0.71422295  0.11334667  1
  O  O51  1  0.49253370  0.78577705  0.61334667  1
  O  O52  1  0.50746630  0.21422295  0.38665333  1
  O  O53  1  0.50746630  0.28577705  0.88665333  1
  O  O54  1  0.72618719  0.90397806  0.05926846  1
  O  O55  1  0.72618719  0.59602194  0.55926846  1
  O  O56  1  0.73946133  0.79213722  0.21306175  1
  O  O57  1  0.73946133  0.70786278  0.71306175  1
  O  O58  1  0.76053867  0.29213722  0.21306175  1
  O  O59  1  0.76053867  0.20786278  0.71306175  1
  O  O60  1  0.77381281  0.40397806  0.05926846  1
  O  O61  1  0.77381281  0.09602194  0.55926846  1
  O  O62  1  0.99253370  0.71422295  0.38665333  1
  O  O63  1  0.99253370  0.78577705  0.88665333  1
