# generated using pymatgen
data_Li4Ti3Co3(SbO8)2
_symmetry_space_group_name_H-M   'P 1'
_cell_length_a   6.02464255
_cell_length_b   5.96404496
_cell_length_c   9.76543572
_cell_angle_alpha   90.00825019
_cell_angle_beta   91.04175233
_cell_angle_gamma   119.66342394
_symmetry_Int_Tables_number   1
_chemical_formula_structural   Li4Ti3Co3(SbO8)2
_chemical_formula_sum   'Li4 Ti3 Co3 Sb2 O16'
_cell_volume   304.83272332
_cell_formula_units_Z   1
loop_
 _symmetry_equiv_pos_site_id
 _symmetry_equiv_pos_as_xyz
  1  'x, y, z'
loop_
 _atom_site_type_symbol
 _atom_site_label
 _atom_site_symmetry_multiplicity
 _atom_site_fract_x
 _atom_site_fract_y
 _atom_site_fract_z
 _atom_site_occupancy
  Li  Li0  1  0.32667529  0.66349325  0.89772677  1
  Li  Li1  1  0.98445119  0.99205148  0.98061538  1
  Li  Li2  1  0.00309801  0.00161948  0.49493131  1
  Li  Li3  1  0.66694526  0.33340761  0.40699556  1
  Ti  Ti4  1  0.17615954  0.83528824  0.21445128  1
  Ti  Ti5  1  0.17611481  0.34082389  0.21437229  1
  Ti  Ti6  1  0.34910548  0.17467154  0.71809559  1
  Co  Co7  1  0.65530911  0.82769255  0.21061816  1
  Co  Co8  1  0.82777926  0.65568382  0.71102554  1
  Co  Co9  1  0.82779519  0.17201105  0.71110980  1
  Sb  Sb10  1  0.34503053  0.67250000  0.49378287  1
  Sb  Sb11  1  0.68062024  0.34039600  0.98360184  1
  O  O12  1  0.18374018  0.84093169  0.59440684  1
  O  O13  1  0.04313985  0.52160425  0.33945744  1
  O  O14  1  0.29869007  0.64935719  0.10510186  1
  O  O15  1  0.01367864  0.00690372  0.30206501  1
  O  O16  1  0.01884837  0.00936739  0.79526822  1
  O  O17  1  0.18371547  0.34283293  0.59441349  1
  O  O18  1  0.46405981  0.95754410  0.34238533  1
  O  O19  1  0.46403574  0.50647165  0.34235089  1
  O  O20  1  0.34138079  0.17068956  0.10627268  1
  O  O21  1  0.68005532  0.83987749  0.58422723  1
  O  O22  1  0.50301879  0.46962811  0.85478474  1
  O  O23  1  0.50326607  0.03364261  0.85477392  1
  O  O24  1  0.63787673  0.31878936  0.60388099  1
  O  O25  1  0.84115431  0.66786484  0.09998031  1
  O  O26  1  0.96308445  0.48177535  0.85119481  1
  O  O27  1  0.84117449  0.17338181  0.09995083  1
