# generated using pymatgen
data_Mn3(SeO3)4
_symmetry_space_group_name_H-M   'P 1'
_cell_length_a   7.66699802
_cell_length_b   8.49961394
_cell_length_c   10.47724078
_cell_angle_alpha   73.52827563
_cell_angle_beta   88.23129137
_cell_angle_gamma   66.05868040
_symmetry_Int_Tables_number   1
_chemical_formula_structural   Mn3(SeO3)4
_chemical_formula_sum   'Mn6 Se8 O24'
_cell_volume   595.64367078
_cell_formula_units_Z   2
loop_
 _symmetry_equiv_pos_site_id
 _symmetry_equiv_pos_as_xyz
  1  'x, y, z'
loop_
 _atom_site_type_symbol
 _atom_site_label
 _atom_site_symmetry_multiplicity
 _atom_site_fract_x
 _atom_site_fract_y
 _atom_site_fract_z
 _atom_site_occupancy
  Mn  Mn0  1  0.00000000  0.00000000  0.00000000  1
  Mn  Mn1  1  0.00000000  0.00000000  0.50000000  1
  Mn  Mn2  1  0.05257052  0.27483995  0.21968959  1
  Mn  Mn3  1  0.05601803  0.62507912  0.31978718  1
  Mn  Mn4  1  0.94398197  0.37492088  0.68021282  1
  Mn  Mn5  1  0.94742948  0.72516005  0.78031041  1
  Se  Se6  1  0.28082915  0.20556441  0.51513476  1
  Se  Se7  1  0.27020945  0.24180053  0.94219104  1
  Se  Se8  1  0.31427774  0.73022671  0.79466475  1
  Se  Se9  1  0.31935745  0.80917681  0.27825374  1
  Se  Se10  1  0.68064255  0.19082319  0.72174626  1
  Se  Se11  1  0.68572226  0.26977329  0.20533525  1
  Se  Se12  1  0.72979055  0.75819947  0.05780896  1
  Se  Se13  1  0.71917085  0.79443559  0.48486524  1
  O  O14  1  0.10623294  0.12556072  0.57886104  1
  O  O15  1  0.06440842  0.41099389  0.84994453  1
  O  O16  1  0.23203586  0.04634947  0.96240021  1
  O  O17  1  0.18836354  0.33566059  0.35004570  1
  O  O18  1  0.25445064  0.26476272  0.10148043  1
  O  O19  1  0.20929599  0.36641474  0.59320292  1
  O  O20  1  0.11879841  0.83675507  0.17728381  1
  O  O21  1  0.11464504  0.76158805  0.89730377  1
  O  O22  1  0.14709811  0.75219014  0.65952814  1
  O  O23  1  0.31431404  0.62831316  0.39298531  1
  O  O24  1  0.21606942  0.98163724  0.35575651  1
  O  O25  1  0.54843164  0.48595104  0.15526956  1
  O  O26  1  0.45156836  0.51404896  0.84473044  1
  O  O27  1  0.78393058  0.01836276  0.64424349  1
  O  O28  1  0.68568596  0.37168684  0.60701469  1
  O  O29  1  0.85290189  0.24780986  0.34047186  1
  O  O30  1  0.88535496  0.23841195  0.10269623  1
  O  O31  1  0.88120159  0.16324493  0.82271619  1
  O  O32  1  0.79070401  0.63358526  0.40679708  1
  O  O33  1  0.74554936  0.73523728  0.89851957  1
  O  O34  1  0.81163646  0.66433941  0.64995430  1
  O  O35  1  0.76796414  0.95365053  0.03759979  1
  O  O36  1  0.93559158  0.58900611  0.15005547  1
  O  O37  1  0.89376706  0.87443928  0.42113896  1
