# generated using pymatgen
data_TaPO5
_symmetry_space_group_name_H-M   'P 1'
_cell_length_a   7.12370362
_cell_length_b   7.12370341
_cell_length_c   9.10883908
_cell_angle_alpha   101.40138383
_cell_angle_beta   101.40138467
_cell_angle_gamma   119.63442292
_symmetry_Int_Tables_number   1
_chemical_formula_structural   TaPO5
_chemical_formula_sum   'Ta4 P4 O20'
_cell_volume   369.42364138
_cell_formula_units_Z   4
loop_
 _symmetry_equiv_pos_site_id
 _symmetry_equiv_pos_as_xyz
  1  'x, y, z'
loop_
 _atom_site_type_symbol
 _atom_site_label
 _atom_site_symmetry_multiplicity
 _atom_site_fract_x
 _atom_site_fract_y
 _atom_site_fract_z
 _atom_site_occupancy
  Ta  Ta0  1  0.87500202  0.61703362  0.25464018  1
  Ta  Ta1  1  0.36239344  0.62036084  0.74535982  1
  Ta  Ta2  1  0.87036084  0.11239344  0.24535982  1
  Ta  Ta3  1  0.86703362  0.62500202  0.75464018  1
  P  P4  1  0.02910352  0.03063576  0.57071609  1
  P  P5  1  0.70838743  0.20991967  0.92928391  1
  P  P6  1  0.45991967  0.45838743  0.42928391  1
  P  P7  1  0.28063576  0.77910352  0.07071609  1
  O  O8  1  0.60148862  0.55805140  0.32347332  1
  O  O9  1  0.65950233  0.66794735  0.83686698  1
  O  O10  1  0.30865282  0.60824769  0.95706473  1
  O  O11  1  0.80805140  0.35148862  0.82347332  1
  O  O12  1  0.21612098  0.24987763  0.31965663  1
  O  O13  1  0.42363553  0.62867985  0.53652222  1
  O  O14  1  0.07263435  0.58108037  0.66313302  1
  O  O15  1  0.83108037  0.82263435  0.16313302  1
  O  O16  1  0.91794735  0.40950233  0.33686698  1
  O  O17  1  0.14646436  0.68022101  0.18034337  1
  O  O18  1  0.23457808  0.27801730  0.67652668  1
  O  O19  1  0.49987763  0.96612098  0.81965663  1
  O  O20  1  0.93022101  0.89646436  0.68034337  1
  O  O21  1  0.13711631  0.84215863  0.96347778  1
  O  O22  1  0.09215863  0.88711631  0.46347778  1
  O  O23  1  0.87867985  0.17363553  0.03652222  1
  O  O24  1  0.85824769  0.05865282  0.45706473  1
  O  O25  1  0.65118396  0.35158910  0.04293527  1
  O  O26  1  0.52801730  0.98457808  0.17652668  1
  O  O27  1  0.60158910  0.40118396  0.54293527  1
