# generated using pymatgen
data_Fe3Ni(PO4)4
_symmetry_space_group_name_H-M   'P 1'
_cell_length_a   4.87037485
_cell_length_b   9.94453734
_cell_length_c   5.89883979
_cell_angle_alpha   90.00000000
_cell_angle_beta   90.00000000
_cell_angle_gamma   90.18864760
_symmetry_Int_Tables_number   1
_chemical_formula_structural   Fe3Ni(PO4)4
_chemical_formula_sum   'Fe3 Ni1 P4 O16'
_cell_volume   285.70064301
_cell_formula_units_Z   1
loop_
 _symmetry_equiv_pos_site_id
 _symmetry_equiv_pos_as_xyz
  1  'x, y, z'
loop_
 _atom_site_type_symbol
 _atom_site_label
 _atom_site_symmetry_multiplicity
 _atom_site_fract_x
 _atom_site_fract_y
 _atom_site_fract_z
 _atom_site_occupancy
  Fe  Fe0  1  0.46804303  0.22668876  0.75000000  1
  Fe  Fe1  1  0.53380999  0.77337077  0.25000000  1
  Fe  Fe2  1  0.96731317  0.27457720  0.25000000  1
  Ni  Ni3  1  0.04846596  0.72265833  0.75000000  1
  P  P4  1  0.08295131  0.59681243  0.25000000  1
  P  P5  1  0.41621377  0.09566070  0.25000000  1
  P  P6  1  0.58244376  0.89804132  0.75000000  1
  P  P7  1  0.91838820  0.40701863  0.75000000  1
  O  O8  1  0.15268112  0.44697550  0.25000000  1
  O  O9  1  0.23366400  0.67149053  0.04914846  1
  O  O10  1  0.23366400  0.67149053  0.45085154  1
  O  O11  1  0.22778296  0.38299662  0.75000000  1
  O  O12  1  0.26763569  0.88502442  0.75000000  1
  O  O13  1  0.27115817  0.17141376  0.04707323  1
  O  O14  1  0.27115817  0.17141376  0.45292677  1
  O  O15  1  0.34639732  0.94671181  0.25000000  1
  O  O16  1  0.64394427  0.04997169  0.75000000  1
  O  O17  1  0.72327143  0.82681614  0.54487717  1
  O  O18  1  0.72327143  0.82681614  0.95512283  1
  O  O19  1  0.72629211  0.11917250  0.25000000  1
  O  O20  1  0.77450250  0.61777363  0.25000000  1
  O  O21  1  0.77161232  0.33080822  0.54761979  1
  O  O22  1  0.77161232  0.33080822  0.95238021  1
  O  O23  1  0.84372301  0.55548941  0.75000000  1
