# generated using pymatgen
data_MnCo3(PO4)4
_symmetry_space_group_name_H-M   'P 1'
_cell_length_a   4.83762731
_cell_length_b   9.76834153
_cell_length_c   5.94123173
_cell_angle_alpha   90.00000000
_cell_angle_beta   90.00000000
_cell_angle_gamma   89.95362311
_symmetry_Int_Tables_number   1
_chemical_formula_structural   MnCo3(PO4)4
_chemical_formula_sum   'Mn1 Co3 P4 O16'
_cell_volume   280.75635312
_cell_formula_units_Z   1
loop_
 _symmetry_equiv_pos_site_id
 _symmetry_equiv_pos_as_xyz
  1  'x, y, z'
loop_
 _atom_site_type_symbol
 _atom_site_label
 _atom_site_symmetry_multiplicity
 _atom_site_fract_x
 _atom_site_fract_y
 _atom_site_fract_z
 _atom_site_occupancy
  Mn  Mn0  1  0.93428462  0.28337961  0.25000000  1
  Co  Co1  1  0.03285323  0.72910326  0.75000000  1
  Co  Co2  1  0.42985434  0.21402872  0.75000000  1
  Co  Co3  1  0.53324555  0.77101686  0.25000000  1
  P  P4  1  0.09193240  0.59870586  0.25000000  1
  P  P5  1  0.41845504  0.09697617  0.25000000  1
  P  P6  1  0.59169109  0.90323308  0.75000000  1
  P  P7  1  0.91081038  0.40048262  0.75000000  1
  O  O8  1  0.15301663  0.44434375  0.25000000  1
  O  O9  1  0.23994933  0.66960320  0.04714239  1
  O  O10  1  0.23994933  0.66960320  0.45285761  1
  O  O11  1  0.22536078  0.38017592  0.75000000  1
  O  O12  1  0.27675398  0.87974186  0.75000000  1
  O  O13  1  0.27155762  0.17045471  0.04635770  1
  O  O14  1  0.27155762  0.17045471  0.45364230  1
  O  O15  1  0.35458022  0.94290052  0.25000000  1
  O  O16  1  0.65654609  0.05721878  0.75000000  1
  O  O17  1  0.74051996  0.83178479  0.54699643  1
  O  O18  1  0.74051996  0.83178479  0.95300357  1
  O  O19  1  0.73218270  0.11670549  0.25000000  1
  O  O20  1  0.77636928  0.62115992  0.25000000  1
  O  O21  1  0.76047574  0.33029768  0.54787029  1
  O  O22  1  0.76047574  0.33029768  0.95212971  1
  O  O23  1  0.85705737  0.55654684  0.75000000  1
