# generated using pymatgen
data_VCr3(PO4)6
_symmetry_space_group_name_H-M   'P 1'
_cell_length_a   8.76962930
_cell_length_b   8.76962867
_cell_length_c   8.76962947
_cell_angle_alpha   58.36243694
_cell_angle_beta   58.36244003
_cell_angle_gamma   58.36243723
_symmetry_Int_Tables_number   1
_chemical_formula_structural   VCr3(PO4)6
_chemical_formula_sum   'V1 Cr3 P6 O24'
_cell_volume   459.02274292
_cell_formula_units_Z   1
loop_
 _symmetry_equiv_pos_site_id
 _symmetry_equiv_pos_as_xyz
  1  'x, y, z'
loop_
 _atom_site_type_symbol
 _atom_site_label
 _atom_site_symmetry_multiplicity
 _atom_site_fract_x
 _atom_site_fract_y
 _atom_site_fract_z
 _atom_site_occupancy
  V  V0  1  0.85928709  0.85928709  0.85928709  1
  Cr  Cr1  1  0.14287704  0.14287704  0.14287704  1
  Cr  Cr2  1  0.35757976  0.35757976  0.35757976  1
  Cr  Cr3  1  0.64260930  0.64260930  0.64260930  1
  P  P4  1  0.03384127  0.75021653  0.46620055  1
  P  P5  1  0.46620055  0.03384127  0.75021653  1
  P  P6  1  0.75021653  0.46620055  0.03384127  1
  P  P7  1  0.25178842  0.53262186  0.96630842  1
  P  P8  1  0.53262186  0.96630842  0.25178842  1
  P  P9  1  0.96630842  0.25178842  0.53262186  1
  O  O10  1  0.13873362  0.27426247  0.51139500  1
  O  O11  1  0.27426247  0.51139500  0.13873362  1
  O  O12  1  0.06275256  0.92288776  0.28236838  1
  O  O13  1  0.51139500  0.13873362  0.27426247  1
  O  O14  1  0.21668998  0.57626366  0.44188464  1
  O  O15  1  0.00124378  0.78162793  0.64101595  1
  O  O16  1  0.28236838  0.06275256  0.92288776  1
  O  O17  1  0.44188464  0.21668998  0.57626366  1
  O  O18  1  0.57626366  0.44188464  0.21668998  1
  O  O19  1  0.22036176  0.36331251  0.99214441  1
  O  O20  1  0.07289636  0.71624611  0.93598719  1
  O  O21  1  0.36331251  0.99214441  0.22036176  1
  O  O22  1  0.64101595  0.00124378  0.78162793  1
  O  O23  1  0.92288776  0.28236838  0.06275256  1
  O  O24  1  0.78162793  0.64101595  0.00124378  1
  O  O25  1  0.42250157  0.56352853  0.78289558  1
  O  O26  1  0.56352853  0.78289558  0.42250157  1
  O  O27  1  0.71624611  0.93598719  0.07289636  1
  O  O28  1  0.99214441  0.22036176  0.36331251  1
  O  O29  1  0.78289558  0.42250157  0.56352853  1
  O  O30  1  0.49175241  0.86318206  0.72073452  1
  O  O31  1  0.93598719  0.07289636  0.71624611  1
  O  O32  1  0.72073452  0.49175241  0.86318206  1
  O  O33  1  0.86318206  0.72073452  0.49175241  1
