# generated using pymatgen
data_Li4Mn3SbO8
_symmetry_space_group_name_H-M   'P 1'
_cell_length_a   10.52189765
_cell_length_b   10.52102579
_cell_length_c   14.82465499
_cell_angle_alpha   20.02551991
_cell_angle_beta   20.02426213
_cell_angle_gamma   34.50364347
_symmetry_Int_Tables_number   1
_chemical_formula_structural   Li4Mn3SbO8
_chemical_formula_sum   'Li4 Mn3 Sb1 O8'
_cell_volume   166.62774584
_cell_formula_units_Z   1
loop_
 _symmetry_equiv_pos_site_id
 _symmetry_equiv_pos_as_xyz
  1  'x, y, z'
loop_
 _atom_site_type_symbol
 _atom_site_label
 _atom_site_symmetry_multiplicity
 _atom_site_fract_x
 _atom_site_fract_y
 _atom_site_fract_z
 _atom_site_occupancy
  Li  Li0  1  0.00000623  0.99998823  0.50000206  1
  Li  Li1  1  0.00000004  0.49998720  0.50000742  1
  Li  Li2  1  0.50001002  0.00000235  0.49999214  1
  Li  Li3  1  0.50000233  0.50000130  0.49999766  1
  Mn  Mn4  1  0.00000544  0.50001754  0.99998871  1
  Mn  Mn5  1  0.49998600  0.99998607  0.00001080  1
  Mn  Mn6  1  0.49998858  0.50000493  0.00000235  1
  Sb  Sb7  1  -0.00000455  0.00000142  0.00000417  1
  O  O8  1  0.00374733  0.00232547  0.26111164  1
  O  O9  1  0.99946553  0.53879785  0.22844819  1
  O  O10  1  0.53911441  0.99977836  0.22803431  1
  O  O11  1  0.99624275  0.99770030  0.73887901  1
  O  O12  1  0.46034434  0.46058805  0.30641711  1
  O  O13  1  0.00052925  0.46120070  0.77155512  1
  O  O14  1  0.46089497  0.00021526  0.77196811  1
  O  O15  1  0.53966733  0.53940497  0.69357922  1
