# generated using pymatgen
data_Li(WO3)2
_symmetry_space_group_name_H-M   'P 1'
_cell_length_a   6.56812899
_cell_length_b   6.56812906
_cell_length_c   6.56812915
_cell_angle_alpha   109.85307994
_cell_angle_beta   109.14842330
_cell_angle_gamma   109.41294202
_symmetry_Int_Tables_number   1
_chemical_formula_structural   Li(WO3)2
_chemical_formula_sum   'Li2 W4 O12'
_cell_volume   218.11541762
_cell_formula_units_Z   2
loop_
 _symmetry_equiv_pos_site_id
 _symmetry_equiv_pos_as_xyz
  1  'x, y, z'
loop_
 _atom_site_type_symbol
 _atom_site_label
 _atom_site_symmetry_multiplicity
 _atom_site_fract_x
 _atom_site_fract_y
 _atom_site_fract_z
 _atom_site_occupancy
  Li  Li0  1  0.00000000  0.50000000  0.50000000  1
  Li  Li1  1  0.50000000  0.00000000  0.50000000  1
  W  W2  1  0.00000000  0.50000000  0.00000000  1
  W  W3  1  0.00000000  0.00000000  0.50000000  1
  W  W4  1  0.50000000  0.50000000  0.50000000  1
  W  W5  1  0.50000000  0.00000000  0.00000000  1
  O  O6  1  0.20115166  0.90642888  0.70527722  1
  O  O7  1  0.08018513  0.28991304  0.79027109  1
  O  O8  1  0.20115166  0.49587343  0.29472278  1
  O  O9  1  0.29331910  0.79893421  0.09225431  1
  O  O10  1  0.50035805  0.71008696  0.79027109  1
  O  O11  1  0.29331910  0.20106579  0.49438490  1
  O  O12  1  0.70668090  0.79893421  0.50561510  1
  O  O13  1  0.49964195  0.28991304  0.20972891  1
  O  O14  1  0.70668090  0.20106579  0.90774569  1
  O  O15  1  0.79884834  0.50412657  0.70527722  1
  O  O16  1  0.91981487  0.71008696  0.20972891  1
  O  O17  1  0.79884834  0.09357112  0.29472278  1
