# generated using pymatgen
data_ZnH12C3S4(N3O2)2
_symmetry_space_group_name_H-M   'P 1'
_cell_length_a   11.13487553
_cell_length_b   7.77474541
_cell_length_c   15.65605534
_cell_angle_alpha   90.00000000
_cell_angle_beta   90.00000000
_cell_angle_gamma   90.00000000
_symmetry_Int_Tables_number   1
_chemical_formula_structural   ZnH12C3S4(N3O2)2
_chemical_formula_sum   'Zn4 H48 C12 S16 N24 O16'
_cell_volume   1355.35758660
_cell_formula_units_Z   4
loop_
 _symmetry_equiv_pos_site_id
 _symmetry_equiv_pos_as_xyz
  1  'x, y, z'
loop_
 _atom_site_type_symbol
 _atom_site_label
 _atom_site_symmetry_multiplicity
 _atom_site_fract_x
 _atom_site_fract_y
 _atom_site_fract_z
 _atom_site_occupancy
  Zn  Zn0  1  0.06766318  0.34512957  0.35080093  1
  Zn  Zn1  1  0.43233682  0.34512957  0.85080093  1
  Zn  Zn2  1  0.56766318  0.65487043  0.35080093  1
  Zn  Zn3  1  0.93233682  0.65487043  0.85080093  1
  H  H4  1  0.03620668  0.38344094  0.77151939  1
  H  H5  1  0.03772367  0.13935663  0.06190965  1
  H  H6  1  0.05751766  0.32606216  0.66414604  1
  H  H7  1  0.08387164  0.92150109  0.91845294  1
  H  H8  1  0.11478199  0.70830258  0.07761469  1
  H  H9  1  0.14531586  0.81489993  0.49296514  1
  H  H10  1  0.15074256  0.66102462  0.40921600  1
  H  H11  1  0.15439218  0.29040136  0.05049549  1
  H  H12  1  0.20266357  0.05507604  0.26242766  1
  H  H13  1  0.21283030  0.98641871  0.67433061  1
  H  H14  1  0.21763505  0.03368338  0.89925016  1
  H  H15  1  0.24658110  0.59663378  0.10819237  1
  H  H16  1  0.25341890  0.59663378  0.60819237  1
  H  H17  1  0.28236495  0.03368338  0.39925016  1
  H  H18  1  0.28716970  0.98641871  0.17433061  1
  H  H19  1  0.29733643  0.05507604  0.76242766  1
  H  H20  1  0.34560782  0.29040136  0.55049549  1
  H  H21  1  0.34925744  0.66102462  0.90921600  1
  H  H22  1  0.35468414  0.81489993  0.99296514  1
  H  H23  1  0.38521801  0.70830258  0.57761469  1
  H  H24  1  0.41612836  0.92150109  0.41845294  1
  H  H25  1  0.44248234  0.32606216  0.16414604  1
  H  H26  1  0.46227633  0.13935663  0.56190965  1
  H  H27  1  0.46379332  0.38344094  0.27151939  1
  H  H28  1  0.53620668  0.61655906  0.77151939  1
  H  H29  1  0.53772367  0.86064337  0.06190965  1
  H  H30  1  0.55751766  0.67393784  0.66414604  1
  H  H31  1  0.58387164  0.07849891  0.91845294  1
  H  H32  1  0.61478199  0.29169742  0.07761469  1
  H  H33  1  0.64531586  0.18510007  0.49296514  1
  H  H34  1  0.65074256  0.33897538  0.40921600  1
  H  H35  1  0.65439218  0.70959864  0.05049549  1
  H  H36  1  0.70266357  0.94492396  0.26242766  1
  H  H37  1  0.71283030  0.01358129  0.67433061  1
  H  H38  1  0.71763505  0.96631662  0.89925016  1
  H  H39  1  0.74658110  0.40336622  0.10819237  1
  H  H40  1  0.75341890  0.40336622  0.60819237  1
  H  H41  1  0.78236495  0.96631662  0.39925016  1
  H  H42  1  0.78716970  0.01358129  0.17433061  1
  H  H43  1  0.79733643  0.94492396  0.76242766  1
  H  H44  1  0.84560782  0.70959864  0.55049549  1
  H  H45  1  0.84925744  0.33897538  0.90921600  1
  H  H46  1  0.85468414  0.18510007  0.99296514  1
  H  H47  1  0.88521801  0.29169742  0.57761469  1
  H  H48  1  0.91612836  0.07849891  0.41845294  1
  H  H49  1  0.94248234  0.67393784  0.16414604  1
  H  H50  1  0.96227633  0.86064337  0.56190965  1
  H  H51  1  0.96379332  0.61655906  0.27151939  1
  C  C52  1  0.00618981  0.33439352  0.97668474  1
  C  C53  1  0.11501190  0.60365545  0.19831168  1
  C  C54  1  0.13625035  0.93826474  0.79178716  1
  C  C55  1  0.36374965  0.93826474  0.29178716  1
  C  C56  1  0.38498810  0.60365545  0.69831168  1
  C  C57  1  0.49381019  0.33439352  0.47668474  1
  C  C58  1  0.50618981  0.66560648  0.97668474  1
  C  C59  1  0.61501190  0.39634455  0.19831168  1
  C  C60  1  0.63625035  0.06173526  0.79178716  1
  C  C61  1  0.86374965  0.06173526  0.29178716  1
  C  C62  1  0.88498810  0.39634455  0.69831168  1
  C  C63  1  0.99381019  0.66560648  0.47668474  1
  S  S64  1  0.01572071  0.83208261  0.74574996  1
  S  S65  1  0.07943925  0.49664522  0.92110752  1
  S  S66  1  0.20738414  0.51049319  0.27524186  1
  S  S67  1  0.29261586  0.51049319  0.77524186  1
  S  S68  1  0.42056075  0.49664522  0.42110752  1
  S  S69  1  0.48427929  0.83208261  0.24574996  1
  S  S70  1  0.51572071  0.16791739  0.74574996  1
  S  S71  1  0.57943925  0.50335478  0.92110752  1
  S  S72  1  0.70738414  0.48950681  0.27524186  1
  S  S73  1  0.79261586  0.48950681  0.77524186  1
  S  S74  1  0.92056075  0.50335478  0.42110752  1
  S  S75  1  0.98427929  0.16791739  0.24574996  1
  S  S76  1  0.12850901  0.15713590  0.52273835  1
  S  S77  1  0.37149099  0.15713590  0.02273835  1
  S  S78  1  0.62850901  0.84286410  0.52273835  1
  S  S79  1  0.87149099  0.84286410  0.02273835  1
  N  N80  1  0.00052344  0.64314189  0.21315946  1
  N  N81  1  0.06814672  0.25339243  0.03732185  1
  N  N82  1  0.10654044  0.71341330  0.46009702  1
  N  N83  1  0.14821036  0.95967315  0.87584431  1
  N  N84  1  0.16301599  0.64095366  0.12244701  1
  N  N85  1  0.22038898  0.00000988  0.73926330  1
  N  N86  1  0.27961102  0.00000988  0.23926330  1
  N  N87  1  0.33698401  0.64095366  0.62244701  1
  N  N88  1  0.35178964  0.95967315  0.37584431  1
  N  N89  1  0.39345956  0.71341330  0.96009702  1
  N  N90  1  0.43185328  0.25339243  0.53732185  1
  N  N91  1  0.49947656  0.64314189  0.71315946  1
  N  N92  1  0.50052344  0.35685811  0.21315946  1
  N  N93  1  0.56814672  0.74660757  0.03732185  1
  N  N94  1  0.60654044  0.28658670  0.46009702  1
  N  N95  1  0.64821036  0.04032685  0.87584431  1
  N  N96  1  0.66301599  0.35904634  0.12244701  1
  N  N97  1  0.72038898  -0.00000988  0.73926330  1
  N  N98  1  0.77961102  -0.00000988  0.23926330  1
  N  N99  1  0.83698401  0.35904634  0.62244701  1
  N  N100  1  0.85178964  0.04032685  0.37584431  1
  N  N101  1  0.89345956  0.28658670  0.96009702  1
  N  N102  1  0.93185328  0.74660757  0.53732185  1
  N  N103  1  0.99947656  0.35685811  0.71315946  1
  O  O104  1  0.00274421  0.87597824  0.02955218  1
  O  O105  1  0.15985342  0.18629683  0.42850884  1
  O  O106  1  0.16430641  0.31095308  0.57255308  1
  O  O107  1  0.19853110  0.00350951  0.55007660  1
  O  O108  1  0.30146890  0.00350951  0.05007660  1
  O  O109  1  0.33569359  0.31095308  0.07255308  1
  O  O110  1  0.34014658  0.18629683  0.92850884  1
  O  O111  1  0.49725579  0.87597824  0.52955218  1
  O  O112  1  0.50274421  0.12402176  0.02955218  1
  O  O113  1  0.65985342  0.81370317  0.42850884  1
  O  O114  1  0.66430641  0.68904692  0.57255308  1
  O  O115  1  0.69853110  0.99649049  0.55007660  1
  O  O116  1  0.80146890  0.99649049  0.05007660  1
  O  O117  1  0.83569359  0.68904692  0.07255308  1
  O  O118  1  0.84014658  0.81370317  0.92850884  1
  O  O119  1  0.99725579  0.12402176  0.52955218  1
