# generated using pymatgen
data_Li3Ti(NiO3)2
_symmetry_space_group_name_H-M   'P 1'
_cell_length_a   15.36737138
_cell_length_b   9.78081572
_cell_length_c   9.78081579
_cell_angle_alpha   17.14587219
_cell_angle_beta   16.71209548
_cell_angle_gamma   16.71209510
_symmetry_Int_Tables_number   1
_chemical_formula_structural   Li3Ti(NiO3)2
_chemical_formula_sum   'Li3 Ti1 Ni2 O6'
_cell_volume   107.78006022
_cell_formula_units_Z   1
loop_
 _symmetry_equiv_pos_site_id
 _symmetry_equiv_pos_as_xyz
  1  'x, y, z'
loop_
 _atom_site_type_symbol
 _atom_site_label
 _atom_site_symmetry_multiplicity
 _atom_site_fract_x
 _atom_site_fract_y
 _atom_site_fract_z
 _atom_site_occupancy
  Li  Li0  1  0.16666700  0.50000000  0.50000000  1
  Li  Li1  1  0.49249678  0.50143629  0.50143629  1
  Li  Li2  1  0.84083722  0.49856371  0.49856371  1
  Ti  Ti3  1  0.66666700  0.00000000  0.00000000  1
  Ni  Ni4  1  0.99181557  0.00648109  0.00648109  1
  Ni  Ni5  1  0.34151843  0.99351891  0.99351891  1
  O  O6  1  0.26410526  0.24599407  0.24599407  1
  O  O7  1  0.57018183  0.26445681  0.26445681  1
  O  O8  1  0.06922874  0.75400593  0.75400593  1
  O  O9  1  0.88682876  0.27704634  0.27704634  1
  O  O10  1  0.44650424  0.72295366  0.72295366  1
  O  O11  1  0.76315117  0.73554319  0.73554319  1
