# generated using pymatgen
data_CaSb2(PO5)2
_symmetry_space_group_name_H-M   'P 1'
_cell_length_a   7.38752949
_cell_length_b   7.38752904
_cell_length_c   9.12022057
_cell_angle_alpha   103.05579161
_cell_angle_beta   103.05579719
_cell_angle_gamma   116.24652181
_symmetry_Int_Tables_number   1
_chemical_formula_structural   CaSb2(PO5)2
_chemical_formula_sum   'Ca2 Sb4 P4 O20'
_cell_volume   403.51831314
_cell_formula_units_Z   2
loop_
 _symmetry_equiv_pos_site_id
 _symmetry_equiv_pos_as_xyz
  1  'x, y, z'
loop_
 _atom_site_type_symbol
 _atom_site_label
 _atom_site_symmetry_multiplicity
 _atom_site_fract_x
 _atom_site_fract_y
 _atom_site_fract_z
 _atom_site_occupancy
  Ca  Ca0  1  0.49816284  0.99816284  0.50000000  1
  Ca  Ca1  1  0.24816284  0.24816284  1.00000000  1
  Sb  Sb2  1  0.87334239  0.61729472  0.25264734  1
  Sb  Sb3  1  0.36464738  0.62069504  0.74735266  1
  Sb  Sb4  1  0.87069504  0.11464738  0.24735266  1
  Sb  Sb5  1  0.86729472  0.62334239  0.75264734  1
  P  P6  1  0.04389835  0.04382608  0.59756342  1
  P  P7  1  0.69633393  0.19626266  0.90243658  1
  P  P8  1  0.44626266  0.44633393  0.40243658  1
  P  P9  1  0.29382608  0.79389835  0.09756342  1
  O  O10  1  0.55969700  0.52865595  0.28658412  1
  O  O11  1  0.65677978  0.66482228  0.83217732  1
  O  O12  1  0.30875642  0.61019120  0.98605970  1
  O  O13  1  0.77865595  0.30969700  0.78658412  1
  O  O14  1  0.21996007  0.24500012  0.28374072  1
  O  O15  1  0.42506642  0.62842833  0.50930832  1
  O  O16  1  0.07460145  0.58264495  0.66782268  1
  O  O17  1  0.83264495  0.82460145  0.16782268  1
  O  O18  1  0.91482228  0.40677978  0.33217732  1
  O  O19  1  0.18621835  0.71125940  0.21625928  1
  O  O20  1  0.24207183  0.27311388  0.71341588  1
  O  O21  1  0.49500012  0.96996007  0.78374072  1
  O  O22  1  0.96125940  0.93621835  0.71625928  1
  O  O23  1  0.16575909  0.86912101  0.99069168  1
  O  O24  1  0.11912101  0.91575909  0.49069168  1
  O  O25  1  0.87842833  0.17506642  0.00930832  1
  O  O26  1  0.86019120  0.05875642  0.48605970  1
  O  O27  1  0.62413151  0.32269672  0.01394030  1
  O  O28  1  0.52311388  0.99207183  0.21341588  1
  O  O29  1  0.57269672  0.37413151  0.51394030  1
