# generated using pymatgen
data_Cs2MnO4
_symmetry_space_group_name_H-M   'P 1'
_cell_length_a   6.65990843
_cell_length_b   6.65990843
_cell_length_c   8.38261029
_cell_angle_alpha   90.00000000
_cell_angle_beta   90.00000000
_cell_angle_gamma   57.22929599
_symmetry_Int_Tables_number   1
_chemical_formula_structural   Cs2MnO4
_chemical_formula_sum   'Cs4 Mn2 O8'
_cell_volume   312.63021621
_cell_formula_units_Z   2
loop_
 _symmetry_equiv_pos_site_id
 _symmetry_equiv_pos_as_xyz
  1  'x, y, z'
loop_
 _atom_site_type_symbol
 _atom_site_label
 _atom_site_symmetry_multiplicity
 _atom_site_fract_x
 _atom_site_fract_y
 _atom_site_fract_z
 _atom_site_occupancy
  Cs  Cs0  1  0.04894422  0.04894422  0.09656128  1
  Cs  Cs1  1  0.95105578  0.95105578  0.59656128  1
  Cs  Cs2  1  0.63443446  0.63443446  0.43260527  1
  Cs  Cs3  1  0.36556554  0.36556554  0.93260527  1
  Mn  Mn4  1  0.31211834  0.31211834  0.40082966  1
  Mn  Mn5  1  0.68788166  0.68788166  0.90082966  1
  O  O6  1  0.13600049  0.56588886  0.30322326  1
  O  O7  1  0.43411114  0.86399951  0.80322326  1
  O  O8  1  0.16947749  0.16947749  0.41861802  1
  O  O9  1  0.62042158  0.62042158  0.07554324  1
  O  O10  1  0.37957842  0.37957842  0.57554324  1
  O  O11  1  0.83052251  0.83052251  0.91861802  1
  O  O12  1  0.56588886  0.13600049  0.30322326  1
  O  O13  1  0.86399951  0.43411114  0.80322326  1
