# generated using pymatgen
data_Li5V5(FeO6)2
_symmetry_space_group_name_H-M   'P 1'
_cell_length_a   5.21537167
_cell_length_b   5.21537096
_cell_length_c   9.91141252
_cell_angle_alpha   85.10114147
_cell_angle_beta   94.89885448
_cell_angle_gamma   60.36051825
_symmetry_Int_Tables_number   1
_chemical_formula_structural   Li5V5(FeO6)2
_chemical_formula_sum   'Li5 V5 Fe2 O12'
_cell_volume   230.91111742
_cell_formula_units_Z   1
loop_
 _symmetry_equiv_pos_site_id
 _symmetry_equiv_pos_as_xyz
  1  'x, y, z'
loop_
 _atom_site_type_symbol
 _atom_site_label
 _atom_site_symmetry_multiplicity
 _atom_site_fract_x
 _atom_site_fract_y
 _atom_site_fract_z
 _atom_site_occupancy
  Li  Li0  1  0.16608745  0.66343993  0.51259105  1
  Li  Li1  1  0.31750365  0.84505396  0.98582540  1
  Li  Li2  1  0.66343993  0.16608745  0.98740895  1
  Li  Li3  1  0.84505396  0.31750365  0.51417460  1
  Li  Li4  1  0.91655140  0.91655140  0.75000000  1
  V  V5  1  0.99955303  0.51069089  0.99256859  1
  V  V6  1  0.51069089  0.99955303  0.50743141  1
  V  V7  1  0.42306969  0.42306969  0.25000000  1
  V  V8  1  0.57867917  0.57867917  0.75000000  1
  V  V9  1  0.08050223  0.08050223  0.25000000  1
  Fe  Fe10  1  0.24813557  0.24813557  0.75000000  1
  Fe  Fe11  1  0.75086749  0.75086749  0.25000000  1
  O  O12  1  0.94227545  0.23551930  0.87332536  1
  O  O13  1  0.23551930  0.94227545  0.62667464  1
  O  O14  1  0.14370882  0.36105005  0.36780061  1
  O  O15  1  0.36105005  0.14370882  0.13219939  1
  O  O16  1  0.28727001  0.53871240  0.87586319  1
  O  O17  1  0.53871240  0.28727001  0.62413681  1
  O  O18  1  0.43658050  0.73073209  0.36942110  1
  O  O19  1  0.73073209  0.43658050  0.13057890  1
  O  O20  1  0.63711547  0.84519809  0.87972643  1
  O  O21  1  0.84519809  0.63711547  0.62027357  1
  O  O22  1  0.77807029  0.06363309  0.36998295  1
  O  O23  1  0.06363309  0.77807029  0.13001705  1
