# generated using pymatgen
data_V3Fe2Sb(PO4)6
_symmetry_space_group_name_H-M   'P 1'
_cell_length_a   8.64016888
_cell_length_b   8.71677813
_cell_length_c   8.71677835
_cell_angle_alpha   59.99999447
_cell_angle_beta   59.70625209
_cell_angle_gamma   59.70625774
_symmetry_Int_Tables_number   1
_chemical_formula_structural   V3Fe2Sb(PO4)6
_chemical_formula_sum   'V3 Fe2 Sb1 P6 O24'
_cell_volume   462.14326199
_cell_formula_units_Z   1
loop_
 _symmetry_equiv_pos_site_id
 _symmetry_equiv_pos_as_xyz
  1  'x, y, z'
loop_
 _atom_site_type_symbol
 _atom_site_label
 _atom_site_symmetry_multiplicity
 _atom_site_fract_x
 _atom_site_fract_y
 _atom_site_fract_z
 _atom_site_occupancy
  V  V0  1  0.07110622  0.64296493  0.64296493  1
  V  V1  1  0.42875430  0.85708223  0.85708223  1
  V  V2  1  0.92365288  0.35878271  0.35878271  1
  Fe  Fe3  1  0.01499030  0.99500290  0.99500290  1
  Fe  Fe4  1  0.49849408  0.50050231  0.50050231  1
  Sb  Sb5  1  0.57201038  0.14266321  0.14266321  1
  P  P6  1  0.24567367  0.25318720  0.54501970  1
  P  P7  1  0.24567367  0.95611944  0.25318720  1
  P  P8  1  0.24567367  0.54501970  0.95611944  1
  P  P9  1  0.74794476  0.46060896  0.04346329  1
  P  P10  1  0.74794476  0.04346329  0.74798298  1
  P  P11  1  0.74794476  0.74798298  0.46060896  1
  O  O12  1  0.07204660  0.11434122  0.31345425  1
  O  O13  1  0.07204660  0.50015793  0.11434122  1
  O  O14  1  0.07204660  0.31345425  0.50015793  1
  O  O15  1  0.23091052  0.09069818  0.73705486  1
  O  O16  1  0.43645940  0.18777038  0.38573073  1
  O  O17  1  0.27176611  0.40995109  0.55690765  1
  O  O18  1  0.23091052  0.94133744  0.09069818  1
  O  O19  1  0.27176611  0.76137515  0.40995109  1
  O  O20  1  0.56676701  0.61097335  0.00585028  1
  O  O21  1  0.27176611  0.55690765  0.76137515  1
  O  O22  1  0.76816194  0.25797834  0.05814633  1
  O  O23  1  0.56676701  0.00585028  0.81641036  1
  O  O24  1  0.43645940  0.99003949  0.18777038  1
  O  O25  1  0.23091052  0.73705486  0.94133744  1
  O  O26  1  0.72757933  0.43736969  0.24085089  1
  O  O27  1  0.43645940  0.38573073  0.99003949  1
  O  O28  1  0.72757933  0.24085089  0.59420010  1
  O  O29  1  0.76816194  0.05814633  0.91571338  1
  O  O30  1  0.72757933  0.59420010  0.43736969  1
  O  O31  1  0.56676701  0.81641036  0.61097335  1
  O  O32  1  0.76816194  0.91571338  0.25797834  1
  O  O33  1  0.92968896  0.69190713  0.49059048  1
  O  O34  1  0.92968896  0.49059048  0.88781343  1
  O  O35  1  0.92968896  0.88781343  0.69190713  1
