# generated using pymatgen
data_Li2Fe3WO8
_symmetry_space_group_name_H-M   'P 1'
_cell_length_a   8.62549150
_cell_length_b   8.61432247
_cell_length_c   8.62120566
_cell_angle_alpha   89.80588158
_cell_angle_beta   90.30223304
_cell_angle_gamma   90.21775310
_symmetry_Int_Tables_number   1
_chemical_formula_structural   Li2Fe3WO8
_chemical_formula_sum   'Li8 Fe12 W4 O32'
_cell_volume   640.56224822
_cell_formula_units_Z   4
loop_
 _symmetry_equiv_pos_site_id
 _symmetry_equiv_pos_as_xyz
  1  'x, y, z'
loop_
 _atom_site_type_symbol
 _atom_site_label
 _atom_site_symmetry_multiplicity
 _atom_site_fract_x
 _atom_site_fract_y
 _atom_site_fract_z
 _atom_site_occupancy
  Li  Li0  1  0.99847450  0.99946654  0.99681816  1
  Li  Li1  1  0.24789365  0.25377124  0.25376688  1
  Li  Li2  1  0.24819558  0.74702856  0.75433569  1
  Li  Li3  1  0.50437445  0.00250167  0.49805304  1
  Li  Li4  1  0.49926315  0.50314200  0.00176819  1
  Li  Li5  1  0.75177218  0.24668134  0.74951536  1
  Li  Li6  1  0.74700024  0.75076796  0.24867310  1
  Li  Li7  1  0.00381830  0.49629916  0.49806918  1
  Fe  Fe8  1  0.11955238  0.13307506  0.62563668  1
  Fe  Fe9  1  0.12544048  0.38053775  0.86921626  1
  Fe  Fe10  1  0.12921037  0.62283415  0.11145178  1
  Fe  Fe11  1  0.36638738  0.37486828  0.61660811  1
  Fe  Fe12  1  0.37577001  0.61698092  0.36986713  1
  Fe  Fe13  1  0.38316710  0.86709098  0.12316263  1
  Fe  Fe14  1  0.61904580  0.36977033  0.37520871  1
  Fe  Fe15  1  0.62700345  0.11799142  0.13184710  1
  Fe  Fe16  1  0.63012107  0.87471896  0.88004515  1
  Fe  Fe17  1  0.86147061  0.12710478  0.37862982  1
  Fe  Fe18  1  0.87267243  0.88336136  0.63243403  1
  Fe  Fe19  1  0.88175752  0.63289591  0.87743099  1
  W  W20  1  0.12468100  0.87493423  0.37465950  1
  W  W21  1  0.37510510  0.12778662  0.87817349  1
  W  W22  1  0.62844673  0.62148621  0.62545812  1
  W  W23  1  0.87452152  0.37507849  0.12453768  1
  O  O24  1  0.12177350  0.10128210  0.38540259  1
  O  O25  1  0.11559441  0.88138801  0.60315871  1
  O  O26  1  0.11890814  0.62260099  0.89207414  1
  O  O27  1  0.14851456  0.12070282  0.85977342  1
  O  O28  1  0.10507579  0.38644805  0.12175471  1
  O  O29  1  0.14073230  0.36202220  0.63102203  1
  O  O30  1  0.13556396  0.64870560  0.37206927  1
  O  O31  1  0.13195313  0.86778871  0.14823907  1
  O  O32  1  0.36385914  0.13309479  0.64483770  1
  O  O33  1  0.37798233  0.35088394  0.86515833  1
  O  O34  1  0.36239957  0.63728681  0.14012173  1
  O  O35  1  0.39506423  0.61651739  0.61419361  1
  O  O36  1  0.35309040  0.86869712  0.36593039  1
  O  O37  1  0.38130592  0.38789659  0.39060775  1
  O  O38  1  0.36988901  0.11271743  0.10101308  1
  O  O39  1  0.38345510  0.89482220  0.88366169  1
  O  O40  1  0.61539343  0.39869743  0.62838771  1
  O  O41  1  0.60986292  0.62932660  0.39890657  1
  O  O42  1  0.60909055  0.87849629  0.10851843  1
  O  O43  1  0.65122802  0.37176223  0.12832028  1
  O  O44  1  0.60003407  0.11110018  0.87186115  1
  O  O45  1  0.64191610  0.12757063  0.36816522  1
  O  O46  1  0.63363674  0.85495020  0.63353813  1
  O  O47  1  0.62131469  0.63869255  0.85028795  1
  O  O48  1  0.87124337  0.36357651  0.35519746  1
  O  O49  1  0.88057834  0.14761090  0.13835026  1
  O  O50  1  0.85898490  0.87154085  0.85852121  1
  O  O51  1  0.89818956  0.88219994  0.38200847  1
  O  O52  1  0.85118675  0.63703525  0.62025579  1
  O  O53  1  0.88979522  0.11283806  0.61215744  1
  O  O54  1  0.87860641  0.37923094  0.90109115  1
  O  O55  1  0.88863147  0.60248179  0.13018781  1
