# generated using pymatgen
data_CaSi4NiO10
_symmetry_space_group_name_H-M   'P 1'
_cell_length_a   7.42486093
_cell_length_b   7.42486093
_cell_length_c   15.37367357
_cell_angle_alpha   90.00000000
_cell_angle_beta   90.00000000
_cell_angle_gamma   90.00000000
_symmetry_Int_Tables_number   1
_chemical_formula_structural   CaSi4NiO10
_chemical_formula_sum   'Ca4 Si16 Ni4 O40'
_cell_volume   847.52848321
_cell_formula_units_Z   4
loop_
 _symmetry_equiv_pos_site_id
 _symmetry_equiv_pos_as_xyz
  1  'x, y, z'
loop_
 _atom_site_type_symbol
 _atom_site_label
 _atom_site_symmetry_multiplicity
 _atom_site_fract_x
 _atom_site_fract_y
 _atom_site_fract_z
 _atom_site_occupancy
  Ca  Ca0  1  0.25000000  0.75000000  0.50000000  1
  Ca  Ca1  1  0.75000000  0.25000000  0.50000000  1
  Ca  Ca2  1  0.75000000  0.25000000  0.00000000  1
  Ca  Ca3  1  0.25000000  0.75000000  0.00000000  1
  Si  Si4  1  0.92423042  0.50271339  0.64790918  1
  Si  Si5  1  0.57576958  0.99728661  0.64790918  1
  Si  Si6  1  0.00271339  0.42423042  0.85209082  1
  Si  Si7  1  0.50271339  0.57576958  0.64790918  1
  Si  Si8  1  0.99728661  0.92423042  0.64790918  1
  Si  Si9  1  0.07576958  0.00271339  0.85209082  1
  Si  Si10  1  0.42423042  0.49728661  0.85209082  1
  Si  Si11  1  0.49728661  0.07576958  0.85209082  1
  Si  Si12  1  0.07576958  0.49728661  0.35209082  1
  Si  Si13  1  0.42423042  0.00271339  0.35209082  1
  Si  Si14  1  0.99728661  0.57576958  0.14790918  1
  Si  Si15  1  0.49728661  0.42423042  0.35209082  1
  Si  Si16  1  0.00271339  0.07576958  0.35209082  1
  Si  Si17  1  0.92423042  0.99728661  0.14790918  1
  Si  Si18  1  0.57576958  0.50271339  0.14790918  1
  Si  Si19  1  0.50271339  0.92423042  0.14790918  1
  Ni  Ni20  1  0.25000000  0.25000000  0.58069271  1
  Ni  Ni21  1  0.75000000  0.75000000  0.91930729  1
  Ni  Ni22  1  0.75000000  0.75000000  0.41930729  1
  Ni  Ni23  1  0.25000000  0.25000000  0.08069271  1
  O  O24  1  0.00380857  0.35219699  0.58332471  1
  O  O25  1  0.49619143  0.14780301  0.58332471  1
  O  O26  1  0.85219699  0.50380857  0.91667529  1
  O  O27  1  0.35219699  0.49619143  0.58332471  1
  O  O28  1  0.14780301  0.00380857  0.58332471  1
  O  O29  1  0.99619143  0.85219699  0.91667529  1
  O  O30  1  0.50380857  0.64780301  0.91667529  1
  O  O31  1  0.64780301  0.99619143  0.91667529  1
  O  O32  1  0.99619143  0.64780301  0.41667529  1
  O  O33  1  0.50380857  0.85219699  0.41667529  1
  O  O34  1  0.14780301  0.49619143  0.08332471  1
  O  O35  1  0.64780301  0.50380857  0.41667529  1
  O  O36  1  0.85219699  0.99619143  0.41667529  1
  O  O37  1  0.00380857  0.14780301  0.08332471  1
  O  O38  1  0.49619143  0.35219699  0.08332471  1
  O  O39  1  -0.00012751  0.29382034  0.37272246  1
  O  O40  1  0.35219699  0.00380857  0.08332471  1
  O  O41  1  0.49987249  0.79382034  0.62727754  1
  O  O42  1  0.20617966  0.50012751  0.87272246  1
  O  O43  1  0.70617966  0.49987249  0.62727754  1
  O  O44  1  0.79382034  0.00012751  0.62727754  1
  O  O45  1  -0.00012751  0.20617966  0.87272246  1
  O  O46  1  0.50012751  0.29382034  0.87272246  1
  O  O47  1  0.29382034  -0.00012751  0.87272246  1
  O  O48  1  0.46099387  0.96099387  0.25000000  1
  O  O49  1  0.53900613  0.46099387  0.25000000  1
  O  O50  1  0.96099387  0.03900713  0.25000000  1
  O  O51  1  0.03900713  0.53900613  0.25000000  1
  O  O52  1  0.53900613  0.03900713  0.75000000  1
  O  O53  1  0.46099387  0.53900613  0.75000000  1
  O  O54  1  0.03900713  0.96099387  0.75000000  1
  O  O55  1  0.96099387  0.46099387  0.75000000  1
  O  O56  1  0.70617966  0.00012751  0.12727754  1
  O  O57  1  0.49987249  0.70617966  0.12727754  1
  O  O58  1  0.00012751  0.79382034  0.12727754  1
  O  O59  1  0.20617966  -0.00012751  0.37272246  1
  O  O60  1  0.29382034  0.50012751  0.37272246  1
  O  O61  1  0.79382034  0.49987249  0.12727754  1
  O  O62  1  0.50012751  0.20617966  0.37272246  1
  O  O63  1  0.00012751  0.70617966  0.62727754  1
