# generated using pymatgen
data_Li4Mn3Co3(WO8)2
_symmetry_space_group_name_H-M   'P 1'
_cell_length_a   5.99594021
_cell_length_b   5.90025363
_cell_length_c   9.86266793
_cell_angle_alpha   89.94953192
_cell_angle_beta   91.49896669
_cell_angle_gamma   119.48617059
_symmetry_Int_Tables_number   1
_chemical_formula_structural   Li4Mn3Co3(WO8)2
_chemical_formula_sum   'Li4 Mn3 Co3 W2 O16'
_cell_volume   303.59075647
_cell_formula_units_Z   1
loop_
 _symmetry_equiv_pos_site_id
 _symmetry_equiv_pos_as_xyz
  1  'x, y, z'
loop_
 _atom_site_type_symbol
 _atom_site_label
 _atom_site_symmetry_multiplicity
 _atom_site_fract_x
 _atom_site_fract_y
 _atom_site_fract_z
 _atom_site_occupancy
  Li  Li0  1  0.32566056  0.66263232  0.90720145  1
  Li  Li1  1  0.99713462  0.99869795  0.98999914  1
  Li  Li2  1  0.00447480  0.00224860  0.48440718  1
  Li  Li3  1  0.66603176  0.33305891  0.40715969  1
  Mn  Mn4  1  0.66568896  0.83290653  0.21065030  1
  Mn  Mn5  1  0.82778711  0.65958940  0.71438246  1
  Mn  Mn6  1  0.82825470  0.16850515  0.71435115  1
  Co  Co7  1  0.16552405  0.81466996  0.21660802  1
  Co  Co8  1  0.16543326  0.35099575  0.21674468  1
  Co  Co9  1  0.33969162  0.16991120  0.71320155  1
  W  W10  1  0.33448811  0.66792171  0.48583203  1
  W  W11  1  0.64211996  0.32153206  0.98731178  1
  O  O12  1  0.18696355  0.83520108  0.58272910  1
  O  O13  1  0.03596962  0.51779490  0.35521128  1
  O  O14  1  0.33873401  0.66910163  0.11301177  1
  O  O15  1  0.99889819  0.99961750  0.29547492  1
  O  O16  1  0.99478940  0.99752568  0.80104607  1
  O  O17  1  0.18672050  0.35093487  0.58320059  1
  O  O18  1  0.48351181  0.96153795  0.35224246  1
  O  O19  1  0.48335461  0.52191088  0.35217921  1
  O  O20  1  0.34366107  0.17162128  0.08878131  1
  O  O21  1  0.66861848  0.83430611  0.59202547  1
  O  O22  1  0.51392031  0.48109456  0.85736352  1
  O  O23  1  0.51336469  0.03233201  0.85686191  1
  O  O24  1  0.67735334  0.33879226  0.61423027  1
  O  O25  1  0.82874237  0.65333994  0.08638272  1
  O  O26  1  0.95446089  0.47738592  0.84285084  1
  O  O27  1  0.82864663  0.17513389  0.08640114  1
