# generated using pymatgen
data_Li4Mn3Cu3(SbO8)2
_symmetry_space_group_name_H-M   'P 1'
_cell_length_a   6.04051647
_cell_length_b   5.87450216
_cell_length_c   9.74318961
_cell_angle_alpha   91.06318652
_cell_angle_beta   86.88994162
_cell_angle_gamma   120.06716564
_symmetry_Int_Tables_number   1
_chemical_formula_structural   Li4Mn3Cu3(SbO8)2
_chemical_formula_sum   'Li4 Mn3 Cu3 Sb2 O16'
_cell_volume   298.75888891
_cell_formula_units_Z   1
loop_
 _symmetry_equiv_pos_site_id
 _symmetry_equiv_pos_as_xyz
  1  'x, y, z'
loop_
 _atom_site_type_symbol
 _atom_site_label
 _atom_site_symmetry_multiplicity
 _atom_site_fract_x
 _atom_site_fract_y
 _atom_site_fract_z
 _atom_site_occupancy
  Li  Li0  1  0.33231433  0.65906928  0.90980081  1
  Li  Li1  1  0.98672269  0.99351833  0.99028792  1
  Li  Li2  1  0.00078752  0.00239302  0.48273357  1
  Li  Li3  1  0.69478114  0.35005196  0.40355425  1
  Mn  Mn4  1  0.65704526  0.82990942  0.21643355  1
  Mn  Mn5  1  0.83025753  0.66416010  0.71172238  1
  Mn  Mn6  1  0.82689708  0.16837066  0.71510449  1
  Cu  Cu7  1  0.16894980  0.83143303  0.21113619  1
  Cu  Cu8  1  0.16770737  0.33681246  0.21019455  1
  Cu  Cu9  1  0.33786203  0.16943485  0.71243402  1
  Sb  Sb10  1  0.34138861  0.67627399  0.48576947  1
  Sb  Sb11  1  0.64933123  0.32094170  0.98756575  1
  O  O12  1  0.16563503  0.84436147  0.58903992  1
  O  O13  1  0.05813906  0.53411152  0.34541866  1
  O  O14  1  0.34485981  0.67218397  0.12012485  1
  O  O15  1  0.98995822  0.99527372  0.29388261  1
  O  O16  1  0.98580806  0.99790000  0.80006267  1
  O  O17  1  0.15140784  0.33205406  0.59109701  1
  O  O18  1  0.52766340  0.98331086  0.35163257  1
  O  O19  1  0.52072263  0.54250653  0.35300485  1
  O  O20  1  0.30436013  0.14568420  0.08767105  1
  O  O21  1  0.66525534  0.84644547  0.59956440  1
  O  O22  1  0.51474463  0.47517816  0.84778466  1
  O  O23  1  0.53164045  0.02465741  0.84408983  1
  O  O24  1  0.68323563  0.33788818  0.61582562  1
  O  O25  1  0.80039526  0.65618067  0.09165089  1
  O  O26  1  0.96178426  0.46554174  0.84646718  1
  O  O27  1  0.80034767  0.14465324  0.09378729  1
