# generated using pymatgen
data_Na3Ni2P2(CO7)2
_symmetry_space_group_name_H-M   'P 1'
_cell_length_a   8.80231927
_cell_length_b   10.27206499
_cell_length_c   6.49951614
_cell_angle_alpha   90.00000000
_cell_angle_beta   90.00000000
_cell_angle_gamma   88.37108527
_symmetry_Int_Tables_number   1
_chemical_formula_structural   Na3Ni2P2(CO7)2
_chemical_formula_sum   'Na6 Ni4 P4 C4 O28'
_cell_volume   587.43574114
_cell_formula_units_Z   2
loop_
 _symmetry_equiv_pos_site_id
 _symmetry_equiv_pos_as_xyz
  1  'x, y, z'
loop_
 _atom_site_type_symbol
 _atom_site_label
 _atom_site_symmetry_multiplicity
 _atom_site_fract_x
 _atom_site_fract_y
 _atom_site_fract_z
 _atom_site_occupancy
  Na  Na0  1  0.25644194  0.12702889  0.01466932  1
  Na  Na1  1  0.25563150  0.12425541  0.48753222  1
  Na  Na2  1  0.25642494  0.62219931  0.47177654  1
  Na  Na3  1  0.74357506  0.37780069  0.97177654  1
  Na  Na4  1  0.74355806  0.87297111  0.51466932  1
  Na  Na5  1  0.74436850  0.87574459  0.98753222  1
  Ni  Ni6  1  0.34252725  0.39326676  0.75460222  1
  Ni  Ni7  1  0.34333983  0.88802900  0.75454365  1
  Ni  Ni8  1  0.65666017  0.11197100  0.25454365  1
  Ni  Ni9  1  0.65747275  0.60673324  0.25460222  1
  P  P10  1  0.42506538  0.36009682  0.25072651  1
  P  P11  1  0.42348101  0.85966207  0.25175289  1
  P  P12  1  0.57651899  0.14033793  0.75175289  1
  P  P13  1  0.57493462  0.63990318  0.75072651  1
  C  C14  1  0.07031484  0.35706712  0.74634964  1
  C  C15  1  0.07176173  0.85599134  0.75089729  1
  C  C16  1  0.92823827  0.14400866  0.25089729  1
  C  C17  1  0.92968516  0.64293288  0.24634964  1
  O  O18  1  0.06851940  0.16009894  0.25048079  1
  O  O19  1  0.06804972  0.66431247  0.24700716  1
  O  O20  1  0.12721880  0.47123132  0.74451322  1
  O  O21  1  0.13253347  0.97020614  0.75349514  1
  O  O22  1  0.17388520  0.26268384  0.74886486  1
  O  O23  1  0.17272861  0.76170150  0.74869602  1
  O  O24  1  0.31977179  0.38678437  0.06476516  1
  O  O25  1  0.32407373  0.39528255  0.43789242  1
  O  O26  1  0.32436042  0.89891997  0.06538363  1
  O  O27  1  0.32219994  0.89605000  0.43872165  1
  O  O28  1  0.42512194  0.06641701  0.75234903  1
  O  O29  1  0.42588537  0.56740371  0.74301096  1
  O  O30  1  0.46318699  0.20962872  0.25424651  1
  O  O31  1  0.46629879  0.71243909  0.25787617  1
  O  O32  1  0.53370121  0.28756091  0.75787617  1
  O  O33  1  0.53681301  0.79037128  0.75424651  1
  O  O34  1  0.57411363  0.43259629  0.24301096  1
  O  O35  1  0.57487806  0.93358299  0.25234903  1
  O  O36  1  0.67563958  0.10108003  0.56538363  1
  O  O37  1  0.67780006  0.10395000  0.93872165  1
  O  O38  1  0.68022821  0.61321563  0.56476516  1
  O  O39  1  0.67592627  0.60471645  0.93789242  1
  O  O40  1  0.82727139  0.23829850  0.24869602  1
  O  O41  1  0.82611480  0.73731616  0.24886486  1
  O  O42  1  0.86746653  0.02979386  0.25349514  1
  O  O43  1  0.87278120  0.52876868  0.24451322  1
  O  O44  1  0.93195028  0.33568753  0.74700716  1
  O  O45  1  0.93148060  0.83990106  0.75048079  1
