# generated using pymatgen
data_Li2Cr(Si2O5)3
_symmetry_space_group_name_H-M   'P 1'
_cell_length_a   11.04215548
_cell_length_b   11.04215613
_cell_length_c   10.04982869
_cell_angle_alpha   90.00000000
_cell_angle_beta   90.00000000
_cell_angle_gamma   79.89026800
_symmetry_Int_Tables_number   1
_chemical_formula_structural   Li2Cr(Si2O5)3
_chemical_formula_sum   'Li8 Cr4 Si24 O60'
_cell_volume   1206.34180168
_cell_formula_units_Z   4
loop_
 _symmetry_equiv_pos_site_id
 _symmetry_equiv_pos_as_xyz
  1  'x, y, z'
loop_
 _atom_site_type_symbol
 _atom_site_label
 _atom_site_symmetry_multiplicity
 _atom_site_fract_x
 _atom_site_fract_y
 _atom_site_fract_z
 _atom_site_occupancy
  Li  Li0  1  0.01323383  0.51323383  0.75000000  1
  Li  Li1  1  0.24136177  0.75863823  0.00000000  1
  Li  Li2  1  0.25863823  0.74136177  0.50000000  1
  Li  Li3  1  0.51323383  0.01323383  0.75000000  1
  Li  Li4  1  0.48676617  0.98676617  0.25000000  1
  Li  Li5  1  0.74136177  0.25863823  0.50000000  1
  Li  Li6  1  0.75863823  0.24136177  0.00000000  1
  Li  Li7  1  0.98676617  0.48676617  0.25000000  1
  Cr  Cr8  1  0.16088044  0.66088044  0.25000000  1
  Cr  Cr9  1  0.33911956  0.83911956  0.75000000  1
  Cr  Cr10  1  0.66088044  0.16088044  0.25000000  1
  Cr  Cr11  1  0.83911956  0.33911956  0.75000000  1
  Si  Si12  1  0.02076513  0.24058287  0.48987497  1
  Si  Si13  1  0.07523188  0.29459364  0.95464148  1
  Si  Si14  1  0.04376930  0.81672594  0.80173167  1
  Si  Si15  1  0.24058287  0.02076513  0.48987497  1
  Si  Si16  1  0.20540636  0.42476812  0.45464148  1
  Si  Si17  1  0.29459364  0.07523188  0.95464148  1
  Si  Si18  1  0.25941713  0.47923487  0.98987497  1
  Si  Si19  1  0.18327406  0.95623070  0.19826833  1
  Si  Si20  1  0.31672594  0.54376930  0.69826833  1
  Si  Si21  1  0.42476812  0.20540636  0.45464148  1
  Si  Si22  1  0.47923487  0.25941713  0.98987497  1
  Si  Si23  1  0.45623070  0.68327406  0.30173167  1
  Si  Si24  1  0.54376930  0.31672594  0.69826833  1
  Si  Si25  1  0.52076513  0.74058287  0.01012503  1
  Si  Si26  1  0.57523188  0.79459364  0.54535852  1
  Si  Si27  1  0.68327406  0.45623070  0.30173167  1
  Si  Si28  1  0.81672594  0.04376930  0.80173167  1
  Si  Si29  1  0.74058287  0.52076513  0.01012503  1
  Si  Si30  1  0.70540636  0.92476812  0.04535852  1
  Si  Si31  1  0.79459364  0.57523188  0.54535852  1
  Si  Si32  1  0.75941713  0.97923487  0.51012503  1
  Si  Si33  1  0.95623070  0.18327406  0.19826833  1
  Si  Si34  1  0.92476812  0.70540636  0.04535852  1
  Si  Si35  1  0.97923487  0.75941713  0.51012503  1
  O  O36  1  0.05806031  0.05806031  0.19855633  1
  O  O37  1  0.00019354  0.35256167  0.82466468  1
  O  O38  1  0.10316314  0.10316314  0.50340468  1
  O  O39  1  0.01545160  0.72492412  0.92161502  1
  O  O40  1  0.03078944  0.73860787  0.66464321  1
  O  O41  1  0.10596919  0.34485243  0.51475904  1
  O  O42  1  0.16564119  0.16564119  0.91837282  1
  O  O43  1  0.15514757  0.39403081  0.01475904  1
  O  O44  1  0.09575554  0.74333273  0.41109715  1
  O  O45  1  0.14743833  0.49980646  0.32466468  1
  O  O46  1  0.15733305  0.81963008  0.16831889  1
  O  O47  1  0.22492412  0.51545160  0.57838498  1
  O  O48  1  0.18036992  0.84266695  0.83168111  1
  O  O49  1  0.23860787  0.53078944  0.83535679  1
  O  O50  1  0.35256167  0.00019354  0.82466468  1
  O  O51  1  0.24333273  0.59575554  0.08890285  1
  O  O52  1  0.34485243  0.10596919  0.51475904  1
  O  O53  1  0.33435881  0.33435881  0.41837282  1
  O  O54  1  0.39403081  0.15514757  0.01475904  1
  O  O55  1  0.25666727  0.90424446  0.58890285  1
  O  O56  1  0.26139213  0.96921056  0.33535679  1
  O  O57  1  0.31963008  0.65733305  0.33168111  1
  O  O58  1  0.27507588  0.98454840  0.07838498  1
  O  O59  1  0.39683686  0.39683686  0.00340468  1
  O  O60  1  0.34266695  0.68036992  0.66831889  1
  O  O61  1  0.49980646  0.14743833  0.32466468  1
  O  O62  1  0.44193969  0.44193969  0.69855633  1
  O  O63  1  0.40424446  0.75666727  0.91109715  1
  O  O64  1  0.51545160  0.22492412  0.57838498  1
  O  O65  1  0.53078944  0.23860787  0.83535679  1
  O  O66  1  0.46921056  0.76139213  0.16464321  1
  O  O67  1  0.48454840  0.77507588  0.42161502  1
  O  O68  1  0.59575554  0.24333273  0.08890285  1
  O  O69  1  0.55806031  0.55806031  0.30144367  1
  O  O70  1  0.50019354  0.85256167  0.67533532  1
  O  O71  1  0.65733305  0.31963008  0.33168111  1
  O  O72  1  0.60316314  0.60316314  0.99659532  1
  O  O73  1  0.72492412  0.01545160  0.92161502  1
  O  O74  1  0.68036992  0.34266695  0.66831889  1
  O  O75  1  0.73860787  0.03078944  0.66464321  1
  O  O76  1  0.74333273  0.09575554  0.41109715  1
  O  O77  1  0.60596919  0.84485243  0.98524096  1
  O  O78  1  0.66564119  0.66564119  0.58162718  1
  O  O79  1  0.65514757  0.89403081  0.48524096  1
  O  O80  1  0.75666727  0.40424446  0.91109715  1
  O  O81  1  0.64743833  0.99980646  0.17533532  1
  O  O82  1  0.76139213  0.46921056  0.16464321  1
  O  O83  1  0.81963008  0.15733305  0.16831889  1
  O  O84  1  0.77507588  0.48454840  0.42161502  1
  O  O85  1  0.84266695  0.18036992  0.83168111  1
  O  O86  1  0.85256167  0.50019354  0.67533532  1
  O  O87  1  0.90424446  0.25666727  0.58890285  1
  O  O88  1  0.84485243  0.60596919  0.98524096  1
  O  O89  1  0.83435881  0.83435881  0.08162718  1
  O  O90  1  0.89403081  0.65514757  0.48524096  1
  O  O91  1  0.96921056  0.26139213  0.33535679  1
  O  O92  1  0.98454840  0.27507588  0.07838498  1
  O  O93  1  0.89683686  0.89683686  0.49659532  1
  O  O94  1  0.99980646  0.64743833  0.17533532  1
  O  O95  1  0.94193969  0.94193969  0.80144367  1
