# generated using pymatgen
data_LiVF4
_symmetry_space_group_name_H-M   'P 1'
_cell_length_a   7.99384694
_cell_length_b   7.32855640
_cell_length_c   5.19714383
_cell_angle_alpha   90.00000000
_cell_angle_beta   90.00000000
_cell_angle_gamma   75.39552426
_symmetry_Int_Tables_number   1
_chemical_formula_structural   LiVF4
_chemical_formula_sum   'Li4 V4 F16'
_cell_volume   294.62867805
_cell_formula_units_Z   4
loop_
 _symmetry_equiv_pos_site_id
 _symmetry_equiv_pos_as_xyz
  1  'x, y, z'
loop_
 _atom_site_type_symbol
 _atom_site_label
 _atom_site_symmetry_multiplicity
 _atom_site_fract_x
 _atom_site_fract_y
 _atom_site_fract_z
 _atom_site_occupancy
  Li  Li0  1  0.14374020  0.99791196  0.20354307  1
  Li  Li1  1  0.14374020  0.49791196  0.29645693  1
  Li  Li2  1  0.85625980  0.50208804  0.70354307  1
  Li  Li3  1  0.85625980  0.00208804  0.79645693  1
  V  V4  1  0.32850408  0.76552921  0.72396789  1
  V  V5  1  0.32850408  0.26552921  0.77603211  1
  V  V6  1  0.67149592  0.73447079  0.22396789  1
  V  V7  1  0.67149592  0.23447079  0.27603211  1
  F  F8  1  0.10993655  0.87420526  0.88137874  1
  F  F9  1  0.10993655  0.37420526  0.61862126  1
  F  F10  1  0.20949873  0.73185854  0.40837379  1
  F  F11  1  0.20949873  0.23185854  0.09162621  1
  F  F12  1  0.32454802  0.52283340  0.90031773  1
  F  F13  1  0.44289752  0.82962829  0.04960631  1
  F  F14  1  0.32454802  0.02283340  0.59968227  1
  F  F15  1  0.44289752  0.32962829  0.45039369  1
  F  F16  1  0.55710248  0.67037171  0.54960631  1
  F  F17  1  0.67545198  0.97716660  0.40031773  1
  F  F18  1  0.55710248  0.17037171  0.95039369  1
  F  F19  1  0.67545198  0.47716660  0.09968227  1
  F  F20  1  0.79050127  0.76814146  0.90837379  1
  F  F21  1  0.79050127  0.26814146  0.59162621  1
  F  F22  1  0.89006345  0.62579474  0.38137874  1
  F  F23  1  0.89006345  0.12579474  0.11862126  1
