# generated using pymatgen
data_V3Cu2Ni(PO4)6
_symmetry_space_group_name_H-M   'P 1'
_cell_length_a   8.57733014
_cell_length_b   8.61128658
_cell_length_c   8.61128634
_cell_angle_alpha   59.99999834
_cell_angle_beta   59.86895864
_cell_angle_gamma   59.86895699
_symmetry_Int_Tables_number   1
_chemical_formula_structural   V3Cu2Ni(PO4)6
_chemical_formula_sum   'V3 Cu2 Ni1 P6 O24'
_cell_volume   448.85921145
_cell_formula_units_Z   1
loop_
 _symmetry_equiv_pos_site_id
 _symmetry_equiv_pos_as_xyz
  1  'x, y, z'
loop_
 _atom_site_type_symbol
 _atom_site_label
 _atom_site_symmetry_multiplicity
 _atom_site_fract_x
 _atom_site_fract_y
 _atom_site_fract_z
 _atom_site_occupancy
  V  V0  1  0.07185378  0.64271574  0.64271574  1
  V  V1  1  0.42449273  0.85850242  0.85850242  1
  V  V2  1  0.93035712  0.35654796  0.35654796  1
  Cu  Cu3  1  0.99159346  0.00280251  0.00280251  1
  Cu  Cu4  1  0.50088745  0.49970452  0.49970452  1
  Ni  Ni5  1  0.57502033  0.14165989  0.14165989  1
  P  P6  1  0.25227837  0.24842678  0.54029151  1
  P  P7  1  0.25227837  0.95900334  0.24842678  1
  P  P8  1  0.25227837  0.54029151  0.95900334  1
  P  P9  1  0.75068487  0.45846756  0.04029626  1
  P  P10  1  0.75068487  0.04029626  0.75055031  1
  P  P11  1  0.75068487  0.75055031  0.45846756  1
  O  O12  1  0.06666950  0.12232940  0.30588148  1
  O  O13  1  0.06666950  0.50512062  0.12232940  1
  O  O14  1  0.06666950  0.30588148  0.50512062  1
  O  O15  1  0.23561557  0.08510594  0.73907480  1
  O  O16  1  0.43465024  0.19941769  0.38373975  1
  O  O17  1  0.24860797  0.41750679  0.57064571  1
  O  O18  1  0.23561557  0.94020369  0.08510594  1
  O  O19  1  0.24860797  0.76324054  0.41750679  1
  O  O20  1  0.56765422  0.62251720  0.00283054  1
  O  O21  1  0.24860797  0.57064571  0.76324054  1
  O  O22  1  0.77541462  0.26756942  0.04677326  1
  O  O23  1  0.56765422  0.00283054  0.80699804  1
  O  O24  1  0.43465024  0.98219232  0.19941769  1
  O  O25  1  0.23561557  0.73907480  0.94020369  1
  O  O26  1  0.74130988  0.44702243  0.23175566  1
  O  O27  1  0.43465024  0.38373975  0.98219232  1
  O  O28  1  0.74130988  0.23175566  0.57991103  1
  O  O29  1  0.77541462  0.04677326  0.91024370  1
  O  O30  1  0.74130988  0.57991103  0.44702243  1
  O  O31  1  0.56765422  0.80699804  0.62251720  1
  O  O32  1  0.77541462  0.91024370  0.26756942  1
  O  O33  1  0.92904581  0.68326191  0.51280737  1
  O  O34  1  0.92904581  0.51280737  0.87488491  1
  O  O35  1  0.92904581  0.87488491  0.68326191  1
