# generated using pymatgen
data_Li2Ti3NiO8
_symmetry_space_group_name_H-M   'P 1'
_cell_length_a   5.93700505
_cell_length_b   5.93700187
_cell_length_c   9.69619768
_cell_angle_alpha   89.99973513
_cell_angle_beta   90.00013017
_cell_angle_gamma   119.99997457
_symmetry_Int_Tables_number   1
_chemical_formula_structural   Li2Ti3NiO8
_chemical_formula_sum   'Li4 Ti6 Ni2 O16'
_cell_volume   295.98302752
_cell_formula_units_Z   2
loop_
 _symmetry_equiv_pos_site_id
 _symmetry_equiv_pos_as_xyz
  1  'x, y, z'
loop_
 _atom_site_type_symbol
 _atom_site_label
 _atom_site_symmetry_multiplicity
 _atom_site_fract_x
 _atom_site_fract_y
 _atom_site_fract_z
 _atom_site_occupancy
  Li  Li0  1  0.33332959  0.66668131  0.88808662  1
  Li  Li1  1  0.99999944  0.00000290  0.99932876  1
  Li  Li2  1  0.00000056  0.00000446  0.49932876  1
  Li  Li3  1  0.66667041  0.33335071  0.38808662  1
  Ti  Ti4  1  0.16871701  0.83127797  0.21511801  1
  Ti  Ti5  1  0.16872327  0.33744550  0.21510180  1
  Ti  Ti6  1  0.66255618  0.83128625  0.21510949  1
  Ti  Ti7  1  0.33744382  0.16872908  0.71510949  1
  Ti  Ti8  1  0.83128299  0.66256096  0.71511801  1
  Ti  Ti9  1  0.83127673  0.16872224  0.71510180  1
  Ni  Ni10  1  0.33333678  0.66667893  0.48958832  1
  Ni  Ni11  1  0.66666322  0.33334215  0.98958832  1
  O  O12  1  0.15905157  0.84096943  0.60718635  1
  O  O13  1  0.03645148  0.51824000  0.33041561  1
  O  O14  1  0.33332942  0.66668006  0.10358581  1
  O  O15  1  0.99999775  0.00001128  0.31519370  1
  O  O16  1  0.00000225  0.00001253  0.81519370  1
  O  O17  1  0.15904438  0.31809982  0.60718550  1
  O  O18  1  0.48177330  0.96356266  0.33041526  1
  O  O19  1  0.48177342  0.51823761  0.33041575  1
  O  O20  1  0.31808949  0.15906133  0.10718700  1
  O  O21  1  0.68191051  0.84097283  0.60718700  1
  O  O22  1  0.51822670  0.48178936  0.83041526  1
  O  O23  1  0.51822658  0.03646419  0.83041575  1
  O  O24  1  0.66667058  0.33335064  0.60358581  1
  O  O25  1  0.84094843  0.68191786  0.10718635  1
  O  O26  1  0.96354852  0.48178852  0.83041561  1
  O  O27  1  0.84095562  0.15905543  0.10718550  1
