# generated using pymatgen
data_Li2MnP2O7
_symmetry_space_group_name_H-M   'P 1'
_cell_length_a   7.34985698
_cell_length_b   8.46208321
_cell_length_c   10.09641272
_cell_angle_alpha   90.01493539
_cell_angle_beta   112.33365638
_cell_angle_gamma   90.00172965
_symmetry_Int_Tables_number   1
_chemical_formula_structural   Li2MnP2O7
_chemical_formula_sum   'Li8 Mn4 P8 O28'
_cell_volume   580.84295527
_cell_formula_units_Z   4
loop_
 _symmetry_equiv_pos_site_id
 _symmetry_equiv_pos_as_xyz
  1  'x, y, z'
loop_
 _atom_site_type_symbol
 _atom_site_label
 _atom_site_symmetry_multiplicity
 _atom_site_fract_x
 _atom_site_fract_y
 _atom_site_fract_z
 _atom_site_occupancy
  Li  Li0  1  0.79441680  0.13785860  0.12537360  1
  Li  Li1  1  0.70559161  0.63785079  0.37461742  1
  Li  Li2  1  0.46827376  0.91972545  0.41477379  1
  Li  Li3  1  0.39940403  0.11545238  0.63426228  1
  Li  Li4  1  0.03173247  0.41972920  0.08523507  1
  Li  Li5  1  0.37639712  0.91381404  0.96799744  1
  Li  Li6  1  0.12360748  0.41382289  0.53200335  1
  Li  Li7  1  0.10058325  0.61543033  0.86573836  1
  Mn  Mn8  1  0.51958018  0.49939246  0.00066963  1
  Mn  Mn9  1  0.49995390  0.48831826  0.51667203  1
  Mn  Mn10  1  0.00006002  0.98832755  0.98334606  1
  Mn  Mn11  1  0.98043375  0.99940793  0.49934238  1
  P  P12  1  0.86295770  0.76292934  0.20812589  1
  P  P13  1  0.63698011  0.26313363  0.29201339  1
  P  P14  1  0.74823911  0.80420268  0.67410210  1
  P  P15  1  0.75166033  0.30438499  0.82579585  1
  P  P16  1  0.25491000  0.69425119  0.17820139  1
  P  P17  1  0.24515881  0.19442061  0.32188272  1
  P  P18  1  0.34996269  0.74824507  0.70599407  1
  P  P19  1  0.15015904  0.24858821  0.79393895  1
  O  O20  1  0.83112844  0.90814351  0.11188817  1
  O  O21  1  0.92008014  0.79279556  0.36800071  1
  O  O22  1  0.80897737  0.14731472  0.33566705  1
  O  O23  1  0.69113289  0.64744265  0.16434751  1
  O  O24  1  0.95895370  0.33913008  0.80566982  1
  O  O25  1  0.57991084  0.29274268  0.13192077  1
  O  O26  1  0.74501175  0.94282617  0.57502206  1
  O  O27  1  0.91335047  0.80159219  0.82329219  1
  O  O28  1  0.66885735  0.40796799  0.38801405  1
  O  O29  1  0.73678895  0.64482274  0.59940784  1
  O  O30  1  0.76325854  0.14468984  0.90065982  1
  O  O31  1  0.45843324  0.16054979  0.31159124  1
  O  O32  1  0.58673287  0.30156127  0.67678576  1
  O  O33  1  0.75502606  0.44276439  0.92498710  1
  O  O34  1  0.25532599  0.55530820  0.07962697  1
  O  O35  1  0.41197830  0.69482986  0.33076110  1
  O  O36  1  0.54105818  0.83915943  0.69434916  1
  O  O37  1  0.25326606  0.85511654  0.10639532  1
  O  O38  1  0.24670342  0.35500426  0.39352039  1
  O  O39  1  0.30907493  0.60116753  0.61129917  1
  O  O40  1  0.08794105  0.19479249  0.16916363  1
  O  O41  1  0.24464543  0.05527042  0.42037697  1
  O  O42  1  0.39509216  0.71409631  0.86584343  1
  O  O43  1  0.04154374  0.66060359  0.18837938  1
  O  O44  1  0.30032681  0.37988367  0.84057030  1
  O  O45  1  0.19949959  0.88006024  0.65939982  1
  O  O46  1  0.10490039  0.21407443  0.63418576  1
  O  O47  1  0.19092917  0.10099387  0.88878574  1
