# generated using pymatgen
data_Li2MnP2O7
_symmetry_space_group_name_H-M   'P 1'
_cell_length_a   5.13015761
_cell_length_b   8.18593242
_cell_length_c   13.31548823
_cell_angle_alpha   89.99872241
_cell_angle_beta   89.99826522
_cell_angle_gamma   92.05286654
_symmetry_Int_Tables_number   1
_chemical_formula_structural   Li2MnP2O7
_chemical_formula_sum   'Li8 Mn4 P8 O28'
_cell_volume   558.82668663
_cell_formula_units_Z   4
loop_
 _symmetry_equiv_pos_site_id
 _symmetry_equiv_pos_as_xyz
  1  'x, y, z'
loop_
 _atom_site_type_symbol
 _atom_site_label
 _atom_site_symmetry_multiplicity
 _atom_site_fract_x
 _atom_site_fract_y
 _atom_site_fract_z
 _atom_site_occupancy
  Li  Li0  1  0.21650518  0.13594023  0.17900823  1
  Li  Li1  1  0.19739197  0.72089086  0.16023736  1
  Li  Li2  1  0.30255572  0.77910354  0.66023434  1
  Li  Li3  1  0.28348748  0.36405678  0.67900896  1
  Li  Li4  1  0.71650466  0.63594678  0.32099800  1
  Li  Li5  1  0.69736833  0.22090064  0.33975675  1
  Li  Li6  1  0.80263649  0.27909504  0.83975600  1
  Li  Li7  1  0.78348056  0.86405664  0.82099041  1
  Mn  Mn8  1  0.22805719  0.85068119  0.36420069  1
  Mn  Mn9  1  0.27192053  0.64930301  0.86419972  1
  Mn  Mn10  1  0.72808031  0.35069758  0.13580025  1
  Mn  Mn11  1  0.77189849  0.14932556  0.63578927  1
  P  P12  1  0.18972230  0.28797472  0.97918174  1
  P  P13  1  0.20849406  0.43038496  0.31453978  1
  P  P14  1  0.29149695  0.06964194  0.81453913  1
  P  P15  1  0.31025124  0.21201550  0.47916838  1
  P  P16  1  0.68976118  0.78797679  0.52079643  1
  P  P17  1  0.70850644  0.93036594  0.18546617  1
  P  P18  1  0.79148464  0.56960352  0.68545949  1
  P  P19  1  0.81031000  0.71201993  0.02084313  1
  O  O20  1  0.00279761  0.92705008  0.20968558  1
  O  O21  1  0.03765502  0.30760480  0.25245424  1
  O  O22  1  0.07169513  0.77702151  0.97915117  1
  O  O23  1  0.12844587  0.14876332  0.56102878  1
  O  O24  1  0.09952946  0.60212110  0.30649734  1
  O  O25  1  0.14204026  0.40453281  0.89066868  1
  O  O26  1  0.16730492  0.37066494  0.42978882  1
  O  O27  1  0.33268151  0.12932858  0.92978637  1
  O  O28  1  0.35796867  0.09547389  0.39067550  1
  O  O29  1  0.40047361  0.89786545  0.80649702  1
  O  O30  1  0.37152639  0.35122197  0.06103004  1
  O  O31  1  0.42828531  0.72297584  0.47916067  1
  O  O32  1  0.49717858  0.57295010  0.70969576  1
  O  O33  1  0.46234151  0.19239022  0.75245734  1
  O  O34  1  0.53765853  0.80760851  0.24753729  1
  O  O35  1  0.50279801  0.42704779  0.29032118  1
  O  O36  1  0.57164945  0.27704572  0.52085628  1
  O  O37  1  0.62846526  0.64877621  0.93896199  1
  O  O38  1  0.59952224  0.10213043  0.19350312  1
  O  O39  1  0.64201540  0.90454118  0.60935309  1
  O  O40  1  0.66735092  0.87067428  0.07020626  1
  O  O41  1  0.83262535  0.62931200  0.57021784  1
  O  O42  1  0.85796296  0.59547904  0.10932650  1
  O  O43  1  0.90045666  0.39787764  0.69350564  1
  O  O44  1  0.87147197  0.85119737  0.43899833  1
  O  O45  1  0.92833769  0.22296724  0.02084685  1
  O  O46  1  0.96234091  0.69239855  0.74754158  1
  O  O47  1  0.99720204  0.07295730  0.79031951  1
