# generated using pymatgen
data_Li3Mn4(BO3)4
_symmetry_space_group_name_H-M   'P 1'
_cell_length_a   6.17526177
_cell_length_b   7.89531700
_cell_length_c   5.22708622
_cell_angle_alpha   88.20467329
_cell_angle_beta   87.14104957
_cell_angle_gamma   80.34337131
_symmetry_Int_Tables_number   1
_chemical_formula_structural   Li3Mn4(BO3)4
_chemical_formula_sum   'Li3 Mn4 B4 O12'
_cell_volume   250.85799002
_cell_formula_units_Z   1
loop_
 _symmetry_equiv_pos_site_id
 _symmetry_equiv_pos_as_xyz
  1  'x, y, z'
loop_
 _atom_site_type_symbol
 _atom_site_label
 _atom_site_symmetry_multiplicity
 _atom_site_fract_x
 _atom_site_fract_y
 _atom_site_fract_z
 _atom_site_occupancy
  Li  Li0  1  0.53441217  0.14788899  0.91019765  1
  Li  Li1  1  0.01896141  0.63882908  0.42678053  1
  Li  Li2  1  0.46657424  0.84239076  0.08841513  1
  Mn  Mn3  1  0.74746233  0.00119161  0.40356714  1
  Mn  Mn4  1  0.25771522  0.49426586  0.89550842  1
  Mn  Mn5  1  0.75233800  0.49114229  0.09763252  1
  Mn  Mn6  1  0.22774656  0.01320053  0.59910608  1
  B  B7  1  0.10718908  0.16734012  0.10001752  1
  B  B8  1  0.40740602  0.33663631  0.40130805  1
  B  B9  1  0.57641121  0.67217408  0.59477484  1
  B  B10  1  0.91044341  0.82894781  0.90291398  1
  O  O11  1  0.26305523  0.04384331  0.98440675  1
  O  O12  1  0.04176147  0.32796170  0.98267692  1
  O  O13  1  0.01622754  0.13641585  0.33887177  1
  O  O14  1  0.47567180  0.18371500  0.53822975  1
  O  O15  1  0.27132985  0.47197863  0.50852505  1
  O  O16  1  0.48095504  0.34525189  0.14193402  1
  O  O17  1  0.50414900  0.64397448  0.85485672  1
  O  O18  1  0.73598488  0.55626314  0.48099111  1
  O  O19  1  0.49455989  0.82758230  0.47164946  1
  O  O20  1  0.98452605  0.85093483  0.64785524  1
  O  O21  1  0.99684077  0.68049257  0.03866623  1
  O  O22  1  0.74553384  0.94883786  0.00858911  1
