# generated using pymatgen
data_LiNi(SO4)2
_symmetry_space_group_name_H-M   'P 1'
_cell_length_a   9.02793304
_cell_length_b   8.98515314
_cell_length_c   9.03036807
_cell_angle_alpha   55.94757750
_cell_angle_beta   55.84087027
_cell_angle_gamma   55.75874129
_symmetry_Int_Tables_number   1
_chemical_formula_structural   LiNi(SO4)2
_chemical_formula_sum   'Li3 Ni3 S6 O24'
_cell_volume   468.12239486
_cell_formula_units_Z   3
loop_
 _symmetry_equiv_pos_site_id
 _symmetry_equiv_pos_as_xyz
  1  'x, y, z'
loop_
 _atom_site_type_symbol
 _atom_site_label
 _atom_site_symmetry_multiplicity
 _atom_site_fract_x
 _atom_site_fract_y
 _atom_site_fract_z
 _atom_site_occupancy
  Li  Li0  1  0.16163480  0.13225641  0.15359794  1
  Li  Li1  1  0.18096594  0.41558178  0.77155867  1
  Li  Li2  1  0.77246330  0.17966849  0.41785599  1
  Ni  Ni3  1  0.35507201  0.35637405  0.35191029  1
  Ni  Ni4  1  0.64147752  0.64432019  0.64551891  1
  Ni  Ni5  1  0.84733745  0.84997805  0.84980192  1
  S  S6  1  0.03747004  0.74454123  0.46620960  1
  S  S7  1  0.46362313  0.04041226  0.74644102  1
  S  S8  1  0.74833572  0.46780212  0.03627320  1
  S  S9  1  0.24725963  0.54963393  0.95600013  1
  S  S10  1  0.54587224  0.95666188  0.24883396  1
  S  S11  1  0.95646037  0.24694792  0.54951566  1
  O  O12  1  0.10532169  0.29698196  0.51476241  1
  O  O13  1  0.29867897  0.51309136  0.10435639  1
  O  O14  1  0.00152610  0.95087229  0.34812652  1
  O  O15  1  0.52291683  0.10425082  0.29603110  1
  O  O16  1  0.02822458  0.70298252  0.65897410  1
  O  O17  1  0.23345323  0.62008913  0.37966060  1
  O  O18  1  0.37815432  0.24245542  0.61948822  1
  O  O19  1  0.34078432  0.01293415  0.94700201  1
  O  O20  1  0.63082215  0.37295046  0.23656425  1
  O  O21  1  0.04352439  0.68359172  0.98659258  1
  O  O22  1  0.26838947  0.36902008  0.96142458  1
  O  O23  1  0.35882245  0.97359761  0.27866092  1
  O  O24  1  0.65757565  0.02823172  0.70394803  1
  O  O25  1  0.71343422  0.65567068  0.02729765  1
  O  O26  1  0.95448934  0.34270088  0.00059249  1
  O  O27  1  0.37421661  0.63472266  0.76018253  1
  O  O28  1  0.67649945  0.98779394  0.04480171  1
  O  O29  1  0.63102288  0.75960465  0.37536871  1
  O  O30  1  0.75940762  0.37480853  0.63452164  1
  O  O31  1  0.96235896  0.26947351  0.36907009  1
  O  O32  1  0.48889463  0.90129749  0.68824011  1
  O  O33  1  0.98529554  0.04321568  0.68282404  1
  O  O34  1  0.68836408  0.49407678  0.89909198  1
  O  O35  1  0.89324839  0.69161067  0.49410106  1
