# generated using pymatgen
data_ZnSnBiO5
_symmetry_space_group_name_H-M   'P 1'
_cell_length_a   5.33282068
_cell_length_b   8.86610072
_cell_length_c   11.15786359
_cell_angle_alpha   90.00000000
_cell_angle_beta   90.00000000
_cell_angle_gamma   108.12071983
_symmetry_Int_Tables_number   1
_chemical_formula_structural   ZnSnBiO5
_chemical_formula_sum   'Zn4 Sn4 Bi4 O20'
_cell_volume   501.39342356
_cell_formula_units_Z   4
loop_
 _symmetry_equiv_pos_site_id
 _symmetry_equiv_pos_as_xyz
  1  'x, y, z'
loop_
 _atom_site_type_symbol
 _atom_site_label
 _atom_site_symmetry_multiplicity
 _atom_site_fract_x
 _atom_site_fract_y
 _atom_site_fract_z
 _atom_site_occupancy
  Zn  Zn0  1  0.61969086  0.14415757  0.89382171  1
  Zn  Zn1  1  0.38030914  0.85584243  0.10617829  1
  Zn  Zn2  1  0.88030914  0.35584243  0.39382171  1
  Zn  Zn3  1  0.11969086  0.64415757  0.60617829  1
  Sn  Sn4  1  0.79653996  0.92975717  0.61218129  1
  Sn  Sn5  1  0.20346004  0.07024283  0.38781871  1
  Sn  Sn6  1  0.70346004  0.57024283  0.11218129  1
  Sn  Sn7  1  0.29653996  0.42975717  0.88781871  1
  Bi  Bi8  1  0.09605440  0.15304409  0.10747643  1
  Bi  Bi9  1  0.90394560  0.84695591  0.89252357  1
  Bi  Bi10  1  0.59605440  0.65304409  0.39252357  1
  Bi  Bi11  1  0.40394560  0.34695591  0.60747643  1
  O  O12  1  0.45214710  0.36026285  0.05325960  1
  O  O13  1  0.95313747  0.30150101  0.96476597  1
  O  O14  1  0.51480297  0.70480403  0.20225069  1
  O  O15  1  0.75904867  0.52808283  0.53286267  1
  O  O16  1  0.78383367  0.50545385  0.27911657  1
  O  O17  1  0.28383367  0.00545385  0.22088343  1
  O  O18  1  0.45313747  0.80150101  0.53523403  1
  O  O19  1  0.54686253  0.19849899  0.46476597  1
  O  O20  1  0.24095133  0.47191717  0.46713733  1
  O  O21  1  0.04785290  0.13973715  0.55325960  1
  O  O22  1  0.21616633  0.49454615  0.72088343  1
  O  O23  1  0.54785290  0.63973715  0.94674040  1
  O  O24  1  0.95214710  0.86026285  0.44674040  1
  O  O25  1  0.71616633  0.99454615  0.77911657  1
  O  O26  1  0.74095133  0.97191717  0.03286267  1
  O  O27  1  0.25904867  0.02808283  0.96713733  1
  O  O28  1  0.48519703  0.29519597  0.79774931  1
  O  O29  1  0.04686253  0.69849899  0.03523403  1
  O  O30  1  0.98519703  0.79519597  0.70225069  1
  O  O31  1  0.01480297  0.20480403  0.29774931  1
