# generated using pymatgen
data_V3CrSn2(PO4)6
_symmetry_space_group_name_H-M   'P 1'
_cell_length_a   8.99529610
_cell_length_b   8.60382147
_cell_length_c   8.60382182
_cell_angle_alpha   60.00000285
_cell_angle_beta   61.42948129
_cell_angle_gamma   61.42947792
_symmetry_Int_Tables_number   1
_chemical_formula_structural   V3CrSn2(PO4)6
_chemical_formula_sum   'V3 Cr1 Sn2 P6 O24'
_cell_volume   480.76903554
_cell_formula_units_Z   1
loop_
 _symmetry_equiv_pos_site_id
 _symmetry_equiv_pos_as_xyz
  1  'x, y, z'
loop_
 _atom_site_type_symbol
 _atom_site_label
 _atom_site_symmetry_multiplicity
 _atom_site_fract_x
 _atom_site_fract_y
 _atom_site_fract_z
 _atom_site_occupancy
  V  V0  1  0.05628406  0.64790531  0.64790531  1
  V  V1  1  0.44102693  0.85299069  0.85299069  1
  V  V2  1  0.94416726  0.35194391  0.35194391  1
  Cr  Cr3  1  0.55885054  0.14705015  0.14705015  1
  Sn  Sn4  1  0.99410948  0.00196384  0.00196384  1
  Sn  Sn5  1  0.49733291  0.50088936  0.50088936  1
  P  P6  1  0.25197097  0.24976779  0.53433018  1
  P  P7  1  0.25197097  0.96393206  0.24976779  1
  P  P8  1  0.25197097  0.53433018  0.96393206  1
  P  P9  1  0.74963260  0.46384438  0.03662038  1
  P  P10  1  0.74963260  0.03662038  0.74990364  1
  P  P11  1  0.74963260  0.74990364  0.46384438  1
  O  O12  1  0.07873675  0.12954102  0.28338993  1
  O  O13  1  0.07873675  0.50833230  0.12954102  1
  O  O14  1  0.07873675  0.28338993  0.50833230  1
  O  O15  1  0.26575623  0.07636411  0.72015437  1
  O  O16  1  0.42131742  0.22176587  0.37044810  1
  O  O17  1  0.23130038  0.42483710  0.56456344  1
  O  O18  1  0.26575623  0.93772429  0.07636411  1
  O  O19  1  0.23130038  0.77929908  0.42483710  1
  O  O20  1  0.57866330  0.62905245  0.00890174  1
  O  O21  1  0.23130038  0.56456344  0.77929908  1
  O  O22  1  0.73813405  0.27965326  0.05870162  1
  O  O23  1  0.57866330  0.00890174  0.78338350  1
  O  O24  1  0.42131742  0.98646861  0.22176587  1
  O  O25  1  0.26575623  0.72015437  0.93772429  1
  O  O26  1  0.76589712  0.43837179  0.22061877  1
  O  O27  1  0.42131742  0.37044810  0.98646861  1
  O  O28  1  0.76589712  0.22061877  0.57511232  1
  O  O29  1  0.73813405  0.05870162  0.92351107  1
  O  O30  1  0.76589712  0.57511232  0.43837179  1
  O  O31  1  0.57866330  0.78338350  0.62905245  1
  O  O32  1  0.73813405  0.92351107  0.27965326  1
  O  O33  1  0.92133446  0.71276395  0.49424635  1
  O  O34  1  0.92133446  0.49424635  0.87165424  1
  O  O35  1  0.92133446  0.87165424  0.71276395  1
