# generated using pymatgen
data_VOF
_symmetry_space_group_name_H-M   'P 1'
_cell_length_a   4.70552957
_cell_length_b   9.46895105
_cell_length_c   6.22080344
_cell_angle_alpha   90.00000000
_cell_angle_beta   90.00000000
_cell_angle_gamma   90.63185179
_symmetry_Int_Tables_number   1
_chemical_formula_structural   VOF
_chemical_formula_sum   'V8 O8 F8'
_cell_volume   277.15993354
_cell_formula_units_Z   8
loop_
 _symmetry_equiv_pos_site_id
 _symmetry_equiv_pos_as_xyz
  1  'x, y, z'
loop_
 _atom_site_type_symbol
 _atom_site_label
 _atom_site_symmetry_multiplicity
 _atom_site_fract_x
 _atom_site_fract_y
 _atom_site_fract_z
 _atom_site_occupancy
  V  V0  1  0.00000000  0.50000000  0.00000000  1
  V  V1  1  0.00000000  0.00000000  0.00000000  1
  V  V2  1  0.00000000  0.00000000  0.50000000  1
  V  V3  1  0.00000000  0.50000000  0.50000000  1
  V  V4  1  0.53005223  0.23510401  0.25075455  1
  V  V5  1  0.46994777  0.26489599  0.75075455  1
  V  V6  1  0.53005223  0.73510401  0.24924545  1
  V  V7  1  0.46994777  0.76489599  0.74924545  1
  O  O8  1  0.18269929  0.41027316  0.75527559  1
  O  O9  1  0.18269929  0.91027316  0.74472441  1
  O  O10  1  0.31154954  0.15671286  0.00050352  1
  O  O11  1  0.31154954  0.65671286  0.49949648  1
  O  O12  1  0.68845046  0.34328714  0.50050352  1
  O  O13  1  0.68845046  0.84328714  0.99949648  1
  O  O14  1  0.81730071  0.08972684  0.25527559  1
  O  O15  1  0.81730071  0.58972684  0.24472441  1
  F  F16  1  0.20983375  0.39619117  0.24681620  1
  F  F17  1  0.20983375  0.89619117  0.25318380  1
  F  F18  1  0.29681031  0.14921273  0.50039526  1
  F  F19  1  0.29681031  0.64921273  0.99960474  1
  F  F20  1  0.70318969  0.35078727  0.00039526  1
  F  F21  1  0.70318969  0.85078727  0.49960474  1
  F  F22  1  0.79016625  0.10380883  0.74681620  1
  F  F23  1  0.79016625  0.60380883  0.75318380  1
