# generated using pymatgen
data_Li3Mn4(BO3)4
_symmetry_space_group_name_H-M   'P 1'
_cell_length_a   5.27492632
_cell_length_b   13.97357951
_cell_length_c   10.37347844
_cell_angle_alpha   91.31537408
_cell_angle_beta   91.48075275
_cell_angle_gamma   100.42443143
_symmetry_Int_Tables_number   1
_chemical_formula_structural   Li3Mn4(BO3)4
_chemical_formula_sum   'Li9 Mn12 B12 O36'
_cell_volume   751.45631187
_cell_formula_units_Z   3
loop_
 _symmetry_equiv_pos_site_id
 _symmetry_equiv_pos_as_xyz
  1  'x, y, z'
loop_
 _atom_site_type_symbol
 _atom_site_label
 _atom_site_symmetry_multiplicity
 _atom_site_fract_x
 _atom_site_fract_y
 _atom_site_fract_z
 _atom_site_occupancy
  Li  Li0  1  0.21702657  0.61868581  0.84442390  1
  Li  Li1  1  0.24331107  0.60898218  0.32942239  1
  Li  Li2  1  0.10737556  0.05526482  0.09837170  1
  Li  Li3  1  0.43968445  0.72514600  0.60105441  1
  Li  Li4  1  0.86976225  0.95190978  0.83854145  1
  Li  Li5  1  0.55215968  0.28534423  0.83024958  1
  Li  Li6  1  0.92084869  0.94128347  0.32770135  1
  Li  Li7  1  0.57576514  0.27837641  0.34167703  1
  Li  Li8  1  0.77541544  0.38569624  0.60051689  1
  Mn  Mn9  1  0.99101614  0.84418717  0.61278861  1
  Mn  Mn10  1  0.12697935  0.39512397  0.86915862  1
  Mn  Mn11  1  0.34351387  0.82990602  0.36617635  1
  Mn  Mn12  1  0.02393091  0.16486905  0.37466008  1
  Mn  Mn13  1  0.32959534  0.50722857  0.61575612  1
  Mn  Mn14  1  0.55019815  0.93472064  0.11431966  1
  Mn  Mn15  1  0.21321044  0.27732687  0.12462637  1
  Mn  Mn16  1  0.42672129  0.05816728  0.86864802  1
  Mn  Mn17  1  0.78732152  0.72998202  0.86745531  1
  Mn  Mn18  1  0.67773593  0.50042783  0.36583984  1
  Mn  Mn19  1  0.67016029  0.15186105  0.61971719  1
  Mn  Mn20  1  0.87560651  0.60960240  0.11728810  1
  B  B21  1  0.01645414  0.83281145  0.11373361  1
  B  B22  1  0.33484728  0.83418764  0.86623242  1
  B  B23  1  0.11093721  0.38823973  0.38285291  1
  B  B24  1  0.21560662  0.28281235  0.63079477  1
  B  B25  1  0.53948036  0.94775243  0.62799371  1
  B  B26  1  0.34010317  0.49702699  0.11964432  1
  B  B27  1  0.67180655  0.50287618  0.86507454  1
  B  B28  1  0.77930995  0.72062978  0.37865287  1
  B  B29  1  0.46011848  0.04782871  0.37234347  1
  B  B30  1  0.88397892  0.61684161  0.63406282  1
  B  B31  1  0.66086055  0.15831638  0.13325909  1
  B  B32  1  0.98977401  0.16720956  0.86864382  1
  O  O33  1  0.07946727  0.84285477  0.83259130  1
  O  O34  1  0.14611866  0.62398324  0.64487813  1
  O  O35  1  0.25569052  0.82314639  0.16256892  1
  O  O36  1  0.12466139  0.36755465  0.67636435  1
  O  O37  1  0.03130212  0.20830125  0.57797290  1
  O  O38  1  0.38098611  0.86329781  0.57876521  1
  O  O39  1  0.22752520  0.57420064  0.14552605  1
  O  O40  1  0.20248087  0.41264420  0.05214249  1
  O  O41  1  0.04990879  0.07861482  0.89530923  1
  O  O42  1  0.41418933  0.74666326  0.85853671  1
  O  O43  1  0.16800345  0.25233306  0.89847021  1
  O  O44  1  0.50582473  0.91821212  0.90540279  1
  O  O45  1  0.27755450  0.47668859  0.41308426  1
  O  O46  1  0.21528568  0.31025937  0.33516785  1
  O  O47  1  0.57152047  0.96981945  0.33075594  1
  O  O48  1  0.41382009  0.51057863  0.83614177  1
  O  O49  1  0.51880221  0.70967539  0.40122159  1
  O  O50  1  0.20391721  0.04724370  0.35770343  1
  O  O51  1  0.79488759  0.95220302  0.65191238  1
  O  O52  1  0.47254924  0.27825367  0.63674559  1
  O  O53  1  0.58862812  0.49309633  0.16214121  1
  O  O54  1  0.42974135  0.03064351  0.65757504  1
  O  O55  1  0.77449777  0.69909621  0.67289594  1
  O  O56  1  0.72550371  0.53243527  0.58776702  1
  O  O57  1  0.56268446  0.23907342  0.16232663  1
  O  O58  1  0.93057145  0.91962656  0.12740363  1
  O  O59  1  0.50253940  0.07661034  0.07478268  1
  O  O60  1  0.86069048  0.75034799  0.05367740  1
  O  O61  1  0.75220570  0.41538193  0.85490128  1
  O  O62  1  0.84459767  0.58812834  0.90153788  1
  O  O63  1  0.94056992  0.81067471  0.40736648  1
  O  O64  1  0.62636641  0.13144184  0.42829098  1
  O  O65  1  0.88786285  0.64373126  0.33127933  1
  O  O66  1  0.74340011  0.17409913  0.81500351  1
  O  O67  1  0.85106495  0.37990175  0.40494058  1
  O  O68  1  0.92056037  0.15493780  0.16418503  1
