# generated using pymatgen
data_Li3FeF6
_symmetry_space_group_name_H-M   'P 1'
_cell_length_a   5.38400220
_cell_length_b   9.15096838
_cell_length_c   9.22334769
_cell_angle_alpha   87.51469677
_cell_angle_beta   90.00000000
_cell_angle_gamma   72.89183181
_symmetry_Int_Tables_number   1
_chemical_formula_structural   Li3FeF6
_chemical_formula_sum   'Li12 Fe4 F24'
_cell_volume   433.86858498
_cell_formula_units_Z   4
loop_
 _symmetry_equiv_pos_site_id
 _symmetry_equiv_pos_as_xyz
  1  'x, y, z'
loop_
 _atom_site_type_symbol
 _atom_site_label
 _atom_site_symmetry_multiplicity
 _atom_site_fract_x
 _atom_site_fract_y
 _atom_site_fract_z
 _atom_site_occupancy
  Li  Li0  1  0.83147696  0.83682940  0.94795330  1
  Li  Li1  1  0.33169364  0.83682940  0.44795330  1
  Li  Li2  1  0.38996357  0.65008622  0.82271368  1
  Li  Li3  1  0.83206631  0.77545968  0.60862373  1
  Li  Li4  1  0.95995020  0.65008622  0.32271368  1
  Li  Li5  1  0.39247301  0.77545968  0.10862373  1
  Li  Li6  1  0.60752699  0.22454032  0.89137627  1
  Li  Li7  1  0.04004980  0.34991378  0.67728632  1
  Li  Li8  1  0.16793369  0.22454032  0.39137627  1
  Li  Li9  1  0.61003643  0.34991378  0.17728632  1
  Li  Li10  1  0.66830636  0.16317060  0.55204670  1
  Li  Li11  1  0.16852304  0.16317060  0.05204670  1
  Fe  Fe12  1  0.50000000  0.50000000  0.50000000  1
  Fe  Fe13  1  0.00000000  0.50000000  0.00000000  1
  Fe  Fe14  1  0.19950594  1.00000000  0.75000000  1
  Fe  Fe15  1  0.80049406  0.00000000  0.25000000  1
  F  F16  1  0.25848616  0.96518764  0.96342157  1
  F  F17  1  0.00474743  0.84794978  0.76381836  1
  F  F18  1  0.49968821  0.82593512  0.71984431  1
  F  F19  1  0.77632621  0.96518764  0.46342157  1
  F  F20  1  0.14730279  0.84794978  0.26381836  1
  F  F21  1  0.67437667  0.82593512  0.21984431  1
  F  F22  1  0.66596431  0.66412275  0.97139749  1
  F  F23  1  0.66991294  0.66412275  0.47139749  1
  F  F24  1  0.17269934  0.66883684  0.51392930  1
  F  F25  1  0.15846382  0.66883684  0.01392930  1
  F  F26  1  0.06716848  0.51129727  0.79538357  1
  F  F27  1  0.57846675  0.48870273  0.70461643  1
  F  F28  1  0.42153325  0.51129727  0.29538357  1
  F  F29  1  0.93283152  0.48870273  0.20461643  1
  F  F30  1  0.84153618  0.33116316  0.98607070  1
  F  F31  1  0.82730066  0.33116316  0.48607070  1
  F  F32  1  0.33008706  0.33587725  0.52860251  1
  F  F33  1  0.33403569  0.33587725  0.02860251  1
  F  F34  1  0.32562333  0.17406488  0.78015569  1
  F  F35  1  0.85269721  0.15205022  0.73618164  1
  F  F36  1  0.22367379  0.03481236  0.53657843  1
  F  F37  1  0.50031179  0.17406488  0.28015569  1
  F  F38  1  0.99525257  0.15205022  0.23618164  1
  F  F39  1  0.74151384  0.03481236  0.03657843  1
