# generated using pymatgen
data_Na4Co2O5
_symmetry_space_group_name_H-M   'P 1'
_cell_length_a   11.82718383
_cell_length_b   5.74818420
_cell_length_c   9.09549058
_cell_angle_alpha   90.00000000
_cell_angle_beta   106.67657505
_cell_angle_gamma   90.00000000
_symmetry_Int_Tables_number   1
_chemical_formula_structural   Na4Co2O5
_chemical_formula_sum   'Na16 Co8 O20'
_cell_volume   592.34730201
_cell_formula_units_Z   4
loop_
 _symmetry_equiv_pos_site_id
 _symmetry_equiv_pos_as_xyz
  1  'x, y, z'
loop_
 _atom_site_type_symbol
 _atom_site_label
 _atom_site_symmetry_multiplicity
 _atom_site_fract_x
 _atom_site_fract_y
 _atom_site_fract_z
 _atom_site_occupancy
  Na  Na0  1  0.03788587  0.07109917  0.83879134  1
  Na  Na1  1  0.04045686  0.41373668  0.33515804  1
  Na  Na2  1  0.13078823  0.88023867  0.52162298  1
  Na  Na3  1  0.14011724  0.62781371  0.01504239  1
  Na  Na4  1  0.36921177  0.38023867  0.97837702  1
  Na  Na5  1  0.35988276  0.12781371  0.48495761  1
  Na  Na6  1  0.46211413  0.57109917  0.66120866  1
  Na  Na7  1  0.54045686  0.08626332  0.83515804  1
  Na  Na8  1  0.45954314  0.91373668  0.16484196  1
  Na  Na9  1  0.53788587  0.42890083  0.33879134  1
  Na  Na10  1  0.64011724  0.87218629  0.51504239  1
  Na  Na11  1  0.63078823  0.61976133  0.02162298  1
  Na  Na12  1  0.85988276  0.37218629  0.98495761  1
  Na  Na13  1  0.86921177  0.11976133  0.47837702  1
  Na  Na14  1  0.95954314  0.58626332  0.66484196  1
  Na  Na15  1  0.96211413  0.92890083  0.16120866  1
  Co  Co16  1  0.19361804  0.38736545  0.65753657  1
  Co  Co17  1  0.30638196  0.88736545  0.84246343  1
  Co  Co18  1  0.20131573  0.16012626  0.15402767  1
  Co  Co19  1  0.29868427  0.66012626  0.34597233  1
  Co  Co20  1  0.70131573  0.33987374  0.65402767  1
  Co  Co21  1  0.79868427  0.83987374  0.84597233  1
  Co  Co22  1  0.69361804  0.11263455  0.15753657  1
  Co  Co23  1  0.80638196  0.61263455  0.34246343  1
  O  O24  1  0.05709649  0.23152091  0.60530543  1
  O  O25  1  0.18038059  0.65545793  0.76718993  1
  O  O26  1  0.05191127  0.26110028  0.09022967  1
  O  O27  1  0.19368332  0.91393677  0.29996607  1
  O  O28  1  0.24280654  0.48949201  0.48800681  1
  O  O29  1  0.31961941  0.15545793  0.73281007  1
  O  O30  1  0.25719346  0.98949201  0.01199319  1
  O  O31  1  0.30631668  0.41393677  0.20003393  1
  O  O32  1  0.44290351  0.73152091  0.89469457  1
  O  O33  1  0.44808873  0.76110028  0.40977033  1
  O  O34  1  0.55191127  0.23889972  0.59022967  1
  O  O35  1  0.55709649  0.26847909  0.10530543  1
  O  O36  1  0.69368332  0.58606323  0.79996607  1
  O  O37  1  0.74280654  0.01050799  0.98800681  1
  O  O38  1  0.68038059  0.84454207  0.26718993  1
  O  O39  1  0.75719346  0.51050799  0.51199319  1
  O  O40  1  0.80631668  0.08606323  0.70003393  1
  O  O41  1  0.94808873  0.73889972  0.90977033  1
  O  O42  1  0.81961941  0.34454207  0.23281007  1
  O  O43  1  0.94290351  0.76847909  0.39469457  1
