# generated using pymatgen
data_Lu3TaO7
_symmetry_space_group_name_H-M   'P 1'
_cell_length_a   7.34184523
_cell_length_b   10.39904390
_cell_length_c   7.41174987
_cell_angle_alpha   90.00000000
_cell_angle_beta   90.00000000
_cell_angle_gamma   90.00000000
_symmetry_Int_Tables_number   1
_chemical_formula_structural   Lu3TaO7
_chemical_formula_sum   'Lu12 Ta4 O28'
_cell_volume   565.87354540
_cell_formula_units_Z   4
loop_
 _symmetry_equiv_pos_site_id
 _symmetry_equiv_pos_as_xyz
  1  'x, y, z'
loop_
 _atom_site_type_symbol
 _atom_site_label
 _atom_site_symmetry_multiplicity
 _atom_site_fract_x
 _atom_site_fract_y
 _atom_site_fract_z
 _atom_site_occupancy
  Lu  Lu0  1  0.01236849  0.25000000  0.79531360  1
  Lu  Lu1  1  0.25150774  0.51882905  0.96927824  1
  Lu  Lu2  1  0.25150774  0.98117095  0.96927824  1
  Lu  Lu3  1  0.24849226  0.01882905  0.46927824  1
  Lu  Lu4  1  0.24849226  0.48117095  0.46927824  1
  Lu  Lu5  1  0.48763151  0.75000000  0.29531360  1
  Lu  Lu6  1  0.51236849  0.25000000  0.70468640  1
  Lu  Lu7  1  0.75150774  0.51882905  0.53072176  1
  Lu  Lu8  1  0.75150774  0.98117095  0.53072176  1
  Lu  Lu9  1  0.74849226  0.01882905  0.03072176  1
  Lu  Lu10  1  0.74849226  0.48117095  0.03072176  1
  Lu  Lu11  1  0.98763151  0.75000000  0.20468640  1
  Ta  Ta12  1  0.99931181  0.75000000  0.74717455  1
  Ta  Ta13  1  0.50068819  0.25000000  0.24717455  1
  Ta  Ta14  1  0.49931181  0.75000000  0.75282545  1
  Ta  Ta15  1  0.00068819  0.25000000  0.25282545  1
  O  O16  1  0.03706805  0.12314570  0.04400773  1
  O  O17  1  0.03706805  0.37685430  0.04400773  1
  O  O18  1  0.04101761  0.61102829  0.57855176  1
  O  O19  1  0.04101761  0.88897171  0.57855176  1
  O  O20  1  0.24898426  0.25000000  0.34048984  1
  O  O21  1  0.25438640  0.11562880  0.73081931  1
  O  O22  1  0.25438640  0.38437120  0.73081931  1
  O  O23  1  0.24561360  0.61562880  0.23081931  1
  O  O24  1  0.24561360  0.88437120  0.23081931  1
  O  O25  1  0.25101574  0.75000000  0.84048984  1
  O  O26  1  0.45898239  0.11102829  0.07855176  1
  O  O27  1  0.45898239  0.38897171  0.07855176  1
  O  O28  1  0.46293195  0.62314570  0.54400773  1
  O  O29  1  0.46293195  0.87685430  0.54400773  1
  O  O30  1  0.53706805  0.12314570  0.45599227  1
  O  O31  1  0.53706805  0.37685430  0.45599227  1
  O  O32  1  0.54101761  0.61102829  0.92144824  1
  O  O33  1  0.54101761  0.88897171  0.92144824  1
  O  O34  1  0.74898426  0.25000000  0.15951016  1
  O  O35  1  0.75438640  0.11562880  0.76918069  1
  O  O36  1  0.75438640  0.38437120  0.76918069  1
  O  O37  1  0.74561360  0.61562880  0.26918069  1
  O  O38  1  0.74561360  0.88437120  0.26918069  1
  O  O39  1  0.75101574  0.75000000  0.65951016  1
  O  O40  1  0.95898239  0.11102829  0.42144824  1
  O  O41  1  0.95898239  0.38897171  0.42144824  1
  O  O42  1  0.96293195  0.62314570  0.95599227  1
  O  O43  1  0.96293195  0.87685430  0.95599227  1
