# generated using pymatgen
data_Li3Mn4(BO3)4
_symmetry_space_group_name_H-M   'P 1'
_cell_length_a   5.28846992
_cell_length_b   9.09230215
_cell_length_c   10.36966950
_cell_angle_alpha   90.00000000
_cell_angle_beta   90.83791014
_cell_angle_gamma   90.00000000
_symmetry_Int_Tables_number   1
_chemical_formula_structural   Li3Mn4(BO3)4
_chemical_formula_sum   'Li6 Mn8 B8 O24'
_cell_volume   498.56566889
_cell_formula_units_Z   2
loop_
 _symmetry_equiv_pos_site_id
 _symmetry_equiv_pos_as_xyz
  1  'x, y, z'
loop_
 _atom_site_type_symbol
 _atom_site_label
 _atom_site_symmetry_multiplicity
 _atom_site_fract_x
 _atom_site_fract_y
 _atom_site_fract_z
 _atom_site_occupancy
  Li  Li0  1  0.14425473  0.98102938  0.65804513  1
  Li  Li1  1  0.16539829  0.01385331  0.18063624  1
  Li  Li2  1  0.34347717  0.49072296  0.91021886  1
  Li  Li3  1  0.64425473  0.51897062  0.15804513  1
  Li  Li4  1  0.66539829  0.48614669  0.68063624  1
  Li  Li5  1  0.84347717  0.00927704  0.41021886  1
  Mn  Mn6  1  0.16103852  0.63832248  0.62112292  1
  Mn  Mn7  1  0.15306542  0.33029074  0.13541891  1
  Mn  Mn8  1  0.32582302  0.14866353  0.88496153  1
  Mn  Mn9  1  0.35559562  0.81267284  0.37879189  1
  Mn  Mn10  1  0.65306542  0.16970926  0.63541891  1
  Mn  Mn11  1  0.66103852  0.86167752  0.12112292  1
  Mn  Mn12  1  0.82582302  0.35133647  0.38496153  1
  Mn  Mn13  1  0.85559562  0.68732716  0.87879189  1
  B  B14  1  0.16658558  0.32168129  0.63090521  1
  B  B15  1  0.17405350  0.67483127  0.12170940  1
  B  B16  1  0.33135167  0.81145440  0.86593409  1
  B  B17  1  0.33118028  0.16411943  0.38014504  1
  B  B18  1  0.67405350  0.82516873  0.62170940  1
  B  B19  1  0.66658558  0.17831871  0.13090521  1
  B  B20  1  0.83118028  0.33588057  0.88014504  1
  B  B21  1  0.83135167  0.68854560  0.36593409  1
  O  O22  1  0.06453404  0.69366945  0.42870768  1
  O  O23  1  0.08188407  0.32472674  0.92408034  1
  O  O24  1  0.21053696  0.93808764  0.84017595  1
  O  O25  1  0.19739559  0.28596938  0.33710906  1
  O  O26  1  0.21999377  0.67494548  0.83158914  1
  O  O27  1  0.21423807  0.02717890  0.37375948  1
  O  O28  1  0.25393886  0.18212403  0.66241731  1
  O  O29  1  0.28476914  0.79860523  0.18390043  1
  O  O30  1  0.29789964  0.54582798  0.10729826  1
  O  O31  1  0.32722608  0.43960975  0.63640437  1
  O  O32  1  0.41134443  0.15573663  0.09527115  1
  O  O33  1  0.42739856  0.80516018  0.57172362  1
  O  O34  1  0.56453404  0.80633055  0.92870768  1
  O  O35  1  0.58188407  0.17527326  0.42408034  1
  O  O36  1  0.69739559  0.21403062  0.83710906  1
  O  O37  1  0.71423807  0.47282110  0.87375948  1
  O  O38  1  0.71053696  0.56191236  0.34017595  1
  O  O39  1  0.71999377  0.82505452  0.33158914  1
  O  O40  1  0.75393886  0.31787597  0.16241731  1
  O  O41  1  0.78476914  0.70139477  0.68390043  1
  O  O42  1  0.79789964  0.95417202  0.60729826  1
  O  O43  1  0.82722608  0.06039025  0.13640437  1
  O  O44  1  0.91134443  0.34426337  0.59527115  1
  O  O45  1  0.92739856  0.69483982  0.07172362  1
