# generated using pymatgen
data_LaVZnFeO6
_symmetry_space_group_name_H-M   'P 1'
_cell_length_a   5.68095843
_cell_length_b   5.39508072
_cell_length_c   7.72305060
_cell_angle_alpha   89.92810131
_cell_angle_beta   90.00000000
_cell_angle_gamma   90.00000000
_symmetry_Int_Tables_number   1
_chemical_formula_structural   LaVZnFeO6
_chemical_formula_sum   'La2 V2 Zn2 Fe2 O12'
_cell_volume   236.70536235
_cell_formula_units_Z   2
loop_
 _symmetry_equiv_pos_site_id
 _symmetry_equiv_pos_as_xyz
  1  'x, y, z'
loop_
 _atom_site_type_symbol
 _atom_site_label
 _atom_site_symmetry_multiplicity
 _atom_site_fract_x
 _atom_site_fract_y
 _atom_site_fract_z
 _atom_site_occupancy
  La  La0  1  0.05314578  0.98566097  0.24794973  1
  La  La1  1  0.44685422  0.48566097  0.74794973  1
  V  V2  1  0.53074253  -0.00651304  0.49644172  1
  V  V3  1  0.96925747  0.49348696  -0.00355828  1
  Zn  Zn4  1  0.40912954  0.48398637  0.25200721  1
  Zn  Zn5  1  0.09087046  0.98398637  0.75200721  1
  Fe  Fe6  1  0.51835330  -0.00954498  0.00290299  1
  Fe  Fe7  1  0.98164670  0.49045502  0.50290299  1
  O  O8  1  0.02158135  0.62518237  0.75266776  1
  O  O9  1  0.19677533  0.20236720  0.94864946  1
  O  O10  1  0.19739243  0.19409392  0.54999441  1
  O  O11  1  0.30260757  0.69409392  0.04999441  1
  O  O12  1  0.30322467  0.70236720  0.44864946  1
  O  O13  1  0.47841865  0.12518237  0.25266676  1
  O  O14  1  0.49493603  0.92769668  0.74666696  1
  O  O15  1  0.70066407  0.29533272  0.54571801  1
  O  O16  1  0.72131347  0.30173579  0.95699976  1
  O  O17  1  0.77868653  0.80173579  0.45699976  1
  O  O18  1  0.79933593  0.79533272  0.04571801  1
  O  O19  1  0.00506397  0.42769668  0.24666696  1
