# generated using pymatgen
data_Li3VP2HO8
_symmetry_space_group_name_H-M   'P 1'
_cell_length_a   5.14904408
_cell_length_b   6.26769415
_cell_length_c   5.11277263
_cell_angle_alpha   90.57820301
_cell_angle_beta   114.83028450
_cell_angle_gamma   90.18648272
_symmetry_Int_Tables_number   1
_chemical_formula_structural   Li3VP2HO8
_chemical_formula_sum   'Li3 V1 P2 H1 O8'
_cell_volume   149.73634575
_cell_formula_units_Z   1
loop_
 _symmetry_equiv_pos_site_id
 _symmetry_equiv_pos_as_xyz
  1  'x, y, z'
loop_
 _atom_site_type_symbol
 _atom_site_label
 _atom_site_symmetry_multiplicity
 _atom_site_fract_x
 _atom_site_fract_y
 _atom_site_fract_z
 _atom_site_occupancy
  Li  Li0  1  0.28313155  0.77316422  0.63379586  1
  Li  Li1  1  0.00000000  0.50000000  0.00000000  1
  Li  Li2  1  0.71686845  0.22683578  0.36620414  1
  V  V3  1  0.00000000  0.00000000  0.00000000  1
  P  P4  1  0.35942483  0.25236520  0.64024697  1
  P  P5  1  0.64057517  0.74763480  0.35975303  1
  H  H6  1  0.50000000  0.50000000  0.00000000  1
  O  O7  1  0.24315567  0.06688339  0.75352412  1
  O  O8  1  0.30007795  0.46909570  0.76844033  1
  O  O9  1  0.21340437  0.26041758  0.30697136  1
  O  O10  1  0.31028545  0.76341700  0.25668971  1
  O  O11  1  0.68971455  0.23658300  0.74331029  1
  O  O12  1  0.78659563  0.73958242  0.69302864  1
  O  O13  1  0.69992205  0.53090430  0.23155967  1
  O  O14  1  0.75684433  0.93311661  0.24647588  1
