# generated using pymatgen
data_LiV4OF11
_symmetry_space_group_name_H-M   'P 1'
_cell_length_a   5.40940087
_cell_length_b   5.66769375
_cell_length_c   16.67548657
_cell_angle_alpha   88.62971750
_cell_angle_beta   98.83928631
_cell_angle_gamma   118.75270682
_symmetry_Int_Tables_number   1
_chemical_formula_structural   LiV4OF11
_chemical_formula_sum   'Li2 V8 O2 F22'
_cell_volume   442.15394374
_cell_formula_units_Z   2
loop_
 _symmetry_equiv_pos_site_id
 _symmetry_equiv_pos_as_xyz
  1  'x, y, z'
loop_
 _atom_site_type_symbol
 _atom_site_label
 _atom_site_symmetry_multiplicity
 _atom_site_fract_x
 _atom_site_fract_y
 _atom_site_fract_z
 _atom_site_occupancy
  Li  Li0  1  0.86196621  0.89909463  0.81804926  1
  Li  Li1  1  0.43850759  0.29693386  0.57522025  1
  V  V2  1  -0.00166824  0.50426920  0.49863049  1
  V  V3  1  0.75516520  0.37079697  0.12432096  1
  V  V4  1  0.50485914  0.24255251  0.74762287  1
  V  V5  1  0.50156350  0.74820435  0.24917069  1
  V  V6  1  0.24420259  0.12302832  0.37343749  1
  V  V7  1  0.73473606  0.89557730  0.62602432  1
  V  V8  1  0.23969432  0.63963889  0.88158225  1
  V  V9  1  0.00769656  0.99127687  -0.00017911  1
  O  O10  1  0.57205147  0.09144898  0.66088129  1
  O  O11  1  0.08886970  0.82984803  0.91195483  1
  F  F12  1  0.92691711  0.16014572  0.08688978  1
  F  F13  1  0.01209119  0.19951051  0.56388566  1
  F  F14  1  0.98198807  0.68413233  0.06493385  1
  F  F15  1  0.52965947  0.05996888  0.18790427  1
  F  F16  1  0.92318298  0.48813360  0.78482679  1
  F  F17  1  0.92500518  0.95928149  0.28417492  1
  F  F18  1  0.90080208  0.65414847  0.58867187  1
  F  F19  1  0.42968097  0.21348397  0.03718640  1
  F  F20  1  0.55406438  0.27635166  0.47142581  1
  F  F21  1  0.57795192  0.58185400  0.16259708  1
  F  F22  1  0.47853900  0.43944824  0.31516048  1
  F  F23  1  0.49751692  0.54444110  0.67819145  1
  F  F24  1  0.42707231  0.42876653  0.83452511  1
  F  F25  1  0.42829018  0.71223239  0.53173230  1
  F  F26  1  0.42757095  0.91537861  0.33950492  1
  F  F27  1  0.58142423  0.77406275  0.96498860  1
  F  F28  1  0.05636309  0.02181217  0.72326913  1
  F  F29  1  0.06374909  0.32956118  0.40868241  1
  F  F30  1  0.08068456  0.53486406  0.21366925  1
  F  F31  1  0.51267680  0.93862412  0.81554063  1
  F  F32  1  0.01594233  0.29123647  0.93058998  1
  F  F33  1  0.01628509  0.81769182  0.43687370  1
