# generated using pymatgen
data_LiFe2(ClO)2
_symmetry_space_group_name_H-M   'P 1'
_cell_length_a   5.30682698
_cell_length_b   24.21788648
_cell_length_c   5.29144115
_cell_angle_alpha   90.00000000
_cell_angle_beta   82.22134308
_cell_angle_gamma   90.00000000
_symmetry_Int_Tables_number   1
_chemical_formula_structural   LiFe2(ClO)2
_chemical_formula_sum   'Li6 Fe12 Cl12 O12'
_cell_volume   673.79906229
_cell_formula_units_Z   6
loop_
 _symmetry_equiv_pos_site_id
 _symmetry_equiv_pos_as_xyz
  1  'x, y, z'
loop_
 _atom_site_type_symbol
 _atom_site_label
 _atom_site_symmetry_multiplicity
 _atom_site_fract_x
 _atom_site_fract_y
 _atom_site_fract_z
 _atom_site_occupancy
  Li  Li0  1  0.25000000  0.14503308  0.25000000  1
  Li  Li1  1  0.75000000  0.18830092  0.25000000  1
  Li  Li2  1  0.25000000  0.52174243  0.75000000  1
  Li  Li3  1  0.25000000  0.85235894  0.75000000  1
  Li  Li4  1  0.75000000  0.48097406  0.75000000  1
  Li  Li5  1  0.75000000  0.81159057  0.75000000  1
  Fe  Fe6  1  0.25000000  0.97327372  0.25000000  1
  Fe  Fe7  1  0.25000000  0.30493591  0.25000000  1
  Fe  Fe8  1  0.25000000  0.63165232  0.25000000  1
  Fe  Fe9  1  0.25000000  0.03515683  0.75000000  1
  Fe  Fe10  1  0.25000000  0.36868195  0.75000000  1
  Fe  Fe11  1  0.75000000  0.02839809  0.25000000  1
  Fe  Fe12  1  0.75000000  0.36005928  0.25000000  1
  Fe  Fe13  1  0.75000000  0.70168168  0.25000000  1
  Fe  Fe14  1  0.25000000  0.69489785  0.75000000  1
  Fe  Fe15  1  0.75000000  0.29817617  0.75000000  1
  Fe  Fe16  1  0.75000000  0.63843515  0.75000000  1
  Fe  Fe17  1  0.75000000  0.96465105  0.75000000  1
  Cl  Cl18  1  0.96772867  0.11199222  0.99752827  1
  Cl  Cl19  1  0.01062384  0.44590171  0.01204968  1
  Cl  Cl20  1  0.03115321  0.77805324  0.00284448  1
  Cl  Cl21  1  0.98937616  0.88743229  0.48795032  1
  Cl  Cl22  1  0.51062384  0.88743229  0.01204968  1
  Cl  Cl23  1  0.03227133  0.22134178  0.50247173  1
  Cl  Cl24  1  0.46772867  0.22134178  0.99752827  1
  Cl  Cl25  1  0.53115321  0.55527976  0.00284448  1
  Cl  Cl26  1  0.96884679  0.55527976  0.49715552  1
  Cl  Cl27  1  0.48937616  0.44590171  0.48795032  1
  Cl  Cl28  1  0.53227133  0.11199222  0.50247173  1
  Cl  Cl29  1  0.46884679  0.77805324  0.49715552  1
  O  O30  1  0.98858040  0.31344282  0.01633322  1
  O  O31  1  0.01456400  0.64693948  0.98188878  1
  O  O32  1  -0.00989656  0.98139081  0.01645045  1
  O  O33  1  0.98543600  0.68639352  0.51811122  1
  O  O34  1  0.49010344  0.35194219  0.01645045  1
  O  O35  1  0.01141960  0.01989018  0.48366678  1
  O  O36  1  0.00989656  0.35194219  0.48354955  1
  O  O37  1  0.48858040  0.01989018  0.01633322  1
  O  O38  1  0.51456400  0.68639352  0.98188878  1
  O  O39  1  0.51141960  0.31344282  0.48366678  1
  O  O40  1  0.48543600  0.64693948  0.51811122  1
  O  O41  1  0.50989656  0.98139081  0.48354955  1
