# generated using pymatgen
data_Mn3OF5
_symmetry_space_group_name_H-M   'P 1'
_cell_length_a   4.92285384
_cell_length_b   14.70601378
_cell_length_c   3.23654212
_cell_angle_alpha   90.00000000
_cell_angle_beta   90.00000000
_cell_angle_gamma   90.00000000
_symmetry_Int_Tables_number   1
_chemical_formula_structural   Mn3OF5
_chemical_formula_sum   'Mn6 O2 F10'
_cell_volume   234.31126762
_cell_formula_units_Z   2
loop_
 _symmetry_equiv_pos_site_id
 _symmetry_equiv_pos_as_xyz
  1  'x, y, z'
loop_
 _atom_site_type_symbol
 _atom_site_label
 _atom_site_symmetry_multiplicity
 _atom_site_fract_x
 _atom_site_fract_y
 _atom_site_fract_z
 _atom_site_occupancy
  Mn  Mn0  1  0.02337546  0.00588330  0.00000000  1
  Mn  Mn1  1  0.97583764  0.33319438  0.00000000  1
  Mn  Mn2  1  0.03156139  0.65827577  0.00000000  1
  Mn  Mn3  1  0.46843861  0.15827577  0.50000000  1
  Mn  Mn4  1  0.47662454  0.50588330  0.50000000  1
  Mn  Mn5  1  0.52416236  0.83319438  0.50000000  1
  O  O6  1  0.19948590  0.59990921  0.50000000  1
  O  O7  1  0.30051410  0.09990921  0.00000000  1
  F  F8  1  0.18230010  0.27168240  0.50000000  1
  F  F9  1  0.20774315  0.93448775  0.50000000  1
  F  F10  1  0.31769990  0.77168240  0.00000000  1
  F  F11  1  0.29225685  0.43448775  0.00000000  1
  F  F12  1  0.67100076  0.22754684  0.00000000  1
  F  F13  1  0.68633451  0.56588415  0.00000000  1
  F  F14  1  0.72552559  0.90313619  0.00000000  1
  F  F15  1  0.81366549  0.06588415  0.50000000  1
  F  F16  1  0.77447441  0.40313619  0.50000000  1
  F  F17  1  0.82899924  0.72754684  0.50000000  1
