# generated using pymatgen
data_Li4MnSb(WO6)2
_symmetry_space_group_name_H-M   'P 1'
_cell_length_a   5.41556153
_cell_length_b   10.88491390
_cell_length_c   9.65152420
_cell_angle_alpha   28.18735730
_cell_angle_beta   51.90879455
_cell_angle_gamma   56.95075730
_symmetry_Int_Tables_number   1
_chemical_formula_structural   Li4MnSb(WO6)2
_chemical_formula_sum   'Li4 Mn1 Sb1 W2 O12'
_cell_volume   211.50526381
_cell_formula_units_Z   1
loop_
 _symmetry_equiv_pos_site_id
 _symmetry_equiv_pos_as_xyz
  1  'x, y, z'
loop_
 _atom_site_type_symbol
 _atom_site_label
 _atom_site_symmetry_multiplicity
 _atom_site_fract_x
 _atom_site_fract_y
 _atom_site_fract_z
 _atom_site_occupancy
  Li  Li0  1  0.26700443  0.99680599  0.30508635  1
  Li  Li1  1  0.32252525  0.50365044  0.26594362  1
  Li  Li2  1  0.77626332  0.99789910  0.75197635  1
  Li  Li3  1  0.76984952  0.50013918  0.79311701  1
  Mn  Mn4  1  0.00434997  0.50082348  0.99900455  1
  Sb  Sb5  1  0.00060193  0.99784867  0.00533361  1
  W  W6  1  0.49824032  0.00307517  0.49987663  1
  W  W7  1  0.50580849  0.49500147  0.50550661  1
  O  O8  1  0.36407614  0.29906319  0.14166045  1
  O  O9  1  0.23500465  0.12277345  0.62722224  1
  O  O10  1  0.11296683  0.32074964  0.74531200  1
  O  O11  1  0.85620230  0.19627676  0.24427780  1
  O  O12  1  0.38389903  0.80256280  0.11790125  1
  O  O13  1  0.70672349  0.37406765  0.39293057  1
  O  O14  1  0.25458182  0.63406716  0.59471878  1
  O  O15  1  0.61643896  0.18407699  0.88082230  1
  O  O16  1  0.14304539  0.81509584  0.73134466  1
  O  O17  1  0.88128742  0.68521122  0.24179913  1
  O  O18  1  0.73497149  0.87434929  0.37652886  1
  O  O19  1  0.63735925  0.69646152  0.85084023  1
