# generated using pymatgen
data_Li3Cr3FeO8
_symmetry_space_group_name_H-M   'P 1'
_cell_length_a   5.98033072
_cell_length_b   5.96188262
_cell_length_c   5.97747888
_cell_angle_alpha   59.64248969
_cell_angle_beta   120.51192569
_cell_angle_gamma   120.38329776
_symmetry_Int_Tables_number   1
_chemical_formula_structural   Li3Cr3FeO8
_chemical_formula_sum   'Li3 Cr3 Fe1 O8'
_cell_volume   149.26837197
_cell_formula_units_Z   1
loop_
 _symmetry_equiv_pos_site_id
 _symmetry_equiv_pos_as_xyz
  1  'x, y, z'
loop_
 _atom_site_type_symbol
 _atom_site_label
 _atom_site_symmetry_multiplicity
 _atom_site_fract_x
 _atom_site_fract_y
 _atom_site_fract_z
 _atom_site_occupancy
  Li  Li0  1  0.49996188  0.99997642  0.99999208  1
  Li  Li1  1  0.49995424  0.49999248  0.49997329  1
  Li  Li2  1  0.99997159  -0.00000013  0.49997830  1
  Cr  Cr3  1  0.49992296  0.00000233  0.49999770  1
  Cr  Cr4  1  0.50019597  0.50000306  0.00001756  1
  Cr  Cr5  1  0.00000333  0.49998243  0.50005844  1
  Fe  Fe6  1  0.00001776  0.00001387  0.00001042  1
  O  O7  1  0.73304996  0.25094765  0.26676451  1
  O  O8  1  0.74543759  0.23221316  0.72735860  1
  O  O9  1  0.27294672  0.23228085  0.25481946  1
  O  O10  1  0.76006409  0.74338604  0.24015295  1
  O  O11  1  0.23990150  0.25661808  0.75982746  1
  O  O12  1  0.72705494  0.76771178  0.74516353  1
  O  O13  1  0.25454183  0.76780540  0.27263788  1
  O  O14  1  0.26697763  0.74906556  0.73324783  1
