# generated using pymatgen
data_Na5LaO4
_symmetry_space_group_name_H-M   'P 1'
_cell_length_a   15.36469252
_cell_length_b   15.36469252
_cell_length_c   5.57121566
_cell_angle_alpha   90.00000000
_cell_angle_beta   90.00000000
_cell_angle_gamma   90.00000000
_symmetry_Int_Tables_number   1
_chemical_formula_structural   Na5LaO4
_chemical_formula_sum   'Na40 La8 O32'
_cell_volume   1315.21791907
_cell_formula_units_Z   8
loop_
 _symmetry_equiv_pos_site_id
 _symmetry_equiv_pos_as_xyz
  1  'x, y, z'
loop_
 _atom_site_type_symbol
 _atom_site_label
 _atom_site_symmetry_multiplicity
 _atom_site_fract_x
 _atom_site_fract_y
 _atom_site_fract_z
 _atom_site_occupancy
  Na  Na0  1  0.98905650  0.01094350  0.25000000  1
  Na  Na1  1  0.01094350  0.98905650  0.75000000  1
  Na  Na2  1  0.98905650  0.48905650  0.25000000  1
  Na  Na3  1  0.01094350  0.51094350  0.75000000  1
  Na  Na4  1  0.10442094  0.35659384  0.81037270  1
  Na  Na5  1  0.10442094  0.14340616  0.81037270  1
  Na  Na6  1  0.12268054  0.62268054  0.25000000  1
  Na  Na7  1  0.12268054  0.87731946  0.25000000  1
  Na  Na8  1  0.14340616  0.10442094  0.31037270  1
  Na  Na9  1  0.14340616  0.39557906  0.31037270  1
  Na  Na10  1  0.25000000  0.25000000  0.36279826  1
  Na  Na11  1  0.25000000  0.75000000  0.75000000  1
  Na  Na12  1  0.25000000  0.75000000  0.25000000  1
  Na  Na13  1  0.25000000  0.25000000  0.86279826  1
  Na  Na14  1  0.35659384  0.10442094  0.31037270  1
  Na  Na15  1  0.35659384  0.39557906  0.31037270  1
  Na  Na16  1  0.37731946  0.62268054  0.25000000  1
  Na  Na17  1  0.37731946  0.87731946  0.25000000  1
  Na  Na18  1  0.39557906  0.14340616  0.81037270  1
  Na  Na19  1  0.39557906  0.35659384  0.81037270  1
  Na  Na20  1  0.51094350  0.01094350  0.25000000  1
  Na  Na21  1  0.48905650  0.98905650  0.75000000  1
  Na  Na22  1  0.51094350  0.48905650  0.25000000  1
  Na  Na23  1  0.48905650  0.51094350  0.75000000  1
  Na  Na24  1  0.60442094  0.64340616  0.18962730  1
  Na  Na25  1  0.60442094  0.85659384  0.18962730  1
  Na  Na26  1  0.62268054  0.12268054  0.75000000  1
  Na  Na27  1  0.62268054  0.37731946  0.75000000  1
  Na  Na28  1  0.64340616  0.60442094  0.68962730  1
  Na  Na29  1  0.64340616  0.89557906  0.68962730  1
  Na  Na30  1  0.75000000  0.25000000  0.25000000  1
  Na  Na31  1  0.75000000  0.25000000  0.75000000  1
  Na  Na32  1  0.75000000  0.75000000  0.13720174  1
  Na  Na33  1  0.75000000  0.75000000  0.63720174  1
  Na  Na34  1  0.85659384  0.60442094  0.68962730  1
  Na  Na35  1  0.85659384  0.89557906  0.68962730  1
  Na  Na36  1  0.87731946  0.12268054  0.75000000  1
  Na  Na37  1  0.87731946  0.37731946  0.75000000  1
  Na  Na38  1  0.89557906  0.64340616  0.18962730  1
  Na  Na39  1  0.89557906  0.85659384  0.18962730  1
  La  La40  1  0.01933308  0.75000000  0.71337254  1
  La  La41  1  0.25000000  0.51933308  0.78662746  1
  La  La42  1  0.25000000  0.98066692  0.78662746  1
  La  La43  1  0.48066692  0.75000000  0.71337254  1
  La  La44  1  0.51933308  0.25000000  0.28662746  1
  La  La45  1  0.75000000  0.01933308  0.21337254  1
  La  La46  1  0.75000000  0.48066692  0.21337254  1
  La  La47  1  0.98066692  0.25000000  0.28662746  1
  O  O48  1  0.00641958  0.12398600  0.50764107  1
  O  O49  1  0.00641958  0.37601400  0.50764107  1
  O  O50  1  0.12398600  0.00641958  0.00764107  1
  O  O51  1  0.12398600  0.49358042  0.00764107  1
  O  O52  1  0.12362988  0.25000000  0.10869298  1
  O  O53  1  0.12548680  0.75000000  0.99957866  1
  O  O54  1  0.25000000  0.12362988  0.60869298  1
  O  O55  1  0.25000000  0.62548680  0.50042134  1
  O  O56  1  0.25000000  0.87451320  0.50042134  1
  O  O57  1  0.25000000  0.37637012  0.60869298  1
  O  O58  1  0.37451320  0.75000000  0.99957866  1
  O  O59  1  0.37637012  0.25000000  0.10869298  1
  O  O60  1  0.37601400  0.49358042  0.00764107  1
  O  O61  1  0.37601400  0.00641958  0.00764107  1
  O  O62  1  0.49358042  0.12398600  0.50764107  1
  O  O63  1  0.49358042  0.37601400  0.50764107  1
  O  O64  1  0.50641958  0.62398600  0.49235893  1
  O  O65  1  0.50641958  0.87601400  0.49235893  1
  O  O66  1  0.62398600  0.99358042  0.99235893  1
  O  O67  1  0.62398600  0.50641958  0.99235893  1
  O  O68  1  0.62362988  0.75000000  0.89130702  1
  O  O69  1  0.62548680  0.25000000  0.00042134  1
  O  O70  1  0.75000000  0.12548680  0.49957866  1
  O  O71  1  0.75000000  0.37451320  0.49957866  1
  O  O72  1  0.75000000  0.62362988  0.39130702  1
  O  O73  1  0.75000000  0.87637012  0.39130702  1
  O  O74  1  0.87451320  0.25000000  0.00042134  1
  O  O75  1  0.87637012  0.75000000  0.89130702  1
  O  O76  1  0.87601400  0.99358042  0.99235893  1
  O  O77  1  0.87601400  0.50641958  0.99235893  1
  O  O78  1  0.99358042  0.62398600  0.49235893  1
  O  O79  1  0.99358042  0.87601400  0.49235893  1
