# generated using pymatgen
data_Li4V3OF11
_symmetry_space_group_name_H-M   'P 1'
_cell_length_a   5.28245378
_cell_length_b   5.51333570
_cell_length_c   16.01823161
_cell_angle_alpha   80.94387149
_cell_angle_beta   89.68411420
_cell_angle_gamma   88.51018986
_symmetry_Int_Tables_number   1
_chemical_formula_structural   Li4V3OF11
_chemical_formula_sum   'Li8 V6 O2 F22'
_cell_volume   460.54254780
_cell_formula_units_Z   2
loop_
 _symmetry_equiv_pos_site_id
 _symmetry_equiv_pos_as_xyz
  1  'x, y, z'
loop_
 _atom_site_type_symbol
 _atom_site_label
 _atom_site_symmetry_multiplicity
 _atom_site_fract_x
 _atom_site_fract_y
 _atom_site_fract_z
 _atom_site_occupancy
  Li  Li0  1  0.68322556  0.14724609  0.17519509  1
  Li  Li1  1  0.98905615  0.07013036  0.76764755  1
  Li  Li2  1  0.48234029  0.10596247  0.89708457  1
  Li  Li3  1  0.20220340  0.68960803  0.15437231  1
  Li  Li4  1  0.31720160  0.51953088  0.49149190  1
  Li  Li5  1  0.51821001  0.56026943  0.76965592  1
  Li  Li6  1  0.01095737  0.59689517  0.89900949  1
  Li  Li7  1  0.79628682  0.97763497  0.51247342  1
  V  V8  1  0.48116364  0.17398879  0.66805451  1
  V  V9  1  0.99952896  0.33348295  0.33318947  1
  V  V10  1  0.51903172  0.49259256  0.99872213  1
  V  V11  1  0.98808543  0.02590588  0.99667908  1
  V  V12  1  0.01226968  0.64075225  0.66998966  1
  V  V13  1  0.49971448  0.83351056  0.33318487  1
  O  O14  1  0.18866820  0.34091373  0.70162779  1
  O  O15  1  0.81129406  0.32557840  0.96494534  1
  F  F16  1  0.19586661  0.02171792  0.35336228  1
  F  F17  1  0.32762737  0.17327525  0.01764338  1
  F  F18  1  0.70194302  0.14271176  0.29866883  1
  F  F19  1  0.12758741  0.00404474  0.88167828  1
  F  F20  1  0.08727967  0.39508147  0.21673933  1
  F  F21  1  0.42510876  0.20247748  0.54862403  1
  F  F22  1  0.63138384  0.15299161  0.78527590  1
  F  F23  1  0.57548154  0.46405195  0.11794021  1
  F  F24  1  0.91220819  0.27150881  0.45031603  1
  F  F25  1  0.29790651  0.52376086  0.36812334  1
  F  F26  1  0.19195291  0.68796423  0.02221327  1
  F  F27  1  0.67267053  0.49326555  0.64896483  1
  F  F28  1  0.80386569  0.64463421  0.31339580  1
  F  F29  1  0.36869566  0.51417335  0.88137821  1
  F  F30  1  0.42362711  0.87795966  0.21409229  1
  F  F31  1  0.07991454  0.71258134  0.55022776  1
  F  F32  1  0.92010077  0.95412248  0.11630809  1
  F  F33  1  0.57609194  0.78869070  0.45267372  1
  F  F34  1  0.87290714  0.66285791  0.78486557  1
  F  F35  1  0.30759972  0.84055826  0.70764191  1
  F  F36  1  0.69325445  0.82566472  0.95886420  1
  F  F37  1  0.80837125  0.97876218  0.64447063  1
