# generated using pymatgen
data_Li3Mn4(BO3)4
_symmetry_space_group_name_H-M   'P 1'
_cell_length_a   5.27113087
_cell_length_b   9.14699239
_cell_length_c   11.45714724
_cell_angle_alpha   68.62640384
_cell_angle_beta   77.56771037
_cell_angle_gamma   89.95776906
_symmetry_Int_Tables_number   1
_chemical_formula_structural   Li3Mn4(BO3)4
_chemical_formula_sum   'Li6 Mn8 B8 O24'
_cell_volume   500.51334357
_cell_formula_units_Z   2
loop_
 _symmetry_equiv_pos_site_id
 _symmetry_equiv_pos_as_xyz
  1  'x, y, z'
loop_
 _atom_site_type_symbol
 _atom_site_label
 _atom_site_symmetry_multiplicity
 _atom_site_fract_x
 _atom_site_fract_y
 _atom_site_fract_z
 _atom_site_occupancy
  Li  Li0  1  0.98999886  0.00900171  0.83884290  1
  Li  Li1  1  0.79003223  0.78266960  0.58788604  1
  Li  Li2  1  0.76425378  0.74111173  0.34147750  1
  Li  Li3  1  0.48461712  0.50984197  0.83278062  1
  Li  Li4  1  0.53793943  0.53248530  0.10463145  1
  Li  Li5  1  0.27157608  0.25154435  0.33203352  1
  Mn  Mn6  1  0.97890835  0.65691759  0.87159285  1
  Mn  Mn7  1  0.76847096  0.42603360  0.61630784  1
  Mn  Mn8  1  0.73835329  0.06542559  0.36566916  1
  Mn  Mn9  1  0.48014849  0.15288480  0.86874715  1
  Mn  Mn10  1  0.53409861  0.86810544  0.12073591  1
  Mn  Mn11  1  0.26288847  0.95084450  0.61868491  1
  Mn  Mn12  1  0.24274701  0.57370195  0.36920168  1
  Mn  Mn13  1  0.03020353  0.34175010  0.11106751  1
  B  B14  1  0.98659043  0.31799044  0.86517398  1
  B  B15  1  0.74657898  0.09260069  0.63897408  1
  B  B16  1  0.74460804  0.39878128  0.36371805  1
  B  B17  1  0.47038417  0.81323167  0.88035386  1
  B  B18  1  0.53944720  0.19477624  0.11385453  1
  B  B19  1  0.27002301  0.61749461  0.61586932  1
  B  B20  1  0.22239886  0.89602900  0.37878665  1
  B  B21  1  0.01960008  0.67028371  0.13830401  1
  O  O22  1  0.95824705  0.86981861  0.39653443  1
  O  O23  1  0.74776106  0.34634785  0.82660008  1
  O  O24  1  0.90365932  0.29208366  0.33073773  1
  O  O25  1  0.59677691  0.92494476  0.91206035  1
  O  O26  1  0.84957958  0.50447051  0.40876627  1
  O  O27  1  0.57576745  0.67136279  0.89474676  1
  O  O28  1  0.87521558  0.78395517  0.15957575  1
  O  O29  1  0.65827210  0.99767928  0.58198097  1
  O  O30  1  0.93602790  0.57290394  0.08255171  1
  O  O31  1  0.57581441  0.19329303  0.68129513  1
  O  O32  1  0.75957805  0.15196790  0.16018254  1
  O  O33  1  0.51914105  0.60346113  0.63538081  1
  O  O34  1  0.48932537  0.40516429  0.35473735  1
  O  O35  1  0.24185650  0.84847072  0.83864646  1
  O  O36  1  0.39422460  0.79942693  0.33462061  1
  O  O37  1  0.09917437  0.42893037  0.90026960  1
  O  O38  1  0.32662972  0.01681681  0.40602246  1
  O  O39  1  0.10424576  0.18443323  0.86959965  1
  O  O40  1  0.40802270  0.31796190  0.13058195  1
  O  O41  1  0.16529131  0.52934095  0.55620792  1
  O  O42  1  0.44599767  0.10269396  0.05408821  1
  O  O43  1  0.10625161  0.71821406  0.65716093  1
  O  O44  1  0.26443957  0.64826766  0.17688728  1
  O  O45  1  0.99218037  0.09182864  0.65541655  1
