# generated using pymatgen
data_Li4Mn3Cr3O12
_symmetry_space_group_name_H-M   'P 1'
_cell_length_a   5.16647500
_cell_length_b   8.94034651
_cell_length_c   5.07949311
_cell_angle_alpha   90.00000334
_cell_angle_beta   71.44960244
_cell_angle_gamma   90.00000175
_symmetry_Int_Tables_number   1
_chemical_formula_structural   Li4Mn3Cr3O12
_chemical_formula_sum   'Li4 Mn3 Cr3 O12'
_cell_volume   222.43219026
_cell_formula_units_Z   1
loop_
 _symmetry_equiv_pos_site_id
 _symmetry_equiv_pos_as_xyz
  1  'x, y, z'
loop_
 _atom_site_type_symbol
 _atom_site_label
 _atom_site_symmetry_multiplicity
 _atom_site_fract_x
 _atom_site_fract_y
 _atom_site_fract_z
 _atom_site_occupancy
  Li  Li0  1  0.00000000  0.66366284  0.00000000  1
  Li  Li1  1  0.00000000  0.00300416  1.00000000  1
  Li  Li2  1  0.00000000  0.50136808  0.50000000  1
  Li  Li3  1  0.00000000  0.16529892  0.50000000  1
  Mn  Mn4  1  0.50000000  0.83333300  0.00000000  1
  Mn  Mn5  1  0.50000000  0.49722003  1.00000000  1
  Mn  Mn6  1  0.50000000  0.16944697  0.00000000  1
  Cr  Cr7  1  0.50000000  0.66712992  0.50000000  1
  Cr  Cr8  1  0.50000000  0.33333300  0.50000000  1
  Cr  Cr9  1  0.50000000  0.99953708  0.50000000  1
  O  O10  1  0.27987675  0.65012026  0.23122037  1
  O  O11  1  0.28779454  0.33333300  0.23526169  1
  O  O12  1  0.27987675  0.01654674  0.23122037  1
  O  O13  1  0.29045127  0.83333300  0.74982791  1
  O  O14  1  0.28949481  0.50254447  0.74014510  1
  O  O15  1  0.28949481  0.16412253  0.74014510  1
  O  O16  1  0.70954873  0.83333300  0.25017209  1
  O  O17  1  0.71050519  0.50254447  0.25985490  1
  O  O18  1  0.71050519  0.16412253  0.25985490  1
  O  O19  1  0.72012325  0.65012026  0.76877963  1
  O  O20  1  0.71220546  0.33333300  0.76473831  1
  O  O21  1  0.72012325  0.01654674  0.76877963  1
