# generated using pymatgen
data_Tb4Nb4O11
_symmetry_space_group_name_H-M   'P 1'
_cell_length_a   10.97634593
_cell_length_b   16.28714170
_cell_length_c   5.82975662
_cell_angle_alpha   90.00000000
_cell_angle_beta   90.00000000
_cell_angle_gamma   90.00000000
_symmetry_Int_Tables_number   1
_chemical_formula_structural   Tb4Nb4O11
_chemical_formula_sum   'Tb16 Nb16 O44'
_cell_volume   1042.20483796
_cell_formula_units_Z   4
loop_
 _symmetry_equiv_pos_site_id
 _symmetry_equiv_pos_as_xyz
  1  'x, y, z'
loop_
 _atom_site_type_symbol
 _atom_site_label
 _atom_site_symmetry_multiplicity
 _atom_site_fract_x
 _atom_site_fract_y
 _atom_site_fract_z
 _atom_site_occupancy
  Tb  Tb0  1  0.07631131  0.09872158  0.50000000  1
  Tb  Tb1  1  0.09717805  0.23594892  0.00000000  1
  Tb  Tb2  1  0.11259588  0.92167877  0.00000000  1
  Tb  Tb3  1  0.18596787  0.77806261  0.50000000  1
  Tb  Tb4  1  0.31403213  0.27806261  0.50000000  1
  Tb  Tb5  1  0.38740412  0.42167877  0.00000000  1
  Tb  Tb6  1  0.40282195  0.73594892  0.00000000  1
  Tb  Tb7  1  0.42368869  0.59872158  0.50000000  1
  Tb  Tb8  1  0.57631131  0.40127842  0.50000000  1
  Tb  Tb9  1  0.59717805  0.26405108  0.00000000  1
  Tb  Tb10  1  0.61259588  0.57832123  0.00000000  1
  Tb  Tb11  1  0.68596787  0.72193739  0.50000000  1
  Tb  Tb12  1  0.81403213  0.22193739  0.50000000  1
  Tb  Tb13  1  0.88740412  0.07832123  0.00000000  1
  Tb  Tb14  1  0.90282195  0.76405108  0.00000000  1
  Tb  Tb15  1  0.92368869  0.90127842  0.50000000  1
  Nb  Nb16  1  0.08999422  0.43519407  0.00000000  1
  Nb  Nb17  1  0.09348120  0.43147433  0.50000000  1
  Nb  Nb18  1  0.13929394  0.58863724  0.25069048  1
  Nb  Nb19  1  0.13929394  0.58863724  0.74930952  1
  Nb  Nb20  1  0.36070606  0.08863724  0.25069048  1
  Nb  Nb21  1  0.36070606  0.08863724  0.74930952  1
  Nb  Nb22  1  0.40651880  0.93147433  0.50000000  1
  Nb  Nb23  1  0.41000578  0.93519407  0.00000000  1
  Nb  Nb24  1  0.58999422  0.06480593  0.00000000  1
  Nb  Nb25  1  0.59348120  0.06852567  0.50000000  1
  Nb  Nb26  1  0.63929394  0.91136276  0.25069048  1
  Nb  Nb27  1  0.63929394  0.91136276  0.74930952  1
  Nb  Nb28  1  0.86070606  0.41136276  0.25069048  1
  Nb  Nb29  1  0.86070606  0.41136276  0.74930952  1
  Nb  Nb30  1  0.90651880  0.56852567  0.50000000  1
  Nb  Nb31  1  0.91000578  0.56480593  0.00000000  1
  O  O32  1  0.00000000  0.00000000  0.24693795  1
  O  O33  1  0.00000000  0.00000000  0.75306205  1
  O  O34  1  0.05091160  0.66166579  0.50000000  1
  O  O35  1  0.03859111  0.82804629  0.24858221  1
  O  O36  1  0.03859111  0.82804629  0.75141779  1
  O  O37  1  0.04657431  0.65930271  0.00000000  1
  O  O38  1  0.19194002  0.35934434  0.24367008  1
  O  O39  1  0.19194002  0.35934434  0.75632992  1
  O  O40  1  0.22198694  0.17601220  0.26401162  1
  O  O41  1  0.22198694  0.17601220  0.73598838  1
  O  O42  1  0.23939030  0.52228204  0.00000000  1
  O  O43  1  0.24017259  0.52108832  0.50000000  1
  O  O44  1  0.25982741  0.02108832  0.50000000  1
  O  O45  1  0.26060970  0.02228204  0.00000000  1
  O  O46  1  0.27801306  0.67601220  0.26401162  1
  O  O47  1  0.27801306  0.67601220  0.73598838  1
  O  O48  1  0.30805998  0.85934434  0.24367008  1
  O  O49  1  0.30805998  0.85934434  0.75632992  1
  O  O50  1  0.45342569  0.15930271  0.00000000  1
  O  O51  1  0.46140889  0.32804629  0.24858221  1
  O  O52  1  0.46140889  0.32804629  0.75141779  1
  O  O53  1  0.44908840  0.16166579  0.50000000  1
  O  O54  1  0.50000000  0.50000000  0.24693795  1
  O  O55  1  0.50000000  0.50000000  0.75306205  1
  O  O56  1  0.55091160  0.83833421  0.50000000  1
  O  O57  1  0.53859111  0.67195371  0.24858221  1
  O  O58  1  0.53859111  0.67195371  0.75141779  1
  O  O59  1  0.54657431  0.84069729  0.00000000  1
  O  O60  1  0.69194002  0.14065566  0.24367008  1
  O  O61  1  0.69194002  0.14065566  0.75632992  1
  O  O62  1  0.72198694  0.32398780  0.26401162  1
  O  O63  1  0.72198694  0.32398780  0.73598838  1
  O  O64  1  0.73939030  0.97771796  0.00000000  1
  O  O65  1  0.74017259  0.97891168  0.50000000  1
  O  O66  1  0.75982741  0.47891168  0.50000000  1
  O  O67  1  0.76060970  0.47771796  0.00000000  1
  O  O68  1  0.77801306  0.82398780  0.26401162  1
  O  O69  1  0.77801306  0.82398780  0.73598838  1
  O  O70  1  0.80805998  0.64065566  0.24367008  1
  O  O71  1  0.80805998  0.64065566  0.75632992  1
  O  O72  1  0.95342569  0.34069729  0.00000000  1
  O  O73  1  0.96140889  0.17195371  0.24858221  1
  O  O74  1  0.96140889  0.17195371  0.75141779  1
  O  O75  1  0.94908840  0.33833421  0.50000000  1
