# generated using pymatgen
data_LiMnCSO7
_symmetry_space_group_name_H-M   'P 1'
_cell_length_a   8.70744984
_cell_length_b   6.80486082
_cell_length_c   5.08923781
_cell_angle_alpha   90.00000000
_cell_angle_beta   85.26211307
_cell_angle_gamma   90.00000000
_symmetry_Int_Tables_number   1
_chemical_formula_structural   LiMnCSO7
_chemical_formula_sum   'Li2 Mn2 C2 S2 O14'
_cell_volume   300.52211868
_cell_formula_units_Z   2
loop_
 _symmetry_equiv_pos_site_id
 _symmetry_equiv_pos_as_xyz
  1  'x, y, z'
loop_
 _atom_site_type_symbol
 _atom_site_label
 _atom_site_symmetry_multiplicity
 _atom_site_fract_x
 _atom_site_fract_y
 _atom_site_fract_z
 _atom_site_occupancy
  Li  Li0  1  0.18379382  0.52299598  0.21115916  1
  Li  Li1  1  0.81620618  0.02299598  0.78884084  1
  Mn  Mn2  1  0.34599715  0.74687345  0.77317823  1
  Mn  Mn3  1  0.65400285  0.24687345  0.22682177  1
  C  C4  1  0.07277466  0.75099669  0.71935942  1
  C  C5  1  0.92722534  0.25099669  0.28064058  1
  S  S6  1  0.41704211  0.24303732  0.74753983  1
  S  S7  1  0.58295789  0.74303732  0.25246017  1
  O  O8  1  0.06273890  0.29141122  0.30929314  1
  O  O9  1  0.13335563  0.74050811  0.95040057  1
  O  O10  1  0.18139177  0.72181648  0.52379189  1
  O  O11  1  0.32496626  0.06560564  0.79905776  1
  O  O12  1  0.32835293  0.41805234  0.84110420  1
  O  O13  1  0.43284260  0.73231552  0.12790039  1
  O  O14  1  0.45886959  0.26423525  0.45462894  1
  O  O15  1  0.54113041  0.76423525  0.54537106  1
  O  O16  1  0.56715740  0.23231552  0.87209961  1
  O  O17  1  0.67164707  0.91805234  0.15889580  1
  O  O18  1  0.67503374  0.56560564  0.20094224  1
  O  O19  1  0.81860823  0.22181648  0.47620811  1
  O  O20  1  0.86664437  0.24050811  0.04959943  1
  O  O21  1  0.93726110  0.79141122  0.69070686  1
