# generated using pymatgen
data_Li3Mn4(BO3)4
_symmetry_space_group_name_H-M   'P 1'
_cell_length_a   9.34097069
_cell_length_b   6.17320905
_cell_length_c   9.05168698
_cell_angle_alpha   103.00487107
_cell_angle_beta   97.84195238
_cell_angle_gamma   83.38174436
_symmetry_Int_Tables_number   1
_chemical_formula_structural   Li3Mn4(BO3)4
_chemical_formula_sum   'Li6 Mn8 B8 O24'
_cell_volume   501.87414802
_cell_formula_units_Z   2
loop_
 _symmetry_equiv_pos_site_id
 _symmetry_equiv_pos_as_xyz
  1  'x, y, z'
loop_
 _atom_site_type_symbol
 _atom_site_label
 _atom_site_symmetry_multiplicity
 _atom_site_fract_x
 _atom_site_fract_y
 _atom_site_fract_z
 _atom_site_occupancy
  Li  Li0  1  0.87248913  0.79135419  0.53264284  1
  Li  Li1  1  0.87751087  0.45864581  0.96735716  1
  Li  Li2  1  0.63732930  0.04443741  0.02969213  1
  Li  Li3  1  0.36694942  0.94915189  0.96801533  1
  Li  Li4  1  0.38305058  0.30084811  0.53198467  1
  Li  Li5  1  0.11267070  0.20556259  0.47030787  1
  Mn  Mn6  1  0.90884037  0.85151756  0.19902088  1
  Mn  Mn7  1  0.84115963  0.39848244  0.30097912  1
  Mn  Mn8  1  0.60476184  0.64415588  0.78695527  1
  Mn  Mn9  1  0.35736778  0.88999992  0.30467210  1
  Mn  Mn10  1  0.64694263  0.10451574  0.69224445  1
  Mn  Mn11  1  0.39263222  0.36000008  0.19532790  1
  Mn  Mn12  1  0.14523816  0.60584412  0.71304473  1
  Mn  Mn13  1  0.10305737  0.14548426  0.80775555  1
  B  B14  1  0.89644431  0.85520183  0.86524310  1
  B  B15  1  0.85355569  0.39479817  0.63475690  1
  B  B16  1  0.60157314  0.65474356  0.12283296  1
  B  B17  1  0.35092980  0.92350775  0.63929709  1
  B  B18  1  0.64906542  0.09161523  0.36383238  1
  B  B19  1  0.39907020  0.32649225  0.86070291  1
  B  B20  1  0.14842686  0.59525644  0.37716704  1
  B  B21  1  0.10093458  0.15838477  0.13616762  1
  O  O22  1  0.97726441  0.87405960  0.74720219  1
  O  O23  1  0.95816833  0.74564289  0.97562260  1
  O  O24  1  0.72206621  0.01551074  0.48587517  1
  O  O25  1  0.00026500  0.31923584  0.64580474  1
  O  O26  1  0.74849261  0.57780335  0.13527122  1
  O  O27  1  0.74973500  0.93076416  0.85419526  1
  O  O28  1  0.79183167  0.50435711  0.52437740  1
  O  O29  1  0.54104554  0.76112121  0.00759279  1
  O  O30  1  0.77273559  0.37594040  0.75279781  1
  O  O31  1  0.51434700  0.63318691  0.23180621  1
  O  O32  1  0.49958052  0.86640879  0.65609547  1
  O  O33  1  0.72423759  0.10151839  0.24178245  1
  O  O34  1  0.27197709  0.89514932  0.75429888  1
  O  O35  1  0.49909136  0.15880333  0.35523084  1
  O  O36  1  0.47802291  0.35485068  0.74570112  1
  O  O37  1  0.23565300  0.61681309  0.26819379  1
  O  O38  1  0.46540501  0.23387488  0.98000376  1
  O  O39  1  0.20895446  0.48887879  0.49240721  1
  O  O40  1  0.25090864  0.09119667  0.14476916  1
  O  O41  1  0.25041948  0.38359121  0.84390453  1
  O  O42  1  0.00150739  0.67219665  0.36472878  1
  O  O43  1  0.28459499  0.01612512  0.51999624  1
  O  O44  1  0.02793379  0.23448926  0.01412483  1
  O  O45  1  0.02576241  0.14848161  0.25821755  1
