# generated using pymatgen
data_Li6Mn5O12
_symmetry_space_group_name_H-M   'P 1'
_cell_length_a   5.07254811
_cell_length_b   8.83905301
_cell_length_c   9.84306970
_cell_angle_alpha   97.62077935
_cell_angle_beta   85.27890938
_cell_angle_gamma   91.28553569
_symmetry_Int_Tables_number   1
_chemical_formula_structural   Li6Mn5O12
_chemical_formula_sum   'Li12 Mn10 O24'
_cell_volume   435.91719259
_cell_formula_units_Z   2
loop_
 _symmetry_equiv_pos_site_id
 _symmetry_equiv_pos_as_xyz
  1  'x, y, z'
loop_
 _atom_site_type_symbol
 _atom_site_label
 _atom_site_symmetry_multiplicity
 _atom_site_fract_x
 _atom_site_fract_y
 _atom_site_fract_z
 _atom_site_occupancy
  Li  Li0  1  0.02392904  0.17314001  0.48355397  1
  Li  Li1  1  0.22422411  0.60213767  0.01854341  1
  Li  Li2  1  0.26411145  0.91817415  0.01239183  1
  Li  Li3  1  0.25968908  0.24641028  0.02107124  1
  Li  Li4  1  0.38187994  0.13032144  0.25790893  1
  Li  Li5  1  0.51137758  0.01252418  0.48361010  1
  Li  Li6  1  0.51021256  0.65564471  0.48824299  1
  Li  Li7  1  0.73636975  0.08579644  0.01348411  1
  Li  Li8  1  0.74748680  0.43510609  0.01608958  1
  Li  Li9  1  0.87422063  0.62814161  0.24125048  1
  Li  Li10  1  0.98731228  0.49649964  0.48573936  1
  Li  Li11  1  0.00355215  0.81539117  0.47656609  1
  Mn  Mn12  1  0.12615447  0.36898294  0.74590287  1
  Mn  Mn13  1  0.12341065  0.03832700  0.75013511  1
  Mn  Mn14  1  0.12008665  0.70816048  0.75131464  1
  Mn  Mn15  1  0.61483636  0.87445412  0.75302586  1
  Mn  Mn16  1  0.62645888  0.54235708  0.74881735  1
  Mn  Mn17  1  0.62259699  0.20438084  0.74957257  1
  Mn  Mn18  1  0.37502388  0.46020342  0.25322769  1
  Mn  Mn19  1  0.38485914  0.79355539  0.24881058  1
  Mn  Mn20  1  0.87059761  0.29449274  0.25130740  1
  Mn  Mn21  1  0.88303142  0.95885410  0.24686939  1
  O  O22  1  0.03535815  0.11130974  0.13734543  1
  O  O23  1  0.07143323  0.43010849  0.13693447  1
  O  O24  1  0.08662883  0.78936792  0.14183113  1
  O  O25  1  0.16572431  0.32435395  0.36094785  1
  O  O26  1  0.18803761  0.96392195  0.36140576  1
  O  O27  1  0.22007545  0.64290091  0.36223357  1
  O  O28  1  0.30855043  0.84782630  0.63935118  1
  O  O29  1  0.31542236  0.17215568  0.63932678  1
  O  O30  1  0.30851170  0.53920462  0.64601536  1
  O  O31  1  0.52856529  0.60633321  0.14100738  1
  O  O32  1  0.43837935  0.07744153  0.87406590  1
  O  O33  1  0.44251736  0.38678181  0.85097108  1
  O  O34  1  0.40936986  0.73970177  0.86420310  1
  O  O35  1  0.56500970  0.29021640  0.14141049  1
  O  O36  1  0.57467231  0.93538265  0.14278229  1
  O  O37  1  0.68407887  0.46808297  0.35653803  1
  O  O38  1  0.68835021  0.82210714  0.36127483  1
  O  O39  1  0.72856184  0.13660146  0.35715518  1
  O  O40  1  0.83055613  0.33746945  0.63807031  1
  O  O41  1  0.77978494  0.02472531  0.64237237  1
  O  O42  1  0.82516649  0.67696434  0.63232023  1
  O  O43  1  0.93501228  0.56397010  0.85881457  1
  O  O44  1  0.94245840  0.89046666  0.85193216  1
  O  O45  1  0.91683848  0.22460416  0.86216298  1
