# generated using pymatgen
data_Li4Fe3P4(HO8)2
_symmetry_space_group_name_H-M   'P 1'
_cell_length_a   9.25512023
_cell_length_b   9.48039998
_cell_length_c   8.69009149
_cell_angle_alpha   90.00000000
_cell_angle_beta   115.98778673
_cell_angle_gamma   90.00000000
_symmetry_Int_Tables_number   1
_chemical_formula_structural   Li4Fe3P4(HO8)2
_chemical_formula_sum   'Li8 Fe6 P8 H4 O32'
_cell_volume   685.39100562
_cell_formula_units_Z   2
loop_
 _symmetry_equiv_pos_site_id
 _symmetry_equiv_pos_as_xyz
  1  'x, y, z'
loop_
 _atom_site_type_symbol
 _atom_site_label
 _atom_site_symmetry_multiplicity
 _atom_site_fract_x
 _atom_site_fract_y
 _atom_site_fract_z
 _atom_site_occupancy
  Li  Li0  1  0.03392000  0.65415376  0.58110142  1
  Li  Li1  1  0.31136385  0.02022563  0.71699201  1
  Li  Li2  1  0.03392000  0.84584624  0.08110142  1
  Li  Li3  1  0.31136385  0.47977437  0.21699201  1
  Li  Li4  1  0.68863615  0.52022563  0.78300799  1
  Li  Li5  1  0.96608000  0.15415376  0.91889858  1
  Li  Li6  1  0.68863615  0.97977437  0.28300799  1
  Li  Li7  1  0.96608000  0.34584624  0.41889858  1
  Fe  Fe8  1  0.37597782  0.36739474  0.60629087  1
  Fe  Fe9  1  0.62402218  0.86739474  0.89370913  1
  Fe  Fe10  1  0.50000000  0.00000000  0.50000000  1
  Fe  Fe11  1  0.37597782  0.13260526  0.10629087  1
  Fe  Fe12  1  0.62402218  0.63260526  0.39370913  1
  Fe  Fe13  1  0.50000000  0.50000000  0.00000000  1
  P  P14  1  0.16999054  0.31524381  0.80961308  1
  P  P15  1  0.16999054  0.18475619  0.30961308  1
  P  P16  1  0.38044071  0.68395550  0.56537853  1
  P  P17  1  0.61955929  0.18395550  0.93462147  1
  P  P18  1  0.38044071  0.81604450  0.06537853  1
  P  P19  1  0.61955929  0.31604450  0.43462147  1
  P  P20  1  0.83000946  0.81524381  0.69038692  1
  P  P21  1  0.83000946  0.68475619  0.19038692  1
  H  H22  1  0.11151651  0.80418561  0.86037192  1
  H  H23  1  0.11151651  0.69581439  0.36037192  1
  H  H24  1  0.88848349  0.30418561  0.63962808  1
  H  H25  1  0.88848349  0.19581439  0.13962808  1
  O  O26  1  0.00548260  0.81076000  0.70722998  1
  O  O27  1  0.19477615  0.79988201  0.00584587  1
  O  O28  1  0.23806240  0.16188465  0.84207031  1
  O  O29  1  0.27590023  0.41124087  0.96258466  1
  O  O30  1  0.16253357  0.37311677  0.63796129  1
  O  O31  1  0.00548260  0.68924000  0.20722998  1
  O  O32  1  0.19477615  0.70011799  0.50584587  1
  O  O33  1  0.40624467  0.86552185  0.91075770  1
  O  O34  1  0.23806240  0.33811535  0.34207031  1
  O  O35  1  0.27590023  0.08875913  0.46258466  1
  O  O36  1  0.53686000  0.32860067  0.86966544  1
  O  O37  1  0.16253357  0.12688323  0.13796129  1
  O  O38  1  0.44601232  0.57560831  0.71428308  1
  O  O39  1  0.55398768  0.07560831  0.78571692  1
  O  O40  1  0.46314000  0.82860067  0.63033456  1
  O  O41  1  0.40624467  0.63447815  0.41075770  1
  O  O42  1  0.59375533  0.36552185  0.58924230  1
  O  O43  1  0.53686000  0.17139933  0.36966544  1
  O  O44  1  0.44601232  0.92439169  0.21428308  1
  O  O45  1  0.55398768  0.42439169  0.28571692  1
  O  O46  1  0.83746643  0.87311677  0.86203871  1
  O  O47  1  0.46314000  0.67139933  0.13033456  1
  O  O48  1  0.72409977  0.91124087  0.53741534  1
  O  O49  1  0.76193760  0.66188465  0.65792969  1
  O  O50  1  0.59375533  0.13447815  0.08924230  1
  O  O51  1  0.80522385  0.29988201  0.49415413  1
  O  O52  1  0.99451740  0.31076000  0.79277002  1
  O  O53  1  0.83746643  0.62688323  0.36203871  1
  O  O54  1  0.72409977  0.58875913  0.03741534  1
  O  O55  1  0.76193760  0.83811535  0.15792969  1
  O  O56  1  0.80522385  0.20011799  0.99415413  1
  O  O57  1  0.99451740  0.18924000  0.29277002  1
