# generated using pymatgen
data_Co3OF5
_symmetry_space_group_name_H-M   'P 1'
_cell_length_a   4.74367177
_cell_length_b   7.91161376
_cell_length_c   5.69800685
_cell_angle_alpha   92.82558669
_cell_angle_beta   90.00000000
_cell_angle_gamma   90.00000000
_symmetry_Int_Tables_number   1
_chemical_formula_structural   Co3OF5
_chemical_formula_sum   'Co6 O2 F10'
_cell_volume   213.58677044
_cell_formula_units_Z   2
loop_
 _symmetry_equiv_pos_site_id
 _symmetry_equiv_pos_as_xyz
  1  'x, y, z'
loop_
 _atom_site_type_symbol
 _atom_site_label
 _atom_site_symmetry_multiplicity
 _atom_site_fract_x
 _atom_site_fract_y
 _atom_site_fract_z
 _atom_site_occupancy
  Co  Co0  1  0.48528037  0.01359396  0.49533610  1
  Co  Co1  1  0.48384172  0.32936232  0.82266389  1
  Co  Co2  1  0.52953543  0.67049150  0.15337056  1
  Co  Co3  1  0.98384172  0.67063768  0.67733611  1
  Co  Co4  1  0.02953543  0.32950850  0.34662944  1
  Co  Co5  1  0.98528037  0.98640604  0.00466390  1
  O  O6  1  0.80098806  0.76128596  0.96757169  1
  O  O7  1  0.30098806  0.23871404  0.53242831  1
  F  F8  1  0.80251644  0.43776768  0.62555221  1
  F  F9  1  0.80426096  0.10381147  0.29706790  1
  F  F10  1  0.69192159  0.77448409  0.46201601  1
  F  F11  1  0.70102497  0.10304492  0.79580165  1
  F  F12  1  0.70063046  0.42490230  0.13483387  1
  F  F13  1  0.30251644  0.56223232  0.87444779  1
  F  F14  1  0.30426096  0.89618853  0.20293210  1
  F  F15  1  0.19192159  0.22551591  0.03798399  1
  F  F16  1  0.20102497  0.89695508  0.70419835  1
  F  F17  1  0.20063046  0.57509770  0.36516613  1
