# generated using pymatgen
data_Mn6O11F
_symmetry_space_group_name_H-M   'P 1'
_cell_length_a   6.97798674
_cell_length_b   5.39850291
_cell_length_c   5.39850291
_cell_angle_alpha   73.12540354
_cell_angle_beta   72.89087384
_cell_angle_gamma   72.89087384
_symmetry_Int_Tables_number   1
_chemical_formula_structural   Mn6O11F
_chemical_formula_sum   'Mn6 O11 F1'
_cell_volume   181.08498206
_cell_formula_units_Z   1
loop_
 _symmetry_equiv_pos_site_id
 _symmetry_equiv_pos_as_xyz
  1  'x, y, z'
loop_
 _atom_site_type_symbol
 _atom_site_label
 _atom_site_symmetry_multiplicity
 _atom_site_fract_x
 _atom_site_fract_y
 _atom_site_fract_z
 _atom_site_occupancy
  Mn  Mn0  1  0.83333300  0.66928462  0.66404938  1
  Mn  Mn1  1  0.66609374  0.32962193  0.33766773  1
  Mn  Mn2  1  0.33333300  0.68757254  0.64576046  1
  Mn  Mn3  1  0.15825528  0.33261061  0.34962629  1
  Mn  Mn4  1  0.50841172  0.98370771  0.00072239  1
  Mn  Mn5  1  0.00057326  0.99566527  0.00371107  1
  O  O6  1  0.66778462  0.02474557  0.63925551  1
  O  O7  1  0.29866115  0.89728337  0.89594571  1
  O  O8  1  0.62739130  0.56339357  0.56823944  1
  O  O9  1  0.96274730  0.23463506  0.23048271  1
  O  O10  1  0.70391970  0.10285129  0.09869794  1
  O  O11  1  0.03927570  0.76509456  0.76993943  1
  O  O12  1  0.36800585  0.43738729  0.43604963  1
  O  O13  1  0.33333300  0.97663422  0.35669878  1
  O  O14  1  0.66863318  0.63525596  0.02742563  1
  O  O15  1  0.99803382  0.30590737  0.69807704  1
  O  O16  1  0.99888238  0.69407749  0.30858743  1
  F  F17  1  0.33333300  0.36427059  0.96906241  1
