# generated using pymatgen
data_LiCeO2
_symmetry_space_group_name_H-M   'P 1'
_cell_length_a   5.81744551
_cell_length_b   5.88969460
_cell_length_c   6.07216304
_cell_angle_alpha   90.00000000
_cell_angle_beta   90.00000000
_cell_angle_gamma   104.06199136
_symmetry_Int_Tables_number   1
_chemical_formula_structural   LiCeO2
_chemical_formula_sum   'Li4 Ce4 O8'
_cell_volume   201.81582437
_cell_formula_units_Z   4
loop_
 _symmetry_equiv_pos_site_id
 _symmetry_equiv_pos_as_xyz
  1  'x, y, z'
loop_
 _atom_site_type_symbol
 _atom_site_label
 _atom_site_symmetry_multiplicity
 _atom_site_fract_x
 _atom_site_fract_y
 _atom_site_fract_z
 _atom_site_occupancy
  Li  Li0  1  0.18171236  0.66555011  0.13248703  1
  Li  Li1  1  0.31828764  0.33444989  0.63248703  1
  Li  Li2  1  0.81828764  0.33444989  0.86751297  1
  Li  Li3  1  0.68171236  0.66555011  0.36751297  1
  O  O4  1  0.98647631  0.91040616  0.24690169  1
  O  O5  1  0.69365526  0.43328728  0.13727371  1
  O  O6  1  0.51352369  0.08959384  0.74690169  1
  O  O7  1  0.01352369  0.08959384  0.75309831  1
  O  O8  1  0.30634474  0.56671272  0.86272629  1
  O  O9  1  0.80634474  0.56671272  0.63727371  1
  O  O10  1  0.19365526  0.43328728  0.36272629  1
  O  O11  1  0.48647631  0.91040616  0.25309831  1
  Ce  Ce12  1  0.30496893  0.20134593  0.07249973  1
  Ce  Ce13  1  0.80496893  0.20134593  0.42750027  1
  Ce  Ce14  1  0.69503107  0.79865407  0.92750027  1
  Ce  Ce15  1  0.19503107  0.79865407  0.57249973  1
