# generated using pymatgen
data_LiMn2P4H11O18
_symmetry_space_group_name_H-M   'P 1'
_cell_length_a   5.44044554
_cell_length_b   11.97586530
_cell_length_c   6.17249115
_cell_angle_alpha   104.91385751
_cell_angle_beta   113.61790972
_cell_angle_gamma   83.61503693
_symmetry_Int_Tables_number   1
_chemical_formula_structural   LiMn2P4H11O18
_chemical_formula_sum   'Li1 Mn2 P4 H11 O18'
_cell_volume   356.04916470
_cell_formula_units_Z   1
loop_
 _symmetry_equiv_pos_site_id
 _symmetry_equiv_pos_as_xyz
  1  'x, y, z'
loop_
 _atom_site_type_symbol
 _atom_site_label
 _atom_site_symmetry_multiplicity
 _atom_site_fract_x
 _atom_site_fract_y
 _atom_site_fract_z
 _atom_site_occupancy
  Li  Li0  1  0.47024146  0.53861784  0.01079505  1
  Mn  Mn1  1  0.00566038  0.90576897  0.70449913  1
  Mn  Mn2  1  0.99325931  0.10120441  0.29700324  1
  P  P3  1  0.14109076  0.63770814  0.36564347  1
  P  P4  1  0.49893993  0.09644263  0.78968157  1
  P  P5  1  0.49623158  0.91141968  0.21292633  1
  P  P6  1  0.83685870  0.36887827  0.61546316  1
  H  H7  1  0.98697353  0.49901679  0.49659281  1
  H  H8  1  0.00706262  0.29549628  0.07073772  1
  H  H9  1  0.25299393  0.30543378  0.32048126  1
  H  H10  1  0.47234503  0.51392853  0.50875803  1
  H  H11  1  0.36058055  0.81731492  0.41854539  1
  H  H12  1  0.63359599  0.80503936  0.92208812  1
  H  H13  1  0.36678818  0.20675028  0.07667284  1
  H  H14  1  0.63468808  0.18614244  0.58078758  1
  H  H15  1  0.74933189  0.69912616  0.68058017  1
  H  H16  1  0.97939965  0.48450058  0.98306431  1
  H  H17  1  0.98337628  0.70656142  0.93716633  1
  O  O18  1  0.06614134  0.43674567  0.61204264  1
  O  O19  1  0.23973917  0.03047107  0.68306096  1
  O  O20  1  0.12455378  0.77052139  0.43902398  1
  O  O21  1  0.13287228  0.24840605  0.17951396  1
  O  O22  1  0.16909612  0.59573263  0.11469622  1
  O  O23  1  0.46716312  0.82418447  0.96201255  1
  O  O24  1  0.46304697  0.16771654  0.59362742  1
  O  O25  1  0.40730747  0.59985280  0.56702743  1
  O  O26  1  0.76478069  0.03136299  0.85352551  1
  O  O27  1  0.22784251  0.97407494  0.14729795  1
  O  O28  1  0.56095915  0.40038771  0.44331988  1
  O  O29  1  0.53366706  0.83788290  0.40451564  1
  O  O30  1  0.85398537  0.41438190  0.89281404  1
  O  O31  1  0.53370448  0.18683983  0.03866542  1
  O  O32  1  0.86336878  0.75492093  0.82603792  1
  O  O33  1  0.88972501  0.23848985  0.57382190  1
  O  O34  1  0.75281750  0.98081570  0.32385151  1
  O  O35  1  0.89551238  0.57833415  0.35345756  1
