# generated using pymatgen
data_Li3Mn4(BO3)4
_symmetry_space_group_name_H-M   'P 1'
_cell_length_a   10.47604668
_cell_length_b   7.92705095
_cell_length_c   6.17175368
_cell_angle_alpha   80.25728322
_cell_angle_beta   92.73387072
_cell_angle_gamma   91.95277916
_symmetry_Int_Tables_number   1
_chemical_formula_structural   Li3Mn4(BO3)4
_chemical_formula_sum   'Li6 Mn8 B8 O24'
_cell_volume   504.38519948
_cell_formula_units_Z   2
loop_
 _symmetry_equiv_pos_site_id
 _symmetry_equiv_pos_as_xyz
  1  'x, y, z'
loop_
 _atom_site_type_symbol
 _atom_site_label
 _atom_site_symmetry_multiplicity
 _atom_site_fract_x
 _atom_site_fract_y
 _atom_site_fract_z
 _atom_site_occupancy
  Li  Li0  1  0.04258637  0.15305649  0.53469401  1
  Li  Li1  1  0.54638148  0.15291339  0.53307391  1
  Li  Li2  1  0.28290483  0.64021644  0.02033397  1
  Li  Li3  1  0.71709517  0.35978356  0.97966603  1
  Li  Li4  1  0.45361852  0.84708661  0.46692609  1
  Li  Li5  1  0.95741363  0.84694351  0.46530599  1
  Mn  Mn6  1  0.29884826  0.00888737  0.74645738  1
  Mn  Mn7  1  0.04663373  0.49708142  0.25232817  1
  Mn  Mn8  1  0.79919563  0.97914366  0.77230922  1
  Mn  Mn9  1  0.55567466  0.50834917  0.25180317  1
  Mn  Mn10  1  0.44432534  0.49165083  0.74819683  1
  Mn  Mn11  1  0.20080437  0.02085634  0.22769078  1
  Mn  Mn12  1  0.95336627  0.50291858  0.74767183  1
  Mn  Mn13  1  0.70115174  0.99111263  0.25354262  1
  B  B14  1  0.45724997  0.16882546  0.09424008  1
  B  B15  1  0.29853088  0.33964561  0.40722266  1
  B  B16  1  0.94444254  0.16969182  0.10038225  1
  B  B17  1  0.80002423  0.32428027  0.42453517  1
  B  B18  1  0.19997577  0.67571973  0.57546483  1
  B  B19  1  0.05555746  0.83030818  0.89961775  1
  B  B20  1  0.70146912  0.66035439  0.59277734  1
  B  B21  1  0.54275003  0.83117454  0.90575992  1
  O  O22  1  0.00321318  0.04699384  0.25495160  1
  O  O23  1  0.00219592  0.32855371  0.03199809  1
  O  O24  1  0.33360053  0.14319771  0.01289559  1
  O  O25  1  0.50938931  0.04890439  0.26079357  1
  O  O26  1  0.22877119  0.18625984  0.47706376  1
  O  O27  1  0.52517241  0.31941750  0.01134578  1
  O  O28  1  0.82066447  0.13996463  0.01753999  1
  O  O29  1  0.24347828  0.47319524  0.27146210  1
  O  O30  1  0.42787729  0.34832578  0.47937141  1
  O  O31  1  0.73869890  0.16774371  0.50395497  1
  O  O32  1  0.07012106  0.64973183  0.50267505  1
  O  O33  1  0.74452466  0.44186650  0.26564390  1
  O  O34  1  0.25547534  0.55813350  0.73435610  1
  O  O35  1  0.92987894  0.35026817  0.49732495  1
  O  O36  1  0.26130110  0.83225629  0.49604503  1
  O  O37  1  0.57212271  0.65167422  0.52062859  1
  O  O38  1  0.75652172  0.52680476  0.72853790  1
  O  O39  1  0.17933553  0.86003537  0.98246001  1
  O  O40  1  0.47482759  0.68058250  0.98865422  1
  O  O41  1  0.77122881  0.81374016  0.52293624  1
  O  O42  1  0.49061069  0.95109561  0.73920643  1
  O  O43  1  0.66639947  0.85680229  0.98710441  1
  O  O44  1  0.99780408  0.67144629  0.96800191  1
  O  O45  1  0.99678682  0.95300616  0.74504840  1
