# generated using pymatgen
data_Li3Co2(SiO4)2
_symmetry_space_group_name_H-M   'P 1'
_cell_length_a   6.43082273
_cell_length_b   10.59416088
_cell_length_c   5.05312354
_cell_angle_alpha   90.48213571
_cell_angle_beta   90.00000000
_cell_angle_gamma   90.00000000
_symmetry_Int_Tables_number   1
_chemical_formula_structural   Li3Co2(SiO4)2
_chemical_formula_sum   'Li6 Co4 Si4 O16'
_cell_volume   344.25292701
_cell_formula_units_Z   2
loop_
 _symmetry_equiv_pos_site_id
 _symmetry_equiv_pos_as_xyz
  1  'x, y, z'
loop_
 _atom_site_type_symbol
 _atom_site_label
 _atom_site_symmetry_multiplicity
 _atom_site_fract_x
 _atom_site_fract_y
 _atom_site_fract_z
 _atom_site_occupancy
  Li  Li0  1  0.00882833  0.84108489  0.75951316  1
  Li  Li1  1  0.49117167  0.34108489  0.75951316  1
  Li  Li2  1  0.49845931  0.65939635  0.25948726  1
  Li  Li3  1  0.74196234  0.42272184  0.25330683  1
  Li  Li4  1  0.75803766  0.92272184  0.25330683  1
  Li  Li5  1  0.00154069  0.15939635  0.25948726  1
  Co  Co6  1  0.01623057  0.66526580  0.27090929  1
  Co  Co7  1  0.48376943  0.16526580  0.27090929  1
  Co  Co8  1  0.50590592  0.83219479  0.75308362  1
  Co  Co9  1  0.99409408  0.33219479  0.75308362  1
  Si  Si10  1  0.24453320  0.41058286  0.26277171  1
  Si  Si11  1  0.25546680  0.91058286  0.26277171  1
  Si  Si12  1  0.73774372  0.09185845  0.76441150  1
  Si  Si13  1  0.76225628  0.59185845  0.76441150  1
  O  O14  1  0.03043993  0.34268442  0.13678546  1
  O  O15  1  0.03832998  0.84256562  0.15354986  1
  O  O16  1  0.25047273  0.05983626  0.19889586  1
  O  O17  1  0.23641378  0.38457472  0.58519644  1
  O  O18  1  0.26358622  0.88457472  0.58519644  1
  O  O19  1  0.24952727  0.55983626  0.19889586  1
  O  O20  1  0.46167002  0.34256562  0.15354986  1
  O  O21  1  0.46956007  0.84268442  0.13678546  1
  O  O22  1  0.53918704  0.16829026  0.64471681  1
  O  O23  1  0.55005989  0.66325804  0.65433839  1
  O  O24  1  0.75819853  0.44219451  0.66072249  1
  O  O25  1  0.73336237  0.09592918  0.09177532  1
  O  O26  1  0.76663763  0.59592918  0.09177532  1
  O  O27  1  0.74180147  0.94219451  0.66072249  1
  O  O28  1  0.94994011  0.16325804  0.65433839  1
  O  O29  1  0.96081296  0.66829026  0.64471681  1
