# generated using pymatgen
data_Mn3OF5
_symmetry_space_group_name_H-M   'P 1'
_cell_length_a   4.86754182
_cell_length_b   8.20355643
_cell_length_c   5.79934461
_cell_angle_alpha   92.98267631
_cell_angle_beta   92.91895330
_cell_angle_gamma   89.00003562
_symmetry_Int_Tables_number   1
_chemical_formula_structural   Mn3OF5
_chemical_formula_sum   'Mn6 O2 F10'
_cell_volume   230.93532822
_cell_formula_units_Z   2
loop_
 _symmetry_equiv_pos_site_id
 _symmetry_equiv_pos_as_xyz
  1  'x, y, z'
loop_
 _atom_site_type_symbol
 _atom_site_label
 _atom_site_symmetry_multiplicity
 _atom_site_fract_x
 _atom_site_fract_y
 _atom_site_fract_z
 _atom_site_occupancy
  Mn  Mn0  1  0.46955599  0.02074629  0.48815281  1
  Mn  Mn1  1  0.53044401  0.64591971  0.17851419  1
  Mn  Mn2  1  0.50000000  0.33333300  0.83333300  1
  Mn  Mn3  1  0.99683090  0.66991902  0.66709386  1
  Mn  Mn4  1  0.00000000  0.33333300  0.33333300  1
  Mn  Mn5  1  0.00316910  0.99674798  0.99957314  1
  O  O6  1  0.70668464  0.41816744  0.11748899  1
  O  O7  1  0.29331536  0.24849856  0.54917801  1
  F  F8  1  0.79341592  0.43802853  0.61896094  1
  F  F9  1  0.80261575  0.76673775  0.96809032  1
  F  F10  1  0.81447378  0.10123103  0.30494901  1
  F  F11  1  0.69004563  0.10874708  0.80295855  1
  F  F12  1  0.68729045  0.78354715  0.47257235  1
  F  F13  1  0.30995437  0.55791992  0.86370845  1
  F  F14  1  0.31270955  0.88311985  0.19409365  1
  F  F15  1  0.18552622  0.56543497  0.36171699  1
  F  F16  1  0.20658408  0.22863847  0.04770606  1
  F  F17  1  0.19738425  0.89992825  0.69857568  1
