# generated using pymatgen
data_Li4Cr3Cu3(SbO8)2
_symmetry_space_group_name_H-M   'P 1'
_cell_length_a   5.95292244
_cell_length_b   5.93129654
_cell_length_c   9.62741485
_cell_angle_alpha   90.04664548
_cell_angle_beta   89.02848862
_cell_angle_gamma   119.87971079
_symmetry_Int_Tables_number   1
_chemical_formula_structural   Li4Cr3Cu3(SbO8)2
_chemical_formula_sum   'Li4 Cr3 Cu3 Sb2 O16'
_cell_volume   294.69044355
_cell_formula_units_Z   1
loop_
 _symmetry_equiv_pos_site_id
 _symmetry_equiv_pos_as_xyz
  1  'x, y, z'
loop_
 _atom_site_type_symbol
 _atom_site_label
 _atom_site_symmetry_multiplicity
 _atom_site_fract_x
 _atom_site_fract_y
 _atom_site_fract_z
 _atom_site_occupancy
  Li  Li0  1  0.33094527  0.66594573  0.90268697  1
  Li  Li1  1  0.00031711  0.99959592  0.99274966  1
  Li  Li2  1  0.00264847  0.00091072  0.48970767  1
  Li  Li3  1  0.67375012  0.33715713  0.40165747  1
  Cr  Cr4  1  0.65978211  0.83005378  0.21510652  1
  Cr  Cr5  1  0.82853688  0.65937345  0.71412445  1
  Cr  Cr6  1  0.82840633  0.16919689  0.71408228  1
  Cu  Cu7  1  0.17228371  0.83151065  0.21322604  1
  Cu  Cu8  1  0.17219952  0.33995998  0.21255877  1
  Cu  Cu9  1  0.33949171  0.16984825  0.71459692  1
  Sb  Sb10  1  0.33301172  0.66629244  0.48938694  1
  Sb  Sb11  1  0.66333262  0.33180224  0.98814920  1
  O  O12  1  0.16081774  0.83358013  0.59322742  1
  O  O13  1  0.04422431  0.52203215  0.34413137  1
  O  O14  1  0.33822199  0.66796182  0.11155732  1
  O  O15  1  0.00028043  0.00101300  0.30164945  1
  O  O16  1  0.99175696  0.99602825  0.80550830  1
  O  O17  1  0.16074650  0.32710084  0.59311575  1
  O  O18  1  0.49007492  0.96723356  0.34700218  1
  O  O19  1  0.49392144  0.52637904  0.34814733  1
  O  O20  1  0.32316665  0.16113095  0.09215045  1
  O  O21  1  0.66566880  0.83324012  0.59740554  1
  O  O22  1  0.51897953  0.48343706  0.84434780  1
  O  O23  1  0.51856351  0.03610346  0.84395704  1
  O  O24  1  0.67546665  0.33772515  0.60814146  1
  O  O25  1  0.82666072  0.66540819  0.09413179  1
  O  O26  1  0.96236629  0.48130258  0.84240967  1
  O  O27  1  0.82437697  0.15897453  0.09292423  1
