# generated using pymatgen
data_Mn3(OF2)2
_symmetry_space_group_name_H-M   'P 1'
_cell_length_a   4.73880210
_cell_length_b   4.73880210
_cell_length_c   9.69982982
_cell_angle_alpha   90.65169913
_cell_angle_beta   90.65169913
_cell_angle_gamma   89.79186738
_symmetry_Int_Tables_number   1
_chemical_formula_structural   Mn3(OF2)2
_chemical_formula_sum   'Mn6 O4 F8'
_cell_volume   217.79224173
_cell_formula_units_Z   2
loop_
 _symmetry_equiv_pos_site_id
 _symmetry_equiv_pos_as_xyz
  1  'x, y, z'
loop_
 _atom_site_type_symbol
 _atom_site_label
 _atom_site_symmetry_multiplicity
 _atom_site_fract_x
 _atom_site_fract_y
 _atom_site_fract_z
 _atom_site_occupancy
  Mn  Mn0  1  0.98607732  0.95496087  0.99239298  1
  Mn  Mn1  1  0.04503913  0.01392268  0.34094102  1
  Mn  Mn2  1  0.01557349  0.98442651  0.66666700  1
  Mn  Mn3  1  0.48675208  0.52486950  0.84142697  1
  Mn  Mn4  1  0.51233091  0.48766909  0.16666700  1
  Mn  Mn5  1  0.47513050  0.51324792  0.49190703  1
  O  O6  1  0.20404282  0.81768782  0.49917406  1
  O  O7  1  0.18231218  0.79595718  0.83415994  1
  O  O8  1  0.32067770  0.31785109  0.33260356  1
  O  O9  1  0.68214891  0.67932230  0.00072944  1
  F  F10  1  0.20745693  0.79254307  0.16666700  1
  F  F11  1  0.28107117  0.27118449  0.00389645  1
  F  F12  1  0.29969282  0.32290492  0.67895731  1
  F  F13  1  0.72881551  0.71892883  0.32943755  1
  F  F14  1  0.67709508  0.70030718  0.65437669  1
  F  F15  1  0.82350920  0.17649080  0.16666700  1
  F  F16  1  0.79146808  0.21919483  0.50799852  1
  F  F17  1  0.78080517  0.20853192  0.82533448  1
