# generated using pymatgen
data_Li3V3P8O29
_symmetry_space_group_name_H-M   'P 1'
_cell_length_a   9.76398086
_cell_length_b   9.76394029
_cell_length_c   14.29960069
_cell_angle_alpha   89.43725354
_cell_angle_beta   89.43831813
_cell_angle_gamma   59.74041184
_symmetry_Int_Tables_number   1
_chemical_formula_structural   Li3V3P8O29
_chemical_formula_sum   'Li6 V6 P16 O58'
_cell_volume   1177.43461016
_cell_formula_units_Z   2
loop_
 _symmetry_equiv_pos_site_id
 _symmetry_equiv_pos_as_xyz
  1  'x, y, z'
loop_
 _atom_site_type_symbol
 _atom_site_label
 _atom_site_symmetry_multiplicity
 _atom_site_fract_x
 _atom_site_fract_y
 _atom_site_fract_z
 _atom_site_occupancy
  Li  Li0  1  0.90391582  0.76896854  0.05763784  1
  Li  Li1  1  0.31822235  0.76819927  0.55438394  1
  Li  Li2  1  0.23182101  0.68176221  0.94563950  1
  Li  Li3  1  0.23102371  0.09606605  0.44238356  1
  Li  Li4  1  0.99173206  0.07216826  0.99212979  1
  Li  Li5  1  0.92775331  0.00813484  0.50797074  1
  V  V6  1  0.56880556  0.43118421  0.25000890  1
  V  V7  1  0.44219674  0.55780685  0.75000428  1
  V  V8  1  0.56535055  0.99966821  0.75490413  1
  V  V9  1  0.44045125  0.99703934  0.24390553  1
  V  V10  1  0.00296064  0.55953638  0.25605879  1
  V  V11  1  0.00032895  0.43466362  0.74509792  1
  P  P12  1  0.91513532  0.77056422  0.84064748  1
  P  P13  1  0.77442756  0.91431127  0.34182644  1
  P  P14  1  0.91556885  0.30219628  0.34070185  1
  P  P15  1  0.67166128  0.66311746  0.13216774  1
  P  P16  1  0.66362724  0.67104105  0.63380161  1
  P  P17  1  0.78379143  0.30336855  0.84014278  1
  P  P18  1  0.69658058  0.21624288  0.65981577  1
  P  P19  1  0.30387001  0.91289294  0.84174565  1
  P  P20  1  0.69779335  0.08445118  0.15926854  1
  P  P21  1  0.31416295  0.77564849  0.33940508  1
  P  P22  1  0.22433690  0.68585233  0.16060262  1
  P  P23  1  0.33687973  0.32830456  0.36782905  1
  P  P24  1  0.32896650  0.33638123  0.86621370  1
  P  P25  1  0.08707260  0.69621627  0.65830416  1
  P  P26  1  0.22943381  0.08485651  0.65938625  1
  P  P27  1  0.08567162  0.22557975  0.15814576  1
  O  O28  1  0.00874461  0.80127333  0.57715163  1
  O  O29  1  0.90896644  0.73775547  0.32986536  1
  O  O30  1  0.79505069  0.99586567  0.07680109  1
  O  O31  1  0.74331381  0.91275725  0.83551541  1
  O  O32  1  0.91189467  0.61638185  0.82302822  1
  O  O33  1  0.81741670  0.66786627  0.17227214  1
  O  O34  1  0.91632407  0.46164974  0.32891722  1
  O  O35  1  0.01304448  0.21107020  0.07197719  1
  O  O36  1  0.91597410  0.34638326  0.82728460  1
  O  O37  1  0.66222369  0.81511390  0.68280403  1
  O  O38  1  0.61477711  0.92000188  0.32662819  1
  O  O39  1  0.81287868  0.52138403  0.67446828  1
  O  O40  1  0.66389402  0.67262461  0.02866846  1
  O  O41  1  0.64842367  0.68009835  0.53057820  1
  O  O42  1  0.66755298  0.51829655  0.17764010  1
  O  O43  1  0.45816711  0.92125496  0.83210591  1
  O  O44  1  0.52240167  0.81321734  0.17941049  1
  O  O45  1  0.74140809  0.34113955  0.33480987  1
  O  O46  1  0.80188913  0.19812994  0.74996437  1
  O  O47  1  0.78778158  0.19893048  0.57362315  1
  O  O48  1  0.80110985  0.21208069  0.92631411  1
  O  O49  1  0.62041069  0.45985865  0.82693404  1
  O  O50  1  0.51335771  0.67039553  0.67810601  1
  O  O51  1  0.65879716  0.25862575  0.16516989  1
  O  O52  1  0.47159344  0.61749681  0.32362183  1
  O  O53  1  0.34234573  0.91914196  0.33336250  1
  O  O54  1  0.79789984  0.00238954  0.25248647  1
  O  O55  1  0.78895641  0.98688319  0.42799887  1
  O  O56  1  0.23312849  0.00349820  0.56988655  1
  O  O57  1  0.65357749  0.08405236  0.67271844  1
  O  O58  1  0.54008944  0.37961813  0.67305609  1
  O  O59  1  0.34599447  0.73518757  0.83677859  1
  O  O60  1  0.48171493  0.33242446  0.32238247  1
  O  O61  1  0.38248042  0.52841454  0.17638258  1
  O  O62  1  0.21795179  0.76574073  0.07012979  1
  O  O63  1  0.23432011  0.78200103  0.42989002  1
  O  O64  1  0.20410169  0.79588408  0.25001024  1
  O  O65  1  0.26477964  0.65406997  0.66326866  1
  O  O66  1  0.47860220  0.18711945  0.82554240  1
  O  O67  1  0.53836333  0.08364214  0.17103298  1
  O  O68  1  0.32962623  0.48665155  0.82191996  1
  O  O69  1  0.31992440  0.35156452  0.96943845  1
  O  O70  1  0.32737972  0.33601625  0.47132825  1
  O  O71  1  0.18677410  0.47756788  0.32058088  1
  O  O72  1  0.38362357  0.08809628  0.67698984  1
  O  O73  1  0.33215896  0.18256006  0.32768517  1
  O  O74  1  0.08084046  0.65766456  0.16662296  1
  O  O75  1  0.01037702  0.79244329  0.75526599  1
  O  O76  1  0.99651426  0.76683790  0.93014826  1
  O  O77  1  0.07864311  0.54196668  0.66785778  1
  O  O78  1  0.18489502  0.33782286  0.81718007  1
  O  O79  1  0.07998023  0.38523436  0.17331884  1
  O  O80  1  0.26222047  0.09103680  0.17010288  1
  O  O81  1  0.19892989  0.99124739  0.92290148  1
  O  O82  1  0.20760768  0.98960047  0.74477916  1
  O  O83  1  0.08724595  0.25667960  0.66450686  1
  O  O84  1  0.00418758  0.20496681  0.42317174  1
  O  O85  1  0.99761650  0.20209755  0.24748758  1
