# generated using pymatgen
data_VO2F
_symmetry_space_group_name_H-M   'P 1'
_cell_length_a   5.22825185
_cell_length_b   7.36931805
_cell_length_c   9.14681179
_cell_angle_alpha   113.08902650
_cell_angle_beta   73.38611762
_cell_angle_gamma   89.99836519
_symmetry_Int_Tables_number   1
_chemical_formula_structural   VO2F
_chemical_formula_sum   'V6 O12 F6'
_cell_volume   308.12638662
_cell_formula_units_Z   6
loop_
 _symmetry_equiv_pos_site_id
 _symmetry_equiv_pos_as_xyz
  1  'x, y, z'
loop_
 _atom_site_type_symbol
 _atom_site_label
 _atom_site_symmetry_multiplicity
 _atom_site_fract_x
 _atom_site_fract_y
 _atom_site_fract_z
 _atom_site_occupancy
  V  V0  1  0.94845777  0.48439147  0.01502409  1
  V  V1  1  0.03633306  0.98443132  0.01505474  1
  V  V2  1  0.27850223  0.65434878  0.34600815  1
  V  V3  1  0.37551925  0.15452770  0.34610843  1
  V  V4  1  0.66341158  0.81313739  0.68010527  1
  V  V5  1  0.65642613  0.31318607  0.68018038  1
  O  O6  1  0.06325441  0.25700115  0.99318318  1
  O  O7  1  0.13633780  0.06118898  0.18451567  1
  O  O8  1  0.24847123  0.42596352  0.33706957  1
  O  O9  1  0.41438235  0.92589940  0.33661712  1
  O  O10  1  0.37369053  0.89444615  0.85141748  1
  O  O11  1  0.55440372  0.28222513  0.47342731  1
  O  O12  1  0.67880996  0.56076722  0.18444472  1
  O  O13  1  0.94379984  0.75695413  0.99339023  1
  O  O14  1  0.59087653  0.08685991  0.65901071  1
  O  O15  1  0.75030831  0.58683889  0.65895626  1
  O  O16  1  0.77421240  0.39475142  0.85171356  1
  O  O17  1  0.97262102  0.78249637  0.47356487  1
  F  F18  1  0.21076939  0.61620418  0.14009649  1
  F  F19  1  0.02937577  0.22523392  0.52328770  1
  F  F20  1  0.44841823  0.72506206  0.52271627  1
  F  F21  1  0.31099854  0.44873202  0.79694764  1
  F  F22  1  0.64910022  0.11635147  0.14000684  1
  F  F23  1  0.89151973  0.94899834  0.79715332  1
