# generated using pymatgen
data_MnOF
_symmetry_space_group_name_H-M   'P 1'
_cell_length_a   4.64450821
_cell_length_b   4.64450821
_cell_length_c   12.68301987
_cell_angle_alpha   90.00000000
_cell_angle_beta   90.00000000
_cell_angle_gamma   90.23754562
_symmetry_Int_Tables_number   1
_chemical_formula_structural   MnOF
_chemical_formula_sum   'Mn8 O8 F8'
_cell_volume   273.58886012
_cell_formula_units_Z   8
loop_
 _symmetry_equiv_pos_site_id
 _symmetry_equiv_pos_as_xyz
  1  'x, y, z'
loop_
 _atom_site_type_symbol
 _atom_site_label
 _atom_site_symmetry_multiplicity
 _atom_site_fract_x
 _atom_site_fract_y
 _atom_site_fract_z
 _atom_site_occupancy
  Mn  Mn0  1  0.97134101  0.97134101  0.00000000  1
  Mn  Mn1  1  0.02132119  0.03874855  0.25000000  1
  Mn  Mn2  1  0.97134101  0.97134101  0.50000000  1
  Mn  Mn3  1  0.03874855  0.02132119  0.75000000  1
  Mn  Mn4  1  0.47298740  0.52466977  0.62457749  1
  Mn  Mn5  1  0.52466977  0.47298740  0.12457749  1
  Mn  Mn6  1  0.52466977  0.47298740  0.37542251  1
  Mn  Mn7  1  0.47298740  0.52466977  0.87542251  1
  O  O8  1  0.18001503  0.81776905  0.62248237  1
  O  O9  1  0.18001503  0.81776905  0.87751763  1
  O  O10  1  0.33393987  0.30249648  0.25000000  1
  O  O11  1  0.30249648  0.33393987  0.75000000  1
  O  O12  1  0.67508544  0.67508544  0.00000000  1
  O  O13  1  0.67508544  0.67508544  0.50000000  1
  O  O14  1  0.81776905  0.18001503  0.12248237  1
  O  O15  1  0.81776905  0.18001503  0.37751763  1
  F  F16  1  0.22275366  0.78458981  0.13138373  1
  F  F17  1  0.22275366  0.78458981  0.36861627  1
  F  F18  1  0.27559636  0.27559636  0.00000000  1
  F  F19  1  0.27559636  0.27559636  0.50000000  1
  F  F20  1  0.74159843  0.71228242  0.25000000  1
  F  F21  1  0.71228242  0.74159843  0.75000000  1
  F  F22  1  0.78458981  0.22275366  0.63138373  1
  F  F23  1  0.78458981  0.22275366  0.86861627  1
