# generated using pymatgen
data_Li3Mn4(BO3)4
_symmetry_space_group_name_H-M   'P 1'
_cell_length_a   7.88180990
_cell_length_b   7.93364447
_cell_length_c   8.27488434
_cell_angle_alpha   81.54997786
_cell_angle_beta   80.58360268
_cell_angle_gamma   83.63712443
_symmetry_Int_Tables_number   1
_chemical_formula_structural   Li3Mn4(BO3)4
_chemical_formula_sum   'Li6 Mn8 B8 O24'
_cell_volume   502.92622858
_cell_formula_units_Z   2
loop_
 _symmetry_equiv_pos_site_id
 _symmetry_equiv_pos_as_xyz
  1  'x, y, z'
loop_
 _atom_site_type_symbol
 _atom_site_label
 _atom_site_symmetry_multiplicity
 _atom_site_fract_x
 _atom_site_fract_y
 _atom_site_fract_z
 _atom_site_occupancy
  Li  Li0  1  0.31186961  0.15016646  0.22023798  1
  Li  Li1  1  0.70508729  0.36589200  0.27130322  1
  Li  Li2  1  0.18695591  0.84438293  0.27415670  1
  Li  Li3  1  0.81304409  0.15561707  0.72584330  1
  Li  Li4  1  0.29491271  0.63410800  0.72869678  1
  Li  Li5  1  0.68813039  0.84983354  0.77976202  1
  Mn  Mn6  1  0.18074924  0.99657815  0.57619866  1
  Mn  Mn7  1  0.67705991  0.98771324  0.08462227  1
  Mn  Mn8  1  0.17444311  0.49356252  0.07916519  1
  Mn  Mn9  1  0.32077993  0.49078517  0.42751479  1
  Mn  Mn10  1  0.67922007  0.50921483  0.57248521  1
  Mn  Mn11  1  0.82555689  0.50643748  0.92083481  1
  Mn  Mn12  1  0.32294009  0.01228676  0.91537773  1
  Mn  Mn13  1  0.81925076  0.00342185  0.42380134  1
  B  B14  1  0.00425743  0.32614090  0.40557000  1
  B  B15  1  0.50144584  0.16756998  0.58904362  1
  B  B16  1  0.51087801  0.33734608  0.91220629  1
  B  B17  1  0.00355852  0.82843887  0.89385011  1
  B  B18  1  0.99644148  0.17156113  0.10614989  1
  B  B19  1  0.48912199  0.66265392  0.08779371  1
  B  B20  1  0.49855316  0.83243002  0.41095638  1
  B  B21  1  0.99574257  0.67385910  0.59443000  1
  O  O22  1  0.13139154  0.04774015  0.12112310  1
  O  O23  1  0.17029761  0.34167408  0.31335010  1
  O  O24  1  0.48174362  0.18281566  0.01360135  1
  O  O25  1  0.01788419  0.33080855  0.01266817  1
  O  O26  1  0.33649492  0.13581660  0.66880692  1
  O  O27  1  0.63833316  0.05006211  0.62559566  1
  O  O28  1  0.12566689  0.55068082  0.61342491  1
  O  O29  1  0.53058833  0.31644373  0.48081999  1
  O  O30  1  0.02282783  0.82973886  0.49049151  1
  O  O31  1  0.83098903  0.14698526  0.19182201  1
  O  O32  1  0.32172162  0.64393789  0.18152436  1
  O  O33  1  0.38154989  0.46484587  0.89248656  1
  O  O34  1  0.61845011  0.53515413  0.10751344  1
  O  O35  1  0.67827838  0.35606211  0.81847564  1
  O  O36  1  0.16901097  0.85301474  0.80817799  1
  O  O37  1  0.97717217  0.17026114  0.50950849  1
  O  O38  1  0.46941167  0.68355627  0.51918001  1
  O  O39  1  0.87433311  0.44931918  0.38657509  1
  O  O40  1  0.36166684  0.94993789  0.37440434  1
  O  O41  1  0.66350508  0.86418340  0.33119308  1
  O  O42  1  0.98211581  0.66919145  0.98733183  1
  O  O43  1  0.51825638  0.81718434  0.98639865  1
  O  O44  1  0.82970239  0.65832592  0.68664990  1
  O  O45  1  0.86860846  0.95225985  0.87887690  1
