# generated using pymatgen
data_Li2V3P4H4O19
_symmetry_space_group_name_H-M   'P 1'
_cell_length_a   10.59314240
_cell_length_b   9.25708520
_cell_length_c   8.82335424
_cell_angle_alpha   90.00000000
_cell_angle_beta   115.21245439
_cell_angle_gamma   90.00000000
_symmetry_Int_Tables_number   1
_chemical_formula_structural   Li2V3P4H4O19
_chemical_formula_sum   'Li4 V6 P8 H8 O38'
_cell_volume   782.80560769
_cell_formula_units_Z   2
loop_
 _symmetry_equiv_pos_site_id
 _symmetry_equiv_pos_as_xyz
  1  'x, y, z'
loop_
 _atom_site_type_symbol
 _atom_site_label
 _atom_site_symmetry_multiplicity
 _atom_site_fract_x
 _atom_site_fract_y
 _atom_site_fract_z
 _atom_site_occupancy
  Li  Li0  1  0.00462771  0.53003385  0.75937992  1
  Li  Li1  1  0.00462771  0.46996615  0.25937992  1
  Li  Li2  1  0.54061736  0.78028790  0.75058990  1
  Li  Li3  1  0.54061736  0.21971210  0.25058990  1
  V  V4  1  0.21095667  0.75325497  0.88248455  1
  V  V5  1  0.21095667  0.24674503  0.38248455  1
  V  V6  1  0.50496143  0.25564949  0.77195863  1
  V  V7  1  0.50496143  0.74435051  0.27195863  1
  V  V8  1  0.82110291  0.75627564  0.63756712  1
  V  V9  1  0.82110291  0.24372436  0.13756712  1
  P  P10  1  0.23716007  0.04535566  0.69616430  1
  P  P11  1  0.26172728  0.50085147  0.64910490  1
  P  P12  1  0.23716007  0.95464434  0.19616430  1
  P  P13  1  0.26172728  0.49914853  0.14910490  1
  P  P14  1  0.73640141  0.49725669  0.85051044  1
  P  P15  1  0.75495134  0.04464961  0.80039732  1
  P  P16  1  0.73640141  0.50274331  0.35051044  1
  P  P17  1  0.75495134  0.95535039  0.30039732  1
  H  H18  1  0.14029453  0.07148092  0.86456898  1
  H  H19  1  0.34917169  0.40340570  0.97915529  1
  H  H20  1  0.14029453  0.92851908  0.36456898  1
  H  H21  1  0.34917169  0.59659430  0.47915529  1
  H  H22  1  0.64706090  0.40234553  0.51957422  1
  H  H23  1  0.85255017  0.06858034  0.62999016  1
  H  H24  1  0.64706090  0.59765447  0.01957422  1
  H  H25  1  0.85255017  0.93141966  0.12999016  1
  O  O26  1  0.99730001  0.76622367  0.75344020  1
  O  O27  1  0.13971398  0.12405340  0.76572065  1
  O  O28  1  0.99730001  0.23377633  0.25344020  1
  O  O29  1  0.17812015  0.58854909  0.72214853  1
  O  O30  1  0.15580408  0.41299279  0.50191006  1
  O  O31  1  0.23360105  0.88073183  0.71951033  1
  O  O32  1  0.17869660  0.07840564  0.50696252  1
  O  O33  1  0.13971398  0.87594660  0.26572065  1
  O  O34  1  0.17812015  0.41145091  0.22214853  1
  O  O35  1  0.36833769  0.40606616  0.78926205  1
  O  O36  1  0.38793823  0.09780792  0.78946234  1
  O  O37  1  0.34643166  0.61438574  0.58990830  1
  O  O38  1  0.15580408  0.58700721  0.00191006  1
  O  O39  1  0.23360105  0.11926817  0.21951033  1
  O  O40  1  0.17869660  0.92159436  0.00696252  1
  O  O41  1  0.38183926  0.26804094  0.52088142  1
  O  O42  1  0.36833769  0.59393384  0.28926205  1
  O  O43  1  0.38793823  0.90219208  0.28946234  1
  O  O44  1  0.61502604  0.26957277  0.98287051  1
  O  O45  1  0.34643166  0.38561426  0.08990830  1
  O  O46  1  0.65885151  0.61744154  0.91472665  1
  O  O47  1  0.38183926  0.73195906  0.02088142  1
  O  O48  1  0.60564720  0.10152593  0.71333079  1
  O  O49  1  0.62310773  0.40611096  0.71400500  1
  O  O50  1  0.61502604  0.73042723  0.48287051  1
  O  O51  1  0.81930892  0.07495908  0.99052861  1
  O  O52  1  0.74841935  0.87893233  0.77025061  1
  O  O53  1  0.84285088  0.40884489  0.99572671  1
  O  O54  1  0.65885151  0.38255846  0.41472665  1
  O  O55  1  0.60564720  0.89847407  0.21333079  1
  O  O56  1  0.62310773  0.59388904  0.21400500  1
  O  O57  1  0.81725303  0.58254748  0.77299066  1
  O  O58  1  0.85321519  0.11954981  0.73004933  1
  O  O59  1  0.81930892  0.92504092  0.49052861  1
  O  O60  1  0.74841935  0.12106767  0.27025061  1
  O  O61  1  0.84285088  0.59115511  0.49572671  1
  O  O62  1  0.81725303  0.41745252  0.27299066  1
  O  O63  1  0.85321519  0.88045019  0.23004933  1
