# generated using pymatgen
data_Li3Mn4(BO3)4
_symmetry_space_group_name_H-M   'P 1'
_cell_length_a   6.16147384
_cell_length_b   9.11857445
_cell_length_c   9.69452046
_cell_angle_alpha   100.35102405
_cell_angle_beta   99.79681521
_cell_angle_gamma   72.17157687
_symmetry_Int_Tables_number   1
_chemical_formula_structural   Li3Mn4(BO3)4
_chemical_formula_sum   'Li6 Mn8 B8 O24'
_cell_volume   506.21006793
_cell_formula_units_Z   2
loop_
 _symmetry_equiv_pos_site_id
 _symmetry_equiv_pos_as_xyz
  1  'x, y, z'
loop_
 _atom_site_type_symbol
 _atom_site_label
 _atom_site_symmetry_multiplicity
 _atom_site_fract_x
 _atom_site_fract_y
 _atom_site_fract_z
 _atom_site_occupancy
  Li  Li0  1  0.59928371  0.87963694  0.90687531  1
  Li  Li1  1  0.32630060  0.39756967  0.66284604  1
  Li  Li2  1  0.65071629  0.62036306  0.34312469  1
  Li  Li3  1  0.92369940  0.10243033  0.58715396  1
  Li  Li4  1  0.40904995  0.11850838  0.08960921  1
  Li  Li5  1  0.84095005  0.38149162  0.16039079  1
  Mn  Mn6  1  0.09387032  0.31487862  0.85239203  1
  Mn  Mn7  1  0.40020091  0.70671059  0.64981838  1
  Mn  Mn8  1  0.84979909  0.79328941  0.60018162  1
  Mn  Mn9  1  0.34051961  0.79519727  0.08857739  1
  Mn  Mn10  1  0.65927667  0.20766022  0.89992614  1
  Mn  Mn11  1  0.15612968  0.18512138  0.39760797  1
  Mn  Mn12  1  0.59072333  0.29233978  0.35007386  1
  Mn  Mn13  1  0.90948039  0.70480273  0.16142261  1
  B  B14  1  0.11792520  0.97333465  0.84153669  1
  B  B15  1  0.64163549  0.53901912  0.90214662  1
  B  B16  1  0.13207480  0.52666535  0.40846331  1
  B  B17  1  0.60836451  0.96098088  0.34785338  1
  B  B18  1  0.40265649  0.03868118  0.65434981  1
  B  B19  1  0.84734351  0.46131882  0.59565019  1
  B  B20  1  0.35879299  0.46465968  0.10877236  1
  B  B21  1  0.89120701  0.03534032  0.14122764  1
  O  O22  1  0.27031360  0.97204983  0.96403651  1
  O  O23  1  0.11552785  0.83673798  0.75088884  1
  O  O24  1  0.00542456  0.47116937  0.71018290  1
  O  O25  1  0.55261155  0.89773992  0.70335059  1
  O  O26  1  0.03833447  0.89446464  0.17887613  1
  O  O27  1  0.63932582  0.68315112  0.98641512  1
  O  O28  1  0.13447215  0.66326202  0.49911116  1
  O  O29  1  0.51103965  0.52800019  0.77483306  1
  O  O30  1  0.73896035  0.97199981  0.47516694  1
  O  O31  1  0.78352027  0.40539154  0.95887526  1
  O  O32  1  0.27956834  0.38748736  0.44904862  1
  O  O33  1  0.40978760  0.18169375  0.73400724  1
  O  O34  1  0.61067418  0.81684888  0.26358488  1
  O  O35  1  0.69738845  0.60226008  0.54664941  1
  O  O36  1  0.21166553  0.60553536  0.07112387  1
  O  O37  1  0.24457544  0.02883063  0.53981710  1
  O  O38  1  0.52448095  0.46761234  0.22349705  1
  O  O39  1  0.84021240  0.31830625  0.51599276  1
  O  O40  1  0.34415316  0.32455178  0.02816506  1
  O  O41  1  0.97043166  0.11251264  0.80095138  1
  O  O42  1  0.46647973  0.09460846  0.29112474  1
  O  O43  1  0.97968640  0.52795017  0.28596349  1
  O  O44  1  0.90584684  0.17544822  0.22183494  1
  O  O45  1  0.72551905  0.03238766  0.02650295  1
