# generated using pymatgen
data_V2O3F
_symmetry_space_group_name_H-M   'P 1'
_cell_length_a   4.70433095
_cell_length_b   9.89184258
_cell_length_c   6.00446382
_cell_angle_alpha   72.33209110
_cell_angle_beta   89.99662052
_cell_angle_gamma   86.91996778
_symmetry_Int_Tables_number   1
_chemical_formula_structural   V2O3F
_chemical_formula_sum   'V8 O12 F4'
_cell_volume   265.81183208
_cell_formula_units_Z   4
loop_
 _symmetry_equiv_pos_site_id
 _symmetry_equiv_pos_as_xyz
  1  'x, y, z'
loop_
 _atom_site_type_symbol
 _atom_site_label
 _atom_site_symmetry_multiplicity
 _atom_site_fract_x
 _atom_site_fract_y
 _atom_site_fract_z
 _atom_site_occupancy
  V  V0  1  0.44742906  0.22374754  0.63812925  1
  V  V1  1  0.50000000  0.75000000  0.37500000  1
  V  V2  1  0.55257094  0.27625246  0.11187075  1
  V  V3  1  0.50000000  0.75000000  0.87500000  1
  V  V4  1  0.01525984  0.50151003  0.73973520  1
  V  V5  1  0.98473662  0.99848201  0.49123525  1
  V  V6  1  0.98474016  0.99848997  0.01026480  1
  V  V7  1  0.01526338  0.50151799  0.25876475  1
  O  O8  1  0.81316666  0.40632376  0.04685148  1
  O  O9  1  0.79820540  0.89983946  0.30007186  1
  O  O10  1  0.69519242  0.65401958  0.17496607  1
  O  O11  1  0.68905466  0.15456564  0.92307684  1
  O  O12  1  0.68907023  0.15456831  0.42236189  1
  O  O13  1  0.69521298  0.65401920  0.67106109  1
  O  O14  1  0.30478702  0.84598080  0.07893891  1
  O  O15  1  0.31094534  0.34543436  0.82692316  1
  O  O16  1  0.30480758  0.84598042  0.57503393  1
  O  O17  1  0.31092977  0.34543169  0.32763811  1
  O  O18  1  0.18683334  0.09367624  0.70314852  1
  O  O19  1  0.20179460  0.60016054  0.44992814  1
  F  F20  1  0.80192434  0.39863684  0.55068996  1
  F  F21  1  0.78992843  0.89965156  0.80017757  1
  F  F22  1  0.21007157  0.60034844  0.94982243  1
  F  F23  1  0.19807566  0.10136316  0.19931004  1
