# generated using pymatgen
data_MnZnBiO5
_symmetry_space_group_name_H-M   'P 1'
_cell_length_a   5.36199451
_cell_length_b   7.64565505
_cell_length_c   11.70002241
_cell_angle_alpha   90.00000000
_cell_angle_beta   90.00000000
_cell_angle_gamma   107.02025873
_symmetry_Int_Tables_number   1
_chemical_formula_structural   MnZnBiO5
_chemical_formula_sum   'Mn4 Zn4 Bi4 O20'
_cell_volume   458.64545764
_cell_formula_units_Z   4
loop_
 _symmetry_equiv_pos_site_id
 _symmetry_equiv_pos_as_xyz
  1  'x, y, z'
loop_
 _atom_site_type_symbol
 _atom_site_label
 _atom_site_symmetry_multiplicity
 _atom_site_fract_x
 _atom_site_fract_y
 _atom_site_fract_z
 _atom_site_occupancy
  Mn  Mn0  1  0.78459806  0.96932393  0.64691863  1
  Mn  Mn1  1  0.21540194  0.03067607  0.35308137  1
  Mn  Mn2  1  0.71540194  0.53067607  0.14691863  1
  Mn  Mn3  1  0.28459806  0.46932393  0.85308137  1
  Zn  Zn4  1  0.62176626  0.17521550  0.91865662  1
  Zn  Zn5  1  0.37823374  0.82478450  0.08134338  1
  Zn  Zn6  1  0.87823374  0.32478450  0.41865662  1
  Zn  Zn7  1  0.12176626  0.67521550  0.58134338  1
  Bi  Bi8  1  0.11456640  0.17774929  0.10127392  1
  Bi  Bi9  1  0.88543360  0.82225071  0.89872608  1
  Bi  Bi10  1  0.61456640  0.67774929  0.39872608  1
  Bi  Bi11  1  0.38543360  0.32225071  0.60127392  1
  O  O12  1  0.57269394  0.33061017  0.07437682  1
  O  O13  1  0.03241364  0.32808889  0.93018778  1
  O  O14  1  0.48453330  0.64103956  0.18009115  1
  O  O15  1  0.75509947  0.51236240  0.52398453  1
  O  O16  1  0.80157970  0.49171382  0.28631211  1
  O  O17  1  0.30157970  0.99171382  0.21368789  1
  O  O18  1  0.53241364  0.82808889  0.56981222  1
  O  O19  1  0.46758636  0.17191111  0.43018778  1
  O  O20  1  0.24490053  0.48763760  0.47601547  1
  O  O21  1  0.92730606  0.16938983  0.57437682  1
  O  O22  1  0.19842030  0.50828618  0.71368789  1
  O  O23  1  0.42730606  0.66938983  0.92562318  1
  O  O24  1  0.07269394  0.83061017  0.42562318  1
  O  O25  1  0.69842030  0.00828618  0.78631211  1
  O  O26  1  0.74490053  0.98763760  0.02398453  1
  O  O27  1  0.25509947  0.01236240  0.97601547  1
  O  O28  1  0.51546670  0.35896044  0.81990885  1
  O  O29  1  0.96758636  0.67191111  0.06981222  1
  O  O30  1  0.01546670  0.85896044  0.68009115  1
  O  O31  1  0.98453330  0.14103956  0.31990885  1
