# generated using pymatgen
data_V3O5F
_symmetry_space_group_name_H-M   'P 1'
_cell_length_a   4.65614837
_cell_length_b   7.50171978
_cell_length_c   5.55605528
_cell_angle_alpha   95.49009211
_cell_angle_beta   91.14125868
_cell_angle_gamma   89.27507321
_symmetry_Int_Tables_number   1
_chemical_formula_structural   V3O5F
_chemical_formula_sum   'V6 O10 F2'
_cell_volume   193.12830490
_cell_formula_units_Z   2
loop_
 _symmetry_equiv_pos_site_id
 _symmetry_equiv_pos_as_xyz
  1  'x, y, z'
loop_
 _atom_site_type_symbol
 _atom_site_label
 _atom_site_symmetry_multiplicity
 _atom_site_fract_x
 _atom_site_fract_y
 _atom_site_fract_z
 _atom_site_occupancy
  V  V0  1  0.51883352  0.67389980  0.15517527  1
  V  V1  1  0.48116648  0.99276620  0.51149073  1
  V  V2  1  0.50000000  0.33333300  0.83333300  1
  V  V3  1  0.98356605  0.66966120  0.68735375  1
  V  V4  1  0.00000000  0.33333300  0.33333300  1
  V  V5  1  0.01643395  0.99700480  0.97931325  1
  O  O6  1  0.79858861  0.43465605  0.63959528  1
  O  O7  1  0.79652370  0.77132649  0.97225117  1
  O  O8  1  0.69738577  0.09548054  0.79238241  1
  O  O9  1  0.69822780  0.77098100  0.46685409  1
  O  O10  1  0.69146629  0.44184153  0.13799117  1
  O  O11  1  0.30261423  0.57118546  0.87428459  1
  O  O12  1  0.30853371  0.22482447  0.52867583  1
  O  O13  1  0.30177220  0.89568500  0.19981291  1
  O  O14  1  0.20141139  0.23201095  0.02707172  1
  O  O15  1  0.20347630  0.89534051  0.69441583  1
  F  F16  1  0.79703465  0.09359913  0.29438561  1
  F  F17  1  0.20296535  0.57306787  0.37228139  1
