# generated using pymatgen
data_Mn21O40
_symmetry_space_group_name_H-M   'P 1'
_cell_length_a   5.89770683
_cell_length_b   5.89868781
_cell_length_c   21.10200948
_cell_angle_alpha   97.79174715
_cell_angle_beta   82.20155137
_cell_angle_gamma   89.10769300
_symmetry_Int_Tables_number   1
_chemical_formula_structural   Mn21O40
_chemical_formula_sum   'Mn21 O40'
_cell_volume   720.17601495
_cell_formula_units_Z   1
loop_
 _symmetry_equiv_pos_site_id
 _symmetry_equiv_pos_as_xyz
  1  'x, y, z'
loop_
 _atom_site_type_symbol
 _atom_site_label
 _atom_site_symmetry_multiplicity
 _atom_site_fract_x
 _atom_site_fract_y
 _atom_site_fract_z
 _atom_site_occupancy
  Mn  Mn0  1  0.00073223  0.49965965  0.49937245  1
  Mn  Mn1  1  0.19868261  0.30019467  0.10171606  1
  Mn  Mn2  1  0.10007698  0.90018499  0.30011823  1
  Mn  Mn3  1  0.10279698  0.40943436  0.79721046  1
  Mn  Mn4  1  0.30014114  0.19988679  0.39978306  1
  Mn  Mn5  1  0.10629272  0.89543004  0.79927297  1
  Mn  Mn6  1  0.30039520  0.70001432  0.39979947  1
  Mn  Mn7  1  0.49153308  0.50020790  0.00284596  1
  Mn  Mn8  1  0.39664442  0.09641966  0.69548873  1
  Mn  Mn9  1  0.29518343  0.70699855  0.90089662  1
  Mn  Mn10  1  0.50023380  0.49917115  0.49934498  1
  Mn  Mn11  1  0.70005815  0.30134224  0.10106785  1
  Mn  Mn12  1  0.59992143  0.89998596  0.30013314  1
  Mn  Mn13  1  0.49676434  0.99687210  0.00459824  1
  Mn  Mn14  1  0.56718597  0.16808405  0.85013599  1
  Mn  Mn15  1  0.70124782  0.29964306  0.59886737  1
  Mn  Mn16  1  0.89930593  0.10014188  0.20054472  1
  Mn  Mn17  1  0.70012919  0.79852952  0.59828668  1
  Mn  Mn18  1  0.89974076  0.60055953  0.20056123  1
  Mn  Mn19  1  0.89972761  0.09138502  0.69726988  1
  Mn  Mn20  1  0.80934428  0.70284288  0.90287715  1
  O  O21  1  0.11926919  0.34496849  0.19530824  1
  O  O22  1  0.11425350  0.85080459  0.20622076  1
  O  O23  1  0.07980860  0.45544502  0.40554181  1
  O  O24  1  0.27551776  0.25211741  0.00843754  1
  O  O25  1  0.08568128  0.94946064  0.39399628  1
  O  O26  1  0.13929254  0.31187546  0.70190320  1
  O  O27  1  0.34461313  0.12054114  0.30584650  1
  O  O28  1  0.06443245  0.48629253  0.89450985  1
  O  O29  1  0.25573616  0.27907660  0.49373893  1
  O  O30  1  0.45457716  0.08036347  0.09712443  1
  O  O31  1  0.15065312  0.88071086  0.70370597  1
  O  O32  1  0.34965639  0.68551515  0.30594498  1
  O  O33  1  0.08007711  0.94075510  0.89153423  1
  O  O34  1  0.25094346  0.71421147  0.49371874  1
  O  O35  1  0.44846708  0.51527483  0.09609224  1
  O  O36  1  0.32439435  0.14742124  0.79078814  1
  O  O37  1  0.34055372  0.68088965  0.80866774  1
  O  O38  1  0.51476759  0.45009344  0.40557713  1
  O  O39  1  0.71040502  0.24971126  0.00739427  1
  O  O40  1  0.52077192  0.94442012  0.39404686  1
  O  O41  1  0.48012993  0.05425238  0.60290687  1
  O  O42  1  0.48579410  0.54841285  0.59314530  1
  O  O43  1  0.28082692  0.75120483  0.99651187  1
  O  O44  1  0.68515801  0.35031036  0.19467511  1
  O  O45  1  0.67908957  0.85562068  0.20615683  1
  O  O46  1  0.52650922  0.47007993  0.90846006  1
  O  O47  1  0.75040002  0.28517582  0.50525330  1
  O  O48  1  0.94868430  0.08582603  0.10675227  1
  O  O49  1  0.64937919  0.31007824  0.69258698  1
  O  O50  1  0.85023584  0.11457190  0.29432004  1
  O  O51  1  0.74506046  0.71921787  0.50463119  1
  O  O52  1  0.94457650  0.52090865  0.10659147  1
  O  O53  1  0.54746950  0.92486490  0.90934770  1
  O  O54  1  0.65186680  0.87512619  0.69154916  1
  O  O55  1  0.85553205  0.67969552  0.29439106  1
  O  O56  1  0.91517311  0.04819467  0.60395837  1
  O  O57  1  0.71210468  0.73957248  0.99826006  1
  O  O58  1  0.92088866  0.54435228  0.59335700  1
  O  O59  1  0.86917691  0.12657638  0.79168533  1
  O  O60  1  0.88599262  0.66437025  0.80556096  1
