# generated using pymatgen
data_Li3Mn4(BO3)4
_symmetry_space_group_name_H-M   'P 1'
_cell_length_a   9.06395949
_cell_length_b   7.92521200
_cell_length_c   8.28649773
_cell_angle_alpha   98.36806554
_cell_angle_beta   68.01516581
_cell_angle_gamma   114.00781924
_symmetry_Int_Tables_number   1
_chemical_formula_structural   Li3Mn4(BO3)4
_chemical_formula_sum   'Li6 Mn8 B8 O24'
_cell_volume   504.19902193
_cell_formula_units_Z   2
loop_
 _symmetry_equiv_pos_site_id
 _symmetry_equiv_pos_as_xyz
  1  'x, y, z'
loop_
 _atom_site_type_symbol
 _atom_site_label
 _atom_site_symmetry_multiplicity
 _atom_site_fract_x
 _atom_site_fract_y
 _atom_site_fract_z
 _atom_site_occupancy
  Li  Li0  1  0.18880822  0.94817552  0.62521017  1
  Li  Li1  1  0.69931364  0.71149014  0.37190250  1
  Li  Li2  1  0.80816586  0.55727555  0.87213297  1
  Li  Li3  1  0.20351380  0.46139028  0.12360445  1
  Li  Li4  1  0.31039111  0.30947791  0.61978882  1
  Li  Li5  1  0.69271199  0.19649608  0.87619916  1
  Mn  Mn6  1  0.66973350  0.84451400  0.08613737  1
  Mn  Mn7  1  0.82204287  0.91550815  0.66475672  1
  Mn  Mn8  1  0.31929880  0.66924122  0.41753169  1
  Mn  Mn9  1  0.82374070  0.40944790  0.16380254  1
  Mn  Mn10  1  0.18630253  0.60108413  0.84025167  1
  Mn  Mn11  1  0.68685466  0.33132316  0.57208752  1
  Mn  Mn12  1  0.16687244  0.07818133  0.32265913  1
  Mn  Mn13  1  0.32707056  0.15833462  0.91300920  1
  B  B14  1  0.49947670  0.91469337  0.65521711  1
  B  B15  1  0.99424222  0.66217244  0.40965056  1
  B  B16  1  0.99940417  0.83027623  0.08671298  1
  B  B17  1  0.49232299  0.41659592  0.15886595  1
  B  B18  1  0.51264136  0.58183338  0.83335895  1
  B  B19  1  0.99887894  0.17016776  0.90527473  1
  B  B20  1  0.01002765  0.33599907  0.59838773  1
  B  B21  1  0.49339690  0.08040967  0.35412983  1
  O  O22  1  0.86309566  0.87917909  0.17651532  1
  O  O23  1  0.46968770  0.90529650  0.27769193  1
  O  O24  1  0.16341259  0.93714605  0.09362325  1
  O  O25  1  0.61984218  0.83973081  0.58006341  1
  O  O26  1  0.33279006  0.82280933  0.64526513  1
  O  O27  1  0.83005130  0.56637914  0.39757250  1
  O  O28  1  0.02390509  0.83000691  0.49955632  1
  O  O29  1  0.51702247  0.57713794  0.25745977  1
  O  O30  1  0.97653681  0.66475461  0.99089595  1
  O  O31  1  0.67876226  0.69047854  0.84088564  1
  O  O32  1  0.11886076  0.59131961  0.33368302  1
  O  O33  1  0.62789567  0.36422158  0.06048232  1
  O  O34  1  0.37844547  0.63245653  0.92829986  1
  O  O35  1  0.87339430  0.38905073  0.68795478  1
  O  O36  1  0.32725601  0.31238692  0.15009506  1
  O  O37  1  0.02915494  0.33468181  0.99874063  1
  O  O38  1  0.48732155  0.41549712  0.74030158  1
  O  O39  1  0.98690303  0.16335333  0.52279018  1
  O  O40  1  0.17872273  0.45215594  0.59454157  1
  O  O41  1  0.65863416  0.19396413  0.34755150  1
  O  O42  1  0.35631246  0.13418489  0.43795587  1
  O  O43  1  0.83229215  0.07041805  0.89845818  1
  O  O44  1  0.53319829  0.08345096  0.74319202  1
  O  O45  1  0.13150976  0.11343967  0.81037350  1
