# generated using pymatgen
data_Li2VF6
_symmetry_space_group_name_H-M   'P 1'
_cell_length_a   5.55682556
_cell_length_b   5.55682547
_cell_length_c   8.61522679
_cell_angle_alpha   89.99990391
_cell_angle_beta   90.00010006
_cell_angle_gamma   58.50090686
_symmetry_Int_Tables_number   1
_chemical_formula_structural   Li2VF6
_chemical_formula_sum   'Li4 V2 F12'
_cell_volume   226.82464162
_cell_formula_units_Z   2
loop_
 _symmetry_equiv_pos_site_id
 _symmetry_equiv_pos_as_xyz
  1  'x, y, z'
loop_
 _atom_site_type_symbol
 _atom_site_label
 _atom_site_symmetry_multiplicity
 _atom_site_fract_x
 _atom_site_fract_y
 _atom_site_fract_z
 _atom_site_occupancy
  Li  Li0  1  0.06827021  0.06758658  0.97736341  1
  Li  Li1  1  0.22991415  0.23078460  0.46924277  1
  Li  Li2  1  0.76921540  0.77008585  0.96924277  1
  Li  Li3  1  0.93241342  0.93172979  0.47736341  1
  V  V4  1  0.38416172  0.38421639  0.75966165  1
  V  V5  1  0.61578361  0.61583828  0.25966165  1
  F  F6  1  0.19760144  0.19435917  0.80588159  1
  F  F7  1  0.10912097  0.57822315  0.59898818  1
  F  F8  1  0.14962449  0.66514570  0.91026505  1
  F  F9  1  0.57806060  0.11172008  0.59790956  1
  F  F10  1  0.33485430  0.85037551  0.41026505  1
  F  F11  1  0.56272915  0.56576009  0.72148420  1
  F  F12  1  0.43423991  0.43727085  0.22148420  1
  F  F13  1  0.66722302  0.14910899  0.90920359  1
  F  F14  1  0.42177685  0.89087903  0.09898818  1
  F  F15  1  0.85089101  0.33277698  0.40920359  1
  F  F16  1  0.88827992  0.42193940  0.09790956  1
  F  F17  1  0.80564083  0.80239856  0.30588159  1
