# generated using pymatgen
data_Na2VO3
_symmetry_space_group_name_H-M   'P 1'
_cell_length_a   5.39298747
_cell_length_b   9.37397219
_cell_length_c   6.10639932
_cell_angle_alpha   90.00000000
_cell_angle_beta   90.00000000
_cell_angle_gamma   90.00000000
_symmetry_Int_Tables_number   1
_chemical_formula_structural   Na2VO3
_chemical_formula_sum   'Na8 V4 O12'
_cell_volume   308.70116824
_cell_formula_units_Z   4
loop_
 _symmetry_equiv_pos_site_id
 _symmetry_equiv_pos_as_xyz
  1  'x, y, z'
loop_
 _atom_site_type_symbol
 _atom_site_label
 _atom_site_symmetry_multiplicity
 _atom_site_fract_x
 _atom_site_fract_y
 _atom_site_fract_z
 _atom_site_occupancy
  Na  Na0  1  0.23422721  0.42077003  0.60371608  1
  Na  Na1  1  0.23422721  0.07922997  0.60371608  1
  Na  Na2  1  0.26577279  0.57922997  0.10371608  1
  Na  Na3  1  0.26577279  0.92077003  0.10371608  1
  Na  Na4  1  0.73422721  0.07922997  0.89628392  1
  Na  Na5  1  0.73422721  0.42077003  0.89628392  1
  Na  Na6  1  0.76577279  0.57922997  0.39628392  1
  Na  Na7  1  0.76577279  0.92077003  0.39628392  1
  V  V8  1  0.22183873  0.75000000  0.64651253  1
  V  V9  1  0.27816127  0.25000000  0.14651253  1
  V  V10  1  0.72183873  0.75000000  0.85348747  1
  V  V11  1  0.77816127  0.25000000  0.35348747  1
  O  O12  1  0.01146242  0.11474265  0.22194223  1
  O  O13  1  0.01146242  0.38525735  0.22194223  1
  O  O14  1  0.15398663  0.75000000  0.37020304  1
  O  O15  1  0.34601337  0.25000000  0.87020304  1
  O  O16  1  0.48853758  0.88525735  0.72194223  1
  O  O17  1  0.48853758  0.61474265  0.72194223  1
  O  O18  1  0.51146242  0.11474265  0.27805777  1
  O  O19  1  0.51146242  0.38525735  0.27805777  1
  O  O20  1  0.65398663  0.75000000  0.12979696  1
  O  O21  1  0.84601337  0.25000000  0.62979696  1
  O  O22  1  0.98853758  0.61474265  0.77805777  1
  O  O23  1  0.98853758  0.88525735  0.77805777  1
