# generated using pymatgen
data_Li3Mn4(BO3)4
_symmetry_space_group_name_H-M   'P 1'
_cell_length_a   5.90506983
_cell_length_b   10.57297745
_cell_length_c   8.28502079
_cell_angle_alpha   90.36800812
_cell_angle_beta   77.99753411
_cell_angle_gamma   89.34027584
_symmetry_Int_Tables_number   1
_chemical_formula_structural   Li3Mn4(BO3)4
_chemical_formula_sum   'Li6 Mn8 B8 O24'
_cell_volume   505.90611415
_cell_formula_units_Z   2
loop_
 _symmetry_equiv_pos_site_id
 _symmetry_equiv_pos_as_xyz
  1  'x, y, z'
loop_
 _atom_site_type_symbol
 _atom_site_label
 _atom_site_symmetry_multiplicity
 _atom_site_fract_x
 _atom_site_fract_y
 _atom_site_fract_z
 _atom_site_occupancy
  Li  Li0  1  0.06490242  0.33037692  0.26767495  1
  Li  Li1  1  0.03752077  0.82973450  0.27374765  1
  Li  Li2  1  0.45818799  0.92050294  0.22343978  1
  Li  Li3  1  0.54181201  0.57949706  0.77656022  1
  Li  Li4  1  0.93509758  0.16962308  0.73232505  1
  Li  Li5  1  0.96247923  0.67026550  0.72625235  1
  Mn  Mn6  1  0.19435325  0.41328820  0.56611901  1
  Mn  Mn7  1  0.17273017  0.90887834  0.58145291  1
  Mn  Mn8  1  0.33804877  0.34001430  0.91395705  1
  Mn  Mn9  1  0.32925239  0.84573675  0.92044924  1
  Mn  Mn10  1  0.66195123  0.15998570  0.08604295  1
  Mn  Mn11  1  0.67074761  0.65426325  0.07955076  1
  Mn  Mn12  1  0.80564675  0.08671180  0.43388099  1
  Mn  Mn13  1  0.82726983  0.59112166  0.41854709  1
  B  B14  1  0.15461317  0.09102661  0.10740780  1
  B  B15  1  0.16340688  0.58573651  0.08730745  1
  B  B16  1  0.32286284  0.15814093  0.41076688  1
  B  B17  1  0.33569027  0.66849043  0.40629382  1
  B  B18  1  0.67713716  0.34185907  0.58923312  1
  B  B19  1  0.66430973  0.83150957  0.59370618  1
  B  B20  1  0.84538683  0.40897339  0.89259220  1
  B  B21  1  0.83659312  0.91426349  0.91269255  1
  O  O22  1  0.15667269  0.45723018  0.10072444  1
  O  O23  1  0.17487648  0.96224900  0.12470278  1
  O  O24  1  0.04309566  0.34029476  0.81000228  1
  O  O25  1  0.01358255  0.83854016  0.81641928  1
  O  O26  1  0.14125205  0.09587775  0.51520374  1
  O  O27  1  0.15843603  0.60627557  0.51503927  1
  O  O28  1  0.31747986  0.28444958  0.38481320  1
  O  O29  1  0.31363590  0.79602064  0.37699628  1
  O  O30  1  0.50998166  0.08390733  0.32181682  1
  O  O31  1  0.52788836  0.60146734  0.32341118  1
  O  O32  1  0.66151491  0.33783045  0.97700346  1
  O  O33  1  0.33848509  0.16216955  0.02299654  1
  O  O34  1  0.65601184  0.85219090  0.01887227  1
  O  O35  1  0.34398816  0.64780910  0.98112773  1
  O  O36  1  0.49001834  0.41609267  0.67818318  1
  O  O37  1  0.47211164  0.89853266  0.67658882  1
  O  O38  1  0.68252014  0.21555042  0.61518680  1
  O  O39  1  0.68636410  0.70397936  0.62300372  1
  O  O40  1  0.85874795  0.40412225  0.48479626  1
  O  O41  1  0.84156397  0.89372443  0.48496073  1
  O  O42  1  0.95690434  0.15970524  0.18999772  1
  O  O43  1  0.98641745  0.66145984  0.18358072  1
  O  O44  1  0.84332731  0.04276982  0.89927556  1
  O  O45  1  0.82512352  0.53775100  0.87529722  1
