# generated using pymatgen
data_PrTi2O6
_symmetry_space_group_name_H-M   'P 1'
_cell_length_a   5.44742025
_cell_length_b   5.55000985
_cell_length_c   7.72455854
_cell_angle_alpha   89.99160704
_cell_angle_beta   89.99779682
_cell_angle_gamma   90.00699722
_symmetry_Int_Tables_number   1
_chemical_formula_structural   PrTi2O6
_chemical_formula_sum   'Pr2 Ti4 O12'
_cell_volume   233.53839760
_cell_formula_units_Z   2
loop_
 _symmetry_equiv_pos_site_id
 _symmetry_equiv_pos_as_xyz
  1  'x, y, z'
loop_
 _atom_site_type_symbol
 _atom_site_label
 _atom_site_symmetry_multiplicity
 _atom_site_fract_x
 _atom_site_fract_y
 _atom_site_fract_z
 _atom_site_occupancy
  Pr  Pr0  1  0.01111897  0.95286276  0.75000615  1
  Pr  Pr1  1  0.51121138  0.54705300  0.24999628  1
  Ti  Ti2  1  0.00724349  0.48356762  0.00060229  1
  Ti  Ti3  1  0.00722066  0.48342761  0.49939648  1
  Ti  Ti4  1  0.50710817  0.01642060  0.50068145  1
  Ti  Ti5  1  0.50711717  0.01637094  0.99934713  1
  O  O6  1  0.06423480  0.49314960  0.25000641  1
  O  O7  1  0.21721683  0.21696008  0.96486119  1
  O  O8  1  0.21717592  0.21695652  0.53514428  1
  O  O9  1  0.26230196  0.73521893  0.51880891  1
  O  O10  1  0.26233078  0.73522335  0.98116962  1
  O  O11  1  0.46165856  0.98729807  0.25000957  1
  O  O12  1  0.56435048  0.00689435  0.75000135  1
  O  O13  1  0.71725095  0.28311992  0.03507984  1
  O  O14  1  0.71719188  0.28311488  0.46490870  1
  O  O15  1  0.76231147  0.76479880  0.01883153  1
  O  O16  1  0.76230687  0.76480077  0.48116656  1
  O  O17  1  0.96152067  0.51276322  0.74998227  1
