# generated using pymatgen
data_Mn15NiO32
_symmetry_space_group_name_H-M   'P 1'
_cell_length_a   8.23564621
_cell_length_b   8.23564621
_cell_length_c   8.23564621
_cell_angle_alpha   90.23833917
_cell_angle_beta   89.76166083
_cell_angle_gamma   89.76166083
_symmetry_Int_Tables_number   1
_chemical_formula_structural   Mn15NiO32
_chemical_formula_sum   'Mn15 Ni1 O32'
_cell_volume   558.57531815
_cell_formula_units_Z   1
loop_
 _symmetry_equiv_pos_site_id
 _symmetry_equiv_pos_as_xyz
  1  'x, y, z'
loop_
 _atom_site_type_symbol
 _atom_site_label
 _atom_site_symmetry_multiplicity
 _atom_site_fract_x
 _atom_site_fract_y
 _atom_site_fract_z
 _atom_site_occupancy
  Mn  Mn0  1  0.12556862  0.12399641  0.62358737  1
  Mn  Mn1  1  0.12500000  0.37546444  0.87453556  1
  Mn  Mn2  1  0.12443138  0.62641263  0.12600359  1
  Mn  Mn3  1  0.37449743  0.37500000  0.62449743  1
  Mn  Mn4  1  0.37500487  0.12500487  0.87500000  1
  Mn  Mn5  1  0.37358737  0.62600359  0.37556862  1
  Mn  Mn6  1  0.37399641  0.87556862  0.12641263  1
  Mn  Mn7  1  0.62453556  0.37453556  0.37500000  1
  Mn  Mn8  1  0.62500000  0.12449743  0.12550257  1
  Mn  Mn9  1  0.62500000  0.62499513  0.62500487  1
  Mn  Mn10  1  0.62546444  0.87500000  0.87546444  1
  Mn  Mn11  1  0.87600359  0.12358737  0.37443138  1
  Mn  Mn12  1  0.87499513  0.37500000  0.12499513  1
  Mn  Mn13  1  0.87641263  0.87443138  0.62399641  1
  Mn  Mn14  1  0.87550257  0.62550257  0.87500000  1
  Ni  Ni15  1  0.12500000  0.87500000  0.37500000  1
  O  O16  1  0.11093752  0.10633160  0.38870104  1
  O  O17  1  0.11129896  0.88906248  0.60633160  1
  O  O18  1  0.11074952  0.61109924  0.88999433  1
  O  O19  1  0.11037793  0.39050922  0.11008715  1
  O  O20  1  0.13962207  0.13991285  0.85949078  1
  O  O21  1  0.13925048  0.36000567  0.63890076  1
  O  O22  1  0.13870104  0.64366840  0.36093752  1
  O  O23  1  0.13906248  0.86129896  0.14366840  1
  O  O24  1  0.36075813  0.13935558  0.63911729  1
  O  O25  1  0.35995386  0.36045191  0.85973591  1
  O  O26  1  0.36017013  0.63982987  0.13982987  1
  O  O27  1  0.35633160  0.86093752  0.36129896  1
  O  O28  1  0.38911729  0.61064442  0.61075813  1
  O  O29  1  0.38890076  0.38999433  0.38925048  1
  O  O30  1  0.38935558  0.11075813  0.11088271  1
  O  O31  1  0.38991285  0.88962207  0.89050922  1
  O  O32  1  0.60973591  0.38954809  0.60995386  1
  O  O33  1  0.60949078  0.61008715  0.38962207  1
  O  O34  1  0.61000567  0.88925048  0.11109924  1
  O  O35  1  0.61045191  0.10995386  0.89026409  1
  O  O36  1  0.63954809  0.35973591  0.14004614  1
  O  O37  1  0.63999433  0.13890076  0.36074952  1
  O  O38  1  0.64050922  0.86037793  0.63991285  1
  O  O39  1  0.64026409  0.64004614  0.86045191  1
  O  O40  1  0.86008715  0.35949078  0.36037793  1
  O  O41  1  0.86064442  0.13911729  0.13924187  1
  O  O42  1  0.86109924  0.86074952  0.86000567  1
  O  O43  1  0.86088271  0.63924187  0.63935558  1
  O  O44  1  0.89366840  0.88870104  0.38906248  1
  O  O45  1  0.88982987  0.11017013  0.61017013  1
  O  O46  1  0.89004614  0.39026409  0.88954809  1
  O  O47  1  0.88924187  0.61088271  0.11064442  1
