# generated using pymatgen
data_In2WO6
_symmetry_space_group_name_H-M   'P 1'
_cell_length_a   7.50396272
_cell_length_b   5.19357884
_cell_length_c   11.88246692
_cell_angle_alpha   90.00000000
_cell_angle_beta   97.36063840
_cell_angle_gamma   90.00000000
_symmetry_Int_Tables_number   1
_chemical_formula_structural   In2WO6
_chemical_formula_sum   'In8 W4 O24'
_cell_volume   459.27239234
_cell_formula_units_Z   4
loop_
 _symmetry_equiv_pos_site_id
 _symmetry_equiv_pos_as_xyz
  1  'x, y, z'
loop_
 _atom_site_type_symbol
 _atom_site_label
 _atom_site_symmetry_multiplicity
 _atom_site_fract_x
 _atom_site_fract_y
 _atom_site_fract_z
 _atom_site_occupancy
  In  In0  1  0.00000000  0.22027975  0.75000000  1
  In  In1  1  0.00000000  0.77972025  0.25000000  1
  In  In2  1  0.23224710  0.76391268  0.60356961  1
  In  In3  1  0.23224710  0.23608732  0.10356961  1
  In  In4  1  0.50000000  0.29365818  0.75000000  1
  In  In5  1  0.50000000  0.70634182  0.25000000  1
  In  In6  1  0.76775290  0.76391268  0.89643039  1
  In  In7  1  0.76775290  0.23608732  0.39643039  1
  W  W8  1  0.26362335  0.73225974  0.89329071  1
  W  W9  1  0.26362335  0.26774026  0.39329071  1
  W  W10  1  0.73637665  0.73225974  0.60670929  1
  W  W11  1  0.73637665  0.26774026  0.10670929  1
  O  O12  1  0.02852783  0.91185510  0.87383204  1
  O  O13  1  0.15886509  0.43710550  0.94680399  1
  O  O14  1  0.02852783  0.08814490  0.37383204  1
  O  O15  1  0.20829939  0.49411114  0.73709078  1
  O  O16  1  0.15886509  0.56289450  0.44680399  1
  O  O17  1  0.30850356  0.98930329  0.77279658  1
  O  O18  1  0.20829939  0.50588886  0.23709078  1
  O  O19  1  0.33477447  0.10450709  0.52939202  1
  O  O20  1  0.49943524  0.58985906  0.88225250  1
  O  O21  1  0.30850356  0.01069571  0.27279658  1
  O  O22  1  0.50056476  0.58985906  0.61774750  1
  O  O23  1  0.66522553  0.10450709  0.97060798  1
  O  O24  1  0.33477447  0.89549291  0.02939202  1
  O  O25  1  0.49943524  0.41014094  0.38225250  1
  O  O26  1  0.69149644  0.98930329  0.72720342  1
  O  O27  1  0.50056476  0.41014094  0.11774750  1
  O  O28  1  0.66522553  0.89549291  0.47060798  1
  O  O29  1  0.79170061  0.49411114  0.76290922  1
  O  O30  1  0.69149644  0.01069571  0.22720342  1
  O  O31  1  0.84113491  0.43710550  0.55319601  1
  O  O32  1  0.79170061  0.50588886  0.26290922  1
  O  O33  1  0.97147217  0.91185510  0.62616796  1
  O  O34  1  0.84113491  0.56289450  0.05319601  1
  O  O35  1  0.97147217  0.08814490  0.12616796  1
