# generated using pymatgen
data_Sr9La5Br33
_symmetry_space_group_name_H-M   'P 1'
_cell_length_a   12.01773447
_cell_length_b   11.97637317
_cell_length_c   22.84693341
_cell_angle_alpha   100.04143006
_cell_angle_beta   80.42970894
_cell_angle_gamma   70.89739618
_symmetry_Int_Tables_number   1
_chemical_formula_structural   Sr9La5Br33
_chemical_formula_sum   'Sr18 La10 Br66'
_cell_volume   2970.22900795
_cell_formula_units_Z   2
loop_
 _symmetry_equiv_pos_site_id
 _symmetry_equiv_pos_as_xyz
  1  'x, y, z'
loop_
 _atom_site_type_symbol
 _atom_site_label
 _atom_site_symmetry_multiplicity
 _atom_site_fract_x
 _atom_site_fract_y
 _atom_site_fract_z
 _atom_site_occupancy
  Sr  Sr0  1  0.75182601  0.92236384  0.92971809  1
  Sr  Sr1  1  0.91084832  0.31928969  0.96885808  1
  Sr  Sr2  1  0.97936343  0.47384289  0.19368786  1
  Sr  Sr3  1  0.73420650  0.86745498  0.33808565  1
  Sr  Sr4  1  0.86702475  0.24489584  0.37830883  1
  Sr  Sr5  1  0.59788801  0.68149840  0.54005320  1
  Sr  Sr6  1  0.75403539  0.07167324  0.56323394  1
  Sr  Sr7  1  0.64530848  0.76128722  0.12075030  1
  Sr  Sr8  1  0.77871894  0.13382479  0.15769666  1
  Sr  Sr9  1  0.22128106  0.86617521  0.84230334  1
  Sr  Sr10  1  0.35469152  0.23871278  0.87924970  1
  Sr  Sr11  1  0.24596461  0.92832676  0.43676606  1
  Sr  Sr12  1  0.40211199  0.31850160  0.45994680  1
  Sr  Sr13  1  0.13297525  0.75510416  0.62169117  1
  Sr  Sr14  1  0.26579350  0.13254502  0.66191435  1
  Sr  Sr15  1  0.02063657  0.52615711  0.80631214  1
  Sr  Sr16  1  0.08915168  0.68071031  0.03114192  1
  Sr  Sr17  1  0.24817399  0.07763616  0.07028191  1
  La  La18  1  0.95564200  0.38049016  0.58600043  1
  La  La19  1  0.85987592  0.17806461  0.76546681  1
  La  La20  1  0.64726126  0.85706369  0.73380713  1
  La  La21  1  0.54390428  0.62717143  0.92696282  1
  La  La22  1  0.46000336  0.46346402  0.68636227  1
  La  La23  1  0.53999664  0.53653598  0.31363773  1
  La  La24  1  0.45609572  0.37282857  0.07303718  1
  La  La25  1  0.35273874  0.14293631  0.26619287  1
  La  La26  1  0.14012408  0.82193539  0.23453319  1
  La  La27  1  0.04435800  0.61950984  0.41399957  1
  Br  Br28  1  0.86153569  0.77143470  0.78712029  1
  Br  Br29  1  0.85101741  0.94463285  0.67222724  1
  Br  Br30  1  0.79532218  0.62438510  0.91830386  1
  Br  Br31  1  0.95333615  0.73789596  0.19354067  1
  Br  Br32  1  0.99119792  0.15645161  0.63579525  1
  Br  Br33  1  0.92756973  0.05882215  0.87613128  1
  Br  Br34  1  0.81341782  0.65542335  0.62465138  1
  Br  Br35  1  0.81420797  0.44694449  0.73969555  1
  Br  Br36  1  0.77341384  0.81320579  0.47646220  1
  Br  Br37  1  0.88107217  0.58724715  0.33520804  1
  Br  Br38  1  0.87839213  0.47727886  0.47131427  1
  Br  Br39  1  0.95924413  0.15408188  0.48581124  1
  Br  Br40  1  0.70622176  0.35531698  0.88378190  1
  Br  Br41  1  0.81614571  0.88662501  0.06030514  1
  Br  Br42  1  0.54139350  0.82390544  0.85748752  1
  Br  Br43  1  0.89396880  0.55505930  0.07225520  1
  Br  Br44  1  0.56637708  0.94857741  0.62519050  1
  Br  Br45  1  0.96076127  0.24452362  0.09344175  1
  Br  Br46  1  0.69610411  0.39448431  0.58788805  1
  Br  Br47  1  0.62692800  0.97658726  0.22382578  1
  Br  Br48  1  0.79779027  0.34529491  0.26297670  1
  Br  Br49  1  0.68516750  0.65945762  0.23777687  1
  Br  Br50  1  0.87570063  0.03673050  0.27578097  1
  Br  Br51  1  0.64244521  0.24545134  0.70830945  1
  Br  Br52  1  0.49695908  0.70694713  0.69029772  1
  Br  Br53  1  0.64244294  0.07999903  0.82520660  1
  Br  Br54  1  0.53475629  0.75603717  0.40853234  1
  Br  Br55  1  0.43350438  0.57396910  0.82126876  1
  Br  Br56  1  0.60891019  0.44716729  0.42662139  1
  Br  Br57  1  0.28037992  0.80369531  0.97085335  1
  Br  Br58  1  0.38590152  0.46895589  0.96172788  1
  Br  Br59  1  0.68123065  0.12275999  0.43686394  1
  Br  Br60  1  0.46919261  0.14367964  0.98088679  1
  Br  Br61  1  0.53080739  0.85632036  0.01911321  1
  Br  Br62  1  0.31876935  0.87724001  0.56313606  1
  Br  Br63  1  0.61409848  0.53104411  0.03827212  1
  Br  Br64  1  0.71962008  0.19630469  0.02914665  1
  Br  Br65  1  0.39108981  0.55283271  0.57337861  1
  Br  Br66  1  0.56649562  0.42603090  0.17873124  1
  Br  Br67  1  0.46524371  0.24396283  0.59146766  1
  Br  Br68  1  0.35755706  0.92000097  0.17479340  1
  Br  Br69  1  0.50304092  0.29305287  0.30970228  1
  Br  Br70  1  0.35755479  0.75454866  0.29169055  1
  Br  Br71  1  0.12429937  0.96326950  0.72421903  1
  Br  Br72  1  0.31483250  0.34054238  0.76222313  1
  Br  Br73  1  0.20220973  0.65470509  0.73702330  1
  Br  Br74  1  0.37307200  0.02341274  0.77617422  1
  Br  Br75  1  0.30389589  0.60551569  0.41211195  1
  Br  Br76  1  0.03923873  0.75547638  0.90655825  1
  Br  Br77  1  0.43362292  0.05142259  0.37480950  1
  Br  Br78  1  0.10603120  0.44494070  0.92774480  1
  Br  Br79  1  0.45860650  0.17609456  0.14251248  1
  Br  Br80  1  0.18385429  0.11337499  0.93969486  1
  Br  Br81  1  0.29377824  0.64468302  0.11621810  1
  Br  Br82  1  0.04075587  0.84591812  0.51418876  1
  Br  Br83  1  0.12160787  0.52272114  0.52868573  1
  Br  Br84  1  0.11892783  0.41275285  0.66479196  1
  Br  Br85  1  0.22658616  0.18679421  0.52353780  1
  Br  Br86  1  0.18579203  0.55305551  0.26030445  1
  Br  Br87  1  0.18658218  0.34457665  0.37534862  1
  Br  Br88  1  0.07243027  0.94117785  0.12386872  1
  Br  Br89  1  0.00880208  0.84354839  0.36420475  1
  Br  Br90  1  0.04666385  0.26210404  0.80645933  1
  Br  Br91  1  0.20467782  0.37561490  0.08169614  1
  Br  Br92  1  0.14898259  0.05536715  0.32777276  1
  Br  Br93  1  0.13846431  0.22856530  0.21287971  1
