# generated using pymatgen
data_LiMnPO4
_symmetry_space_group_name_H-M   'P 1'
_cell_length_a   8.59756503
_cell_length_b   8.59761822
_cell_length_c   7.48912007
_cell_angle_alpha   90.00306380
_cell_angle_beta   89.99450791
_cell_angle_gamma   119.99969261
_symmetry_Int_Tables_number   1
_chemical_formula_structural   LiMnPO4
_chemical_formula_sum   'Li6 Mn6 P6 O24'
_cell_volume   479.42027176
_cell_formula_units_Z   6
loop_
 _symmetry_equiv_pos_site_id
 _symmetry_equiv_pos_as_xyz
  1  'x, y, z'
loop_
 _atom_site_type_symbol
 _atom_site_label
 _atom_site_symmetry_multiplicity
 _atom_site_fract_x
 _atom_site_fract_y
 _atom_site_fract_z
 _atom_site_occupancy
  Li  Li0  1  0.01623285  0.67956831  0.41391001  1
  Li  Li1  1  0.32043418  0.33667526  0.41385586  1
  Li  Li2  1  0.66331743  0.98376037  0.41388500  1
  Li  Li3  1  0.33666678  0.01623379  0.91389589  1
  Li  Li4  1  0.67956533  0.66332621  0.91389445  1
  Li  Li5  1  0.98377098  0.32044616  0.91386565  1
  Mn  Mn6  1  0.33333177  0.66668773  0.27454290  1
  Mn  Mn7  1  0.33331769  0.66666326  0.69872617  1
  Mn  Mn8  1  0.99996459  0.00001043  0.19343955  1
  Mn  Mn9  1  0.99994307  0.00000742  0.69341996  1
  Mn  Mn10  1  0.66666686  0.33334310  0.77454494  1
  Mn  Mn11  1  0.66665161  0.33331875  0.19872387  1
  P  P12  1  0.03360617  0.68469509  0.00022200  1
  P  P13  1  0.31531370  0.34892238  0.00018207  1
  P  P14  1  0.65108301  0.96639339  0.00016624  1
  P  P15  1  0.34890660  0.03359288  0.50019480  1
  P  P16  1  0.68467211  0.65106676  0.50018553  1
  P  P17  1  0.96637717  0.31530850  0.50016610  1
  O  O18  1  0.13855112  0.93111293  0.49346171  1
  O  O19  1  0.13622931  0.72754954  0.17986517  1
  O  O20  1  0.17320257  0.75098549  0.84710471  1
  O  O21  1  0.10772366  0.52035067  0.48816867  1
  O  O22  1  0.41262831  0.89228208  0.48820097  1
  O  O23  1  0.06885309  0.20741018  0.49332715  1
  O  O24  1  0.24902240  0.42218439  0.84704443  1
  O  O25  1  0.27251343  0.40875246  0.17981096  1
  O  O26  1  0.20743153  0.13856198  0.99342067  1
  O  O27  1  0.59129360  0.86381545  0.17982251  1
  O  O28  1  0.57776737  0.82679136  0.84706523  1
  O  O29  1  0.47964193  0.58735859  0.48820356  1
  O  O30  1  0.52035647  0.41262605  0.98817981  1
  O  O31  1  0.42217476  0.17316369  0.34708564  1
  O  O32  1  0.40872679  0.13622946  0.67985836  1
  O  O33  1  0.79255937  0.86142594  0.49335457  1
  O  O34  1  0.72750946  0.59130020  0.67984220  1
  O  O35  1  0.75096377  0.57775231  0.34708319  1
  O  O36  1  0.93111496  0.79255872  0.99342899  1
  O  O37  1  0.58737299  0.10773235  0.98817141  1
  O  O38  1  0.89230450  0.47965411  0.98823068  1
  O  O39  1  0.82680404  0.24901613  0.34705638  1
  O  O40  1  0.86379368  0.27250741  0.67981241  1
  O  O41  1  0.86143698  0.06885674  0.99332065  1
