# generated using pymatgen
data_Ti3Co2P6WO24
_symmetry_space_group_name_H-M   'P 1'
_cell_length_a   8.64581002
_cell_length_b   8.70901269
_cell_length_c   8.70901294
_cell_angle_alpha   59.99999707
_cell_angle_beta   59.75787968
_cell_angle_gamma   59.75788450
_symmetry_Int_Tables_number   1
_chemical_formula_structural   Ti3Co2P6WO24
_chemical_formula_sum   'Ti3 Co2 P6 W1 O24'
_cell_volume   461.98668523
_cell_formula_units_Z   1
loop_
 _symmetry_equiv_pos_site_id
 _symmetry_equiv_pos_as_xyz
  1  'x, y, z'
loop_
 _atom_site_type_symbol
 _atom_site_label
 _atom_site_symmetry_multiplicity
 _atom_site_fract_x
 _atom_site_fract_y
 _atom_site_fract_z
 _atom_site_occupancy
  Ti  Ti0  1  0.06801554  0.64399515  0.64399515  1
  Ti  Ti1  1  0.42777774  0.85740775  0.85740775  1
  Ti  Ti2  1  0.93115139  0.35628254  0.35628254  1
  Co  Co3  1  0.01447635  0.99517455  0.99517455  1
  Co  Co4  1  0.49827467  0.50057544  0.50057544  1
  P  P5  1  0.24698002  0.25225829  0.54603573  1
  P  P6  1  0.24698002  0.95472696  0.25225829  1
  P  P7  1  0.24698002  0.54603573  0.95472696  1
  P  P8  1  0.75145331  0.46209759  0.04248020  1
  P  P9  1  0.75145331  0.04248020  0.74396890  1
  P  P10  1  0.75145331  0.74396890  0.46209759  1
  W  W11  1  0.58186749  0.13937784  0.13937784  1
  O  O12  1  0.06963194  0.11947850  0.31356741  1
  O  O13  1  0.06963194  0.49732214  0.11947850  1
  O  O14  1  0.06963194  0.31356741  0.49732214  1
  O  O15  1  0.22776641  0.09058160  0.74028558  1
  O  O16  1  0.43011296  0.19208175  0.39480585  1
  O  O17  1  0.25487932  0.41572234  0.56671364  1
  O  O18  1  0.22776641  0.94136640  0.09058160  1
  O  O19  1  0.25487932  0.76268470  0.41572234  1
  O  O20  1  0.56976595  0.61967495  0.99930640  1
  O  O21  1  0.25487932  0.56671364  0.76268470  1
  O  O22  1  0.78374570  0.26739429  0.05021155  1
  O  O23  1  0.56976595  0.99930640  0.81125170  1
  O  O24  1  0.43011296  0.98299944  0.19208175  1
  O  O25  1  0.22776641  0.74028558  0.94136640  1
  O  O26  1  0.73234710  0.45033555  0.23556467  1
  O  O27  1  0.43011296  0.39480585  0.98299944  1
  O  O28  1  0.73234710  0.23556467  0.58175367  1
  O  O29  1  0.78374570  0.05021155  0.89864746  1
  O  O30  1  0.73234710  0.58175367  0.45033555  1
  O  O31  1  0.56976595  0.81125170  0.61967495  1
  O  O32  1  0.78374570  0.89864746  0.26739429  1
  O  O33  1  0.92612955  0.67605798  0.51439473  1
  O  O34  1  0.92612955  0.51439473  0.88341674  1
  O  O35  1  0.92612955  0.88341674  0.67605798  1
