# generated using pymatgen
data_YbMoClO4
_symmetry_space_group_name_H-M   'P 1'
_cell_length_a   6.75041405
_cell_length_b   6.75041405
_cell_length_c   6.87106913
_cell_angle_alpha   102.10420651
_cell_angle_beta   102.10420651
_cell_angle_gamma   59.20123771
_symmetry_Int_Tables_number   1
_chemical_formula_structural   YbMoClO4
_chemical_formula_sum   'Yb2 Mo2 Cl2 O8'
_cell_volume   261.00695079
_cell_formula_units_Z   2
loop_
 _symmetry_equiv_pos_site_id
 _symmetry_equiv_pos_as_xyz
  1  'x, y, z'
loop_
 _atom_site_type_symbol
 _atom_site_label
 _atom_site_symmetry_multiplicity
 _atom_site_fract_x
 _atom_site_fract_y
 _atom_site_fract_z
 _atom_site_occupancy
  Yb  Yb0  1  0.28336013  0.28336013  0.15148023  1
  Yb  Yb1  1  0.71663987  0.71663987  0.84852077  1
  Mo  Mo2  1  0.63492554  0.63492554  0.26503479  1
  Mo  Mo3  1  0.36507446  0.36507446  0.73496621  1
  Cl  Cl4  1  0.98385133  0.98385133  0.35135922  1
  Cl  Cl5  1  0.01614867  0.01614867  0.64864178  1
  O  O6  1  0.88368493  0.46608683  0.12494730  1
  O  O7  1  0.46608683  0.88368493  0.12494730  1
  O  O8  1  0.48174956  0.48174956  0.25373947  1
  O  O9  1  0.28239597  0.28239597  0.48254735  1
  O  O10  1  0.71760303  0.71760303  0.51745365  1
  O  O11  1  0.51824944  0.51824944  0.74625953  1
  O  O12  1  0.53391317  0.11631507  0.87505170  1
  O  O13  1  0.11631507  0.53391317  0.87505170  1
