# generated using pymatgen
data_Na6(WO3)7
_symmetry_space_group_name_H-M   'P 1'
_cell_length_a   8.84589804
_cell_length_b   6.85561333
_cell_length_c   8.84597015
_cell_angle_alpha   104.96878965
_cell_angle_beta   66.42674460
_cell_angle_gamma   75.02957010
_symmetry_Int_Tables_number   1
_chemical_formula_structural   Na6(WO3)7
_chemical_formula_sum   'Na6 W7 O21'
_cell_volume   433.58449376
_cell_formula_units_Z   1
loop_
 _symmetry_equiv_pos_site_id
 _symmetry_equiv_pos_as_xyz
  1  'x, y, z'
loop_
 _atom_site_type_symbol
 _atom_site_label
 _atom_site_symmetry_multiplicity
 _atom_site_fract_x
 _atom_site_fract_y
 _atom_site_fract_z
 _atom_site_occupancy
  Na  Na0  1  0.42784156  0.14271218  0.85720389  1
  Na  Na1  1  0.85720125  0.28548159  0.71493228  1
  Na  Na2  1  0.71491999  0.57059419  0.42787657  1
  Na  Na3  1  0.28508671  0.42939543  0.57211430  1
  Na  Na4  1  0.14280618  0.71450827  0.28505580  1
  Na  Na5  1  0.57214760  0.85730036  0.14280239  1
  W  W6  1  0.71532548  0.07056608  0.42550528  1
  W  W7  1  0.42544741  0.64505652  0.85927792  1
  W  W8  1  0.85917435  0.78582135  0.71527183  1
  W  W9  1  0.57443178  0.35505030  0.14091225  1
  W  W10  1  0.28472903  0.92946300  0.57448757  1
  W  W11  1  0.14082551  0.21410069  0.28461231  1
  W  W12  1  0.00009224  0.49991373  -0.00006568  1
  O  O13  1  0.71071659  0.07356997  0.92917790  1
  O  O14  1  0.92791945  0.63878126  0.85612021  1
  O  O15  1  0.14379923  0.21752830  0.78416668  1
  O  O16  1  0.49999466  0.00001028  0.49999818  1
  O  O17  1  0.57106698  0.35764565  0.64305054  1
  O  O18  1  0.21589879  0.56669383  0.92793645  1
  O  O19  1  0.92924219  0.14440351  0.36008371  1
  O  O20  1  0.64313435  0.71463723  0.78584202  1
  O  O21  1  0.21417001  0.07119517  0.42901163  1
  O  O22  1  0.63989384  0.21572655  0.28928023  1
  O  O23  1  0.36003157  0.78441838  0.71062398  1
  O  O24  1  0.78589131  0.92865782  0.57110539  1
  O  O25  1  -0.00008057  0.50014795  0.50012295  1
  O  O26  1  0.35697198  0.28538995  0.21410172  1
  O  O27  1  0.07067963  0.85554718  0.63995877  1
  O  O28  1  0.42899736  0.64222808  0.35682951  1
  O  O29  1  0.85613776  0.78261113  0.21595589  1
  O  O30  1  0.78406316  0.43332819  0.07208241  1
  O  O31  1  0.07207775  0.36126674  0.14383664  1
  O  O32  1  0.50002282  0.49997048  0.00001352  1
  O  O33  1  0.28934204  0.92627865  0.07071497  1
