# generated using pymatgen
data_Li3V3P8O29
_symmetry_space_group_name_H-M   'P 1'
_cell_length_a   9.75847437
_cell_length_b   9.70328692
_cell_length_c   14.35659452
_cell_angle_alpha   90.07410527
_cell_angle_beta   90.63454031
_cell_angle_gamma   60.26409482
_symmetry_Int_Tables_number   1
_chemical_formula_structural   Li3V3P8O29
_chemical_formula_sum   'Li6 V6 P16 O58'
_cell_volume   1180.32268190
_cell_formula_units_Z   2
loop_
 _symmetry_equiv_pos_site_id
 _symmetry_equiv_pos_as_xyz
  1  'x, y, z'
loop_
 _atom_site_type_symbol
 _atom_site_label
 _atom_site_symmetry_multiplicity
 _atom_site_fract_x
 _atom_site_fract_y
 _atom_site_fract_z
 _atom_site_occupancy
  Li  Li0  1  0.90992074  0.32092000  0.55241630  1
  Li  Li1  1  0.33100763  0.90520905  0.06326520  1
  Li  Li2  1  0.32378060  0.76763493  0.55618407  1
  Li  Li3  1  0.67436380  0.09369794  0.94455248  1
  Li  Li4  1  0.00026700  0.99910799  0.01604360  1
  Li  Li5  1  0.96949588  0.97582519  0.49348914  1
  V  V6  1  0.56557580  0.43675037  0.24886790  1
  V  V7  1  0.43637538  0.56114207  0.75306184  1
  V  V8  1  0.56710149  0.99596796  0.74241733  1
  V  V9  1  0.43652038  0.00368663  0.25567503  1
  V  V10  1  0.99861426  0.56306883  0.24376842  1
  V  V11  1  0.00079756  0.44126732  0.75519761  1
  P  P12  1  0.91696891  0.78598549  0.84179971  1
  P  P13  1  0.78621697  0.91065009  0.33568799  1
  P  P14  1  0.91479852  0.30841244  0.34077090  1
  P  P15  1  0.66020980  0.67206153  0.13230947  1
  P  P16  1  0.66595673  0.66128169  0.63293475  1
  P  P17  1  0.78055739  0.30557646  0.84091438  1
  P  P18  1  0.69314762  0.22442199  0.65795143  1
  P  P19  1  0.31862467  0.91136899  0.84433375  1
  P  P20  1  0.68668170  0.08930861  0.15703700  1
  P  P21  1  0.31242139  0.77473556  0.34436712  1
  P  P22  1  0.21680482  0.69850841  0.16334958  1
  P  P23  1  0.33103418  0.33970671  0.36519331  1
  P  P24  1  0.34001085  0.32632101  0.86545476  1
  P  P25  1  0.08361879  0.69719279  0.65858332  1
  P  P26  1  0.21737552  0.08775944  0.66523030  1
  P  P27  1  0.08491973  0.21282385  0.16028566  1
  O  O28  1  0.00780069  0.79174670  0.57405398  1
  O  O29  1  0.91668503  0.73461393  0.32774343  1
  O  O30  1  0.76555974  0.02363275  0.06655376  1
  O  O31  1  0.74047835  0.91872982  0.83201779  1
  O  O32  1  0.92214744  0.62109566  0.82863562  1
  O  O33  1  0.81082742  0.66838212  0.17527766  1
  O  O34  1  0.91822863  0.46436414  0.32432817  1
  O  O35  1  0.00901423  0.18162780  0.07953438  1
  O  O36  1  0.91408184  0.34815248  0.83313834  1
  O  O37  1  0.66722989  0.81193386  0.67642011  1
  O  O38  1  0.62173444  0.91941874  0.32731623  1
  O  O39  1  0.81463768  0.51356113  0.67593388  1
  O  O40  1  0.65086325  0.67453761  0.02929986  1
  O  O41  1  0.66076240  0.66227903  0.52970188  1
  O  O42  1  0.66087841  0.52481586  0.17914658  1
  O  O43  1  0.47422747  0.91113439  0.82366969  1
  O  O44  1  0.51293841  0.82020383  0.17477553  1
  O  O45  1  0.74131926  0.34426578  0.32780211  1
  O  O46  1  0.79966565  0.20191792  0.74942104  1
  O  O47  1  0.78912854  0.21113920  0.57531936  1
  O  O48  1  0.79274117  0.20742586  0.92326969  1
  O  O49  1  0.61940452  0.46256338  0.82836243  1
  O  O50  1  0.51534946  0.66806803  0.67555805  1
  O  O51  1  0.64949297  0.26359699  0.16894005  1
  O  O52  1  0.46751361  0.61742356  0.32972619  1
  O  O53  1  0.34838498  0.91325991  0.32980973  1
  O  O54  1  0.80422165  0.99154028  0.24115680  1
  O  O55  1  0.80403822  0.99186749  0.41747354  1
  O  O56  1  0.21193707  0.99030160  0.58706993  1
  O  O57  1  0.65296596  0.08798434  0.66565527  1
  O  O58  1  0.53761897  0.38335690  0.67138273  1
  O  O59  1  0.34727269  0.74012668  0.82699366  1
  O  O60  1  0.47542876  0.34102595  0.31955774  1
  O  O61  1  0.37895866  0.54562677  0.17028910  1
  O  O62  1  0.19662792  0.81011595  0.08611338  1
  O  O63  1  0.23284381  0.79208360  0.43485962  1
  O  O64  1  0.19411102  0.79224801  0.26109202  1
  O  O65  1  0.26097218  0.65329769  0.66542913  1
  O  O66  1  0.48870298  0.18015480  0.82410963  1
  O  O67  1  0.53295781  0.08416987  0.17324393  1
  O  O68  1  0.33669878  0.47616934  0.81896577  1
  O  O69  1  0.34346346  0.32744356  0.96838566  1
  O  O70  1  0.32973204  0.33936874  0.46783124  1
  O  O71  1  0.18358558  0.47894289  0.31556871  1
  O  O72  1  0.37876861  0.08607425  0.67410793  1
  O  O73  1  0.33555861  0.18603420  0.32187199  1
  O  O74  1  0.08384480  0.65463164  0.16362246  1
  O  O75  1  0.00157629  0.80180635  0.75002995  1
  O  O76  1  0.99101933  0.80627850  0.92686793  1
  O  O77  1  0.07520194  0.54173187  0.67398377  1
  O  O78  1  0.18925923  0.33028778  0.81979023  1
  O  O79  1  0.07142359  0.37938397  0.16724954  1
  O  O80  1  0.26362636  0.08342292  0.16582592  1
  O  O81  1  0.24926910  0.97156188  0.93700310  1
  O  O82  1  0.19649333  0.01867809  0.76357707  1
  O  O83  1  0.08007827  0.26184727  0.66277841  1
  O  O84  1  0.98036913  0.22966372  0.43202755  1
  O  O85  1  0.01156430  0.19163625  0.25698136  1
