# generated using pymatgen
data_CoSn(PO4)2
_symmetry_space_group_name_H-M   'P 1'
_cell_length_a   10.07075800
_cell_length_b   6.05818653
_cell_length_c   4.96887614
_cell_angle_alpha   90.00000000
_cell_angle_beta   90.75974171
_cell_angle_gamma   90.00000000
_symmetry_Int_Tables_number   1
_chemical_formula_structural   CoSn(PO4)2
_chemical_formula_sum   'Co2 Sn2 P4 O16'
_cell_volume   303.12711804
_cell_formula_units_Z   2
loop_
 _symmetry_equiv_pos_site_id
 _symmetry_equiv_pos_as_xyz
  1  'x, y, z'
loop_
 _atom_site_type_symbol
 _atom_site_label
 _atom_site_symmetry_multiplicity
 _atom_site_fract_x
 _atom_site_fract_y
 _atom_site_fract_z
 _atom_site_occupancy
  Co  Co0  1  0.27495674  0.25000000  0.95658412  1
  Co  Co1  1  0.72504326  0.75000000  0.04341588  1
  Sn  Sn2  1  0.22322027  0.75000000  0.46459432  1
  Sn  Sn3  1  0.77677973  0.25000000  0.53540568  1
  P  P4  1  0.09758867  0.25000000  0.41640763  1
  P  P5  1  0.40516189  0.75000000  0.90440169  1
  P  P6  1  0.59483811  0.25000000  0.09559831  1
  P  P7  1  0.90241133  0.75000000  0.58359237  1
  O  O8  1  0.05069607  0.75000000  0.67477135  1
  O  O9  1  0.11236565  0.25000000  0.71960426  1
  O  O10  1  0.16850579  0.04856335  0.27415403  1
  O  O11  1  0.16850579  0.45143665  0.27415403  1
  O  O12  1  0.32952057  0.55309206  0.75611225  1
  O  O13  1  0.32952057  0.94690794  0.75611225  1
  O  O14  1  0.37969908  0.75000000  0.21034212  1
  O  O15  1  0.44750576  0.25000000  0.15039828  1
  O  O16  1  0.55249424  0.75000000  0.84960172  1
  O  O17  1  0.62030092  0.25000000  0.78965788  1
  O  O18  1  0.67047943  0.05309206  0.24388775  1
  O  O19  1  0.67047943  0.44690794  0.24388775  1
  O  O20  1  0.83149421  0.54856335  0.72584597  1
  O  O21  1  0.83149421  0.95143665  0.72584597  1
  O  O22  1  0.88763435  0.75000000  0.28039574  1
  O  O23  1  0.94930393  0.25000000  0.32522865  1
