# generated using pymatgen
data_CoTe2O5
_symmetry_space_group_name_H-M   'P 1'
_cell_length_a   8.72700215
_cell_length_b   8.72700215
_cell_length_c   12.98589063
_cell_angle_alpha   90.00000000
_cell_angle_beta   90.00000000
_cell_angle_gamma   90.00000000
_symmetry_Int_Tables_number   1
_chemical_formula_structural   CoTe2O5
_chemical_formula_sum   'Co8 Te16 O40'
_cell_volume   989.01278723
_cell_formula_units_Z   8
loop_
 _symmetry_equiv_pos_site_id
 _symmetry_equiv_pos_as_xyz
  1  'x, y, z'
loop_
 _atom_site_type_symbol
 _atom_site_label
 _atom_site_symmetry_multiplicity
 _atom_site_fract_x
 _atom_site_fract_y
 _atom_site_fract_z
 _atom_site_occupancy
  Co  Co0  1  0.25000000  0.25000000  0.25000000  1
  Co  Co1  1  0.25000000  0.25000000  0.00000000  1
  Co  Co2  1  0.25000000  0.25000000  0.50000000  1
  Co  Co3  1  0.25000000  0.25000000  0.75000000  1
  Co  Co4  1  0.75000000  0.75000000  0.00000000  1
  Co  Co5  1  0.75000000  0.75000000  0.25000000  1
  Co  Co6  1  0.75000000  0.75000000  0.50000000  1
  Co  Co7  1  0.75000000  0.75000000  0.75000000  1
  Te  Te8  1  0.03943629  0.56765657  0.38302677  1
  Te  Te9  1  0.03943629  0.93234343  0.61697323  1
  Te  Te10  1  0.06765657  0.96056371  0.11697323  1
  Te  Te11  1  0.06765657  0.53943629  0.88302677  1
  Te  Te12  1  0.43234343  0.53943629  0.11697323  1
  Te  Te13  1  0.43234343  0.96056371  0.88302677  1
  Te  Te14  1  0.46056371  0.56765657  0.61697323  1
  Te  Te15  1  0.46056371  0.93234343  0.38302677  1
  Te  Te16  1  0.53943629  0.43234343  0.38302677  1
  Te  Te17  1  0.53943629  0.06765657  0.61697323  1
  Te  Te18  1  0.56765657  0.03943629  0.11697323  1
  Te  Te19  1  0.56765657  0.46056371  0.88302677  1
  Te  Te20  1  0.93234343  0.03943629  0.88302677  1
  Te  Te21  1  0.93234343  0.46056371  0.11697323  1
  Te  Te22  1  0.96056371  0.43234343  0.61697323  1
  Te  Te23  1  0.96056371  0.06765657  0.38302677  1
  O  O24  1  0.02370068  0.12633991  0.54688022  1
  O  O25  1  0.02370068  0.37366009  0.45311978  1
  O  O26  1  0.05503325  0.44496675  0.25000000  1
  O  O27  1  0.05503325  0.05503325  0.75000000  1
  O  O28  1  0.10585274  0.17471272  0.13582384  1
  O  O29  1  0.10585274  0.32528728  0.86417616  1
  O  O30  1  0.12633991  0.47629932  0.04688022  1
  O  O31  1  0.12633991  0.02370068  0.95311978  1
  O  O32  1  0.17471272  0.10585274  0.36417616  1
  O  O33  1  0.17471272  0.39414726  0.63582384  1
  O  O34  1  0.32528728  0.10585274  0.63582384  1
  O  O35  1  0.32528728  0.39414726  0.36417616  1
  O  O36  1  0.37366009  0.02370068  0.04688022  1
  O  O37  1  0.37366009  0.47629932  0.95311978  1
  O  O38  1  0.39414726  0.32528728  0.13582384  1
  O  O39  1  0.39414726  0.17471272  0.86417616  1
  O  O40  1  0.44496675  0.05503325  0.25000000  1
  O  O41  1  0.44496675  0.44496675  0.75000000  1
  O  O42  1  0.47629932  0.12633991  0.45311978  1
  O  O43  1  0.47629932  0.37366009  0.54688022  1
  O  O44  1  0.52370068  0.62633991  0.45311978  1
  O  O45  1  0.52370068  0.87366009  0.54688022  1
  O  O46  1  0.55503325  0.55503325  0.25000000  1
  O  O47  1  0.55503325  0.94496675  0.75000000  1
  O  O48  1  0.60585274  0.67471272  0.86417616  1
  O  O49  1  0.60585274  0.82528728  0.13582384  1
  O  O50  1  0.62633991  0.52370068  0.04688022  1
  O  O51  1  0.62633991  0.97629932  0.95311978  1
  O  O52  1  0.67471272  0.60585274  0.63582384  1
  O  O53  1  0.67471272  0.89414726  0.36417616  1
  O  O54  1  0.82528728  0.60585274  0.36417616  1
  O  O55  1  0.82528728  0.89414726  0.63582384  1
  O  O56  1  0.87366009  0.52370068  0.95311978  1
  O  O57  1  0.87366009  0.97629932  0.04688022  1
  O  O58  1  0.89414726  0.67471272  0.13582384  1
  O  O59  1  0.89414726  0.82528728  0.86417616  1
  O  O60  1  0.94496675  0.55503325  0.75000000  1
  O  O61  1  0.94496675  0.94496675  0.25000000  1
  O  O62  1  0.97629932  0.62633991  0.54688022  1
  O  O63  1  0.97629932  0.87366009  0.45311978  1
