# generated using pymatgen
data_TiCo3(PO4)4
_symmetry_space_group_name_H-M   'P 1'
_cell_length_a   4.90229201
_cell_length_b   9.85874559
_cell_length_c   5.95459399
_cell_angle_alpha   90.00000000
_cell_angle_beta   90.00000000
_cell_angle_gamma   90.14878908
_symmetry_Int_Tables_number   1
_chemical_formula_structural   TiCo3(PO4)4
_chemical_formula_sum   'Ti1 Co3 P4 O16'
_cell_volume   287.78723533
_cell_formula_units_Z   1
loop_
 _symmetry_equiv_pos_site_id
 _symmetry_equiv_pos_as_xyz
  1  'x, y, z'
loop_
 _atom_site_type_symbol
 _atom_site_label
 _atom_site_symmetry_multiplicity
 _atom_site_fract_x
 _atom_site_fract_y
 _atom_site_fract_z
 _atom_site_occupancy
  Ti  Ti0  1  0.96620648  0.27295481  0.25000000  1
  Co  Co1  1  0.02792741  0.72973902  0.75000000  1
  Co  Co2  1  0.46952441  0.22836542  0.75000000  1
  Co  Co3  1  0.53426101  0.76908394  0.25000000  1
  P  P4  1  0.08954668  0.60053800  0.25000000  1
  P  P5  1  0.39488305  0.09611099  0.25000000  1
  P  P6  1  0.58771780  0.89973023  0.75000000  1
  P  P7  1  0.93279706  0.40509501  0.75000000  1
  O  O8  1  0.14108865  0.44475204  0.25000000  1
  O  O9  1  0.23806354  0.66786306  0.04714013  1
  O  O10  1  0.23806354  0.66786306  0.45285987  1
  O  O11  1  0.23791419  0.38721747  0.75000000  1
  O  O12  1  0.27610919  0.87235326  0.75000000  1
  O  O13  1  0.24196307  0.16957665  0.05264225  1
  O  O14  1  0.24196307  0.16957665  0.44735775  1
  O  O15  1  0.35479533  0.94245817  0.25000000  1
  O  O16  1  0.64137372  0.05097800  0.75000000  1
  O  O17  1  0.73416631  0.82825773  0.54653760  1
  O  O18  1  0.73416631  0.82825773  0.95346240  1
  O  O19  1  0.70037568  0.13185585  0.25000000  1
  O  O20  1  0.77804661  0.62176410  0.25000000  1
  O  O21  1  0.79249347  0.32968508  0.54311936  1
  O  O22  1  0.79249347  0.32968508  0.95688064  1
  O  O23  1  0.85405896  0.55623864  0.75000000  1
