# generated using pymatgen
data_Ba2Ti2AlF11
_symmetry_space_group_name_H-M   'P 1'
_cell_length_a   7.47728497
_cell_length_b   7.47728436
_cell_length_c   14.10120350
_cell_angle_alpha   90.00000000
_cell_angle_beta   90.00000000
_cell_angle_gamma   120.00000269
_symmetry_Int_Tables_number   1
_chemical_formula_structural   Ba2Ti2AlF11
_chemical_formula_sum   'Ba6 Ti6 Al3 F33'
_cell_volume   682.77031293
_cell_formula_units_Z   3
loop_
 _symmetry_equiv_pos_site_id
 _symmetry_equiv_pos_as_xyz
  1  'x, y, z'
loop_
 _atom_site_type_symbol
 _atom_site_label
 _atom_site_symmetry_multiplicity
 _atom_site_fract_x
 _atom_site_fract_y
 _atom_site_fract_z
 _atom_site_occupancy
  Ba  Ba0  1  0.54227603  0.21425646  0.66233607  1
  Ba  Ba1  1  0.18605137  0.51249189  0.79824351  1
  Ba  Ba2  1  0.67198043  0.45772397  0.99566907  1
  Ba  Ba3  1  0.48750811  0.67355848  0.46490951  1
  Ba  Ba4  1  0.32644152  0.81394863  0.13157651  1
  Ba  Ba5  1  0.78574354  0.32801857  0.32900207  1
  Ti  Ti6  1  0.67198812  0.97191228  0.87561631  1
  Ti  Ti7  1  0.79327266  0.78482160  0.74315822  1
  Ti  Ti8  1  0.21517840  0.00845107  0.40982422  1
  Ti  Ti9  1  0.29992415  0.32801188  0.20894931  1
  Ti  Ti10  1  0.99154893  0.20672734  0.07649122  1
  Ti  Ti11  1  0.02808772  0.70007585  0.54228231  1
  Al  Al12  1  0.18469571  0.01664279  0.87478340  1
  Al  Al13  1  0.83194808  0.81530429  0.20811640  1
  Al  Al14  1  0.98335721  0.16805192  0.54144940  1
  F  F15  1  0.68825449  0.08463338  0.02202999  1
  F  F16  1  0.49217243  0.71083877  0.94420652  1
  F  F17  1  0.39637889  0.31174551  0.35536299  1
  F  F18  1  0.07307986  0.43629538  0.49799022  1
  F  F19  1  0.50289612  0.23070758  0.17324019  1
  F  F20  1  0.90270259  0.61857361  0.18936183  1
  F  F21  1  0.56370462  0.63678448  0.16465722  1
  F  F22  1  0.38142639  0.28412898  0.85602883  1
  F  F23  1  0.72781046  0.49710388  0.50657319  1
  F  F24  1  0.29884282  0.34961312  0.06241125  1
  F  F25  1  0.36321552  0.92692014  0.83132422  1
  F  F26  1  0.91536662  0.60362111  0.68869699  1
  F  F27  1  0.26554093  0.00433668  0.99025983  1
  F  F28  1  0.03937028  0.48257391  0.02092322  1
  F  F29  1  0.73879475  0.73445907  0.32359283  1
  F  F30  1  0.28916123  0.78133366  0.61087252  1
  F  F31  1  0.00246486  0.11316422  0.91343467  1
  F  F32  1  0.05077030  0.70115718  0.39574425  1
  F  F33  1  0.98072181  0.09077685  0.41734495  1
  F  F34  1  0.99566332  0.26120525  0.65692583  1
  F  F35  1  0.11005504  0.01927819  0.75067895  1
  F  F36  1  0.51742609  0.55679737  0.68759022  1
  F  F37  1  0.44320263  0.96062972  0.35425622  1
  F  F38  1  0.11069836  0.99753514  0.24676767  1
  F  F39  1  0.65038688  0.94922970  0.72907825  1
  F  F40  1  0.76929242  0.27218954  0.83990719  1
  F  F41  1  0.21866634  0.50782757  0.27753952  1
  F  F42  1  0.96535763  0.75070635  0.87262782  1
  F  F43  1  0.78534872  0.03464237  0.20596082  1
  F  F44  1  0.90922315  0.88994496  0.08401195  1
  F  F45  1  0.71587102  0.09729741  0.52269483  1
  F  F46  1  0.88683578  0.88930164  0.58010067  1
  F  F47  1  0.24929365  0.21465128  0.53929382  1
