# generated using pymatgen
data_SnAu3
_symmetry_space_group_name_H-M   'P 1'
_cell_length_a   6.03842166
_cell_length_b   6.03842045
_cell_length_c   4.99927967
_cell_angle_alpha   90.00000000
_cell_angle_beta   90.00000000
_cell_angle_gamma   119.99999566
_symmetry_Int_Tables_number   1
_chemical_formula_structural   SnAu3
_chemical_formula_sum   'Sn2 Au6'
_cell_volume   157.86464208
_cell_formula_units_Z   2
loop_
 _symmetry_equiv_pos_site_id
 _symmetry_equiv_pos_as_xyz
  1  'x, y, z'
loop_
 _atom_site_type_symbol
 _atom_site_label
 _atom_site_symmetry_multiplicity
 _atom_site_fract_x
 _atom_site_fract_y
 _atom_site_fract_z
 _atom_site_occupancy
  Sn  Sn0  1  0.33333300  0.66666700  0.75000100  1
  Sn  Sn1  1  0.66666600  0.33333200  0.24999900  1
  Au  Au2  1  0.16411670  0.32823441  0.24999900  1
  Au  Au3  1  0.67176459  0.83588230  0.24999900  1
  Au  Au4  1  0.16411770  0.83588230  0.24999900  1
  Au  Au5  1  0.83588130  0.67176459  0.75000100  1
  Au  Au6  1  0.32823341  0.16411570  0.75000100  1
  Au  Au7  1  0.83588230  0.16411570  0.75000100  1
