# generated using pymatgen
data_As4Pd5Pb
_symmetry_space_group_name_H-M   'P 1'
_cell_length_a   19.70769574
_cell_length_b   6.90289575
_cell_length_c   6.96540592
_cell_angle_alpha   60.29643107
_cell_angle_beta   55.74632906
_cell_angle_gamma   28.87682682
_symmetry_Int_Tables_number   1
_chemical_formula_structural   As4Pd5Pb
_chemical_formula_sum   'As8 Pd10 Pb2'
_cell_volume   378.23157586
_cell_formula_units_Z   2
loop_
 _symmetry_equiv_pos_site_id
 _symmetry_equiv_pos_as_xyz
  1  'x, y, z'
loop_
 _atom_site_type_symbol
 _atom_site_label
 _atom_site_symmetry_multiplicity
 _atom_site_fract_x
 _atom_site_fract_y
 _atom_site_fract_z
 _atom_site_occupancy
  As  As0  1  0.05756007  0.31676034  0.72159317  1
  As  As1  1  0.14243993  0.68323966  0.27840683  1
  As  As2  1  0.24727318  0.33941237  0.77097082  1
  As  As3  1  0.45272682  0.34674909  0.72902918  1
  As  As4  1  0.55756007  0.67384616  0.22159317  1
  As  As5  1  0.64243993  0.32615384  0.77840683  1
  As  As6  1  0.74727318  0.65325091  0.27097082  1
  As  As7  1  0.95272682  0.66058763  0.22902918  1
  Pd  Pd8  1  0.00778456  0.00342910  0.01120996  1
  Pd  Pd9  1  0.10000000  -0.00000000  0.50000000  1
  Pd  Pd10  1  0.19221544  0.99657090  0.98879004  1
  Pd  Pd11  1  0.38630173  0.08490508  0.99622518  1
  Pd  Pd12  1  0.31369827  0.01263890  0.50377482  1
  Pd  Pd13  1  0.60000000  -0.00000000  0.00000000  1
  Pd  Pd14  1  0.50778456  0.94643816  0.51120996  1
  Pd  Pd15  1  0.81369827  0.91509492  0.00377482  1
  Pd  Pd16  1  0.69221544  0.05356184  0.48879004  1
  Pd  Pd17  1  0.88630173  0.98736110  0.49622518  1
  Pb  Pb18  1  0.35000000  0.69300373  0.25000000  1
  Pb  Pb19  1  0.85000000  0.30699627  0.75000000  1
