# generated using pymatgen
data_Mg(AgO2)2
_symmetry_space_group_name_H-M   'P 1'
_cell_length_a   6.27532767
_cell_length_b   6.44672466
_cell_length_c   6.44672402
_cell_angle_alpha   59.99999579
_cell_angle_beta   59.09231424
_cell_angle_gamma   59.09231187
_symmetry_Int_Tables_number   1
_chemical_formula_structural   Mg(AgO2)2
_chemical_formula_sum   'Mg2 Ag4 O8'
_cell_volume   181.84565447
_cell_formula_units_Z   2
loop_
 _symmetry_equiv_pos_site_id
 _symmetry_equiv_pos_as_xyz
  1  'x, y, z'
loop_
 _atom_site_type_symbol
 _atom_site_label
 _atom_site_symmetry_multiplicity
 _atom_site_fract_x
 _atom_site_fract_y
 _atom_site_fract_z
 _atom_site_occupancy
  Mg  Mg0  1  0.96932080  0.01022640  0.01022640  1
  Mg  Mg1  1  0.12046690  0.62651037  0.62651037  1
  Ag  Ag2  1  0.27130774  0.24289775  0.24289775  1
  Ag  Ag3  1  0.62486753  0.12155721  0.62678713  1
  Ag  Ag4  1  0.62486753  0.62678713  0.12155721  1
  Ag  Ag5  1  0.62486753  0.62678713  0.62678713  1
  O  O6  1  0.39672423  0.38942710  0.38942710  1
  O  O7  1  0.39672423  0.38942710  0.82442158  1
  O  O8  1  0.39672423  0.82442158  0.38942710  1
  O  O9  1  0.85716900  0.38094367  0.38094367  1
  O  O10  1  0.36595952  0.87801316  0.87801316  1
  O  O11  1  0.86700059  0.40613146  0.86343347  1
  O  O12  1  0.86700059  0.86343347  0.40613146  1
  O  O13  1  0.86700059  0.86343347  0.86343347  1
