# generated using pymatgen
data_Cs2Li14Tb3O14
_symmetry_space_group_name_H-M   'P 1'
_cell_length_a   7.49365437
_cell_length_b   8.22777454
_cell_length_c   8.67193802
_cell_angle_alpha   118.31968989
_cell_angle_beta   115.59858123
_cell_angle_gamma   90.00000001
_symmetry_Int_Tables_number   1
_chemical_formula_structural   Cs2Li14Tb3O14
_chemical_formula_sum   'Cs2 Li14 Tb3 O14'
_cell_volume   410.09290762
_cell_formula_units_Z   1
loop_
 _symmetry_equiv_pos_site_id
 _symmetry_equiv_pos_as_xyz
  1  'x, y, z'
loop_
 _atom_site_type_symbol
 _atom_site_label
 _atom_site_symmetry_multiplicity
 _atom_site_fract_x
 _atom_site_fract_y
 _atom_site_fract_z
 _atom_site_occupancy
  Li  Li0  1  0.14113084  0.71297370  0.73377582  1
  Li  Li1  1  0.85886916  0.97919788  0.26622418  1
  Li  Li2  1  0.59264498  0.02080212  0.73377582  1
  Li  Li3  1  0.40735502  0.28702630  0.26622418  1
  Li  Li4  1  0.14113084  0.02080212  0.73377582  1
  Li  Li5  1  0.50000000  0.15527039  0.00000000  1
  Li  Li6  1  0.50000000  0.84472961  0.00000000  1
  Li  Li7  1  0.76788165  0.41575640  0.53576331  1
  Li  Li8  1  0.23211835  0.58424360  0.46423669  1
  Li  Li9  1  0.23211835  0.87999310  0.46423669  1
  Li  Li10  1  0.76788165  0.12000690  0.53576331  1
  Li  Li11  1  0.59264498  0.71297370  0.73377582  1
  Li  Li12  1  0.85886916  0.28702630  0.26622418  1
  Li  Li13  1  0.40735502  0.97919788  0.26622418  1
  O  O14  1  0.86876164  0.05165130  0.73752329  1
  O  O15  1  0.62958158  0.40797280  0.25916316  1
  O  O16  1  0.62958158  0.85119035  0.25916316  1
  O  O17  1  0.37041842  0.59202720  0.74083684  1
  O  O18  1  0.37041842  0.14880965  0.74083684  1
  O  O19  1  0.05226202  0.75374600  0.50749199  1
  O  O20  1  0.54477002  0.24625400  0.49250801  1
  O  O21  1  0.94773798  0.24625400  0.49250801  1
  O  O22  1  0.45522998  0.75374600  0.50749199  1
  O  O23  1  0.70199808  0.00000000  0.00000000  1
  O  O24  1  0.29800192  0.00000000  0.00000000  1
  O  O25  1  0.86876164  0.68587199  0.73752329  1
  O  O26  1  0.13123836  0.31412801  0.26247671  1
  O  O27  1  0.13123836  0.94834870  0.26247671  1
  Cs  Cs28  1  0.76638938  0.50000000  0.00000000  1
  Cs  Cs29  1  0.23361062  0.50000000  0.00000000  1
  Tb  Tb30  1  0.00000000  0.00000000  0.00000000  1
  Tb  Tb31  1  0.26837374  0.26837374  0.53674748  1
  Tb  Tb32  1  0.73162626  0.73162626  0.46325252  1
