# generated using pymatgen
data_Na(Mg4Al3)4
_symmetry_space_group_name_H-M   'P 1'
_cell_length_a   9.19587905
_cell_length_b   9.17227139
_cell_length_c   9.13720041
_cell_angle_alpha   109.51188108
_cell_angle_beta   109.61662031
_cell_angle_gamma   109.50262088
_symmetry_Int_Tables_number   1
_chemical_formula_structural   Na(Mg4Al3)4
_chemical_formula_sum   'Na1 Mg16 Al12'
_cell_volume   591.68419986
_cell_formula_units_Z   1
loop_
 _symmetry_equiv_pos_site_id
 _symmetry_equiv_pos_as_xyz
  1  'x, y, z'
loop_
 _atom_site_type_symbol
 _atom_site_label
 _atom_site_symmetry_multiplicity
 _atom_site_fract_x
 _atom_site_fract_y
 _atom_site_fract_z
 _atom_site_occupancy
  Na  Na0  1  0.59570451  0.31598154  0.00000664  1
  Mg  Mg1  1  0.31568301  0.60170537  0.00000149  1
  Mg  Mg2  1  0.99862993  0.99924663  0.99999330  1
  Mg  Mg3  1  0.33874114  0.99716895  0.00000191  1
  Mg  Mg4  1  0.99923337  0.34269409  0.99999471  1
  Mg  Mg5  1  0.68409971  0.68638166  0.28873914  1
  Mg  Mg6  1  0.60197702  0.00003582  0.31457084  1
  Mg  Mg7  1  0.00047134  0.60264196  0.31524045  1
  Mg  Mg8  1  0.00012789  0.00038862  0.34457874  1
  Mg  Mg9  1  0.39775339  0.71386432  0.39802347  1
  Mg  Mg10  1  0.71575190  0.39874086  0.40104170  1
  Mg  Mg11  1  0.31470433  0.99768270  0.59894799  1
  Mg  Mg12  1  0.99973313  0.31584324  0.60198701  1
  Mg  Mg13  1  0.65553822  0.65580846  0.65541355  1
  Mg  Mg14  1  0.68524012  0.28739826  0.68475415  1
  Mg  Mg15  1  0.28740964  0.68548068  0.68544047  1
  Mg  Mg16  1  0.39537536  0.39766412  0.71126809  1
  Al  Al17  1  0.63392446  0.81209956  0.00000382  1
  Al  Al18  1  0.82137211  0.64059970  0.00000006  1
  Al  Al19  1  0.36356171  0.36793600  0.18306869  1
  Al  Al20  1  0.18795482  0.82098994  0.18658051  1
  Al  Al21  1  0.82288827  0.18275161  0.18755313  1
  Al  Al22  1  0.36776081  0.18182413  0.36676355  1
  Al  Al23  1  0.18247521  0.36616673  0.36681981  1
  Al  Al24  1  0.81567201  0.99936374  0.63318340  1
  Al  Al25  1  0.00099789  0.81505813  0.63322286  1
  Al  Al26  1  0.63535067  0.99520526  0.81242481  1
  Al  Al27  1  0.00138675  0.63441130  0.81342398  1
  Al  Al28  1  0.18048529  0.18486961  0.81695369  1
