# generated using pymatgen
data_Mg5Hg
_symmetry_space_group_name_H-M   'P 1'
_cell_length_a   5.46885269
_cell_length_b   5.46885256
_cell_length_c   6.02747448
_cell_angle_alpha   116.97876212
_cell_angle_beta   63.02122787
_cell_angle_gamma   119.99998689
_symmetry_Int_Tables_number   1
_chemical_formula_structural   Mg5Hg
_chemical_formula_sum   'Mg5 Hg1'
_cell_volume   132.98543695
_cell_formula_units_Z   1
loop_
 _symmetry_equiv_pos_site_id
 _symmetry_equiv_pos_as_xyz
  1  'x, y, z'
loop_
 _atom_site_type_symbol
 _atom_site_label
 _atom_site_symmetry_multiplicity
 _atom_site_fract_x
 _atom_site_fract_y
 _atom_site_fract_z
 _atom_site_occupancy
  Mg  Mg0  1  0.99801287  -0.00000000  0.00000000  1
  Mg  Mg1  1  0.66865213  0.33532013  -0.00000000  1
  Mg  Mg2  1  0.33333200  0.66468287  0.00000000  1
  Mg  Mg3  1  0.50035555  0.83297645  0.49893334  1
  Mg  Mg4  1  0.16631045  0.16702055  0.50106566  1
  Hg  Hg5  1  0.83333300  0.49999800  0.49999800  1
