# generated using pymatgen
data_Y4Co13Si2(SbO14)2
_symmetry_space_group_name_H-M   'P 1'
_cell_length_a   5.55063443
_cell_length_b   9.56132855
_cell_length_c   12.20338737
_cell_angle_alpha   87.87095716
_cell_angle_beta   76.85466512
_cell_angle_gamma   80.59838098
_symmetry_Int_Tables_number   1
_chemical_formula_structural   Y4Co13Si2(SbO14)2
_chemical_formula_sum   'Y4 Co13 Si2 Sb2 O28'
_cell_volume   622.20890351
_cell_formula_units_Z   1
loop_
 _symmetry_equiv_pos_site_id
 _symmetry_equiv_pos_as_xyz
  1  'x, y, z'
loop_
 _atom_site_type_symbol
 _atom_site_label
 _atom_site_symmetry_multiplicity
 _atom_site_fract_x
 _atom_site_fract_y
 _atom_site_fract_z
 _atom_site_occupancy
  Y  Y0  1  0.07320479  0.65942024  0.41199656  1
  Y  Y1  1  0.51479864  0.34057976  0.41199656  1
  Y  Y2  1  0.92679521  0.34057976  0.58800344  1
  Y  Y3  1  0.48520136  0.65942024  0.58800344  1
  Co  Co4  1  0.92084359  0.62724380  0.74240126  1
  Co  Co5  1  0.67146629  0.30898955  0.12492084  1
  Co  Co6  1  0.33675415  0.37275620  0.74240126  1
  Co  Co7  1  0.07915641  0.37275620  0.25759874  1
  Co  Co8  1  0.32853371  0.69101045  0.87507916  1
  Co  Co9  1  0.29190161  0.00000000  0.41619679  1
  Co  Co10  1  0.20361387  0.69101045  0.12492084  1
  Co  Co11  1  -0.00000000  0.00000000  0.00000000  1
  Co  Co12  1  0.42769033  -0.00000000  0.14461935  1
  Co  Co13  1  0.79638613  0.30898955  0.87507916  1
  Co  Co14  1  0.66324585  0.62724380  0.25759874  1
  Co  Co15  1  0.57230967  0.00000000  0.85538065  1
  Co  Co16  1  0.70809839  1.00000000  0.58380321  1
  Si  Si17  1  0.24496375  0.28618523  0.00000000  1
  Si  Si18  1  0.75503625  0.71381477  1.00000000  1
  Sb  Sb19  1  0.85852830  1.00000000  0.28294240  1
  Sb  Sb20  1  0.14147170  0.00000000  0.71705760  1
  O  O21  1  0.71479571  0.40516165  0.25376787  1
  O  O22  1  0.12090194  0.39142314  0.41712321  1
  O  O23  1  0.94967103  0.34356093  0.00000000  1
  O  O24  1  0.29624985  0.10964781  1.00000000  1
  O  O25  1  0.87909806  0.60857686  0.58287679  1
  O  O26  1  0.28520429  0.59483835  0.74623213  1
  O  O27  1  0.00990643  0.10706235  0.58596497  1
  O  O28  1  0.99009357  0.89293765  0.41403503  1
  O  O29  1  0.70375015  0.89035219  0.00000000  1
  O  O30  1  0.12201864  0.89633845  0.15298043  1
  O  O31  1  0.31883330  0.34564462  0.11093028  1
  O  O32  1  0.03143541  0.59483835  0.25376787  1
  O  O33  1  0.40412860  0.89293765  0.58596497  1
  O  O34  1  0.72499993  0.10366155  0.15298043  1
  O  O35  1  0.57023642  0.65435538  0.11093028  1
  O  O36  1  0.05032897  0.65643907  1.00000000  1
  O  O37  1  0.27500007  0.89633845  0.84701957  1
  O  O38  1  0.87798136  0.10366155  0.84701957  1
  O  O39  1  0.59587140  0.10706235  0.41403503  1
  O  O40  1  0.12340678  0.12034065  0.28649504  1
  O  O41  1  0.87659322  0.87965935  0.71350496  1
  O  O42  1  0.42976358  0.34564462  0.88906972  1
  O  O43  1  0.40990282  0.12034065  0.71350496  1
  O  O44  1  0.53802515  0.39142314  0.58287679  1
  O  O45  1  0.68116670  0.65435538  0.88906972  1
  O  O46  1  0.59009718  0.87965935  0.28649504  1
  O  O47  1  0.96856459  0.40516165  0.74623213  1
  O  O48  1  0.46197485  0.60857686  0.41712321  1
