# generated using pymatgen
data_TbTa3O9
_symmetry_space_group_name_H-M   'P 1'
_cell_length_a   8.81489223
_cell_length_b   5.56291601
_cell_length_c   8.84958849
_cell_angle_alpha   71.70595850
_cell_angle_beta   66.52630912
_cell_angle_gamma   71.60724526
_symmetry_Int_Tables_number   1
_chemical_formula_structural   TbTa3O9
_chemical_formula_sum   'Tb2 Ta6 O18'
_cell_volume   368.77057042
_cell_formula_units_Z   2
loop_
 _symmetry_equiv_pos_site_id
 _symmetry_equiv_pos_as_xyz
  1  'x, y, z'
loop_
 _atom_site_type_symbol
 _atom_site_label
 _atom_site_symmetry_multiplicity
 _atom_site_fract_x
 _atom_site_fract_y
 _atom_site_fract_z
 _atom_site_occupancy
  Tb  Tb0  1  0.35017404  0.32903416  0.00481968  1
  Tb  Tb1  1  0.64644774  0.68616538  0.99482515  1
  Ta  Ta2  1  0.59140829  0.07716332  0.25681693  1
  Ta  Ta3  1  0.07999299  0.58378041  0.75369908  1
  Ta  Ta4  1  0.23818502  0.75026274  0.26409477  1
  Ta  Ta5  1  0.76105051  0.25188991  0.73569650  1
  Ta  Ta6  1  0.40765707  0.92566915  0.74279771  1
  Ta  Ta7  1  0.91838333  0.41865828  0.24693788  1
  O  O8  1  0.99755284  0.49922441  0.00001892  1
  O  O9  1  0.10339934  0.09764340  0.22619884  1
  O  O10  1  0.10191869  0.57484240  0.22610866  1
  O  O11  1  0.42570381  0.42367247  0.21888643  1
  O  O12  1  0.64601449  0.17030062  0.99993659  1
  O  O13  1  0.35457563  0.81731035  0.99977535  1
  O  O14  1  0.49710222  0.00032464  0.49991140  1
  O  O15  1  0.16623523  0.66425271  0.50368992  1
  O  O16  1  0.25097346  0.25002235  0.77343242  1
  O  O17  1  0.57457750  0.06682989  0.77997866  1
  O  O18  1  0.42889837  0.92057520  0.21865753  1
  O  O19  1  0.24875351  0.72896780  0.77293117  1
  O  O20  1  0.74818856  0.27196568  0.22946330  1
  O  O21  1  0.74977972  0.75074855  0.22981078  1
  O  O22  1  0.83392481  0.33203301  0.49628356  1
  O  O23  1  0.57133845  0.56885721  0.78068914  1
  O  O24  1  0.89890728  0.42474844  0.77073260  1
  O  O25  1  0.89820812  0.90227953  0.77246902  1
