# generated using pymatgen
data_H6PbCBr3N
_symmetry_space_group_name_H-M   'P 1'
_cell_length_a   8.58699949
_cell_length_b   8.59140358
_cell_length_c   12.20770998
_cell_angle_alpha   90.56911437
_cell_angle_beta   90.47752767
_cell_angle_gamma   89.92370419
_symmetry_Int_Tables_number   1
_chemical_formula_structural   H6PbCBr3N
_chemical_formula_sum   'H24 Pb4 C4 Br12 N4'
_cell_volume   900.53980409
_cell_formula_units_Z   4
loop_
 _symmetry_equiv_pos_site_id
 _symmetry_equiv_pos_as_xyz
  1  'x, y, z'
loop_
 _atom_site_type_symbol
 _atom_site_label
 _atom_site_symmetry_multiplicity
 _atom_site_fract_x
 _atom_site_fract_y
 _atom_site_fract_z
 _atom_site_occupancy
  H  H0  1  0.41586045  0.91811759  0.70377452  1
  H  H1  1  0.62064147  0.96385161  0.70729349  1
  H  H2  1  0.39438590  0.03298370  0.88663330  1
  H  H3  1  0.58061912  0.08245820  0.88726347  1
  H  H4  1  0.53585628  0.89554254  0.88881715  1
  H  H5  1  0.92005638  0.41466789  0.70225179  1
  H  H6  1  0.12249349  0.47016155  0.70670705  1
  H  H7  1  0.89052669  0.52177405  0.88398483  1
  H  H8  1  0.07547671  0.58358564  0.88978310  1
  H  H9  1  0.03506522  0.39397818  0.88584772  1
  H  H10  1  0.88283127  0.49031433  0.20277784  1
  H  H11  1  0.07035280  0.39592221  0.20635642  1
  H  H12  1  0.93096027  0.59050115  0.38648791  1
  H  H13  1  0.10950432  0.51021733  0.38849088  1
  H  H14  1  0.95372857  0.39808446  0.38545191  1
  H  H15  1  0.42097812  0.91461563  0.20295976  1
  H  H16  1  0.62173319  0.97526355  0.20691789  1
  H  H17  1  0.39094822  0.01829451  0.38589675  1
  H  H18  1  0.57467241  0.08381035  0.39099633  1
  H  H19  1  0.53772541  0.89347781  0.38561750  1
  H  H20  1  0.05927632  0.60407432  0.20514430  1
  H  H21  1  0.97492427  0.61738914  0.70475710  1
  H  H22  1  0.48091449  0.11819134  0.70526733  1
  H  H23  1  0.47028467  0.11877754  0.20698263  1
  Pb  Pb24  1  0.99830136  0.99967770  0.00691629  1
  Pb  Pb25  1  0.49801838  0.49946363  0.50700733  1
  Pb  Pb26  1  0.00297686  0.99914595  0.50703294  1
  Pb  Pb27  1  0.49944286  0.49879518  0.00697881  1
  C  C28  1  0.50380902  0.00243085  0.23387315  1
  C  C29  1  0.00482054  0.50082810  0.73295684  1
  C  C30  1  0.00288364  0.49783642  0.23310478  1
  C  C31  1  0.50446065  0.99987257  0.73380533  1
  Br  Br32  1  0.00070057  0.00014029  0.24978564  1
  Br  Br33  1  0.50099622  0.49943812  0.74974408  1
  Br  Br34  1  0.99971371  0.00008149  0.74975014  1
  Br  Br35  1  0.49944202  0.50036066  0.24974859  1
  Br  Br36  1  0.22534265  0.72708281  0.00373690  1
  Br  Br37  1  0.72877947  0.22832105  0.50244724  1
  Br  Br38  1  0.26876957  0.22300096  0.00264409  1
  Br  Br39  1  0.77362645  0.72766813  0.50187246  1
  Br  Br40  1  0.77042260  0.27186011  0.00193881  1
  Br  Br41  1  0.27368250  0.77316043  0.50396493  1
  Br  Br42  1  0.72229853  0.76934212  0.00295727  1
  Br  Br43  1  0.22696849  0.27414380  0.50365576  1
  N  N44  1  0.50088817  0.99918767  0.35598362  1
  N  N45  1  0.00091274  0.49954910  0.85500333  1
  N  N46  1  0.99952450  0.49945148  0.35508319  1
  N  N47  1  0.50273542  0.00188570  0.85570949  1
