# generated using pymatgen
data_MgTi2P2O9
_symmetry_space_group_name_H-M   'P 1'
_cell_length_a   6.36497825
_cell_length_b   7.45689326
_cell_length_c   14.33888759
_cell_angle_alpha   89.94820464
_cell_angle_beta   90.10674994
_cell_angle_gamma   90.06911209
_symmetry_Int_Tables_number   1
_chemical_formula_structural   MgTi2P2O9
_chemical_formula_sum   'Mg4 Ti8 P8 O36'
_cell_volume   680.56414414
_cell_formula_units_Z   4
loop_
 _symmetry_equiv_pos_site_id
 _symmetry_equiv_pos_as_xyz
  1  'x, y, z'
loop_
 _atom_site_type_symbol
 _atom_site_label
 _atom_site_symmetry_multiplicity
 _atom_site_fract_x
 _atom_site_fract_y
 _atom_site_fract_z
 _atom_site_occupancy
  Mg  Mg0  1  0.75038674  0.92939337  0.77155281  1
  Mg  Mg1  1  0.75033113  0.57084462  0.27154840  1
  Mg  Mg2  1  0.24966390  0.42913305  0.72854079  1
  Mg  Mg3  1  0.24961509  0.07059069  0.22841338  1
  Ti  Ti4  1  0.74881053  0.35282514  0.88196348  1
  Ti  Ti5  1  0.25124510  0.64690618  0.11796760  1
  Ti  Ti6  1  0.24984294  0.85240518  0.61818392  1
  Ti  Ti7  1  0.75009800  0.14762661  0.38191003  1
  Ti  Ti8  1  0.50009181  0.00000651  -0.00000841  1
  Ti  Ti9  1  0.49972885  0.49974646  0.49999942  1
  Ti  Ti10  1  0.00026985  0.49982656  0.50000213  1
  Ti  Ti11  1  0.99995649  0.99998177  0.00000756  1
  P  P12  1  0.24986386  0.36576458  0.92667775  1
  P  P13  1  0.75015310  0.63408538  0.07323311  1
  P  P14  1  0.74991499  0.86545792  0.57352754  1
  P  P15  1  0.25006759  0.13429651  0.42647521  1
  P  P16  1  0.75010935  0.38102594  0.69510674  1
  P  P17  1  0.74997905  0.11845898  0.19493910  1
  P  P18  1  0.25001737  0.88154356  0.80507310  1
  P  P19  1  0.24990166  0.61891987  0.30494737  1
  O  O20  1  0.04157698  0.60826411  0.36267786  1
  O  O21  1  0.54151699  0.39200163  0.63723914  1
  O  O22  1  0.95767572  0.10943575  0.13720553  1
  O  O23  1  0.45888754  0.89247946  0.86306566  1
  O  O24  1  0.95849859  0.39171505  0.63731711  1
  O  O25  1  0.45840485  0.60800509  0.36276442  1
  O  O26  1  0.04230260  0.89055757  0.86279674  1
  O  O27  1  0.54112774  0.10751421  0.13693734  1
  O  O28  1  0.25022595  0.32321197  0.47304581  1
  O  O29  1  0.74975781  0.67664738  0.52689562  1
  O  O30  1  0.74915092  0.82337075  0.02700717  1
  O  O31  1  0.25083158  0.17658564  0.97299941  1
  O  O32  1  0.75588130  0.12885461  0.94202126  1
  O  O33  1  0.24405787  0.87142993  0.05795325  1
  O  O34  1  0.24993826  0.63188091  0.55690289  1
  O  O35  1  0.75015878  0.36902505  0.44299248  1
  O  O36  1  0.74969376  0.20295793  0.75314042  1
  O  O37  1  0.25030248  0.79711182  0.24682491  1
  O  O38  1  0.25061794  0.70336796  0.74699782  1
  O  O39  1  0.74937013  0.29661337  0.25303774  1
  O  O40  1  0.43635336  0.12011909  0.35754346  1
  O  O41  1  0.93645916  0.87980050  0.64252083  1
  O  O42  1  0.56374162  0.61966516  0.14237473  1
  O  O43  1  0.06324624  0.38042453  0.85778145  1
  O  O44  1  0.56367344  0.87987019  0.64243454  1
  O  O45  1  0.06349499  0.12014951  0.35747180  1
  O  O46  1  0.43622938  0.38026646  0.85764911  1
  O  O47  1  0.93672133  0.61955719  0.14223394  1
  O  O48  1  0.74957208  0.49316546  0.99811415  1
  O  O49  1  0.25027696  0.03367259  0.73146535  1
  O  O50  1  0.24962289  0.46749972  0.23107081  1
  O  O51  1  0.75039941  0.53252044  0.76891755  1
  O  O52  1  0.75000770  0.00729321  0.49811193  1
  O  O53  1  0.25000484  0.99274446  0.50187122  1
  O  O54  1  0.25045150  0.50702644  0.00198741  1
  O  O55  1  0.74973590  0.96634895  0.26856409  1
