# generated using pymatgen
data_MnZnP2O7
_symmetry_space_group_name_H-M   'P 1'
_cell_length_a   6.60710851
_cell_length_b   6.46295987
_cell_length_c   6.81356403
_cell_angle_alpha   66.18537835
_cell_angle_beta   79.06204082
_cell_angle_gamma   80.20609723
_symmetry_Int_Tables_number   1
_chemical_formula_structural   MnZnP2O7
_chemical_formula_sum   'Mn2 Zn2 P4 O14'
_cell_volume   259.92189273
_cell_formula_units_Z   2
loop_
 _symmetry_equiv_pos_site_id
 _symmetry_equiv_pos_as_xyz
  1  'x, y, z'
loop_
 _atom_site_type_symbol
 _atom_site_label
 _atom_site_symmetry_multiplicity
 _atom_site_fract_x
 _atom_site_fract_y
 _atom_site_fract_z
 _atom_site_occupancy
  Mn  Mn0  1  0.67063994  0.10708231  0.76765690  1
  Mn  Mn1  1  0.32936006  0.89291769  0.23234310  1
  Zn  Zn2  1  0.85748002  0.29313626  0.14825496  1
  Zn  Zn3  1  0.14251998  0.70686374  0.85174504  1
  P  P4  1  0.16221429  0.22034197  0.75890413  1
  P  P5  1  0.83778571  0.77965803  0.24109587  1
  P  P6  1  0.61694467  0.63780922  0.69396328  1
  P  P7  1  0.38305533  0.36219078  0.30603672  1
  O  O8  1  0.75288331  0.60836994  0.47640102  1
  O  O9  1  0.24711669  0.39163006  0.52359898  1
  O  O10  1  0.01458327  0.06596129  0.74471086  1
  O  O11  1  0.98541673  0.93403871  0.25528914  1
  O  O12  1  0.60604917  0.26902202  0.36716850  1
  O  O13  1  0.39395083  0.73097798  0.63283150  1
  O  O14  1  0.36892869  0.60783662  0.14153096  1
  O  O15  1  0.63107131  0.39216338  0.85846804  1
  O  O16  1  0.94642110  0.61344372  0.13214592  1
  O  O17  1  0.05357890  0.38655628  0.86785408  1
  O  O18  1  0.65351585  0.92990678  0.13262829  1
  O  O19  1  0.34648415  0.07009322  0.86737171  1
  O  O20  1  0.27336175  0.20348319  0.25942490  1
  O  O21  1  0.72663825  0.79651681  0.74057510  1
