# generated using pymatgen
data_Mg(MnS2)4
_symmetry_space_group_name_H-M   'P 1'
_cell_length_a   6.97798126
_cell_length_b   6.93102351
_cell_length_c   6.93102425
_cell_angle_alpha   60.00000099
_cell_angle_beta   60.22235551
_cell_angle_gamma   60.22235006
_symmetry_Int_Tables_number   1
_chemical_formula_structural   Mg(MnS2)4
_chemical_formula_sum   'Mg1 Mn4 S8'
_cell_volume   237.82694177
_cell_formula_units_Z   1
loop_
 _symmetry_equiv_pos_site_id
 _symmetry_equiv_pos_as_xyz
  1  'x, y, z'
loop_
 _atom_site_type_symbol
 _atom_site_label
 _atom_site_symmetry_multiplicity
 _atom_site_fract_x
 _atom_site_fract_y
 _atom_site_fract_z
 _atom_site_occupancy
  Mg  Mg0  1  0.50000000  0.00000000  0.00000000  1
  Mn  Mn1  1  0.00000000  0.50000000  0.50000000  1
  Mn  Mn2  1  0.50000000  0.50000000  0.00000000  1
  Mn  Mn3  1  0.50000000  0.50000000  0.50000000  1
  Mn  Mn4  1  0.50000000  0.00000000  0.50000000  1
  S  S5  1  0.26360389  0.25602562  0.25602562  1
  S  S6  1  0.26360389  0.25602562  0.72434487  1
  S  S7  1  0.26360389  0.72434487  0.25602562  1
  S  S8  1  0.72155717  0.25948061  0.25948061  1
  S  S9  1  0.27844283  0.74051939  0.74051939  1
  S  S10  1  0.73639611  0.74397438  0.27565513  1
  S  S11  1  0.73639611  0.27565513  0.74397438  1
  S  S12  1  0.73639611  0.74397438  0.74397438  1
