# generated using pymatgen
data_CaCuP2O7
_symmetry_space_group_name_H-M   'P 1'
_cell_length_a   6.48212494
_cell_length_b   6.57429828
_cell_length_c   6.71186601
_cell_angle_alpha   66.33190110
_cell_angle_beta   87.35153788
_cell_angle_gamma   82.55173838
_symmetry_Int_Tables_number   1
_chemical_formula_structural   CaCuP2O7
_chemical_formula_sum   'Ca2 Cu2 P4 O14'
_cell_volume   259.75426201
_cell_formula_units_Z   2
loop_
 _symmetry_equiv_pos_site_id
 _symmetry_equiv_pos_as_xyz
  1  'x, y, z'
loop_
 _atom_site_type_symbol
 _atom_site_label
 _atom_site_symmetry_multiplicity
 _atom_site_fract_x
 _atom_site_fract_y
 _atom_site_fract_z
 _atom_site_occupancy
  Ca  Ca0  1  0.85718685  0.27090606  0.17410415  1
  Ca  Ca1  1  0.14281315  0.72909394  0.82589585  1
  Cu  Cu2  1  0.64795048  0.10054728  0.77519800  1
  Cu  Cu3  1  0.35204952  0.89945272  0.22480200  1
  P  P4  1  0.14328053  0.22869750  0.75162394  1
  P  P5  1  0.85671947  0.77130250  0.24837606  1
  P  P6  1  0.62674564  0.64255349  0.66760007  1
  P  P7  1  0.37325436  0.35744651  0.33239993  1
  O  O8  1  0.77779098  0.60999782  0.47975500  1
  O  O9  1  0.22220902  0.39000218  0.52024500  1
  O  O10  1  0.97353303  0.10054975  0.72047322  1
  O  O11  1  0.02646697  0.89945025  0.27952678  1
  O  O12  1  0.58951804  0.25416612  0.43733947  1
  O  O13  1  0.41048196  0.74583388  0.56266053  1
  O  O14  1  0.37476242  0.59858800  0.16140077  1
  O  O15  1  0.62523758  0.40141200  0.83859823  1
  O  O16  1  0.93207766  0.61606921  0.13744800  1
  O  O17  1  0.06792234  0.38393079  0.86255200  1
  O  O18  1  0.66931049  0.94996836  0.13332058  1
  O  O19  1  0.33068951  0.05003164  0.86667942  1
  O  O20  1  0.27268338  0.20615127  0.25328788  1
  O  O21  1  0.72731662  0.79384873  0.74671212  1
