# generated using pymatgen
data_CaMn2O4
_symmetry_space_group_name_H-M   'P 1'
_cell_length_a   5.92277808
_cell_length_b   5.92277881
_cell_length_c   6.67604832
_cell_angle_alpha   116.33278529
_cell_angle_beta   116.33279006
_cell_angle_gamma   89.99999511
_symmetry_Int_Tables_number   1
_chemical_formula_structural   CaMn2O4
_chemical_formula_sum   'Ca2 Mn4 O8'
_cell_volume   182.37855463
_cell_formula_units_Z   2
loop_
 _symmetry_equiv_pos_site_id
 _symmetry_equiv_pos_as_xyz
  1  'x, y, z'
loop_
 _atom_site_type_symbol
 _atom_site_label
 _atom_site_symmetry_multiplicity
 _atom_site_fract_x
 _atom_site_fract_y
 _atom_site_fract_z
 _atom_site_occupancy
  Ca  Ca0  1  0.37500000  0.62500000  0.75000000  1
  Ca  Ca1  1  0.62500000  0.37500000  0.25000000  1
  Mn  Mn2  1  0.00000000  0.00000000  0.50000000  1
  Mn  Mn3  1  0.00000000  0.50000000  0.00000000  1
  Mn  Mn4  1  0.50000000  0.00000000  0.50000000  1
  Mn  Mn5  1  0.00000000  0.00000000  0.00000000  1
  O  O6  1  0.76426973  0.79778906  0.52853945  1
  O  O7  1  0.76925061  0.23573027  0.97146055  1
  O  O8  1  0.20221094  0.23573027  0.97146055  1
  O  O9  1  0.23573027  0.20221094  0.47146055  1
  O  O10  1  0.23573027  0.76925061  0.47146055  1
  O  O11  1  0.23074939  0.76426973  0.02853945  1
  O  O12  1  0.76426973  0.23074939  0.52853945  1
  O  O13  1  0.79778906  0.76426973  0.02853945  1
