# generated using pymatgen
data_CaAgF5
_symmetry_space_group_name_H-M   'P 1'
_cell_length_a   5.71095786
_cell_length_b   8.21944722
_cell_length_c   10.44572458
_cell_angle_alpha   90.00000000
_cell_angle_beta   90.00000000
_cell_angle_gamma   110.62660460
_symmetry_Int_Tables_number   1
_chemical_formula_structural   CaAgF5
_chemical_formula_sum   'Ca4 Ag4 F20'
_cell_volume   458.89968200
_cell_formula_units_Z   4
loop_
 _symmetry_equiv_pos_site_id
 _symmetry_equiv_pos_as_xyz
  1  'x, y, z'
loop_
 _atom_site_type_symbol
 _atom_site_label
 _atom_site_symmetry_multiplicity
 _atom_site_fract_x
 _atom_site_fract_y
 _atom_site_fract_z
 _atom_site_occupancy
  Ca  Ca0  1  0.46915769  0.74389575  0.01982262  1
  Ca  Ca1  1  0.53084231  0.75610425  0.51982262  1
  Ca  Ca2  1  0.53084231  0.25610425  0.98017738  1
  Ca  Ca3  1  0.46915769  0.24389575  0.48017738  1
  Ag  Ag4  1  0.88567308  0.59764133  0.75341857  1
  Ag  Ag5  1  0.11432692  0.90235867  0.25341857  1
  Ag  Ag6  1  0.11432692  0.40235867  0.24658143  1
  Ag  Ag7  1  0.88567308  0.09764133  0.74658143  1
  F  F8  1  0.59693676  0.54927144  0.89051258  1
  F  F9  1  0.40306324  0.95072856  0.39051258  1
  F  F10  1  0.40306324  0.45072856  0.10948742  1
  F  F11  1  0.59693676  0.04927144  0.60948742  1
  F  F12  1  0.62977798  0.50582282  0.60401982  1
  F  F13  1  0.37022202  0.99417718  0.10401982  1
  F  F14  1  0.37022202  0.49417718  0.39598018  1
  F  F15  1  0.62977798  0.00582282  0.89598018  1
  F  F16  1  0.87162732  0.80728868  0.40182099  1
  F  F17  1  0.12837268  0.69271132  0.90182099  1
  F  F18  1  0.12837268  0.19271132  0.59817901  1
  F  F19  1  0.87162732  0.30728868  0.09817901  1
  F  F20  1  0.81693226  0.85800556  0.13084883  1
  F  F21  1  0.18306774  0.64199444  0.63084883  1
  F  F22  1  0.18306774  0.14199444  0.86915117  1
  F  F23  1  0.81693226  0.35800556  0.36915117  1
  F  F24  1  0.84768199  0.83734366  0.69567565  1
  F  F25  1  0.15231801  0.66265634  0.19567565  1
  F  F26  1  0.15231801  0.16265634  0.30432435  1
  F  F27  1  0.84768199  0.33734366  0.80432435  1
