# generated using pymatgen
data_AlSnF5
_symmetry_space_group_name_H-M   'P 1'
_cell_length_a   3.80346911
_cell_length_b   5.68309899
_cell_length_c   5.68309866
_cell_angle_alpha   73.71632243
_cell_angle_beta   70.44997591
_cell_angle_gamma   70.44996352
_symmetry_Int_Tables_number   1
_chemical_formula_structural   AlSnF5
_chemical_formula_sum   'Al1 Sn1 F5'
_cell_volume   107.10756169
_cell_formula_units_Z   1
loop_
 _symmetry_equiv_pos_site_id
 _symmetry_equiv_pos_as_xyz
  1  'x, y, z'
loop_
 _atom_site_type_symbol
 _atom_site_label
 _atom_site_symmetry_multiplicity
 _atom_site_fract_x
 _atom_site_fract_y
 _atom_site_fract_z
 _atom_site_occupancy
  Al  Al0  1  0.50000000  0.50000000  0.50000000  1
  Sn  Sn1  1  0.00000000  0.00000000  0.00000000  1
  F  F2  1  0.50000000  0.77163705  0.22836295  1
  F  F3  1  0.50000000  0.22836295  0.77163705  1
  F  F4  1  0.71697250  0.28302750  0.28302750  1
  F  F5  1  0.28302750  0.71697250  0.71697250  1
  F  F6  1  0.00000000  0.50000000  0.50000000  1
