# generated using pymatgen
data_CaMn2O4
_symmetry_space_group_name_H-M   'P 1'
_cell_length_a   3.14068130
_cell_length_b   9.22177624
_cell_length_c   10.70463789
_cell_angle_alpha   89.99737096
_cell_angle_beta   90.00085477
_cell_angle_gamma   90.00028538
_symmetry_Int_Tables_number   1
_chemical_formula_structural   CaMn2O4
_chemical_formula_sum   'Ca4 Mn8 O16'
_cell_volume   310.03478948
_cell_formula_units_Z   4
loop_
 _symmetry_equiv_pos_site_id
 _symmetry_equiv_pos_as_xyz
  1  'x, y, z'
loop_
 _atom_site_type_symbol
 _atom_site_label
 _atom_site_symmetry_multiplicity
 _atom_site_fract_x
 _atom_site_fract_y
 _atom_site_fract_z
 _atom_site_occupancy
  Ca  Ca0  1  0.75000259  0.24331000  0.34314917  1
  Ca  Ca1  1  0.25000105  0.75671411  0.65688453  1
  Ca  Ca2  1  0.74999868  0.74330128  0.15683695  1
  Ca  Ca3  1  0.24999602  0.25670722  0.84312027  1
  Mn  Mn4  1  0.25000071  0.41946889  0.10474291  1
  Mn  Mn5  1  0.75000615  0.08055674  0.60471647  1
  Mn  Mn6  1  0.24999418  0.91945730  0.39526026  1
  Mn  Mn7  1  0.75000528  0.58047662  0.89527057  1
  Mn  Mn8  1  0.74999029  0.56391905  0.38899735  1
  Mn  Mn9  1  0.25001136  0.43609403  0.61099585  1
  Mn  Mn10  1  0.74999051  0.06393780  0.11102352  1
  Mn  Mn11  1  0.24999367  0.93609516  0.88899826  1
  O  O12  1  0.25000023  0.91278836  0.07013862  1
  O  O13  1  0.74999699  0.08722692  0.92987469  1
  O  O14  1  0.25000558  0.41278610  0.42988563  1
  O  O15  1  0.75000254  0.58726025  0.57011396  1
  O  O16  1  0.24999937  0.01903069  0.72089009  1
  O  O17  1  0.74999360  0.98100279  0.27912787  1
  O  O18  1  0.25001503  0.51889485  0.77910846  1
  O  O19  1  0.74999688  0.48101926  0.22090315  1
  O  O20  1  0.24997954  0.61320306  0.02909480  1
  O  O21  1  0.75000700  0.38672734  0.97092235  1
  O  O22  1  0.24999893  0.11321883  0.47088383  1
  O  O23  1  0.74999835  0.88680818  0.52910180  1
  O  O24  1  0.75000327  0.78256316  0.83556134  1
  O  O25  1  0.24999852  0.21739911  0.16445984  1
  O  O26  1  0.25000085  0.71735547  0.33557916  1
  O  O27  1  0.74999883  0.28267647  0.66435829  1
