# generated using pymatgen
data_MnZnF5
_symmetry_space_group_name_H-M   'P 1'
_cell_length_a   5.16530912
_cell_length_b   7.84872319
_cell_length_c   9.65681403
_cell_angle_alpha   90.00000000
_cell_angle_beta   90.00000000
_cell_angle_gamma   111.51230612
_symmetry_Int_Tables_number   1
_chemical_formula_structural   MnZnF5
_chemical_formula_sum   'Mn4 Zn4 F20'
_cell_volume   364.22549686
_cell_formula_units_Z   4
loop_
 _symmetry_equiv_pos_site_id
 _symmetry_equiv_pos_as_xyz
  1  'x, y, z'
loop_
 _atom_site_type_symbol
 _atom_site_label
 _atom_site_symmetry_multiplicity
 _atom_site_fract_x
 _atom_site_fract_y
 _atom_site_fract_z
 _atom_site_occupancy
  Mn  Mn0  1  0.88907128  0.60206094  0.75223061  1
  Mn  Mn1  1  0.11092872  0.89793906  0.25223061  1
  Mn  Mn2  1  0.11092872  0.39793906  0.24776939  1
  Mn  Mn3  1  0.88907128  0.10206094  0.74776939  1
  Zn  Zn4  1  0.47528657  0.74675033  0.00946451  1
  Zn  Zn5  1  0.52471343  0.75324967  0.50946451  1
  Zn  Zn6  1  0.52471343  0.25324967  0.99053549  1
  Zn  Zn7  1  0.47528657  0.24675033  0.49053549  1
  F  F8  1  0.59139281  0.58163557  0.88154668  1
  F  F9  1  0.40860719  0.91836443  0.38154668  1
  F  F10  1  0.40860719  0.41836443  0.11845332  1
  F  F11  1  0.59139281  0.08163557  0.61845332  1
  F  F12  1  0.64198706  0.48446879  0.60838239  1
  F  F13  1  0.35801294  0.01553121  0.10838239  1
  F  F14  1  0.35801294  0.51553121  0.39161761  1
  F  F15  1  0.64198706  0.98446879  0.89161761  1
  F  F16  1  0.86580122  0.78949891  0.39493641  1
  F  F17  1  0.13419878  0.71050109  0.89493641  1
  F  F18  1  0.13419878  0.21050109  0.60506359  1
  F  F19  1  0.86580122  0.28949891  0.10506359  1
  F  F20  1  0.80367051  0.85368121  0.13194359  1
  F  F21  1  0.19632949  0.64631879  0.63194359  1
  F  F22  1  0.19632949  0.14631879  0.86805641  1
  F  F23  1  0.80367051  0.35368121  0.36805641  1
  F  F24  1  0.80917558  0.83341447  0.66829158  1
  F  F25  1  0.19082442  0.66658553  0.16829158  1
  F  F26  1  0.19082442  0.16658553  0.33170842  1
  F  F27  1  0.80917558  0.33341447  0.83170842  1
