# generated using pymatgen
data_ZnFeF5
_symmetry_space_group_name_H-M   'P 1'
_cell_length_a   5.24291498
_cell_length_b   7.57700395
_cell_length_c   9.88342440
_cell_angle_alpha   90.00000000
_cell_angle_beta   90.00000000
_cell_angle_gamma   110.15231356
_symmetry_Int_Tables_number   1
_chemical_formula_structural   ZnFeF5
_chemical_formula_sum   'Zn4 Fe4 F20'
_cell_volume   368.58838105
_cell_formula_units_Z   4
loop_
 _symmetry_equiv_pos_site_id
 _symmetry_equiv_pos_as_xyz
  1  'x, y, z'
loop_
 _atom_site_type_symbol
 _atom_site_label
 _atom_site_symmetry_multiplicity
 _atom_site_fract_x
 _atom_site_fract_y
 _atom_site_fract_z
 _atom_site_occupancy
  Zn  Zn0  1  0.48942961  0.75337359  0.00419882  1
  Zn  Zn1  1  0.51057039  0.74662641  0.50419882  1
  Zn  Zn2  1  0.51057039  0.24662641  0.99580118  1
  Zn  Zn3  1  0.48942961  0.25337359  0.49580118  1
  Fe  Fe4  1  0.90421454  0.60386438  0.75464036  1
  Fe  Fe5  1  0.09578546  0.89613562  0.25464036  1
  Fe  Fe6  1  0.09578546  0.39613562  0.24535964  1
  Fe  Fe7  1  0.90421454  0.10386438  0.74535964  1
  F  F8  1  0.61149763  0.57636126  0.88580916  1
  F  F9  1  0.38850237  0.92363874  0.38580916  1
  F  F10  1  0.38850237  0.42363874  0.11419084  1
  F  F11  1  0.61149763  0.07636126  0.61419084  1
  F  F12  1  0.65148012  0.49546497  0.60757740  1
  F  F13  1  0.34851988  0.00453503  0.10757740  1
  F  F14  1  0.34851988  0.50453503  0.39242260  1
  F  F15  1  0.65148012  0.99546497  0.89242260  1
  F  F16  1  0.85326178  0.80535850  0.40497732  1
  F  F17  1  0.14673822  0.69464150  0.90497732  1
  F  F18  1  0.14673822  0.19464150  0.59502268  1
  F  F19  1  0.85326178  0.30535850  0.09502268  1
  F  F20  1  0.78366778  0.84201190  0.13685675  1
  F  F21  1  0.21633222  0.65798810  0.63685675  1
  F  F22  1  0.21633222  0.15798810  0.86314325  1
  F  F23  1  0.78366778  0.34201190  0.36314325  1
  F  F24  1  0.84925293  0.83930514  0.69171166  1
  F  F25  1  0.15074707  0.66069486  0.19171166  1
  F  F26  1  0.15074707  0.16069486  0.30828834  1
  F  F27  1  0.84925293  0.33930514  0.80828834  1
