# generated using pymatgen
data_ZnCrF5
_symmetry_space_group_name_H-M   'P 1'
_cell_length_a   5.33485197
_cell_length_b   5.33485157
_cell_length_c   7.51344297
_cell_angle_alpha   98.22080504
_cell_angle_beta   111.13546025
_cell_angle_gamma   106.90573189
_symmetry_Int_Tables_number   1
_chemical_formula_structural   ZnCrF5
_chemical_formula_sum   'Zn2 Cr2 F10'
_cell_volume   183.32631976
_cell_formula_units_Z   2
loop_
 _symmetry_equiv_pos_site_id
 _symmetry_equiv_pos_as_xyz
  1  'x, y, z'
loop_
 _atom_site_type_symbol
 _atom_site_label
 _atom_site_symmetry_multiplicity
 _atom_site_fract_x
 _atom_site_fract_y
 _atom_site_fract_z
 _atom_site_occupancy
  Zn  Zn0  1  0.26752893  0.51752893  0.75000000  1
  Zn  Zn1  1  0.73247107  0.48247107  0.25000000  1
  Cr  Cr2  1  0.00000000  0.00000000  0.00000000  1
  Cr  Cr3  1  0.50000000  0.00000000  0.50000000  1
  F  F4  1  0.34559042  0.09559042  0.25000000  1
  F  F5  1  0.65440958  0.90440958  0.75000000  1
  F  F6  1  0.58955467  0.72024528  0.36924596  1
  F  F7  1  0.85099832  0.22030872  0.13075404  1
  F  F8  1  0.75022610  0.68566794  0.03740229  1
  F  F9  1  0.14826566  0.71282381  0.46259771  1
  F  F10  1  0.24977390  0.31433206  0.96259771  1
  F  F11  1  0.85173434  0.28717619  0.53740229  1
  F  F12  1  0.14900168  0.77969128  0.86924596  1
  F  F13  1  0.41044533  0.27975472  0.63075404  1
