# generated using pymatgen
data_Mg15Al
_symmetry_space_group_name_H-M   'P 1'
_cell_length_a   6.36536415
_cell_length_b   6.36536363
_cell_length_c   10.24840323
_cell_angle_alpha   90.00000000
_cell_angle_beta   90.00000000
_cell_angle_gamma   120.00000265
_symmetry_Int_Tables_number   1
_chemical_formula_structural   Mg15Al
_chemical_formula_sum   'Mg15 Al1'
_cell_volume   359.61127257
_cell_formula_units_Z   1
loop_
 _symmetry_equiv_pos_site_id
 _symmetry_equiv_pos_as_xyz
  1  'x, y, z'
loop_
 _atom_site_type_symbol
 _atom_site_label
 _atom_site_symmetry_multiplicity
 _atom_site_fract_x
 _atom_site_fract_y
 _atom_site_fract_z
 _atom_site_occupancy
  Mg  Mg0  1  0.16666700  0.33333300  0.62500000  1
  Mg  Mg1  1  0.16545930  0.83272915  0.12500000  1
  Mg  Mg2  1  0.16707347  0.83353624  0.62500000  1
  Mg  Mg3  1  0.66727085  0.33454070  0.12500000  1
  Mg  Mg4  1  0.66646376  0.33292653  0.62500000  1
  Mg  Mg5  1  0.66727085  0.83272915  0.12500000  1
  Mg  Mg6  1  0.66646376  0.83353624  0.62500000  1
  Mg  Mg7  1  0.33232449  0.16767551  0.37260383  1
  Mg  Mg8  1  0.33232449  0.16767551  0.87739617  1
  Mg  Mg9  1  0.33232449  0.66464997  0.37260383  1
  Mg  Mg10  1  0.33232449  0.66464997  0.87739617  1
  Mg  Mg11  1  0.83535003  0.16767551  0.37260383  1
  Mg  Mg12  1  0.83535003  0.16767551  0.87739617  1
  Mg  Mg13  1  0.83333300  0.66666700  0.37498697  1
  Mg  Mg14  1  0.83333300  0.66666700  0.87501303  1
  Al  Al15  1  0.16666700  0.33333300  0.12500000  1
