# generated using pymatgen
data_LaTiZnCrO6
_symmetry_space_group_name_H-M   'P 1'
_cell_length_a   5.37162411
_cell_length_b   5.56468583
_cell_length_c   7.72478800
_cell_angle_alpha   90.00000000
_cell_angle_beta   90.08879607
_cell_angle_gamma   90.00000000
_symmetry_Int_Tables_number   1
_chemical_formula_structural   LaTiZnCrO6
_chemical_formula_sum   'La2 Ti2 Zn2 Cr2 O12'
_cell_volume   230.90445495
_cell_formula_units_Z   2
loop_
 _symmetry_equiv_pos_site_id
 _symmetry_equiv_pos_as_xyz
  1  'x, y, z'
loop_
 _atom_site_type_symbol
 _atom_site_label
 _atom_site_symmetry_multiplicity
 _atom_site_fract_x
 _atom_site_fract_y
 _atom_site_fract_z
 _atom_site_occupancy
  La  La0  1  0.00978331  0.95457294  0.74830703  1
  La  La1  1  0.50978331  0.54542706  0.24830703  1
  Ti  Ti2  1  0.50035679  0.02429734  0.99571484  1
  Ti  Ti3  1  0.00035679  0.47570266  0.49571484  1
  Zn  Zn4  1  0.49736790  0.51779531  0.74775345  1
  Zn  Zn5  1  0.99736790  0.98220469  0.24775345  1
  Cr  Cr6  1  0.49989951  0.00448355  0.49916618  1
  Cr  Cr7  1  -0.00010049  0.49551645  0.99916618  1
  O  O8  1  0.07606176  0.47503883  0.25427407  1
  O  O9  1  0.21472194  0.21062089  0.95611473  1
  O  O10  1  0.21381213  0.22153478  0.55117677  1
  O  O11  1  0.30981383  0.69413433  0.94355349  1
  O  O12  1  0.30603985  0.69522345  0.55517126  1
  O  O13  1  0.37214098  0.97941596  0.24876617  1
  O  O14  1  0.57606176  0.02496117  0.75427407  1
  O  O15  1  0.71472194  0.28937911  0.45611473  1
  O  O16  1  0.71381213  0.27846522  0.05117677  1
  O  O17  1  0.80981383  0.80586567  0.44355349  1
  O  O18  1  0.80603985  0.80477655  0.05517126  1
  O  O19  1  0.87214098  0.52058404  0.74876617  1
