# generated using pymatgen
data_LiMg6Cd
_symmetry_space_group_name_H-M   'P 1'
_cell_length_a   6.28659732
_cell_length_b   6.29807667
_cell_length_c   5.12292257
_cell_angle_alpha   90.00000000
_cell_angle_beta   90.00000000
_cell_angle_gamma   120.06042739
_symmetry_Int_Tables_number   1
_chemical_formula_structural   LiMg6Cd
_chemical_formula_sum   'Li1 Mg6 Cd1'
_cell_volume   175.55259060
_cell_formula_units_Z   1
loop_
 _symmetry_equiv_pos_site_id
 _symmetry_equiv_pos_as_xyz
  1  'x, y, z'
loop_
 _atom_site_type_symbol
 _atom_site_label
 _atom_site_symmetry_multiplicity
 _atom_site_fract_x
 _atom_site_fract_y
 _atom_site_fract_z
 _atom_site_occupancy
  Li  Li0  1  0.16592701  0.33296300  0.25000000  1
  Mg  Mg1  1  0.66723065  0.33266289  0.25000000  1
  Mg  Mg2  1  0.66723065  0.83456676  0.25000000  1
  Mg  Mg3  1  0.33146190  0.16724230  0.75000000  1
  Mg  Mg4  1  0.33146190  0.66422059  0.75000000  1
  Mg  Mg5  1  0.83584158  0.16792129  0.75000000  1
  Mg  Mg6  1  0.83366024  0.66683062  0.75000000  1
  Cd  Cd7  1  0.16718609  0.83359254  0.25000000  1
