# generated using pymatgen
data_CrAgTe2
_symmetry_space_group_name_H-M   'P 1'
_cell_length_a   4.10900713
_cell_length_b   4.10900722
_cell_length_c   7.64711859
_cell_angle_alpha   74.41523194
_cell_angle_beta   74.41523204
_cell_angle_gamma   59.99999926
_symmetry_Int_Tables_number   1
_chemical_formula_structural   CrAgTe2
_chemical_formula_sum   'Cr1 Ag1 Te2'
_cell_volume   106.29889316
_cell_formula_units_Z   1
loop_
 _symmetry_equiv_pos_site_id
 _symmetry_equiv_pos_as_xyz
  1  'x, y, z'
loop_
 _atom_site_type_symbol
 _atom_site_label
 _atom_site_symmetry_multiplicity
 _atom_site_fract_x
 _atom_site_fract_y
 _atom_site_fract_z
 _atom_site_occupancy
  Cr  Cr0  1  0.99875166  0.99875166  0.00374502  1
  Ag  Ag1  1  0.14367489  0.14367489  0.56897533  1
  Te  Te2  1  0.26832862  0.26832862  0.19501415  1
  Te  Te3  1  0.73324483  0.73324483  0.80026550  1
