# generated using pymatgen
data_CsCr5S8
_symmetry_space_group_name_H-M   'P 1'
_cell_length_a   3.51270471
_cell_length_b   8.91679275
_cell_length_c   9.35077954
_cell_angle_alpha   102.75876297
_cell_angle_beta   100.82614398
_cell_angle_gamma   90.00000000
_symmetry_Int_Tables_number   1
_chemical_formula_structural   CsCr5S8
_chemical_formula_sum   'Cs1 Cr5 S8'
_cell_volume   280.30656590
_cell_formula_units_Z   1
loop_
 _symmetry_equiv_pos_site_id
 _symmetry_equiv_pos_as_xyz
  1  'x, y, z'
loop_
 _atom_site_type_symbol
 _atom_site_label
 _atom_site_symmetry_multiplicity
 _atom_site_fract_x
 _atom_site_fract_y
 _atom_site_fract_z
 _atom_site_occupancy
  Cs  Cs0  1  0.00000000  0.50000000  0.00000000  1
  Cr  Cr1  1  -0.00000000  -0.00000000  0.00000000  1
  Cr  Cr2  1  0.33846244  0.01287466  0.67692488  1
  Cr  Cr3  1  0.66153756  0.98712534  0.32307512  1
  Cr  Cr4  1  0.29491507  0.66544018  0.58983015  1
  Cr  Cr5  1  0.70508493  0.33455982  0.41016985  1
  S  S6  1  0.57477179  0.15241088  0.14954359  1
  S  S7  1  0.42522821  0.84758912  0.85045641  1
  S  S8  1  0.09378736  0.85222720  0.18757471  1
  S  S9  1  0.90621264  0.14777280  0.81242529  1
  S  S10  1  0.17787567  0.48880770  0.35575135  1
  S  S11  1  0.82212433  0.51119230  0.64424865  1
  S  S12  1  0.23866081  0.15712816  0.47732162  1
  S  S13  1  0.76133919  0.84287184  0.52267838  1
