# generated using pymatgen
data_TeMo2Se2S
_symmetry_space_group_name_H-M   'P 1'
_cell_length_a   3.34470982
_cell_length_b   3.34471254
_cell_length_c   38.04456794
_cell_angle_alpha   90.00078197
_cell_angle_beta   89.99999584
_cell_angle_gamma   119.99995807
_symmetry_Int_Tables_number   1
_chemical_formula_structural   TeMo2Se2S
_chemical_formula_sum   'Te2 Mo4 Se4 S2'
_cell_volume   368.58759515
_cell_formula_units_Z   2
loop_
 _symmetry_equiv_pos_site_id
 _symmetry_equiv_pos_as_xyz
  1  'x, y, z'
loop_
 _atom_site_type_symbol
 _atom_site_label
 _atom_site_symmetry_multiplicity
 _atom_site_fract_x
 _atom_site_fract_y
 _atom_site_fract_z
 _atom_site_occupancy
  Te  Te0  1  0.33335668  0.66671390  0.33158105  1
  Te  Te1  1  0.33335063  0.66670193  0.23191841  1
  Mo  Mo2  1  0.33331380  0.66662692  0.09392845  1
  Mo  Mo3  1  0.33330690  0.66661293  0.46971070  1
  Mo  Mo4  1  0.66669067  0.33338195  0.28179096  1
  Mo  Mo5  1  0.66668847  0.33337786  0.65752787  1
  Se  Se6  1  0.33336033  0.66672100  0.70133052  1
  Se  Se7  1  0.66664498  0.33328957  0.42589695  1
  Se  Se8  1  0.66664655  0.33329275  0.51346321  1
  Se  Se9  1  0.33334903  0.66669872  0.61374198  1
  S  S10  1  0.66664544  0.33329014  0.05400156  1
  S  S11  1  0.66664650  0.33329234  0.13385635  1
